REMARK SMILES Cc1c(NS(=O)(=O)c2ncn(C)c2Cl)cccc1C(=O)NCCCNC(=O)c1ccc(-c2c3nc(c(-c4cccc(S(=O)(=O)[O-])c4F)c4ccc([nH]4)c(-c4cccc(S(=O)(=O)[O-])c4F)c4nc(c(-c5cccc(S(=O)(=O)[O-])c5F)c5ccc2[nH]5)C=C4)C=C3)cc1
REMARK SMILES IDX 23 1 22 2 21 3 19 4 20 5 18 7 1 8 2 9 3 10 15 11 17 12 16 13
REMARK SMILES IDX 4 14 5 16 6 17 7 18 8 19 9 20 13 21 10 22 11 23 14 24 12 25
REMARK SMILES IDX 24 26 25 27 26 28 27 30 28 31 29 32 90 33 30 34 89 35 31 36
REMARK SMILES IDX 32 37 33 38 83 39 34 40 88 41 82 42 84 43 35 44 87 45 81 46
REMARK SMILES IDX 80 47 36 49 68 50 48 51 67 52 49 53 52 54 66 55 85 56 50 57
REMARK SMILES IDX 51 58 65 60 86 61 53 62 37 63 38 64 46 65 39 66 41 67 47 68
REMARK SMILES IDX 40 69 42 70 43 71 44 72 45 73 69 74 70 75 78 76 71 77 73 78
REMARK SMILES IDX 79 79 72 80 74 81 75 82 76 83 77 84 54 85 55 86 63 87 56 88
REMARK SMILES IDX 58 89 64 90 57 91 59 92 60 93 61 94 62 95
REMARK H PARENT 21 6 4 15 25 29 84 48 52 59
REMARK Flexibility Score: inf
ROOT
ATOM      1  C   UNL     1       4.284   0.972  -0.558  1.00  0.00     0.042 C 
ENDROOT
BRANCH   1   2
ATOM      2  C   UNL     1       3.523   1.416   0.683  1.00  0.00     0.118 C 
BRANCH   2   3
ATOM      3  N   UNL     1       2.427   2.291   0.330  1.00  0.00    -0.352 N 
ATOM      4  C   UNL     1       1.128   2.131  -0.066  1.00  0.00     0.251 C 
ATOM      5  O   UNL     1       0.548   3.200  -0.299  1.00  0.00    -0.269 OA
ATOM      6  H   UNL     1       2.680   3.241   0.389  1.00  0.00     0.163 HD
BRANCH   4   7
ATOM      7  C   UNL     1       0.314   0.856  -0.190  1.00  0.00     0.044 A 
ATOM      8  C   UNL     1       2.045  -0.900  -0.893  1.00  0.00     0.047 C 
ATOM      9  C   UNL     1       0.689  -0.498  -0.419  1.00  0.00    -0.014 A 
ATOM     10  C   UNL     1      -0.285  -1.530  -0.438  1.00  0.00     0.053 A 
ATOM     11  C   UNL     1      -1.596  -1.157  -0.694  1.00  0.00     0.027 A 
ATOM     12  C   UNL     1      -1.072   1.131  -0.218  1.00  0.00     0.014 A 
ATOM     13  C   UNL     1      -2.007   0.158  -0.546  1.00  0.00     0.003 A 
BRANCH  10  14
ATOM     14  N   UNL     1       0.124  -2.917  -0.544  1.00  0.00    -0.278 N 
ATOM     15  H   UNL     1       0.852  -3.149  -1.165  1.00  0.00     0.180 HD
BRANCH  14  16
ATOM     16  S   UNL     1      -0.606  -4.162   0.367  1.00  0.00     0.282 S 
ATOM     17  O   UNL     1      -0.306  -5.398  -0.359  1.00  0.00    -0.199 OA
ATOM     18  O   UNL     1      -0.191  -4.013   1.727  1.00  0.00    -0.199 OA
BRANCH  16  19
ATOM     19  C   UNL     1      -2.334  -4.053   0.370  1.00  0.00     0.213 A 
ATOM     20  N   UNL     1      -3.153  -4.679  -0.563  1.00  0.00    -0.222 NA
ATOM     21  C   UNL     1      -3.081  -3.186   1.136  1.00  0.00     0.149 A 
ATOM     22  C   UNL     1      -4.329  -4.111  -0.425  1.00  0.00     0.202 A 
ATOM     23  N   UNL     1      -4.288  -3.098   0.499  1.00  0.00    -0.324 N 
ATOM     24  Cl  UNL     1      -2.687  -2.141   2.420  1.00  0.00    -0.061 Cl
ATOM     25  C   UNL     1      -5.199  -1.979   0.480  1.00  0.00     0.152 C 
ENDBRANCH  16  19
ENDBRANCH  14  16
ENDBRANCH  10  14
ENDBRANCH   4   7
ENDBRANCH   2   3
ENDBRANCH   1   2
BRANCH   1  26
ATOM     26  C   UNL     1       5.581   1.676  -0.885  1.00  0.00     0.118 C 
BRANCH  26  27
ATOM     27  N   UNL     1       6.650   0.685  -1.060  1.00  0.00    -0.352 N 
ATOM     28  C   UNL     1       7.700   0.653  -1.960  1.00  0.00     0.251 C 
ATOM     29  H   UNL     1       6.613  -0.078  -0.440  1.00  0.00     0.163 HD
ATOM     30  O   UNL     1       8.445  -0.316  -2.028  1.00  0.00    -0.269 OA
BRANCH  28  31
ATOM     31  C   UNL     1       7.946   1.877  -2.743  1.00  0.00     0.039 A 
ATOM     32  C   UNL     1       8.908   2.725  -2.193  1.00  0.00     0.014 A 
ATOM     33  C   UNL     1       6.903   2.363  -3.527  1.00  0.00     0.014 A 
ATOM     34  C   UNL     1       8.629   4.080  -2.121  1.00  0.00     0.010 A 
ATOM     35  C   UNL     1       6.597   3.705  -3.402  1.00  0.00     0.010 A 
ATOM     36  C   UNL     1       7.400   4.527  -2.599  1.00  0.00    -0.014 A 
BRANCH  36  37
ATOM     37  C   UNL     1       6.929   5.885  -2.404  1.00  0.00     0.031 A 
ATOM     38  C   UNL     1       7.406   6.880  -3.380  1.00  0.00     0.074 A 
ATOM     39  C   UNL     1       6.075   6.232  -1.412  1.00  0.00     0.049 A 
ATOM     40  N   UNL     1       7.423   8.149  -3.178  1.00  0.00    -0.248 NA
ATOM     41  C   UNL     1       7.989   6.482  -4.657  1.00  0.00     0.031 C 
ATOM     42  C   UNL     1       5.340   7.489  -1.306  1.00  0.00     0.029 A 
ATOM     43  N   UNL     1       5.825   5.607  -0.183  1.00  0.00    -0.354 N 
ATOM     44  C   UNL     1       7.729   8.745  -4.382  1.00  0.00     0.074 A 
ATOM     45  C   UNL     1       8.205   7.672  -5.216  1.00  0.00     0.031 C 
ATOM     46  C   UNL     1       4.974   7.677  -0.029  1.00  0.00     0.029 A 
ATOM     47  C   UNL     1       5.636   6.649   0.752  1.00  0.00     0.049 A 
ATOM     48  H   UNL     1       5.789   4.639  -0.008  1.00  0.00     0.167 HD
ATOM     49  C   UNL     1       7.374  10.047  -4.565  1.00  0.00     0.034 A 
ATOM     50  C   UNL     1       6.435   6.880   1.841  1.00  0.00     0.034 A 
ATOM     51  C   UNL     1       6.900  10.636  -3.295  1.00  0.00     0.049 A 
ATOM     52  C   UNL     1       7.045   8.283   1.867  1.00  0.00     0.074 A 
ATOM     53  C   UNL     1       5.646  10.889  -2.760  1.00  0.00     0.029 A 
ATOM     54  N   UNL     1       7.792  10.753  -2.235  1.00  0.00    -0.354 N 
ATOM     55  N   UNL     1       6.839   9.205   0.967  1.00  0.00    -0.248 NA
ATOM     56  C   UNL     1       8.056   8.687   2.844  1.00  0.00     0.031 C 
ATOM     57  C   UNL     1       5.796  11.129  -1.360  1.00  0.00     0.029 A 
ATOM     58  C   UNL     1       7.142  11.061  -1.046  1.00  0.00     0.049 A 
ATOM     59  H   UNL     1       8.766  10.633  -2.317  1.00  0.00     0.167 HD
ATOM     60  C   UNL     1       7.778  10.202   1.101  1.00  0.00     0.074 A 
ATOM     61  C   UNL     1       8.510   9.827   2.301  1.00  0.00     0.031 C 
ATOM     62  C   UNL     1       7.934  11.206   0.176  1.00  0.00     0.034 A 
BRANCH  49  63
ATOM     63  C   UNL     1       7.162  10.702  -5.928  1.00  0.00     0.023 A 
ATOM     64  C   UNL     1       6.383  11.880  -5.957  1.00  0.00     0.012 A 
ATOM     65  C   UNL     1       7.579  10.221  -7.195  1.00  0.00     0.148 A 
ATOM     66  C   UNL     1       5.963  12.481  -7.151  1.00  0.00     0.002 A 
ATOM     67  C   UNL     1       7.122  10.788  -8.390  1.00  0.00     0.091 A 
ATOM     68  F   UNL     1       8.483   9.248  -7.281  1.00  0.00    -0.205 F 
ATOM     69  C   UNL     1       6.307  11.918  -8.370  1.00  0.00     0.022 A 
BRANCH  67  70
ATOM     70  S   UNL     1       7.498  10.080 -10.009  1.00  0.00     0.127 S 
ATOM     71  O   UNL     1       6.161   9.875 -10.571  1.00  0.00    -0.237 OA
ATOM     72  O   UNL     1       8.267  11.147 -10.646  1.00  0.00    -0.237 OA
ATOM     73  O   UNL     1       8.235   8.847  -9.761  1.00  0.00    -0.744 OA
ENDBRANCH  67  70
ENDBRANCH  49  63
BRANCH  50  74
ATOM     74  C   UNL     1       7.148   5.655   2.321  1.00  0.00     0.023 A 
ATOM     75  C   UNL     1       6.353   4.539   2.669  1.00  0.00     0.012 A 
ATOM     76  C   UNL     1       8.500   5.449   2.008  1.00  0.00     0.148 A 
ATOM     77  C   UNL     1       6.824   3.245   2.441  1.00  0.00     0.002 A 
ATOM     78  C   UNL     1       8.965   4.158   1.800  1.00  0.00     0.091 A 
ATOM     79  F   UNL     1       9.310   6.502   1.849  1.00  0.00    -0.205 F 
ATOM     80  C   UNL     1       8.108   3.059   1.936  1.00  0.00     0.022 A 
BRANCH  78  81
ATOM     81  S   UNL     1      10.651   3.905   1.247  1.00  0.00     0.127 S 
ATOM     82  O   UNL     1      11.385   3.969   2.506  1.00  0.00    -0.237 OA
ATOM     83  O   UNL     1      10.593   2.578   0.637  1.00  0.00    -0.237 OA
ATOM     84  O   UNL     1      10.879   4.989   0.301  1.00  0.00    -0.744 OA
ENDBRANCH  78  81
ENDBRANCH  50  74
BRANCH  62  85
ATOM     85  C   UNL     1       8.907  12.382   0.305  1.00  0.00     0.023 A 
ATOM     86  C   UNL     1       9.506  12.734   1.529  1.00  0.00     0.012 A 
ATOM     87  C   UNL     1       9.197  13.244  -0.789  1.00  0.00     0.148 A 
ATOM     88  C   UNL     1      10.461  13.754   1.636  1.00  0.00     0.002 A 
ATOM     89  C   UNL     1      10.125  14.278  -0.679  1.00  0.00     0.091 A 
ATOM     90  F   UNL     1       8.525  13.119  -1.937  1.00  0.00    -0.205 F 
ATOM     91  C   UNL     1      10.789  14.511   0.524  1.00  0.00     0.022 A 
BRANCH  89  92
ATOM     92  S   UNL     1      10.493  15.392  -2.043  1.00  0.00     0.127 S 
ATOM     93  O   UNL     1       9.893  16.640  -1.569  1.00  0.00    -0.237 OA
ATOM     94  O   UNL     1      11.956  15.386  -2.053  1.00  0.00    -0.237 OA
ATOM     95  O   UNL     1       9.874  14.811  -3.225  1.00  0.00    -0.744 OA
ENDBRANCH  89  92
ENDBRANCH  62  85
ENDBRANCH  36  37
ENDBRANCH  28  31
ENDBRANCH  26  27
ENDBRANCH   1  26
TORSDOF 16
