REMARK SMILES O=C(NCCCNC(=O)[C@H]1[C@H]2CC[C@H](CC2)[C@H]1C(=O)Nc1ccc(C(=O)N2CCCC2)cc1)c1ccc(-c2c3nc(c(-c4cccc(S(=O)(=O)[O-])c4F)c4ccc([nH]4)c(-c4cccc(S(=O)(=O)[O-])c4F)c4nc(c(-c5cccc(S(=O)(=O)[O-])c5F)c5ccc2[nH]5)C=C4)C=C3)cc1
REMARK SMILES IDX 5 1 4 2 3 3 1 4 2 5 34 7 35 8 96 9 36 10 95 11 37 12 38 13
REMARK SMILES IDX 39 14 89 15 40 16 94 17 88 18 90 19 41 20 93 21 87 22 86 23
REMARK SMILES IDX 42 25 74 26 54 27 73 28 55 29 58 30 72 31 91 32 56 33 57 34
REMARK SMILES IDX 71 36 92 37 59 38 43 39 44 40 52 41 45 42 47 43 53 44 46 45
REMARK SMILES IDX 48 46 49 47 50 48 51 49 75 50 76 51 84 52 77 53 79 54 85 55
REMARK SMILES IDX 78 56 80 57 81 58 82 59 83 60 60 61 61 62 69 63 62 64 64 65
REMARK SMILES IDX 70 66 63 67 65 68 66 69 67 70 68 71 6 72 7 73 8 74 9 76
REMARK SMILES IDX 10 77 11 78 17 79 16 80 12 81 14 82 15 83 13 84 18 85 19 86
REMARK SMILES IDX 20 87 21 89 22 90 33 91 23 92 32 93 24 94 25 95 26 96 27 97
REMARK SMILES IDX 28 98 31 99 29 100 30 101
REMARK H PARENT 3 6 90 24 58 35 7 75 20 88
REMARK Flexibility Score: inf
ROOT
ATOM      1  C   UNL     1       5.714  -1.051   1.113  1.00  0.00     0.042 C 
ENDROOT
BRANCH   1   2
ATOM      2  C   UNL     1       5.165  -1.140  -0.313  1.00  0.00     0.118 C 
BRANCH   2   3
ATOM      3  N   UNL     1       3.702  -1.138  -0.387  1.00  0.00    -0.352 N 
ATOM      4  O   UNL     1       1.595  -0.329  -0.417  1.00  0.00    -0.269 OA
ATOM      5  C   UNL     1       2.799  -0.105  -0.530  1.00  0.00     0.251 C 
ATOM      6  H   UNL     1       3.291  -2.031  -0.324  1.00  0.00     0.163 HD
BRANCH   5   7
ATOM      7  C   UNL     1       3.270   1.270  -0.771  1.00  0.00     0.039 A 
ATOM      8  C   UNL     1       4.283   1.488  -1.697  1.00  0.00     0.014 A 
ATOM      9  C   UNL     1       2.699   2.352  -0.090  1.00  0.00     0.014 A 
ATOM     10  C   UNL     1       4.886   2.730  -1.772  1.00  0.00     0.010 A 
ATOM     11  C   UNL     1       3.219   3.639  -0.276  1.00  0.00     0.010 A 
ATOM     12  C   UNL     1       4.349   3.829  -1.083  1.00  0.00    -0.014 A 
BRANCH  12  13
ATOM     13  C   UNL     1       4.968   5.160  -1.312  1.00  0.00     0.031 A 
ATOM     14  C   UNL     1       5.601   5.938  -0.194  1.00  0.00     0.074 A 
ATOM     15  C   UNL     1       5.018   5.620  -2.579  1.00  0.00     0.049 A 
ATOM     16  N   UNL     1       6.271   7.059  -0.257  1.00  0.00    -0.248 NA
ATOM     17  C   UNL     1       5.464   5.401   1.169  1.00  0.00     0.031 C 
ATOM     18  C   UNL     1       4.398   4.960  -3.733  1.00  0.00     0.029 A 
ATOM     19  N   UNL     1       5.639   6.714  -3.121  1.00  0.00    -0.354 N 
ATOM     20  C   UNL     1       6.590   7.391   1.053  1.00  0.00     0.074 A 
ATOM     21  C   UNL     1       6.044   6.349   1.895  1.00  0.00     0.031 C 
ATOM     22  C   UNL     1       4.730   5.618  -4.850  1.00  0.00     0.029 A 
ATOM     23  C   UNL     1       5.516   6.790  -4.489  1.00  0.00     0.049 A 
ATOM     24  H   UNL     1       6.125   7.381  -2.584  1.00  0.00     0.167 HD
ATOM     25  C   UNL     1       7.285   8.461   1.508  1.00  0.00     0.034 A 
ATOM     26  C   UNL     1       5.970   7.709  -5.361  1.00  0.00     0.034 A 
ATOM     27  C   UNL     1       7.860   9.467   0.653  1.00  0.00     0.049 A 
ATOM     28  C   UNL     1       6.774   8.857  -4.832  1.00  0.00     0.074 A 
ATOM     29  C   UNL     1       8.624  10.564   1.010  1.00  0.00     0.029 A 
ATOM     30  N   UNL     1       7.732   9.501  -0.728  1.00  0.00    -0.354 N 
ATOM     31  N   UNL     1       7.150   9.096  -3.599  1.00  0.00    -0.248 NA
ATOM     32  C   UNL     1       7.230   9.853  -5.809  1.00  0.00     0.031 C 
ATOM     33  C   UNL     1       8.943  11.271  -0.155  1.00  0.00     0.029 A 
ATOM     34  C   UNL     1       8.396  10.603  -1.240  1.00  0.00     0.049 A 
ATOM     35  H   UNL     1       7.240   8.839  -1.265  1.00  0.00     0.167 HD
ATOM     36  C   UNL     1       7.897  10.265  -3.650  1.00  0.00     0.074 A 
ATOM     37  C   UNL     1       7.948  10.664  -5.043  1.00  0.00     0.031 C 
ATOM     38  C   UNL     1       8.467  10.957  -2.635  1.00  0.00     0.034 A 
BRANCH  25  39
ATOM     39  C   UNL     1       7.486   8.590   2.996  1.00  0.00     0.023 A 
ATOM     40  C   UNL     1       8.406   7.749   3.654  1.00  0.00     0.012 A 
ATOM     41  C   UNL     1       6.809   9.581   3.734  1.00  0.00     0.148 A 
ATOM     42  C   UNL     1       8.629   7.873   5.026  1.00  0.00     0.002 A 
ATOM     43  C   UNL     1       7.064   9.724   5.094  1.00  0.00     0.091 A 
ATOM     44  F   UNL     1       5.919  10.356   3.099  1.00  0.00    -0.205 F 
ATOM     45  C   UNL     1       7.966   8.865   5.743  1.00  0.00     0.022 A 
BRANCH  43  46
ATOM     46  S   UNL     1       6.311  11.019   6.086  1.00  0.00     0.127 S 
ATOM     47  O   UNL     1       5.312  10.265   6.844  1.00  0.00    -0.237 OA
ATOM     48  O   UNL     1       7.442  11.500   6.880  1.00  0.00    -0.237 OA
ATOM     49  O   UNL     1       5.782  11.989   5.138  1.00  0.00    -0.744 OA
ENDBRANCH  43  46
ENDBRANCH  25  39
BRANCH  26  50
ATOM     50  C   UNL     1       5.691   7.541  -6.814  1.00  0.00     0.023 A 
ATOM     51  C   UNL     1       6.743   7.233  -7.697  1.00  0.00     0.012 A 
ATOM     52  C   UNL     1       4.373   7.599  -7.309  1.00  0.00     0.148 A 
ATOM     53  C   UNL     1       6.487   6.996  -9.049  1.00  0.00     0.002 A 
ATOM     54  C   UNL     1       4.118   7.296  -8.640  1.00  0.00     0.091 A 
ATOM     55  F   UNL     1       3.388   7.915  -6.457  1.00  0.00    -0.205 F 
ATOM     56  C   UNL     1       5.174   7.010  -9.517  1.00  0.00     0.022 A 
BRANCH  54  57
ATOM     57  S   UNL     1       2.445   7.127  -9.273  1.00  0.00     0.127 S 
ATOM     58  O   UNL     1       2.290   8.358 -10.042  1.00  0.00    -0.237 OA
ATOM     59  O   UNL     1       2.543   5.906 -10.073  1.00  0.00    -0.237 OA
ATOM     60  O   UNL     1       1.597   6.999  -8.095  1.00  0.00    -0.744 OA
ENDBRANCH  54  57
ENDBRANCH  26  50
BRANCH  38  61
ATOM     61  C   UNL     1       9.211  12.213  -2.997  1.00  0.00     0.023 A 
ATOM     62  C   UNL     1       8.491  13.370  -3.354  1.00  0.00     0.012 A 
ATOM     63  C   UNL     1      10.616  12.264  -2.923  1.00  0.00     0.148 A 
ATOM     64  C   UNL     1       9.161  14.552  -3.662  1.00  0.00     0.002 A 
ATOM     65  C   UNL     1      11.274  13.458  -3.186  1.00  0.00     0.091 A 
ATOM     66  F   UNL     1      11.281  11.144  -2.603  1.00  0.00    -0.205 F 
ATOM     67  C   UNL     1      10.550  14.600  -3.567  1.00  0.00     0.022 A 
BRANCH  65  68
ATOM     68  S   UNL     1      13.051  13.631  -2.999  1.00  0.00     0.127 S 
ATOM     69  O   UNL     1      13.498  13.646  -4.391  1.00  0.00    -0.237 OA
ATOM     70  O   UNL     1      13.168  14.915  -2.306  1.00  0.00    -0.237 OA
ATOM     71  O   UNL     1      13.483  12.483  -2.213  1.00  0.00    -0.744 OA
ENDBRANCH  65  68
ENDBRANCH  38  61
ENDBRANCH  12  13
ENDBRANCH   5   7
ENDBRANCH   2   3
ENDBRANCH   1   2
BRANCH   1  72
ATOM     72  C   UNL     1       5.526  -2.335   1.907  1.00  0.00     0.117 C 
BRANCH  72  73
ATOM     73  N   UNL     1       6.374  -3.428   1.486  1.00  0.00    -0.356 N 
ATOM     74  C   UNL     1       6.359  -4.731   1.863  1.00  0.00     0.224 C 
ATOM     75  H   UNL     1       7.066  -3.191   0.828  1.00  0.00     0.163 HD
ATOM     76  O   UNL     1       6.755  -5.530   1.005  1.00  0.00    -0.275 OA
BRANCH  74  77
ATOM     77  C   UNL     1       6.064  -5.245   3.275  1.00  0.00     0.094 C 
ATOM     78  C   UNL     1       5.563  -4.449   4.518  1.00  0.00     0.002 C 
ATOM     79  C   UNL     1       5.569  -6.716   3.351  1.00  0.00     0.094 C 
ATOM     80  C   UNL     1       4.084  -4.684   4.877  1.00  0.00     0.005 C 
ATOM     81  C   UNL     1       6.332  -5.013   5.744  1.00  0.00     0.005 C 
ATOM     82  C   UNL     1       5.047  -6.997   4.793  1.00  0.00     0.002 C 
ATOM     83  C   UNL     1       3.791  -6.174   5.086  1.00  0.00     0.005 C 
ATOM     84  C   UNL     1       6.123  -6.539   5.819  1.00  0.00     0.005 C 
BRANCH  79  85
ATOM     85  C   UNL     1       4.792  -7.500   2.243  1.00  0.00     0.228 C 
ATOM     86  O   UNL     1       5.310  -8.550   1.820  1.00  0.00    -0.274 OA
ATOM     87  N   UNL     1       3.496  -7.321   1.845  1.00  0.00    -0.326 N 
ATOM     88  H   UNL     1       3.103  -8.127   1.439  1.00  0.00     0.169 HD
BRANCH  87  89
ATOM     89  C   UNL     1       2.611  -6.243   1.889  1.00  0.00     0.041 A 
ATOM     90  C   UNL     1       1.251  -6.447   2.128  1.00  0.00     0.027 A 
ATOM     91  C   UNL     1       3.045  -4.956   1.695  1.00  0.00     0.027 A 
ATOM     92  C   UNL     1       0.422  -5.354   2.459  1.00  0.00     0.016 A 
ATOM     93  C   UNL     1       2.226  -3.877   2.036  1.00  0.00     0.016 A 
ATOM     94  C   UNL     1       0.938  -4.052   2.515  1.00  0.00     0.040 A 
BRANCH  94  95
ATOM     95  C   UNL     1       0.234  -3.005   3.340  1.00  0.00     0.253 C 
ATOM     96  O   UNL     1      -0.777  -3.361   3.950  1.00  0.00    -0.269 OA
ATOM     97  N   UNL     1       0.837  -1.783   3.620  1.00  0.00    -0.339 N 
ATOM     98  C   UNL     1       1.507  -0.827   2.752  1.00  0.00     0.120 C 
ATOM     99  C   UNL     1       0.709  -1.202   4.948  1.00  0.00     0.120 C 
ATOM    100  C   UNL     1       2.503  -0.173   3.694  1.00  0.00     0.023 C 
ATOM    101  C   UNL     1       1.675  -0.012   4.967  1.00  0.00     0.023 C 
ENDBRANCH  94  95
ENDBRANCH  87  89
ENDBRANCH  79  85
ENDBRANCH  74  77
ENDBRANCH  72  73
ENDBRANCH   1  72
TORSDOF 16
