REMARK SMILES O=C(NCCCNC(=O)[C@H]1CC2(CCN(C(=O)C3CC3)CC2)CN1C(=O)CCn1cccn1)c1ccc(-c2c3nc(c(-c4cccc(S(=O)(=O)[O-])c4F)c4ccc([nH]4)c(-c4cccc(S(=O)(=O)[O-])c4F)c4nc(c(-c5cccc(S(=O)(=O)[O-])c5F)c5ccc2[nH]5)C=C4)C=C3)cc1
REMARK SMILES IDX 5 1 4 2 3 3 1 4 2 5 34 7 35 8 96 9 36 10 95 11 37 12 38 13
REMARK SMILES IDX 39 14 89 15 40 16 94 17 88 18 90 19 41 20 93 21 87 22 86 23
REMARK SMILES IDX 42 25 74 26 54 27 73 28 55 29 58 30 72 31 91 32 56 33 57 34
REMARK SMILES IDX 71 36 92 37 59 38 43 39 44 40 52 41 45 42 47 43 53 44 46 45
REMARK SMILES IDX 48 46 49 47 50 48 51 49 75 50 76 51 84 52 77 53 79 54 85 55
REMARK SMILES IDX 78 56 80 57 81 58 82 59 83 60 60 61 61 62 69 63 62 64 64 65
REMARK SMILES IDX 70 66 63 67 65 68 66 69 67 70 68 71 6 72 7 73 8 74 9 76
REMARK SMILES IDX 10 77 11 78 24 79 12 80 23 81 13 82 22 83 14 84 21 85 15 86
REMARK SMILES IDX 16 87 17 88 25 89 26 90 27 91 28 92 29 93 30 94 33 95 31 96
REMARK SMILES IDX 32 97 18 98 19 99 20 100
REMARK H PARENT 3 6 90 24 58 35 7 75
REMARK Flexibility Score: inf
ROOT
ATOM      1  C   UNL     1       8.127   1.672  -9.227  1.00  0.00     0.042 C 
ENDROOT
BRANCH   1   2
ATOM      2  C   UNL     1       8.548   2.880 -10.083  1.00  0.00     0.118 C 
BRANCH   2   3
ATOM      3  N   UNL     1       9.787   3.543  -9.725  1.00  0.00    -0.352 N 
ATOM      4  O   UNL     1      11.024   5.130 -10.739  1.00  0.00    -0.269 OA
ATOM      5  C   UNL     1      10.728   3.939 -10.641  1.00  0.00     0.251 C 
ATOM      6  H   UNL     1       9.963   3.718  -8.772  1.00  0.00     0.163 HD
BRANCH   5   7
ATOM      7  C   UNL     1      11.551   2.881 -11.243  1.00  0.00     0.039 A 
ATOM      8  C   UNL     1      11.044   1.600 -11.464  1.00  0.00     0.014 A 
ATOM      9  C   UNL     1      12.918   3.151 -11.384  1.00  0.00     0.014 A 
ATOM     10  C   UNL     1      11.911   0.562 -11.686  1.00  0.00     0.010 A 
ATOM     11  C   UNL     1      13.793   2.111 -11.638  1.00  0.00     0.010 A 
ATOM     12  C   UNL     1      13.281   0.819 -11.736  1.00  0.00    -0.014 A 
BRANCH  12  13
ATOM     13  C   UNL     1      14.109  -0.312 -12.101  1.00  0.00     0.031 A 
ATOM     14  C   UNL     1      13.782  -0.837 -13.455  1.00  0.00     0.074 A 
ATOM     15  C   UNL     1      15.088  -0.781 -11.309  1.00  0.00     0.049 A 
ATOM     16  N   UNL     1      13.301  -1.997 -13.767  1.00  0.00    -0.248 NA
ATOM     17  C   UNL     1      13.786   0.128 -14.568  1.00  0.00     0.031 C 
ATOM     18  C   UNL     1      15.636  -0.166 -10.099  1.00  0.00     0.029 A 
ATOM     19  N   UNL     1      15.906  -1.846 -11.516  1.00  0.00    -0.354 N 
ATOM     20  C   UNL     1      13.174  -1.980 -15.156  1.00  0.00     0.074 A 
ATOM     21  C   UNL     1      13.273  -0.604 -15.554  1.00  0.00     0.031 C 
ATOM     22  C   UNL     1      16.852  -0.701  -9.852  1.00  0.00     0.029 A 
ATOM     23  C   UNL     1      17.097  -1.771 -10.804  1.00  0.00     0.049 A 
ATOM     24  H   UNL     1      15.678  -2.596 -12.111  1.00  0.00     0.167 HD
ATOM     25  C   UNL     1      13.278  -3.125 -15.885  1.00  0.00     0.034 A 
ATOM     26  C   UNL     1      18.233  -2.461 -11.072  1.00  0.00     0.034 A 
ATOM     27  C   UNL     1      13.028  -4.283 -15.064  1.00  0.00     0.049 A 
ATOM     28  C   UNL     1      17.863  -3.618 -11.921  1.00  0.00     0.074 A 
ATOM     29  C   UNL     1      11.965  -4.742 -14.312  1.00  0.00     0.029 A 
ATOM     30  N   UNL     1      14.125  -4.993 -14.640  1.00  0.00    -0.354 N 
ATOM     31  N   UNL     1      17.130  -4.610 -11.504  1.00  0.00    -0.248 NA
ATOM     32  C   UNL     1      17.935  -3.452 -13.364  1.00  0.00     0.031 C 
ATOM     33  C   UNL     1      12.561  -5.353 -13.169  1.00  0.00     0.029 A 
ATOM     34  C   UNL     1      13.947  -5.285 -13.318  1.00  0.00     0.049 A 
ATOM     35  H   UNL     1      14.901  -5.245 -15.191  1.00  0.00     0.167 HD
ATOM     36  C   UNL     1      16.293  -4.893 -12.576  1.00  0.00     0.074 A 
ATOM     37  C   UNL     1      16.905  -4.224 -13.723  1.00  0.00     0.031 C 
ATOM     38  C   UNL     1      15.037  -5.389 -12.374  1.00  0.00     0.034 A 
BRANCH  25  39
ATOM     39  C   UNL     1      14.050  -3.234 -17.192  1.00  0.00     0.023 A 
ATOM     40  C   UNL     1      14.122  -4.520 -17.777  1.00  0.00     0.012 A 
ATOM     41  C   UNL     1      14.949  -2.262 -17.692  1.00  0.00     0.148 A 
ATOM     42  C   UNL     1      15.114  -4.854 -18.705  1.00  0.00     0.002 A 
ATOM     43  C   UNL     1      15.898  -2.583 -18.655  1.00  0.00     0.091 A 
ATOM     44  F   UNL     1      14.981  -1.034 -17.176  1.00  0.00    -0.205 F 
ATOM     45  C   UNL     1      16.012  -3.887 -19.135  1.00  0.00     0.022 A 
BRANCH  43  46
ATOM     46  S   UNL     1      17.068  -1.361 -19.267  1.00  0.00     0.127 S 
ATOM     47  O   UNL     1      18.308  -1.812 -18.641  1.00  0.00    -0.237 OA
ATOM     48  O   UNL     1      16.988  -1.574 -20.712  1.00  0.00    -0.237 OA
ATOM     49  O   UNL     1      16.563  -0.069 -18.825  1.00  0.00    -0.744 OA
ENDBRANCH  43  46
ENDBRANCH  25  39
BRANCH  26  50
ATOM     50  C   UNL     1      19.640  -2.020 -10.926  1.00  0.00     0.023 A 
ATOM     51  C   UNL     1      20.672  -2.978 -10.886  1.00  0.00     0.012 A 
ATOM     52  C   UNL     1      19.995  -0.663 -11.104  1.00  0.00     0.148 A 
ATOM     53  C   UNL     1      22.011  -2.600 -11.041  1.00  0.00     0.002 A 
ATOM     54  C   UNL     1      21.329  -0.292 -11.245  1.00  0.00     0.091 A 
ATOM     55  F   UNL     1      19.023   0.248 -11.231  1.00  0.00    -0.205 F 
ATOM     56  C   UNL     1      22.339  -1.259 -11.225  1.00  0.00     0.022 A 
BRANCH  54  57
ATOM     57  S   UNL     1      21.814   1.421 -11.505  1.00  0.00     0.127 S 
ATOM     58  O   UNL     1      22.871   1.586 -10.499  1.00  0.00    -0.237 OA
ATOM     59  O   UNL     1      22.299   1.385 -12.890  1.00  0.00    -0.237 OA
ATOM     60  O   UNL     1      20.632   2.216 -11.270  1.00  0.00    -0.744 OA
ENDBRANCH  54  57
ENDBRANCH  26  50
BRANCH  38  61
ATOM     61  C   UNL     1      14.673  -5.859 -10.989  1.00  0.00     0.023 A 
ATOM     62  C   UNL     1      14.616  -4.986  -9.883  1.00  0.00     0.012 A 
ATOM     63  C   UNL     1      14.208  -7.175 -10.843  1.00  0.00     0.148 A 
ATOM     64  C   UNL     1      14.125  -5.426  -8.650  1.00  0.00     0.002 A 
ATOM     65  C   UNL     1      13.675  -7.594  -9.632  1.00  0.00     0.091 A 
ATOM     66  F   UNL     1      14.265  -7.988 -11.909  1.00  0.00    -0.205 F 
ATOM     67  C   UNL     1      13.641  -6.727  -8.529  1.00  0.00     0.022 A 
BRANCH  65  68
ATOM     68  S   UNL     1      12.912  -9.208  -9.456  1.00  0.00     0.127 S 
ATOM     69  O   UNL     1      13.913  -9.935  -8.679  1.00  0.00    -0.237 OA
ATOM     70  O   UNL     1      11.680  -8.894  -8.730  1.00  0.00    -0.237 OA
ATOM     71  O   UNL     1      12.692  -9.697 -10.812  1.00  0.00    -0.744 OA
ENDBRANCH  65  68
ENDBRANCH  38  61
ENDBRANCH  12  13
ENDBRANCH   5   7
ENDBRANCH   2   3
ENDBRANCH   1   2
BRANCH   1  72
ATOM     72  C   UNL     1       7.831   1.911  -7.746  1.00  0.00     0.117 C 
BRANCH  72  73
ATOM     73  N   UNL     1       6.474   2.423  -7.493  1.00  0.00    -0.354 N 
ATOM     74  C   UNL     1       5.817   2.920  -6.400  1.00  0.00     0.242 C 
ATOM     75  H   UNL     1       5.907   2.403  -8.297  1.00  0.00     0.163 HD
ATOM     76  O   UNL     1       4.652   3.314  -6.529  1.00  0.00    -0.273 OA
BRANCH  74  77
ATOM     77  C   UNL     1       6.305   2.746  -4.996  1.00  0.00     0.175 C 
ATOM     78  C   UNL     1       5.469   1.552  -4.599  1.00  0.00     0.044 C 
ATOM     79  N   UNL     1       7.671   2.417  -4.865  1.00  0.00    -0.330 N 
ATOM     80  C   UNL     1       6.392   0.385  -4.274  1.00  0.00    -0.006 C 
ATOM     81  C   UNL     1       7.824   1.048  -4.276  1.00  0.00     0.127 C 
ATOM     82  C   UNL     1       6.272  -0.768  -5.311  1.00  0.00     0.030 C 
ATOM     83  C   UNL     1       5.836  -0.197  -2.953  1.00  0.00     0.030 C 
ATOM     84  C   UNL     1       4.843  -1.314  -5.478  1.00  0.00     0.120 C 
ATOM     85  C   UNL     1       4.370  -0.683  -3.135  1.00  0.00     0.120 C 
ATOM     86  N   UNL     1       4.222  -1.674  -4.206  1.00  0.00    -0.342 N 
ATOM     87  C   UNL     1       3.232  -2.650  -4.017  1.00  0.00     0.225 C 
ATOM     88  O   UNL     1       2.488  -2.604  -3.032  1.00  0.00    -0.275 OA
BRANCH  79  89
ATOM     89  C   UNL     1       8.639   3.356  -5.221  1.00  0.00     0.225 C 
ATOM     90  O   UNL     1       9.835   3.072  -5.117  1.00  0.00    -0.275 OA
BRANCH  89  91
ATOM     91  C   UNL     1       8.210   4.819  -5.766  1.00  0.00     0.124 C 
BRANCH  91  92
ATOM     92  C   UNL     1       7.792   5.244  -7.238  1.00  0.00     0.154 C 
BRANCH  92  93
ATOM     93  N   UNL     1       6.404   5.437  -7.681  1.00  0.00    -0.272 N 
ATOM     94  C   UNL     1       5.776   4.903  -8.791  1.00  0.00     0.108 A 
ATOM     95  N   UNL     1       5.569   6.266  -7.016  1.00  0.00    -0.182 NA
ATOM     96  C   UNL     1       4.428   5.108  -8.632  1.00  0.00     0.042 A 
ATOM     97  C   UNL     1       4.367   6.000  -7.552  1.00  0.00     0.135 A 
ENDBRANCH  92  93
ENDBRANCH  91  92
ENDBRANCH  89  91
ENDBRANCH  79  89
BRANCH  87  98
ATOM     98  C   UNL     1       3.036  -3.841  -4.899  1.00  0.00     0.079 C 
ATOM     99  C   UNL     1       3.060  -3.916  -6.399  1.00  0.00     0.014 C 
ATOM    100  C   UNL     1       4.172  -4.543  -5.594  1.00  0.00     0.014 C 
ENDBRANCH  87  98
ENDBRANCH  74  77
ENDBRANCH  72  73
ENDBRANCH   1  72
TORSDOF 18
