REMARK SMILES CCN(c1cccc(C)c1)c1nc(OCC(=O)NCCCNC(=O)c2ccc(-c3c4nc(c(-c5cccc(S(=O)(=O)[O-])c5F)c5ccc([nH]5)c(-c5cccc(S(=O)(=O)[O-])c5F)c5nc(c(-c6cccc(S(=O)(=O)[O-])c6F)c6ccc3[nH]6)C=C5)C=C4)cc2)cc(-c2ccc(C)cc2)n1
REMARK SMILES IDX 19 1 18 2 16 3 17 4 15 6 14 7 13 8 11 9 12 10 97 11 89 12
REMARK SMILES IDX 88 13 3 14 2 15 1 16 4 17 5 18 10 19 6 20 8 21 7 22 9 23
REMARK SMILES IDX 90 24 91 25 96 26 92 27 95 28 93 29 94 30 20 31 21 32 22 33
REMARK SMILES IDX 23 34 24 36 25 37 26 38 87 39 27 40 86 41 28 42 29 43 30 44
REMARK SMILES IDX 80 45 31 46 85 47 79 48 81 49 32 50 84 51 78 52 77 53 33 55
REMARK SMILES IDX 65 56 45 57 64 58 46 59 49 60 63 61 82 62 47 63 48 64 62 66
REMARK SMILES IDX 83 67 50 68 34 69 35 70 43 71 36 72 38 73 44 74 37 75 39 76
REMARK SMILES IDX 40 77 41 78 42 79 66 80 67 81 75 82 68 83 70 84 76 85 69 86
REMARK SMILES IDX 71 87 72 88 73 89 74 90 51 91 52 92 60 93 53 94 55 95 61 96
REMARK SMILES IDX 54 97 56 98 57 99 58 100 59 101
REMARK H PARENT 18 5 22 35 81 54 49 65
REMARK Flexibility Score: inf
ROOT
ATOM      1  C   UNL     1       5.641   6.175  -3.268  1.00  0.00     0.117 C 
ENDROOT
BRANCH   1   2
ATOM      2  N   UNL     1       6.600   5.227  -2.717  1.00  0.00    -0.353 N 
ATOM      3  C   UNL     1       6.940   3.999  -3.202  1.00  0.00     0.258 C 
ATOM      4  O   UNL     1       7.849   3.362  -2.668  1.00  0.00    -0.271 OA
ATOM      5  H   UNL     1       7.058   5.508  -1.892  1.00  0.00     0.163 HD
BRANCH   3   6
ATOM      6  C   UNL     1       6.189   3.444  -4.415  1.00  0.00     0.331 C 
BRANCH   6   7
ATOM      7  O   UNL     1       4.796   3.244  -4.246  1.00  0.00    -0.467 OA
BRANCH   7   8
ATOM      8  C   UNL     1       4.396   2.317  -3.322  1.00  0.00     0.219 A 
ATOM      9  C   UNL     1       2.559   1.509  -2.174  1.00  0.00     0.233 A 
ATOM     10  N   UNL     1       3.074   2.347  -3.094  1.00  0.00    -0.177 NA
ATOM     11  N   UNL     1       3.319   0.629  -1.510  1.00  0.00    -0.212 NA
ATOM     12  C   UNL     1       4.632   0.584  -1.789  1.00  0.00     0.080 A 
ATOM     13  C   UNL     1       5.226   1.427  -2.697  1.00  0.00     0.097 A 
BRANCH   9  14
ATOM     14  N   UNL     1       1.171   1.525  -1.945  1.00  0.00    -0.311 N 
BRANCH  14  15
ATOM     15  C   UNL     1       0.744   1.361  -0.547  1.00  0.00     0.122 C 
ATOM     16  C   UNL     1       0.904  -0.059  -0.014  1.00  0.00     0.028 C 
ENDBRANCH  14  15
BRANCH  14  17
ATOM     17  C   UNL     1       0.203   1.728  -2.945  1.00  0.00     0.044 A 
ATOM     18  C   UNL     1      -0.920   2.547  -2.763  1.00  0.00     0.026 A 
ATOM     19  C   UNL     1       0.345   1.100  -4.197  1.00  0.00     0.029 A 
ATOM     20  C   UNL     1      -1.865   2.720  -3.781  1.00  0.00     0.002 A 
ATOM     21  C   UNL     1      -0.599   1.254  -5.224  1.00  0.00    -0.049 A 
ATOM     22  C   UNL     1      -1.709   2.071  -5.004  1.00  0.00     0.003 A 
ATOM     23  C   UNL     1      -0.406   0.530  -6.522  1.00  0.00     0.044 C 
ENDBRANCH  14  17
ENDBRANCH   9  14
BRANCH  12  24
ATOM     24  C   UNL     1       5.404  -0.479  -1.147  1.00  0.00     0.000 A 
ATOM     25  C   UNL     1       6.495  -0.184  -0.315  1.00  0.00     0.010 A 
ATOM     26  C   UNL     1       5.116  -1.825  -1.419  1.00  0.00     0.010 A 
ATOM     27  C   UNL     1       7.290  -1.206   0.210  1.00  0.00     0.004 A 
ATOM     28  C   UNL     1       5.917  -2.847  -0.906  1.00  0.00     0.004 A 
ATOM     29  C   UNL     1       7.014  -2.544  -0.092  1.00  0.00    -0.051 A 
ATOM     30  C   UNL     1       7.879  -3.646   0.440  1.00  0.00     0.044 C 
ENDBRANCH  12  24
ENDBRANCH   7   8
ENDBRANCH   6   7
ENDBRANCH   3   6
ENDBRANCH   1   2
BRANCH   1  31
ATOM     31  C   UNL     1       4.251   6.114  -2.625  1.00  0.00     0.042 C 
BRANCH  31  32
ATOM     32  C   UNL     1       4.297   6.531  -1.172  1.00  0.00     0.118 C 
BRANCH  32  33
ATOM     33  N   UNL     1       4.607   7.944  -1.013  1.00  0.00    -0.352 N 
ATOM     34  C   UNL     1       4.673   8.734   0.107  1.00  0.00     0.251 C 
ATOM     35  H   UNL     1       4.804   8.415  -1.855  1.00  0.00     0.163 HD
ATOM     36  O   UNL     1       4.602   9.956  -0.070  1.00  0.00    -0.269 OA
BRANCH  34  37
ATOM     37  C   UNL     1       4.931   8.185   1.457  1.00  0.00     0.039 A 
ATOM     38  C   UNL     1       4.933   9.044   2.570  1.00  0.00     0.014 A 
ATOM     39  C   UNL     1       5.412   6.891   1.606  1.00  0.00     0.014 A 
ATOM     40  C   UNL     1       5.611   8.672   3.730  1.00  0.00     0.010 A 
ATOM     41  C   UNL     1       5.949   6.470   2.780  1.00  0.00     0.010 A 
ATOM     42  C   UNL     1       6.205   7.423   3.755  1.00  0.00    -0.014 A 
BRANCH  42  43
ATOM     43  C   UNL     1       7.288   6.985   4.606  1.00  0.00     0.031 A 
ATOM     44  C   UNL     1       6.971   6.181   5.782  1.00  0.00     0.074 A 
ATOM     45  C   UNL     1       8.459   6.873   3.936  1.00  0.00     0.049 A 
ATOM     46  N   UNL     1       7.846   5.710   6.592  1.00  0.00    -0.248 NA
ATOM     47  C   UNL     1       5.600   5.825   6.122  1.00  0.00     0.031 C 
ATOM     48  C   UNL     1       9.487   5.846   4.042  1.00  0.00     0.029 A 
ATOM     49  N   UNL     1       8.940   7.675   2.916  1.00  0.00    -0.354 N 
ATOM     50  C   UNL     1       7.216   4.724   7.319  1.00  0.00     0.074 A 
ATOM     51  C   UNL     1       5.808   4.953   7.111  1.00  0.00     0.031 C 
ATOM     52  C   UNL     1      10.563   6.227   3.322  1.00  0.00     0.029 A 
ATOM     53  C   UNL     1      10.329   7.598   2.892  1.00  0.00     0.049 A 
ATOM     54  H   UNL     1       8.388   8.215   2.305  1.00  0.00     0.167 HD
ATOM     55  C   UNL     1       7.984   3.721   7.833  1.00  0.00     0.034 A 
ATOM     56  C   UNL     1      11.040   8.685   3.336  1.00  0.00     0.034 A 
ATOM     57  C   UNL     1       9.412   3.976   7.538  1.00  0.00     0.049 A 
ATOM     58  C   UNL     1      11.716   8.433   4.678  1.00  0.00     0.074 A 
ATOM     59  C   UNL     1      10.288   3.449   6.602  1.00  0.00     0.029 A 
ATOM     60  N   UNL     1      10.022   5.128   8.032  1.00  0.00    -0.354 N 
ATOM     61  N   UNL     1      11.493   7.389   5.429  1.00  0.00    -0.248 NA
ATOM     62  C   UNL     1      12.722   9.314   5.264  1.00  0.00     0.031 C 
ATOM     63  C   UNL     1      11.380   4.353   6.464  1.00  0.00     0.029 A 
ATOM     64  C   UNL     1      11.188   5.413   7.335  1.00  0.00     0.049 A 
ATOM     65  H   UNL     1       9.672   5.668   8.777  1.00  0.00     0.167 HD
ATOM     66  C   UNL     1      12.173   7.490   6.610  1.00  0.00     0.074 A 
ATOM     67  C   UNL     1      12.991   8.679   6.420  1.00  0.00     0.031 C 
ATOM     68  C   UNL     1      11.963   6.617   7.647  1.00  0.00     0.034 A 
BRANCH  55  69
ATOM     69  C   UNL     1       7.483   2.368   8.331  1.00  0.00     0.023 A 
ATOM     70  C   UNL     1       8.461   1.365   8.528  1.00  0.00     0.012 A 
ATOM     71  C   UNL     1       6.147   1.970   8.584  1.00  0.00     0.148 A 
ATOM     72  C   UNL     1       8.139   0.048   8.877  1.00  0.00     0.002 A 
ATOM     73  C   UNL     1       5.819   0.649   8.910  1.00  0.00     0.091 A 
ATOM     74  F   UNL     1       5.163   2.865   8.569  1.00  0.00    -0.205 F 
ATOM     75  C   UNL     1       6.815  -0.317   9.050  1.00  0.00     0.022 A 
BRANCH  73  76
ATOM     76  S   UNL     1       4.116   0.096   9.145  1.00  0.00     0.127 S 
ATOM     77  O   UNL     1       4.024  -1.021   8.203  1.00  0.00    -0.237 OA
ATOM     78  O   UNL     1       4.108  -0.297  10.553  1.00  0.00    -0.237 OA
ATOM     79  O   UNL     1       3.261   1.229   8.813  1.00  0.00    -0.744 OA
ENDBRANCH  73  76
ENDBRANCH  55  69
BRANCH  56  80
ATOM     80  C   UNL     1      10.385   9.972   2.899  1.00  0.00     0.023 A 
ATOM     81  C   UNL     1      10.278  10.168   1.497  1.00  0.00     0.012 A 
ATOM     82  C   UNL     1       9.493  10.666   3.741  1.00  0.00     0.148 A 
ATOM     83  C   UNL     1       9.195  10.860   0.948  1.00  0.00     0.002 A 
ATOM     84  C   UNL     1       8.426  11.376   3.183  1.00  0.00     0.091 A 
ATOM     85  F   UNL     1       9.652  10.567   5.067  1.00  0.00    -0.205 F 
ATOM     86  C   UNL     1       8.244  11.423   1.791  1.00  0.00     0.022 A 
BRANCH  84  87
ATOM     87  S   UNL     1       7.184  12.169   4.218  1.00  0.00     0.127 S 
ATOM     88  O   UNL     1       7.751  13.506   4.384  1.00  0.00    -0.237 OA
ATOM     89  O   UNL     1       5.978  12.121   3.390  1.00  0.00    -0.237 OA
ATOM     90  O   UNL     1       7.111  11.347   5.417  1.00  0.00    -0.744 OA
ENDBRANCH  84  87
ENDBRANCH  56  80
BRANCH  68  91
ATOM     91  C   UNL     1      12.466   6.813   9.069  1.00  0.00     0.023 A 
ATOM     92  C   UNL     1      12.875   8.067   9.558  1.00  0.00     0.012 A 
ATOM     93  C   UNL     1      12.403   5.756  10.018  1.00  0.00     0.148 A 
ATOM     94  C   UNL     1      13.273   8.254  10.886  1.00  0.00     0.002 A 
ATOM     95  C   UNL     1      12.671   5.979  11.365  1.00  0.00     0.091 A 
ATOM     96  F   UNL     1      12.105   4.511   9.620  1.00  0.00    -0.205 F 
ATOM     97  C   UNL     1      13.146   7.217  11.797  1.00  0.00     0.022 A 
BRANCH  95  98
ATOM     98  S   UNL     1      12.261   4.746  12.609  1.00  0.00     0.127 S 
ATOM     99  O   UNL     1      13.539   4.063  12.790  1.00  0.00    -0.237 OA
ATOM    100  O   UNL     1      11.846   5.573  13.744  1.00  0.00    -0.237 OA
ATOM    101  O   UNL     1      11.186   3.957  12.024  1.00  0.00    -0.744 OA
ENDBRANCH  95  98
ENDBRANCH  68  91
ENDBRANCH  42  43
ENDBRANCH  34  37
ENDBRANCH  32  33
ENDBRANCH  31  32
ENDBRANCH   1  31
TORSDOF 19
