REMARK SMILES O=C(NCCCNC(=O)c1ccc([C@H]2CCCN(C(=O)c3ccc4[nH]ccc4c3)C2)cc1)c1ccc(-c2c3nc(c(-c4cccc(S(=O)(=O)[O-])c4F)c4ccc([nH]4)c(-c4cccc(S(=O)(=O)[O-])c4F)c4nc(c(-c5cccc(S(=O)(=O)[O-])c5F)c5ccc2[nH]5)C=C4)C=C3)cc1
REMARK SMILES IDX 5 1 4 2 3 3 1 4 2 5 33 7 34 8 95 9 35 10 94 11 36 12 37 13
REMARK SMILES IDX 38 14 88 15 39 16 93 17 87 18 89 19 40 20 92 21 86 22 85 23
REMARK SMILES IDX 41 25 73 26 53 27 72 28 54 29 57 30 71 31 90 32 55 33 56 34
REMARK SMILES IDX 70 36 91 37 58 38 42 39 43 40 51 41 44 42 46 43 52 44 45 45
REMARK SMILES IDX 47 46 48 47 49 48 50 49 74 50 75 51 83 52 76 53 78 54 84 55
REMARK SMILES IDX 77 56 79 57 80 58 81 59 82 60 59 61 60 62 68 63 61 64 63 65
REMARK SMILES IDX 69 66 62 67 64 68 65 69 66 70 67 71 6 72 7 73 8 74 9 76
REMARK SMILES IDX 10 77 11 78 32 79 12 80 31 81 13 82 14 83 15 84 30 85 16 86
REMARK SMILES IDX 18 87 17 88 19 89 20 90 21 91 22 92 29 93 23 94 28 95 24 96
REMARK SMILES IDX 27 97 25 98 26 99
REMARK H PARENT 3 6 89 24 57 35 7 75 25 100
REMARK Flexibility Score: inf
ROOT
ATOM      1  C   UNL     1      12.032  -3.808  14.022  1.00  0.00     0.042 C 
ENDROOT
BRANCH   1   2
ATOM      2  C   UNL     1      13.362  -4.205  14.644  1.00  0.00     0.118 C 
BRANCH   2   3
ATOM      3  N   UNL     1      14.261  -3.075  14.818  1.00  0.00    -0.352 N 
ATOM      4  O   UNL     1      15.320  -1.408  15.886  1.00  0.00    -0.269 OA
ATOM      5  C   UNL     1      14.723  -2.477  15.965  1.00  0.00     0.251 C 
ATOM      6  H   UNL     1      14.591  -2.675  13.980  1.00  0.00     0.163 HD
BRANCH   5   7
ATOM      7  C   UNL     1      14.476  -3.101  17.284  1.00  0.00     0.039 A 
ATOM      8  C   UNL     1      14.618  -4.479  17.469  1.00  0.00     0.014 A 
ATOM      9  C   UNL     1      14.120  -2.285  18.361  1.00  0.00     0.014 A 
ATOM     10  C   UNL     1      14.254  -5.060  18.679  1.00  0.00     0.010 A 
ATOM     11  C   UNL     1      13.845  -2.861  19.603  1.00  0.00     0.010 A 
ATOM     12  C   UNL     1      13.875  -4.256  19.763  1.00  0.00    -0.014 A 
BRANCH  12  13
ATOM     13  C   UNL     1      13.566  -4.869  21.079  1.00  0.00     0.031 A 
ATOM     14  C   UNL     1      12.204  -4.720  21.695  1.00  0.00     0.074 A 
ATOM     15  C   UNL     1      14.543  -5.513  21.745  1.00  0.00     0.049 A 
ATOM     16  N   UNL     1      11.787  -5.100  22.875  1.00  0.00    -0.248 NA
ATOM     17  C   UNL     1      11.178  -4.046  20.884  1.00  0.00     0.031 C 
ATOM     18  C   UNL     1      15.912  -5.698  21.259  1.00  0.00     0.029 A 
ATOM     19  N   UNL     1      14.548  -6.100  22.985  1.00  0.00    -0.354 N 
ATOM     20  C   UNL     1      10.471  -4.667  22.972  1.00  0.00     0.074 A 
ATOM     21  C   UNL     1      10.159  -3.992  21.730  1.00  0.00     0.031 C 
ATOM     22  C   UNL     1      16.628  -6.339  22.193  1.00  0.00     0.029 A 
ATOM     23  C   UNL     1      15.788  -6.554  23.366  1.00  0.00     0.049 A 
ATOM     24  H   UNL     1      13.743  -6.187  23.546  1.00  0.00     0.167 HD
ATOM     25  C   UNL     1       9.602  -4.821  24.000  1.00  0.00     0.034 A 
ATOM     26  C   UNL     1      16.220  -7.046  24.543  1.00  0.00     0.034 A 
ATOM     27  C   UNL     1       9.921  -5.506  25.225  1.00  0.00     0.049 A 
ATOM     28  C   UNL     1      15.244  -7.201  25.672  1.00  0.00     0.074 A 
ATOM     29  C   UNL     1       9.092  -5.776  26.300  1.00  0.00     0.029 A 
ATOM     30  N   UNL     1      11.173  -6.007  25.550  1.00  0.00    -0.354 N 
ATOM     31  N   UNL     1      13.971  -6.889  25.707  1.00  0.00    -0.248 NA
ATOM     32  C   UNL     1      15.751  -7.802  26.913  1.00  0.00     0.031 C 
ATOM     33  C   UNL     1       9.854  -6.401  27.292  1.00  0.00     0.029 A 
ATOM     34  C   UNL     1      11.145  -6.569  26.816  1.00  0.00     0.049 A 
ATOM     35  H   UNL     1      11.965  -5.969  24.967  1.00  0.00     0.167 HD
ATOM     36  C   UNL     1      13.513  -7.293  26.954  1.00  0.00     0.074 A 
ATOM     37  C   UNL     1      14.646  -7.874  27.646  1.00  0.00     0.031 C 
ATOM     38  C   UNL     1      12.267  -7.190  27.475  1.00  0.00     0.034 A 
BRANCH  25  39
ATOM     39  C   UNL     1       8.221  -4.236  23.843  1.00  0.00     0.023 A 
ATOM     40  C   UNL     1       7.315  -4.802  22.923  1.00  0.00     0.012 A 
ATOM     41  C   UNL     1       7.808  -3.145  24.633  1.00  0.00     0.148 A 
ATOM     42  C   UNL     1       6.041  -4.259  22.753  1.00  0.00     0.002 A 
ATOM     43  C   UNL     1       6.520  -2.640  24.493  1.00  0.00     0.091 A 
ATOM     44  F   UNL     1       8.685  -2.606  25.492  1.00  0.00    -0.205 F 
ATOM     45  C   UNL     1       5.641  -3.185  23.543  1.00  0.00     0.022 A 
BRANCH  43  46
ATOM     46  S   UNL     1       5.886  -1.313  25.525  1.00  0.00     0.127 S 
ATOM     47  O   UNL     1       5.887  -0.189  24.592  1.00  0.00    -0.237 OA
ATOM     48  O   UNL     1       4.555  -1.807  25.881  1.00  0.00    -0.237 OA
ATOM     49  O   UNL     1       6.810  -1.203  26.646  1.00  0.00    -0.744 OA
ENDBRANCH  43  46
ENDBRANCH  25  39
BRANCH  26  50
ATOM     50  C   UNL     1      17.648  -7.441  24.683  1.00  0.00     0.023 A 
ATOM     51  C   UNL     1      17.990  -8.805  24.744  1.00  0.00     0.012 A 
ATOM     52  C   UNL     1      18.671  -6.471  24.670  1.00  0.00     0.148 A 
ATOM     53  C   UNL     1      19.328  -9.196  24.808  1.00  0.00     0.002 A 
ATOM     54  C   UNL     1      20.000  -6.870  24.676  1.00  0.00     0.091 A 
ATOM     55  F   UNL     1      18.317  -5.180  24.611  1.00  0.00    -0.205 F 
ATOM     56  C   UNL     1      20.331  -8.232  24.761  1.00  0.00     0.022 A 
BRANCH  54  57
ATOM     57  S   UNL     1      21.359  -5.712  24.479  1.00  0.00     0.127 S 
ATOM     58  O   UNL     1      22.048  -5.840  25.761  1.00  0.00    -0.237 OA
ATOM     59  O   UNL     1      22.072  -6.283  23.336  1.00  0.00    -0.237 OA
ATOM     60  O   UNL     1      20.744  -4.417  24.223  1.00  0.00    -0.744 OA
ENDBRANCH  54  57
ENDBRANCH  26  50
BRANCH  38  61
ATOM     61  C   UNL     1      12.021  -7.776  28.841  1.00  0.00     0.023 A 
ATOM     62  C   UNL     1      12.506  -7.126  29.992  1.00  0.00     0.012 A 
ATOM     63  C   UNL     1      11.207  -8.918  28.979  1.00  0.00     0.148 A 
ATOM     64  C   UNL     1      12.197  -7.615  31.261  1.00  0.00     0.002 A 
ATOM     65  C   UNL     1      10.860  -9.367  30.246  1.00  0.00     0.091 A 
ATOM     66  F   UNL     1      10.775  -9.531  27.868  1.00  0.00    -0.205 F 
ATOM     67  C   UNL     1      11.362  -8.724  31.389  1.00  0.00     0.022 A 
BRANCH  65  68
ATOM     68  S   UNL     1       9.707 -10.720  30.506  1.00  0.00     0.127 S 
ATOM     69  O   UNL     1      10.576 -11.744  31.086  1.00  0.00    -0.237 OA
ATOM     70  O   UNL     1       8.749 -10.132  31.442  1.00  0.00    -0.237 OA
ATOM     71  O   UNL     1       9.158 -11.043  29.196  1.00  0.00    -0.744 OA
ENDBRANCH  65  68
ENDBRANCH  38  61
ENDBRANCH  12  13
ENDBRANCH   5   7
ENDBRANCH   2   3
ENDBRANCH   1   2
BRANCH   1  72
ATOM     72  C   UNL     1      12.146  -3.227  12.621  1.00  0.00     0.118 C 
BRANCH  72  73
ATOM     73  N   UNL     1      12.747  -4.156  11.672  1.00  0.00    -0.352 N 
ATOM     74  C   UNL     1      12.230  -4.691  10.517  1.00  0.00     0.251 C 
ATOM     75  H   UNL     1      13.662  -4.444  11.892  1.00  0.00     0.163 HD
ATOM     76  O   UNL     1      12.821  -5.594   9.936  1.00  0.00    -0.269 OA
BRANCH  74  77
ATOM     77  C   UNL     1      10.948  -4.189   9.986  1.00  0.00     0.039 A 
ATOM     78  C   UNL     1       9.975  -5.103   9.584  1.00  0.00     0.014 A 
ATOM     79  C   UNL     1      10.706  -2.821   9.876  1.00  0.00     0.014 A 
ATOM     80  C   UNL     1       8.719  -4.642   9.183  1.00  0.00     0.005 A 
ATOM     81  C   UNL     1       9.442  -2.366   9.509  1.00  0.00     0.005 A 
ATOM     82  C   UNL     1       8.411  -3.268   9.201  1.00  0.00    -0.043 A 
BRANCH  82  83
ATOM     83  C   UNL     1       6.988  -2.806   8.892  1.00  0.00     0.039 C 
ATOM     84  C   UNL     1       5.960  -3.536   9.795  1.00  0.00     0.012 C 
ATOM     85  C   UNL     1       6.778  -1.280   9.024  1.00  0.00     0.128 C 
ATOM     86  C   UNL     1       4.528  -3.051   9.558  1.00  0.00     0.022 C 
ATOM     87  N   UNL     1       5.391  -0.904   8.790  1.00  0.00    -0.338 N 
ATOM     88  C   UNL     1       4.423  -1.536   9.683  1.00  0.00     0.120 C 
BRANCH  87  89
ATOM     89  C   UNL     1       5.096  -0.073   7.717  1.00  0.00     0.253 C 
ATOM     90  O   UNL     1       5.930   0.377   6.937  1.00  0.00    -0.269 OA
BRANCH  89  91
ATOM     91  C   UNL     1       3.688   0.266   7.463  1.00  0.00     0.040 A 
ATOM     92  C   UNL     1       3.029  -0.389   6.422  1.00  0.00     0.016 A 
ATOM     93  C   UNL     1       3.063   1.255   8.234  1.00  0.00     0.024 A 
ATOM     94  C   UNL     1       1.690  -0.109   6.150  1.00  0.00     0.027 A 
ATOM     95  C   UNL     1       1.723   1.573   7.944  1.00  0.00     0.000 A 
ATOM     96  C   UNL     1       1.065   0.872   6.931  1.00  0.00     0.045 A 
ATOM     97  C   UNL     1       0.803   2.528   8.458  1.00  0.00     0.028 A 
ATOM     98  N   UNL     1      -0.227   1.346   6.888  1.00  0.00    -0.361 N 
ATOM     99  C   UNL     1      -0.382   2.377   7.775  1.00  0.00     0.083 A 
ATOM    100  H   UNL     1      -0.937   0.995   6.303  1.00  0.00     0.166 HD
ENDBRANCH  89  91
ENDBRANCH  87  89
ENDBRANCH  82  83
ENDBRANCH  74  77
ENDBRANCH  72  73
ENDBRANCH   1  72
TORSDOF 16
