REMARK SMILES C[C@H]1C[N@H+]2CCC[C@@H]2CN1c1cc(Cl)ccc1C(=O)NCCCNC(=O)c1ccc(-c2c3nc(c(-c4cccc(S(=O)(=O)[O-])c4F)c4ccc([nH]4)c(-c4cccc(S(=O)(=O)[O-])c4F)c4nc(c(-c5cccc(S(=O)(=O)[O-])c5F)c5ccc2[nH]5)C=C4)C=C3)cc1
REMARK SMILES IDX 23 1 22 2 21 3 20 4 18 5 19 6 17 8 11 9 12 10 13 11 16 12
REMARK SMILES IDX 14 13 15 14 10 15 1 16 2 17 3 18 4 19 9 20 5 21 8 22 6 24
REMARK SMILES IDX 7 25 24 26 25 27 26 29 27 30 28 31 89 32 29 33 88 34 30 35
REMARK SMILES IDX 31 36 32 37 82 38 33 39 87 40 81 41 83 42 34 43 86 44 80 45
REMARK SMILES IDX 79 46 35 48 67 49 47 50 66 51 48 52 51 53 65 54 84 55 49 56
REMARK SMILES IDX 50 57 64 59 85 60 52 61 36 62 37 63 45 64 38 65 40 66 46 67
REMARK SMILES IDX 39 68 41 69 42 70 43 71 44 72 68 73 69 74 77 75 70 76 72 77
REMARK SMILES IDX 78 78 71 79 73 80 74 81 75 82 76 83 53 84 54 85 62 86 55 87
REMARK SMILES IDX 57 88 63 89 56 90 58 91 59 92 60 93 61 94
REMARK H PARENT 20 7 4 23 24 28 83 47 51 58
REMARK Flexibility Score: inf
ROOT
ATOM      1  C   UNL     1       5.116   0.729  -2.921  1.00  0.00     0.118 C 
ENDROOT
BRANCH   1   2
ATOM      2  C   UNL     1       4.058   0.342  -1.903  1.00  0.00     0.042 C 
BRANCH   2   3
ATOM      3  C   UNL     1       3.465  -1.033  -2.116  1.00  0.00     0.118 C 
BRANCH   3   4
ATOM      4  N   UNL     1       4.016  -2.142  -1.400  1.00  0.00    -0.352 N 
ATOM      5  C   UNL     1       3.340  -3.313  -1.117  1.00  0.00     0.253 C 
ATOM      6  O   UNL     1       4.003  -4.353  -1.227  1.00  0.00    -0.269 OA
ATOM      7  H   UNL     1       4.945  -2.064  -1.085  1.00  0.00     0.163 HD
BRANCH   5   8
ATOM      8  C   UNL     1       1.960  -3.416  -0.504  1.00  0.00     0.063 A 
ATOM      9  C   UNL     1       0.730  -2.763  -0.803  1.00  0.00     0.052 A 
ATOM     10  C   UNL     1      -0.410  -3.124  -0.037  1.00  0.00     0.047 A 
ATOM     11  C   UNL     1      -0.358  -4.058   0.995  1.00  0.00     0.043 A 
ATOM     12  C   UNL     1       1.968  -4.372   0.550  1.00  0.00     0.017 A 
ATOM     13  Cl  UNL     1      -1.775  -4.430   1.895  1.00  0.00    -0.084 Cl
ATOM     14  C   UNL     1       0.833  -4.687   1.296  1.00  0.00     0.021 A 
BRANCH   9  15
ATOM     15  N   UNL     1       0.535  -1.803  -1.800  1.00  0.00    -0.357 N 
ATOM     16  C   UNL     1       0.288   0.119  -0.185  1.00  0.00     0.037 C 
ATOM     17  C   UNL     1      -0.194  -0.515  -1.502  1.00  0.00     0.134 C 
ATOM     18  C   UNL     1       0.011   0.556  -2.639  1.00  0.00     0.287 C 
ATOM     19  N   UNL     1      -0.098   0.025  -4.008  1.00  0.00    -0.329 N 
ATOM     20  C   UNL     1       0.387  -2.298  -3.189  1.00  0.00     0.182 C 
ATOM     21  C   UNL     1       0.413   0.943  -5.036  1.00  0.00     0.262 C 
ATOM     22  C   UNL     1       0.764  -1.159  -4.144  1.00  0.00     0.203 C 
ATOM     23  H   UNL     1      -1.093  -0.152  -4.145  1.00  0.00     0.348 HD
ATOM     24  C   UNL     1       0.854   0.014  -6.177  1.00  0.00     0.068 C 
ATOM     25  C   UNL     1       0.705  -1.408  -5.632  1.00  0.00     0.073 C 
ENDBRANCH   9  15
ENDBRANCH   5   8
ENDBRANCH   3   4
ENDBRANCH   2   3
ENDBRANCH   1   2
BRANCH   1  26
ATOM     26  N   UNL     1       4.665   0.734  -4.314  1.00  0.00    -0.352 N 
ATOM     27  C   UNL     1       4.260   1.716  -5.186  1.00  0.00     0.251 C 
ATOM     28  H   UNL     1       4.647  -0.165  -4.715  1.00  0.00     0.163 HD
ATOM     29  O   UNL     1       3.988   1.394  -6.343  1.00  0.00    -0.269 OA
BRANCH  27  30
ATOM     30  C   UNL     1       4.121   3.137  -4.801  1.00  0.00     0.039 A 
ATOM     31  C   UNL     1       3.126   3.919  -5.418  1.00  0.00     0.014 A 
ATOM     32  C   UNL     1       5.029   3.748  -3.945  1.00  0.00     0.014 A 
ATOM     33  C   UNL     1       3.054   5.295  -5.176  1.00  0.00     0.010 A 
ATOM     34  C   UNL     1       4.885   5.083  -3.607  1.00  0.00     0.010 A 
ATOM     35  C   UNL     1       3.950   5.883  -4.277  1.00  0.00    -0.014 A 
BRANCH  35  36
ATOM     36  C   UNL     1       4.122   7.347  -4.142  1.00  0.00     0.031 A 
ATOM     37  C   UNL     1       5.449   7.930  -4.561  1.00  0.00     0.074 A 
ATOM     38  C   UNL     1       3.196   8.091  -3.516  1.00  0.00     0.049 A 
ATOM     39  N   UNL     1       5.977   9.088  -4.277  1.00  0.00    -0.248 NA
ATOM     40  C   UNL     1       6.332   7.049  -5.352  1.00  0.00     0.031 C 
ATOM     41  C   UNL     1       1.901   7.609  -3.037  1.00  0.00     0.029 A 
ATOM     42  N   UNL     1       3.234   9.404  -3.124  1.00  0.00    -0.354 N 
ATOM     43  C   UNL     1       7.275   9.042  -4.779  1.00  0.00     0.074 A 
ATOM     44  C   UNL     1       7.466   7.731  -5.353  1.00  0.00     0.031 C 
ATOM     45  C   UNL     1       1.276   8.606  -2.389  1.00  0.00     0.029 A 
ATOM     46  C   UNL     1       2.145   9.779  -2.373  1.00  0.00     0.049 A 
ATOM     47  H   UNL     1       3.968  10.017  -3.357  1.00  0.00     0.167 HD
ATOM     48  C   UNL     1       8.214  10.017  -4.778  1.00  0.00     0.034 A 
ATOM     49  C   UNL     1       1.900  10.934  -1.724  1.00  0.00     0.034 A 
ATOM     50  C   UNL     1       7.968  11.335  -4.264  1.00  0.00     0.049 A 
ATOM     51  C   UNL     1       2.928  12.031  -1.805  1.00  0.00     0.074 A 
ATOM     52  C   UNL     1       8.795  12.442  -4.293  1.00  0.00     0.029 A 
ATOM     53  N   UNL     1       6.794  11.723  -3.635  1.00  0.00    -0.354 N 
ATOM     54  N   UNL     1       4.111  12.015  -2.374  1.00  0.00    -0.248 NA
ATOM     55  C   UNL     1       2.575  13.317  -1.190  1.00  0.00     0.031 C 
ATOM     56  C   UNL     1       8.127  13.495  -3.659  1.00  0.00     0.029 A 
ATOM     57  C   UNL     1       6.870  13.054  -3.272  1.00  0.00     0.049 A 
ATOM     58  H   UNL     1       6.021  11.136  -3.471  1.00  0.00     0.167 HD
ATOM     59  C   UNL     1       4.625  13.298  -2.226  1.00  0.00     0.074 A 
ATOM     60  C   UNL     1       3.615  14.068  -1.526  1.00  0.00     0.031 C 
ATOM     61  C   UNL     1       5.822  13.799  -2.623  1.00  0.00     0.034 A 
BRANCH  48  62
ATOM     62  C   UNL     1       9.561   9.705  -5.384  1.00  0.00     0.023 A 
ATOM     63  C   UNL     1       9.673   9.470  -6.771  1.00  0.00     0.012 A 
ATOM     64  C   UNL     1      10.723   9.676  -4.589  1.00  0.00     0.148 A 
ATOM     65  C   UNL     1      10.906   9.165  -7.347  1.00  0.00     0.002 A 
ATOM     66  C   UNL     1      11.958   9.426  -5.178  1.00  0.00     0.091 A 
ATOM     67  F   UNL     1      10.601   9.880  -3.269  1.00  0.00    -0.205 F 
ATOM     68  C   UNL     1      12.049   9.154  -6.553  1.00  0.00     0.022 A 
BRANCH  66  69
ATOM     69  S   UNL     1      13.503   9.471  -4.263  1.00  0.00     0.127 S 
ATOM     70  O   UNL     1      13.911   8.069  -4.301  1.00  0.00    -0.237 OA
ATOM     71  O   UNL     1      14.317  10.368  -5.081  1.00  0.00    -0.237 OA
ATOM     72  O   UNL     1      13.172   9.986  -2.938  1.00  0.00    -0.744 OA
ENDBRANCH  66  69
ENDBRANCH  48  62
BRANCH  49  73
ATOM     73  C   UNL     1       0.609  11.127  -1.006  1.00  0.00     0.023 A 
ATOM     74  C   UNL     1      -0.347  12.015  -1.536  1.00  0.00     0.012 A 
ATOM     75  C   UNL     1       0.300  10.408   0.165  1.00  0.00     0.148 A 
ATOM     76  C   UNL     1      -1.572  12.210  -0.898  1.00  0.00     0.002 A 
ATOM     77  C   UNL     1      -0.945  10.564   0.765  1.00  0.00     0.091 A 
ATOM     78  F   UNL     1       1.223   9.571   0.659  1.00  0.00    -0.205 F 
ATOM     79  C   UNL     1      -1.876  11.477   0.245  1.00  0.00     0.022 A 
BRANCH  77  80
ATOM     80  S   UNL     1      -1.477   9.565   2.161  1.00  0.00     0.127 S 
ATOM     81  O   UNL     1      -1.502  10.547   3.241  1.00  0.00    -0.237 OA
ATOM     82  O   UNL     1      -2.793   9.103   1.717  1.00  0.00    -0.237 OA
ATOM     83  O   UNL     1      -0.483   8.507   2.289  1.00  0.00    -0.744 OA
ENDBRANCH  77  80
ENDBRANCH  49  73
BRANCH  61  84
ATOM     84  C   UNL     1       6.080  15.258  -2.365  1.00  0.00     0.023 A 
ATOM     85  C   UNL     1       6.329  15.713  -1.056  1.00  0.00     0.012 A 
ATOM     86  C   UNL     1       6.150  16.163  -3.442  1.00  0.00     0.148 A 
ATOM     87  C   UNL     1       6.606  17.059  -0.819  1.00  0.00     0.002 A 
ATOM     88  C   UNL     1       6.482  17.490  -3.204  1.00  0.00     0.091 A 
ATOM     89  F   UNL     1       5.894  15.710  -4.678  1.00  0.00    -0.205 F 
ATOM     90  C   UNL     1       6.695  17.943  -1.892  1.00  0.00     0.022 A 
BRANCH  88  91
ATOM     91  S   UNL     1       6.724  18.671  -4.534  1.00  0.00     0.127 S 
ATOM     92  O   UNL     1       5.539  19.517  -4.400  1.00  0.00    -0.237 OA
ATOM     93  O   UNL     1       7.981  19.315  -4.151  1.00  0.00    -0.237 OA
ATOM     94  O   UNL     1       6.797  17.888  -5.760  1.00  0.00    -0.744 OA
ENDBRANCH  88  91
ENDBRANCH  61  84
ENDBRANCH  35  36
ENDBRANCH  27  30
ENDBRANCH   1  26
TORSDOF 14
