REMARK SMILES O=C(C[NH+]1CCC(C(=O)NCCCNC(=O)c2ccc(-c3c4nc(c(-c5cccc(S(=O)(=O)[O-])c5F)c5ccc([nH]5)c(-c5cccc(S(=O)(=O)[O-])c5F)c5nc(c(-c6cccc(S(=O)(=O)[O-])c6F)c6ccc3[nH]6)C=C5)C=C4)cc2)CC1)Nc1ccccc1Oc1ccccc1
REMARK SMILES IDX 11 1 10 2 8 3 9 4 7 6 4 7 5 8 81 9 6 11 80 12 3 13 2 14 1 15
REMARK SMILES IDX 82 16 83 18 84 19 88 20 85 21 87 22 86 23 89 24 90 25 91 26
REMARK SMILES IDX 95 27 92 28 94 29 93 30 12 31 13 32 14 33 15 34 16 36 17 37
REMARK SMILES IDX 18 38 79 39 19 40 78 41 20 42 21 43 22 44 72 45 23 46 77 47
REMARK SMILES IDX 71 48 73 49 24 50 76 51 70 52 69 53 25 55 57 56 37 57 56 58
REMARK SMILES IDX 38 59 41 60 55 61 74 62 39 63 40 64 54 66 75 67 42 68 26 69
REMARK SMILES IDX 27 70 35 71 28 72 30 73 36 74 29 75 31 76 32 77 33 78 34 79
REMARK SMILES IDX 58 80 59 81 67 82 60 83 62 84 68 85 61 86 63 87 64 88 65 89
REMARK SMILES IDX 66 90 43 91 44 92 52 93 45 94 47 95 53 96 46 97 48 98 49 99
REMARK SMILES IDX 50 100 51 101
REMARK H PARENT 10 5 4 10 82 17 14 35 73 54 41 65
REMARK Flexibility Score: inf
ROOT
ATOM      1  C   UNL     1       6.053  -3.272   4.128  1.00  0.00     0.117 C 
ENDROOT
BRANCH   1   2
ATOM      2  N   UNL     1       6.762  -4.199   3.252  1.00  0.00    -0.356 N 
ATOM      3  C   UNL     1       6.738  -4.332   1.895  1.00  0.00     0.223 C 
ATOM      4  O   UNL     1       7.467  -5.176   1.371  1.00  0.00    -0.275 OA
ATOM      5  H   UNL     1       7.356  -4.832   3.717  1.00  0.00     0.163 HD
BRANCH   3   6
ATOM      6  C   UNL     1       5.841  -3.451   1.046  1.00  0.00     0.089 C 
ATOM      7  N   UNL     1       3.892  -1.363   1.375  1.00  0.00    -0.327 N 
ATOM      8  C   UNL     1       3.426  -2.672   0.924  1.00  0.00     0.263 C 
ATOM      9  C   UNL     1       5.188  -0.977   0.834  1.00  0.00     0.263 C 
ATOM     10  H   UNL     1       4.068  -1.456   2.375  1.00  0.00     0.348 HD
ATOM     11  C   UNL     1       4.376  -3.761   1.360  1.00  0.00     0.075 C 
ATOM     12  C   UNL     1       6.281  -1.985   1.156  1.00  0.00     0.075 C 
BRANCH   7  13
ATOM     13  C   UNL     1       2.846  -0.322   1.250  1.00  0.00     0.363 C 
BRANCH  13  14
ATOM     14  C   UNL     1       1.938  -0.480   0.021  1.00  0.00     0.279 C 
ATOM     15  O   UNL     1       0.741  -0.735   0.124  1.00  0.00    -0.268 OA
ATOM     16  N   UNL     1       2.618  -0.375  -1.179  1.00  0.00    -0.318 N 
ATOM     17  H   UNL     1       3.597  -0.280  -1.150  1.00  0.00     0.170 HD
BRANCH  16  18
ATOM     18  C   UNL     1       1.996  -0.395  -2.433  1.00  0.00     0.084 A 
ATOM     19  C   UNL     1       2.499  -1.356  -3.328  1.00  0.00     0.030 A 
ATOM     20  C   UNL     1       0.940   0.443  -2.822  1.00  0.00     0.150 A 
ATOM     21  C   UNL     1       1.888  -1.571  -4.560  1.00  0.00     0.002 A 
ATOM     22  C   UNL     1       0.337   0.211  -4.069  1.00  0.00     0.049 A 
ATOM     23  C   UNL     1       0.794  -0.796  -4.925  1.00  0.00     0.004 A 
BRANCH  20  24
ATOM     24  O   UNL     1       0.378   1.510  -2.149  1.00  0.00    -0.455 OA
BRANCH  24  25
ATOM     25  C   UNL     1       1.033   2.148  -1.125  1.00  0.00     0.127 A 
ATOM     26  C   UNL     1       0.330   2.259   0.079  1.00  0.00     0.047 A 
ATOM     27  C   UNL     1       2.313   2.691  -1.235  1.00  0.00     0.047 A 
ATOM     28  C   UNL     1       0.939   2.817   1.202  1.00  0.00     0.004 A 
ATOM     29  C   UNL     1       2.921   3.260  -0.109  1.00  0.00     0.004 A 
ATOM     30  C   UNL     1       2.239   3.310   1.110  1.00  0.00     0.000 A 
ENDBRANCH  24  25
ENDBRANCH  20  24
ENDBRANCH  16  18
ENDBRANCH  13  14
ENDBRANCH   7  13
ENDBRANCH   3   6
ENDBRANCH   1   2
BRANCH   1  31
ATOM     31  C   UNL     1       5.044  -3.956   5.035  1.00  0.00     0.042 C 
BRANCH  31  32
ATOM     32  C   UNL     1       5.653  -5.024   5.918  1.00  0.00     0.118 C 
BRANCH  32  33
ATOM     33  N   UNL     1       6.663  -4.486   6.817  1.00  0.00    -0.352 N 
ATOM     34  C   UNL     1       6.692  -4.493   8.190  1.00  0.00     0.251 C 
ATOM     35  H   UNL     1       7.434  -4.058   6.380  1.00  0.00     0.163 HD
ATOM     36  O   UNL     1       7.511  -3.802   8.785  1.00  0.00    -0.269 OA
BRANCH  34  37
ATOM     37  C   UNL     1       5.724  -5.325   8.935  1.00  0.00     0.039 A 
ATOM     38  C   UNL     1       5.138  -4.814  10.094  1.00  0.00     0.014 A 
ATOM     39  C   UNL     1       5.394  -6.607   8.486  1.00  0.00     0.014 A 
ATOM     40  C   UNL     1       4.190  -5.576  10.777  1.00  0.00     0.010 A 
ATOM     41  C   UNL     1       4.367  -7.310   9.098  1.00  0.00     0.010 A 
ATOM     42  C   UNL     1       3.779  -6.821  10.271  1.00  0.00    -0.014 A 
BRANCH  42  43
ATOM     43  C   UNL     1       2.773  -7.651  10.976  1.00  0.00     0.031 A 
ATOM     44  C   UNL     1       3.150  -9.026  11.465  1.00  0.00     0.074 A 
ATOM     45  C   UNL     1       1.510  -7.205  11.111  1.00  0.00     0.049 A 
ATOM     46  N   UNL     1       2.406  -9.925  12.053  1.00  0.00    -0.248 NA
ATOM     47  C   UNL     1       4.539  -9.463  11.232  1.00  0.00     0.031 C 
ATOM     48  C   UNL     1       1.003  -5.926  10.608  1.00  0.00     0.029 A 
ATOM     49  N   UNL     1       0.414  -7.788  11.695  1.00  0.00    -0.354 N 
ATOM     50  C   UNL     1       3.218 -11.040  12.220  1.00  0.00     0.074 A 
ATOM     51  C   UNL     1       4.498 -10.725  11.630  1.00  0.00     0.031 C 
ATOM     52  C   UNL     1      -0.299  -5.816  10.916  1.00  0.00     0.029 A 
ATOM     53  C   UNL     1      -0.728  -7.027  11.607  1.00  0.00     0.049 A 
ATOM     54  H   UNL     1       0.443  -8.668  12.135  1.00  0.00     0.167 HD
ATOM     55  C   UNL     1       2.938 -12.210  12.841  1.00  0.00     0.034 A 
ATOM     56  C   UNL     1      -1.981  -7.282  12.031  1.00  0.00     0.034 A 
ATOM     57  C   UNL     1       1.678 -12.500  13.467  1.00  0.00     0.049 A 
ATOM     58  C   UNL     1      -2.255  -8.571  12.758  1.00  0.00     0.074 A 
ATOM     59  C   UNL     1       1.316 -13.619  14.194  1.00  0.00     0.029 A 
ATOM     60  N   UNL     1       0.571 -11.667  13.435  1.00  0.00    -0.354 N 
ATOM     61  N   UNL     1      -1.432  -9.554  13.036  1.00  0.00    -0.248 NA
ATOM     62  C   UNL     1      -3.619  -8.768  13.268  1.00  0.00     0.031 C 
ATOM     63  C   UNL     1      -0.021 -13.476  14.576  1.00  0.00     0.029 A 
ATOM     64  C   UNL     1      -0.478 -12.248  14.125  1.00  0.00     0.049 A 
ATOM     65  H   UNL     1       0.536 -10.790  12.987  1.00  0.00     0.167 HD
ATOM     66  C   UNL     1      -2.164 -10.461  13.792  1.00  0.00     0.074 A 
ATOM     67  C   UNL     1      -3.493  -9.903  13.941  1.00  0.00     0.031 C 
ATOM     68  C   UNL     1      -1.776 -11.652  14.311  1.00  0.00     0.034 A 
BRANCH  55  69
ATOM     69  C   UNL     1       4.032 -13.245  12.911  1.00  0.00     0.023 A 
ATOM     70  C   UNL     1       5.167 -13.013  13.716  1.00  0.00     0.012 A 
ATOM     71  C   UNL     1       3.916 -14.467  12.220  1.00  0.00     0.148 A 
ATOM     72  C   UNL     1       6.187 -13.960  13.799  1.00  0.00     0.002 A 
ATOM     73  C   UNL     1       4.912 -15.428  12.349  1.00  0.00     0.091 A 
ATOM     74  F   UNL     1       2.841 -14.662  11.443  1.00  0.00    -0.205 F 
ATOM     75  C   UNL     1       6.054 -15.170  13.126  1.00  0.00     0.022 A 
BRANCH  73  76
ATOM     76  S   UNL     1       4.795 -17.052  11.593  1.00  0.00     0.127 S 
ATOM     77  O   UNL     1       5.842 -16.979  10.574  1.00  0.00    -0.237 OA
ATOM     78  O   UNL     1       5.100 -17.936  12.718  1.00  0.00    -0.237 OA
ATOM     79  O   UNL     1       3.436 -17.163  11.082  1.00  0.00    -0.744 OA
ENDBRANCH  73  76
ENDBRANCH  55  69
BRANCH  56  80
ATOM     80  C   UNL     1      -3.056  -6.268  11.840  1.00  0.00     0.023 A 
ATOM     81  C   UNL     1      -3.578  -5.590  12.959  1.00  0.00     0.012 A 
ATOM     82  C   UNL     1      -3.550  -5.959  10.559  1.00  0.00     0.148 A 
ATOM     83  C   UNL     1      -4.602  -4.654  12.811  1.00  0.00     0.002 A 
ATOM     84  C   UNL     1      -4.529  -4.984  10.411  1.00  0.00     0.091 A 
ATOM     85  F   UNL     1      -3.043  -6.619   9.508  1.00  0.00    -0.205 F 
ATOM     86  C   UNL     1      -5.071  -4.345  11.537  1.00  0.00     0.022 A 
BRANCH  84  87
ATOM     87  S   UNL     1      -5.103  -4.429   8.803  1.00  0.00     0.127 S 
ATOM     88  O   UNL     1      -6.475  -4.930   8.786  1.00  0.00    -0.237 OA
ATOM     89  O   UNL     1      -4.978  -2.977   8.925  1.00  0.00    -0.237 OA
ATOM     90  O   UNL     1      -4.199  -5.032   7.833  1.00  0.00    -0.744 OA
ENDBRANCH  84  87
ENDBRANCH  56  80
BRANCH  68  91
ATOM     91  C   UNL     1      -2.773 -12.409  15.149  1.00  0.00     0.023 A 
ATOM     92  C   UNL     1      -3.890 -13.019  14.547  1.00  0.00     0.012 A 
ATOM     93  C   UNL     1      -2.559 -12.568  16.533  1.00  0.00     0.148 A 
ATOM     94  C   UNL     1      -4.801 -13.742  15.317  1.00  0.00     0.002 A 
ATOM     95  C   UNL     1      -3.439 -13.336  17.283  1.00  0.00     0.091 A 
ATOM     96  F   UNL     1      -1.499 -11.963  17.090  1.00  0.00    -0.205 F 
ATOM     97  C   UNL     1      -4.569 -13.911  16.680  1.00  0.00     0.022 A 
BRANCH  95  98
ATOM     98  S   UNL     1      -3.162 -13.692  19.021  1.00  0.00     0.127 S 
ATOM     99  O   UNL     1      -4.184 -12.866  19.661  1.00  0.00    -0.237 OA
ATOM    100  O   UNL     1      -3.412 -15.132  19.086  1.00  0.00    -0.237 OA
ATOM    101  O   UNL     1      -1.784 -13.307  19.295  1.00  0.00    -0.744 OA
ENDBRANCH  95  98
ENDBRANCH  68  91
ENDBRANCH  42  43
ENDBRANCH  34  37
ENDBRANCH  32  33
ENDBRANCH  31  32
ENDBRANCH   1  31
TORSDOF 18
