REMARK SMILES Cc1cccc(-n2c(C)cc(/C=N\c3ccc(O)c(C(=O)NCCCNC(=O)c4ccc(-c5c6nc(c(-c7cccc(S(=O)(=O)[O-])c7F)c7ccc([nH]7)c(-c7cccc(S(=O)(=O)[O-])c7F)c7nc(c(-c8cccc(S(=O)(=O)[O-])c8F)c8ccc5[nH]8)C=C7)C=C6)cc4)c3)c2C)c1
REMARK SMILES IDX 24 1 23 2 22 3 20 4 21 5 19 7 14 8 15 9 92 10 16 11 17 12
REMARK SMILES IDX 13 13 12 14 11 15 7 16 8 17 93 18 9 19 10 20 94 21 6 22 1 23
REMARK SMILES IDX 2 24 3 25 95 26 4 27 5 28 18 29 25 31 26 32 27 33 28 35
REMARK SMILES IDX 29 36 30 37 91 38 31 39 90 40 32 41 33 42 34 43 84 44 35 45
REMARK SMILES IDX 89 46 83 47 85 48 36 49 88 50 82 51 81 52 37 54 69 55 49 56
REMARK SMILES IDX 68 57 50 58 53 59 67 60 86 61 51 62 52 63 66 65 87 66 54 67
REMARK SMILES IDX 38 68 39 69 47 70 40 71 42 72 48 73 41 74 43 75 44 76 45 77
REMARK SMILES IDX 46 78 70 79 71 80 79 81 72 82 74 83 80 84 73 85 75 86 76 87
REMARK SMILES IDX 77 88 78 89 55 90 56 91 64 92 57 93 59 94 65 95 58 96 60 97
REMARK SMILES IDX 61 98 62 99 63 100
REMARK H PARENT 22 6 18 30 26 34 85 53 53 64
REMARK Flexibility Score: inf
ROOT
ATOM      1  C   UNL     1      -3.282  -1.342   7.258  1.00  0.00     0.042 C 
ENDROOT
BRANCH   1   2
ATOM      2  C   UNL     1      -3.732  -1.306   5.812  1.00  0.00     0.118 C 
BRANCH   2   3
ATOM      3  N   UNL     1      -5.068  -0.824   5.474  1.00  0.00    -0.352 N 
ATOM      4  C   UNL     1      -5.494   0.250   4.706  1.00  0.00     0.255 C 
ATOM      5  O   UNL     1      -6.681   0.309   4.388  1.00  0.00    -0.269 OA
ATOM      6  H   UNL     1      -5.799  -1.357   5.862  1.00  0.00     0.163 HD
BRANCH   4   7
ATOM      7  C   UNL     1      -4.580   1.352   4.277  1.00  0.00     0.083 A 
ATOM      8  C   UNL     1      -4.200   3.554   3.326  1.00  0.00     0.064 A 
ATOM      9  C   UNL     1      -2.874   3.519   3.759  1.00  0.00     0.032 A 
ATOM     10  C   UNL     1      -5.091   2.551   3.758  1.00  0.00     0.046 A 
ATOM     11  C   UNL     1      -2.351   2.325   4.219  1.00  0.00     0.049 A 
ATOM     12  C   UNL     1      -3.195   1.226   4.229  1.00  0.00     0.128 A 
BRANCH   8  13
ATOM     13  N   UNL     1      -4.616   4.547   2.437  1.00  0.00    -0.256 NA
ATOM     14  C   UNL     1      -4.154   4.684   1.220  1.00  0.00     0.121 C 
BRANCH  14  15
ATOM     15  C   UNL     1      -3.195   3.932   0.381  1.00  0.00     0.014 A 
ATOM     16  N   UNL     1      -1.809   2.397  -0.599  1.00  0.00    -0.318 N 
ATOM     17  C   UNL     1      -1.620   3.589  -1.269  1.00  0.00     0.021 A 
ATOM     18  C   UNL     1      -2.856   2.582   0.307  1.00  0.00     0.029 A 
ATOM     19  C   UNL     1      -0.735   3.717  -2.457  1.00  0.00     0.065 C 
ATOM     20  C   UNL     1      -2.447   4.534  -0.684  1.00  0.00     0.033 A 
ATOM     21  C   UNL     1      -3.314   1.451   1.123  1.00  0.00     0.065 C 
BRANCH  16  22
ATOM     22  C   UNL     1      -1.015   1.207  -0.712  1.00  0.00     0.046 A 
ATOM     23  C   UNL     1       2.571   0.098  -0.007  1.00  0.00     0.044 C 
ATOM     24  C   UNL     1       1.098   0.079  -0.294  1.00  0.00    -0.049 A 
ATOM     25  C   UNL     1       0.439  -1.158  -0.354  1.00  0.00     0.003 A 
ATOM     26  C   UNL     1       0.365   1.267  -0.472  1.00  0.00     0.030 A 
ATOM     27  C   UNL     1      -0.918  -1.218  -0.653  1.00  0.00     0.002 A 
ATOM     28  C   UNL     1      -1.633  -0.041  -0.867  1.00  0.00     0.026 A 
ENDBRANCH  16  22
ENDBRANCH  14  15
ENDBRANCH   8  13
BRANCH  12  29
ATOM     29  O   UNL     1      -2.603   0.081   3.708  1.00  0.00    -0.507 OA
ATOM     30  H   UNL     1      -1.669   0.007   3.681  1.00  0.00     0.293 HD
ENDBRANCH  12  29
ENDBRANCH   4   7
ENDBRANCH   2   3
ENDBRANCH   1   2
BRANCH   1  31
ATOM     31  C   UNL     1      -3.593  -2.657   7.899  1.00  0.00     0.118 C 
BRANCH  31  32
ATOM     32  N   UNL     1      -2.963  -3.787   7.186  1.00  0.00    -0.352 N 
ATOM     33  C   UNL     1      -3.152  -5.137   7.412  1.00  0.00     0.251 C 
ATOM     34  H   UNL     1      -2.335  -3.550   6.465  1.00  0.00     0.163 HD
ATOM     35  O   UNL     1      -2.342  -5.962   6.981  1.00  0.00    -0.269 OA
BRANCH  33  36
ATOM     36  C   UNL     1      -4.388  -5.519   8.094  1.00  0.00     0.039 A 
ATOM     37  C   UNL     1      -4.530  -6.529   9.044  1.00  0.00     0.014 A 
ATOM     38  C   UNL     1      -5.470  -4.738   7.726  1.00  0.00     0.014 A 
ATOM     39  C   UNL     1      -5.802  -6.750   9.570  1.00  0.00     0.010 A 
ATOM     40  C   UNL     1      -6.522  -4.661   8.561  1.00  0.00     0.010 A 
ATOM     41  C   UNL     1      -6.792  -5.822   9.268  1.00  0.00    -0.014 A 
BRANCH  41  42
ATOM     42  C   UNL     1      -8.220  -5.951   9.442  1.00  0.00     0.031 A 
ATOM     43  C   UNL     1      -8.802  -5.710  10.752  1.00  0.00     0.074 A 
ATOM     44  C   UNL     1      -8.909  -5.816   8.280  1.00  0.00     0.049 A 
ATOM     45  N   UNL     1     -10.044  -5.887  11.009  1.00  0.00    -0.248 NA
ATOM     46  C   UNL     1      -8.021  -5.237  11.887  1.00  0.00     0.031 C 
ATOM     47  C   UNL     1     -10.187  -5.167   8.037  1.00  0.00     0.029 A 
ATOM     48  N   UNL     1      -8.491  -6.087   6.986  1.00  0.00    -0.354 N 
ATOM     49  C   UNL     1     -10.291  -5.223  12.188  1.00  0.00     0.074 A 
ATOM     50  C   UNL     1      -8.991  -5.025  12.782  1.00  0.00     0.031 C 
ATOM     51  C   UNL     1     -10.539  -5.365   6.749  1.00  0.00     0.029 A 
ATOM     52  C   UNL     1      -9.588  -6.302   6.170  1.00  0.00     0.049 A 
ATOM     53  H   UNL     1      -7.552  -6.122   6.691  1.00  0.00     0.167 HD
ATOM     54  C   UNL     1     -11.550  -4.746  12.394  1.00  0.00     0.034 A 
ATOM     55  C   UNL     1      -9.865  -7.585   5.770  1.00  0.00     0.034 A 
ATOM     56  C   UNL     1     -12.419  -5.084  11.239  1.00  0.00     0.049 A 
ATOM     57  C   UNL     1     -11.052  -8.169   6.533  1.00  0.00     0.074 A 
ATOM     58  C   UNL     1     -12.911  -4.383  10.149  1.00  0.00     0.029 A 
ATOM     59  N   UNL     1     -12.612  -6.419  10.931  1.00  0.00    -0.354 N 
ATOM     60  N   UNL     1     -11.797  -7.503   7.376  1.00  0.00    -0.248 NA
ATOM     61  C   UNL     1     -11.459  -9.568   6.441  1.00  0.00     0.031 C 
ATOM     62  C   UNL     1     -13.346  -5.336   9.167  1.00  0.00     0.029 A 
ATOM     63  C   UNL     1     -13.150  -6.612   9.671  1.00  0.00     0.049 A 
ATOM     64  H   UNL     1     -12.390  -7.155  11.545  1.00  0.00     0.167 HD
ATOM     65  C   UNL     1     -12.592  -8.364   8.081  1.00  0.00     0.074 A 
ATOM     66  C   UNL     1     -12.387  -9.642   7.412  1.00  0.00     0.031 C 
ATOM     67  C   UNL     1     -13.311  -7.988   9.188  1.00  0.00     0.034 A 
BRANCH  54  68
ATOM     68  C   UNL     1     -11.985  -3.779  13.483  1.00  0.00     0.023 A 
ATOM     69  C   UNL     1     -13.290  -3.252  13.366  1.00  0.00     0.012 A 
ATOM     70  C   UNL     1     -11.241  -3.329  14.603  1.00  0.00     0.148 A 
ATOM     71  C   UNL     1     -13.806  -2.303  14.253  1.00  0.00     0.002 A 
ATOM     72  C   UNL     1     -11.745  -2.363  15.480  1.00  0.00     0.091 A 
ATOM     73  F   UNL     1     -10.049  -3.850  14.878  1.00  0.00    -0.205 F 
ATOM     74  C   UNL     1     -13.028  -1.845  15.304  1.00  0.00     0.022 A 
BRANCH  72  75
ATOM     75  S   UNL     1     -10.790  -1.705  16.864  1.00  0.00     0.127 S 
ATOM     76  O   UNL     1     -10.813  -0.266  16.592  1.00  0.00    -0.237 OA
ATOM     77  O   UNL     1     -11.589  -2.116  18.017  1.00  0.00    -0.237 OA
ATOM     78  O   UNL     1      -9.466  -2.308  16.782  1.00  0.00    -0.744 OA
ENDBRANCH  72  75
ENDBRANCH  54  68
BRANCH  55  79
ATOM     79  C   UNL     1      -8.594  -8.318   5.407  1.00  0.00     0.023 A 
ATOM     80  C   UNL     1      -7.867  -7.790   4.309  1.00  0.00     0.012 A 
ATOM     81  C   UNL     1      -7.900  -9.094   6.358  1.00  0.00     0.148 A 
ATOM     82  C   UNL     1      -6.470  -7.847   4.281  1.00  0.00     0.002 A 
ATOM     83  C   UNL     1      -6.505  -9.160   6.312  1.00  0.00     0.091 A 
ATOM     84  F   UNL     1      -8.594  -9.688   7.337  1.00  0.00    -0.205 F 
ATOM     85  C   UNL     1      -5.787  -8.485   5.311  1.00  0.00     0.022 A 
BRANCH  83  86
ATOM     86  S   UNL     1      -5.569 -10.020   7.587  1.00  0.00     0.127 S 
ATOM     87  O   UNL     1      -5.473 -11.363   7.023  1.00  0.00    -0.237 OA
ATOM     88  O   UNL     1      -4.304  -9.286   7.621  1.00  0.00    -0.237 OA
ATOM     89  O   UNL     1      -6.368  -9.885   8.796  1.00  0.00    -0.744 OA
ENDBRANCH  83  86
ENDBRANCH  55  79
BRANCH  67  90
ATOM     90  C   UNL     1     -14.249  -8.934   9.922  1.00  0.00     0.023 A 
ATOM     91  C   UNL     1     -15.016  -9.868   9.199  1.00  0.00     0.012 A 
ATOM     92  C   UNL     1     -14.515  -8.841  11.314  1.00  0.00     0.148 A 
ATOM     93  C   UNL     1     -15.927 -10.722   9.830  1.00  0.00     0.002 A 
ATOM     94  C   UNL     1     -15.508  -9.604  11.916  1.00  0.00     0.091 A 
ATOM     95  F   UNL     1     -13.775  -8.050  12.094  1.00  0.00    -0.205 F 
ATOM     96  C   UNL     1     -16.187 -10.578  11.186  1.00  0.00     0.022 A 
BRANCH  94  97
ATOM     97  S   UNL     1     -16.052  -9.309  13.606  1.00  0.00     0.127 S 
ATOM     98  O   UNL     1     -17.495  -9.139  13.424  1.00  0.00    -0.237 OA
ATOM     99  O   UNL     1     -15.664 -10.553  14.267  1.00  0.00    -0.237 OA
ATOM    100  O   UNL     1     -15.358  -8.111  14.055  1.00  0.00    -0.744 OA
ENDBRANCH  94  97
ENDBRANCH  67  90
ENDBRANCH  41  42
ENDBRANCH  33  36
ENDBRANCH  31  32
ENDBRANCH   1  31
TORSDOF 17
