REMARK SMILES CC[N@H+](CC(=O)NCCCNC(=O)c1ccc(-c2c3nc(c(-c4cccc(S(=O)(=O)[O-])c4F)c4ccc([nH]4)c(-c4cccc(S(=O)(=O)[O-])c4F)c4nc(c(-c5cccc(S(=O)(=O)[O-])c5F)c5ccc2[nH]5)C=C4)C=C3)cc1)[C@H]1CC[N@@H+](C)C1
REMARK SMILES IDX 9 1 8 2 7 3 5 4 6 5 4 7 3 8 2 10 1 11 77 12 78 13 82 14
REMARK SMILES IDX 79 15 80 16 81 17 10 19 11 20 12 21 13 23 14 24 15 25 76 26
REMARK SMILES IDX 16 27 75 28 17 29 18 30 19 31 69 32 20 33 74 34 68 35 70 36
REMARK SMILES IDX 21 37 73 38 67 39 66 40 22 42 54 43 34 44 53 45 35 46 38 47
REMARK SMILES IDX 52 48 71 49 36 50 37 51 51 53 72 54 39 55 23 56 24 57 32 58
REMARK SMILES IDX 25 59 27 60 33 61 26 62 28 63 29 64 30 65 31 66 55 67 56 68
REMARK SMILES IDX 64 69 57 70 59 71 65 72 58 73 60 74 61 75 62 76 63 77 40 78
REMARK SMILES IDX 41 79 49 80 42 81 44 82 50 83 43 84 45 85 46 86 47 87 48 88
REMARK H PARENT 7 6 3 9 80 18 11 22 70 41 38 52
REMARK Flexibility Score: inf
ROOT
ATOM      1  C   UNL     1       1.164   1.266   4.432  1.00  0.00     0.042 C 
ENDROOT
BRANCH   1   2
ATOM      2  C   UNL     1       1.155   2.743   4.030  1.00  0.00     0.118 C 
BRANCH   2   3
ATOM      3  N   UNL     1       2.490   3.304   3.872  1.00  0.00    -0.351 N 
ATOM      4  C   UNL     1       3.177   3.701   2.757  1.00  0.00     0.275 C 
ATOM      5  O   UNL     1       4.305   4.174   2.929  1.00  0.00    -0.269 OA
ATOM      6  H   UNL     1       2.984   3.418   4.716  1.00  0.00     0.163 HD
BRANCH   4   7
ATOM      7  C   UNL     1       2.559   3.589   1.350  1.00  0.00     0.363 C 
BRANCH   7   8
ATOM      8  N   UNL     1       3.025   2.371   0.606  1.00  0.00    -0.320 N 
ATOM      9  H   UNL     1       4.042   2.302   0.592  1.00  0.00     0.348 HD
BRANCH   8  10
ATOM     10  C   UNL     1       2.515   1.187   1.321  1.00  0.00     0.259 C 
ATOM     11  C   UNL     1       2.682  -0.238   0.814  1.00  0.00     0.071 C 
ENDBRANCH   8  10
BRANCH   8  12
ATOM     12  C   UNL     1       2.659   2.451  -0.829  1.00  0.00     0.245 C 
ATOM     13  C   UNL     1       3.294   3.656  -1.569  1.00  0.00     0.132 C 
ATOM     14  C   UNL     1       3.125   1.264  -1.704  1.00  0.00     0.328 C 
ATOM     15  C   UNL     1       4.147   3.072  -2.686  1.00  0.00     0.268 C 
ATOM     16  N   UNL     1       3.452   1.834  -3.017  1.00  0.00    -0.332 N 
ATOM     17  C   UNL     1       4.295   0.913  -3.775  1.00  0.00     0.332 C 
ATOM     18  H   UNL     1       2.637   2.000  -3.607  1.00  0.00     0.348 HD
ENDBRANCH   8  12
ENDBRANCH   7   8
ENDBRANCH   4   7
ENDBRANCH   2   3
ENDBRANCH   1   2
BRANCH   1  19
ATOM     19  C   UNL     1       1.720   0.998   5.824  1.00  0.00     0.118 C 
BRANCH  19  20
ATOM     20  N   UNL     1       0.691   1.138   6.840  1.00  0.00    -0.352 N 
ATOM     21  C   UNL     1       0.044   0.168   7.568  1.00  0.00     0.251 C 
ATOM     22  H   UNL     1       0.417   2.063   7.036  1.00  0.00     0.163 HD
ATOM     23  O   UNL     1      -0.992   0.464   8.161  1.00  0.00    -0.269 OA
BRANCH  21  24
ATOM     24  C   UNL     1       0.569  -1.219   7.645  1.00  0.00     0.039 A 
ATOM     25  C   UNL     1      -0.340  -2.283   7.683  1.00  0.00     0.014 A 
ATOM     26  C   UNL     1       1.937  -1.481   7.752  1.00  0.00     0.014 A 
ATOM     27  C   UNL     1       0.124  -3.598   7.795  1.00  0.00     0.010 A 
ATOM     28  C   UNL     1       2.401  -2.796   7.777  1.00  0.00     0.010 A 
ATOM     29  C   UNL     1       1.501  -3.870   7.827  1.00  0.00    -0.014 A 
BRANCH  29  30
ATOM     30  C   UNL     1       2.014  -5.262   7.939  1.00  0.00     0.031 A 
ATOM     31  C   UNL     1       2.837  -5.679   9.132  1.00  0.00     0.074 A 
ATOM     32  C   UNL     1       1.813  -6.135   6.932  1.00  0.00     0.049 A 
ATOM     33  N   UNL     1       3.404  -6.831   9.383  1.00  0.00    -0.248 NA
ATOM     34  C   UNL     1       3.080  -4.658  10.164  1.00  0.00     0.031 C 
ATOM     35  C   UNL     1       1.113  -5.835   5.683  1.00  0.00     0.029 A 
ATOM     36  N   UNL     1       2.206  -7.443   6.787  1.00  0.00    -0.354 N 
ATOM     37  C   UNL     1       4.106  -6.661  10.571  1.00  0.00     0.074 A 
ATOM     38  C   UNL     1       3.921  -5.285  10.974  1.00  0.00     0.031 C 
ATOM     39  C   UNL     1       1.124  -6.925   4.900  1.00  0.00     0.029 A 
ATOM     40  C   UNL     1       1.852  -7.994   5.578  1.00  0.00     0.049 A 
ATOM     41  H   UNL     1       2.693  -7.939   7.484  1.00  0.00     0.167 HD
ATOM     42  C   UNL     1       4.814  -7.572  11.282  1.00  0.00     0.034 A 
ATOM     43  C   UNL     1       2.090  -9.219   5.068  1.00  0.00     0.034 A 
ATOM     44  C   UNL     1       4.948  -8.955  10.911  1.00  0.00     0.049 A 
ATOM     45  C   UNL     1       2.818 -10.236   5.903  1.00  0.00     0.074 A 
ATOM     46  C   UNL     1       5.545  -9.982  11.620  1.00  0.00     0.029 A 
ATOM     47  N   UNL     1       4.487  -9.504   9.724  1.00  0.00    -0.354 N 
ATOM     48  N   UNL     1       3.319 -10.105   7.108  1.00  0.00    -0.248 NA
ATOM     49  C   UNL     1       2.978 -11.579   5.329  1.00  0.00     0.031 C 
ATOM     50  C   UNL     1       5.463 -11.149  10.851  1.00  0.00     0.029 A 
ATOM     51  C   UNL     1       4.795 -10.853   9.674  1.00  0.00     0.049 A 
ATOM     52  H   UNL     1       4.010  -9.008   9.021  1.00  0.00     0.167 HD
ATOM     53  C   UNL     1       3.829 -11.354   7.447  1.00  0.00     0.074 A 
ATOM     54  C   UNL     1       3.554 -12.233   6.329  1.00  0.00     0.031 C 
ATOM     55  C   UNL     1       4.477 -11.732   8.577  1.00  0.00     0.034 A 
BRANCH  42  56
ATOM     56  C   UNL     1       5.452  -7.110  12.567  1.00  0.00     0.023 A 
ATOM     57  C   UNL     1       4.638  -6.805  13.678  1.00  0.00     0.012 A 
ATOM     58  C   UNL     1       6.851  -7.012  12.692  1.00  0.00     0.148 A 
ATOM     59  C   UNL     1       5.202  -6.367  14.876  1.00  0.00     0.002 A 
ATOM     60  C   UNL     1       7.409  -6.618  13.904  1.00  0.00     0.091 A 
ATOM     61  F   UNL     1       7.612  -7.283  11.622  1.00  0.00    -0.205 F 
ATOM     62  C   UNL     1       6.586  -6.282  14.991  1.00  0.00     0.022 A 
BRANCH  60  63
ATOM     63  S   UNL     1       9.184  -6.558  14.172  1.00  0.00     0.127 S 
ATOM     64  O   UNL     1       9.445  -5.121  14.104  1.00  0.00    -0.237 OA
ATOM     65  O   UNL     1       9.317  -7.137  15.510  1.00  0.00    -0.237 OA
ATOM     66  O   UNL     1       9.773  -7.357  13.108  1.00  0.00    -0.744 OA
ENDBRANCH  60  63
ENDBRANCH  42  56
BRANCH  43  67
ATOM     67  C   UNL     1       1.558  -9.565   3.719  1.00  0.00     0.023 A 
ATOM     68  C   UNL     1       0.463 -10.444   3.613  1.00  0.00     0.012 A 
ATOM     69  C   UNL     1       2.085  -8.977   2.553  1.00  0.00     0.148 A 
ATOM     70  C   UNL     1      -0.087 -10.746   2.367  1.00  0.00     0.002 A 
ATOM     71  C   UNL     1       1.497  -9.239   1.321  1.00  0.00     0.091 A 
ATOM     72  F   UNL     1       3.133  -8.150   2.677  1.00  0.00    -0.205 F 
ATOM     73  C   UNL     1       0.421 -10.136   1.223  1.00  0.00     0.022 A 
BRANCH  71  74
ATOM     74  S   UNL     1       1.991  -8.393  -0.185  1.00  0.00     0.127 S 
ATOM     75  O   UNL     1       2.596  -9.476  -0.954  1.00  0.00    -0.237 OA
ATOM     76  O   UNL     1       0.706  -7.915  -0.696  1.00  0.00    -0.237 OA
ATOM     77  O   UNL     1       2.899  -7.334   0.237  1.00  0.00    -0.744 OA
ENDBRANCH  71  74
ENDBRANCH  43  67
BRANCH  55  78
ATOM     78  C   UNL     1       4.923 -13.167   8.682  1.00  0.00     0.023 A 
ATOM     79  C   UNL     1       6.020 -13.615   7.919  1.00  0.00     0.012 A 
ATOM     80  C   UNL     1       4.309 -14.048   9.594  1.00  0.00     0.148 A 
ATOM     81  C   UNL     1       6.481 -14.925   8.042  1.00  0.00     0.002 A 
ATOM     82  C   UNL     1       4.804 -15.338   9.745  1.00  0.00     0.091 A 
ATOM     83  F   UNL     1       3.255 -13.610  10.296  1.00  0.00    -0.205 F 
ATOM     84  C   UNL     1       5.882 -15.782   8.962  1.00  0.00     0.022 A 
BRANCH  82  85
ATOM     85  S   UNL     1       4.155 -16.479  10.973  1.00  0.00     0.127 S 
ATOM     86  O   UNL     1       3.396 -17.411  10.142  1.00  0.00    -0.237 OA
ATOM     87  O   UNL     1       5.376 -17.036  11.557  1.00  0.00    -0.237 OA
ATOM     88  O   UNL     1       3.364 -15.670  11.891  1.00  0.00    -0.744 OA
ENDBRANCH  82  85
ENDBRANCH  55  78
ENDBRANCH  29  30
ENDBRANCH  21  24
ENDBRANCH  19  20
ENDBRANCH   1  19
TORSDOF 16
