REMARK SMILES C[C@H](O)C[C@@H](Cc1cccc(Br)c1)C(=O)NCCCNC(=O)c1ccc(-c2c3nc(c(-c4cccc(S(=O)(=O)[O-])c4F)c4ccc([nH]4)c(-c4cccc(S(=O)(=O)[O-])c4F)c4nc(c(-c5cccc(S(=O)(=O)[O-])c5F)c5ccc2[nH]5)C=C4)C=C3)cc1
REMARK SMILES IDX 18 1 17 2 16 3 14 4 15 5 5 7 4 8 2 9 1 10 3 11 6 13 7 14
REMARK SMILES IDX 8 15 13 16 9 17 11 18 10 19 12 20 19 21 20 22 21 23 22 25
REMARK SMILES IDX 23 26 24 27 85 28 25 29 84 30 26 31 27 32 28 33 78 34 29 35
REMARK SMILES IDX 83 36 77 37 79 38 30 39 82 40 76 41 75 42 31 44 63 45 43 46
REMARK SMILES IDX 62 47 44 48 47 49 61 50 80 51 45 52 46 53 60 55 81 56 48 57
REMARK SMILES IDX 32 58 33 59 41 60 34 61 36 62 42 63 35 64 37 65 38 66 39 67
REMARK SMILES IDX 40 68 64 69 65 70 73 71 66 72 68 73 74 74 67 75 69 76 70 77
REMARK SMILES IDX 71 78 72 79 49 80 50 81 58 82 51 83 53 84 59 85 52 86 54 87
REMARK SMILES IDX 55 88 56 89 57 90
REMARK H PARENT 16 6 3 12 20 24 79 43 47 54
REMARK Flexibility Score: inf
ROOT
ATOM      1  C   UNL     1      -3.806  -3.921   0.842  1.00  0.00     0.042 C 
ENDROOT
BRANCH   1   2
ATOM      2  C   UNL     1      -3.362  -3.297  -0.459  1.00  0.00     0.117 C 
BRANCH   2   3
ATOM      3  N   UNL     1      -3.646  -1.885  -0.593  1.00  0.00    -0.356 N 
ATOM      4  C   UNL     1      -2.863  -0.910  -1.132  1.00  0.00     0.223 C 
ATOM      5  O   UNL     1      -3.419   0.124  -1.514  1.00  0.00    -0.275 OA
ATOM      6  H   UNL     1      -4.520  -1.590  -0.250  1.00  0.00     0.163 HD
BRANCH   4   7
ATOM      7  C   UNL     1      -1.344  -1.055  -1.260  1.00  0.00     0.085 C 
BRANCH   7   8
ATOM      8  C   UNL     1      -0.700  -1.481   0.075  1.00  0.00     0.045 C 
BRANCH   8   9
ATOM      9  C   UNL     1       0.826  -1.419   0.143  1.00  0.00     0.112 C 
ATOM     10  C   UNL     1       1.302  -1.947   1.493  1.00  0.00     0.038 C 
BRANCH   9  11
ATOM     11  O   UNL     1       1.281  -0.079   0.006  1.00  0.00    -0.393 OA
ATOM     12  H   UNL     1       0.925   0.459   0.731  1.00  0.00     0.210 HD
ENDBRANCH   9  11
ENDBRANCH   8   9
ENDBRANCH   7   8
BRANCH   7  13
ATOM     13  C   UNL     1      -0.889  -1.733  -2.576  1.00  0.00     0.049 C 
BRANCH  13  14
ATOM     14  C   UNL     1      -1.187  -3.197  -2.795  1.00  0.00    -0.046 A 
ATOM     15  C   UNL     1      -0.329  -4.192  -2.304  1.00  0.00     0.004 A 
ATOM     16  C   UNL     1      -2.369  -3.591  -3.446  1.00  0.00     0.019 A 
ATOM     17  C   UNL     1      -0.682  -5.542  -2.385  1.00  0.00     0.001 A 
ATOM     18  C   UNL     1      -2.722  -4.942  -3.512  1.00  0.00     0.018 A 
ATOM     19  C   UNL     1      -1.891  -5.918  -2.969  1.00  0.00     0.016 A 
ATOM     20  Br  UNL     1      -4.394  -5.436  -4.244  1.00  0.00    -0.051 Br
ENDBRANCH  13  14
ENDBRANCH   7  13
ENDBRANCH   4   7
ENDBRANCH   2   3
ENDBRANCH   1   2
BRANCH   1  21
ATOM     21  C   UNL     1      -5.295  -4.212   0.857  1.00  0.00     0.118 C 
BRANCH  21  22
ATOM     22  N   UNL     1      -5.707  -5.130  -0.209  1.00  0.00    -0.352 N 
ATOM     23  C   UNL     1      -6.189  -6.412  -0.152  1.00  0.00     0.251 C 
ATOM     24  H   UNL     1      -5.624  -4.764  -1.119  1.00  0.00     0.163 HD
ATOM     25  O   UNL     1      -6.272  -7.081  -1.183  1.00  0.00    -0.269 OA
BRANCH  23  26
ATOM     26  C   UNL     1      -6.599  -6.991   1.140  1.00  0.00     0.039 A 
ATOM     27  C   UNL     1      -6.357  -8.341   1.401  1.00  0.00     0.014 A 
ATOM     28  C   UNL     1      -7.226  -6.193   2.097  1.00  0.00     0.014 A 
ATOM     29  C   UNL     1      -6.687  -8.867   2.650  1.00  0.00     0.010 A 
ATOM     30  C   UNL     1      -7.413  -6.676   3.379  1.00  0.00     0.010 A 
ATOM     31  C   UNL     1      -7.183  -8.028   3.660  1.00  0.00    -0.014 A 
BRANCH  31  32
ATOM     32  C   UNL     1      -7.515  -8.537   5.011  1.00  0.00     0.031 A 
ATOM     33  C   UNL     1      -8.917  -8.377   5.541  1.00  0.00     0.074 A 
ATOM     34  C   UNL     1      -6.539  -9.045   5.788  1.00  0.00     0.049 A 
ATOM     35  N   UNL     1      -9.391  -8.673   6.722  1.00  0.00    -0.248 NA
ATOM     36  C   UNL     1      -9.908  -7.758   4.641  1.00  0.00     0.031 C 
ATOM     37  C   UNL     1      -5.126  -9.154   5.414  1.00  0.00     0.029 A 
ATOM     38  N   UNL     1      -6.583  -9.544   7.063  1.00  0.00    -0.354 N 
ATOM     39  C   UNL     1     -10.709  -8.230   6.722  1.00  0.00     0.074 A 
ATOM     40  C   UNL     1     -10.946  -7.596   5.447  1.00  0.00     0.031 C 
ATOM     41  C   UNL     1      -4.443  -9.706   6.429  1.00  0.00     0.029 A 
ATOM     42  C   UNL     1      -5.359  -9.958   7.535  1.00  0.00     0.049 A 
ATOM     43  H   UNL     1      -7.411  -9.602   7.591  1.00  0.00     0.167 HD
ATOM     44  C   UNL     1     -11.652  -8.375   7.682  1.00  0.00     0.034 A 
ATOM     45  C   UNL     1      -5.019 -10.483   8.728  1.00  0.00     0.034 A 
ATOM     46  C   UNL     1     -11.419  -9.066   8.920  1.00  0.00     0.049 A 
ATOM     47  C   UNL     1      -6.104 -10.711   9.745  1.00  0.00     0.074 A 
ATOM     48  C   UNL     1     -12.320  -9.358   9.926  1.00  0.00     0.029 A 
ATOM     49  N   UNL     1     -10.192  -9.575   9.317  1.00  0.00    -0.354 N 
ATOM     50  N   UNL     1      -7.381 -10.421   9.669  1.00  0.00    -0.248 NA
ATOM     51  C   UNL     1      -5.711 -11.378  10.993  1.00  0.00     0.031 C 
ATOM     52  C   UNL     1     -11.631 -10.027  10.944  1.00  0.00     0.029 A 
ATOM     53  C   UNL     1     -10.310 -10.182  10.554  1.00  0.00     0.049 A 
ATOM     54  H   UNL     1      -9.360  -9.514   8.795  1.00  0.00     0.167 HD
ATOM     55  C   UNL     1      -7.952 -10.908  10.839  1.00  0.00     0.074 A 
ATOM     56  C   UNL     1      -6.882 -11.530  11.594  1.00  0.00     0.031 C 
ATOM     57  C   UNL     1      -9.239 -10.837  11.260  1.00  0.00     0.034 A 
BRANCH  44  58
ATOM     58  C   UNL     1     -13.028  -7.827   7.401  1.00  0.00     0.023 A 
ATOM     59  C   UNL     1     -13.832  -8.424   6.407  1.00  0.00     0.012 A 
ATOM     60  C   UNL     1     -13.542  -6.745   8.142  1.00  0.00     0.148 A 
ATOM     61  C   UNL     1     -15.103  -7.926   6.123  1.00  0.00     0.002 A 
ATOM     62  C   UNL     1     -14.831  -6.288   7.890  1.00  0.00     0.091 A 
ATOM     63  F   UNL     1     -12.758  -6.174   9.068  1.00  0.00    -0.205 F 
ATOM     64  C   UNL     1     -15.606  -6.867   6.872  1.00  0.00     0.022 A 
BRANCH  62  65
ATOM     65  S   UNL     1     -15.605  -4.986   8.854  1.00  0.00     0.127 S 
ATOM     66  O   UNL     1     -15.686  -3.902   7.876  1.00  0.00    -0.237 OA
ATOM     67  O   UNL     1     -16.892  -5.588   9.204  1.00  0.00    -0.237 OA
ATOM     68  O   UNL     1     -14.720  -4.740   9.984  1.00  0.00    -0.744 OA
ENDBRANCH  62  65
ENDBRANCH  44  58
BRANCH  45  69
ATOM     69  C   UNL     1      -3.614 -10.905   8.986  1.00  0.00     0.023 A 
ATOM     70  C   UNL     1      -3.310 -12.278   9.077  1.00  0.00     0.012 A 
ATOM     71  C   UNL     1      -2.574  -9.964   9.107  1.00  0.00     0.148 A 
ATOM     72  C   UNL     1      -2.005 -12.705   9.324  1.00  0.00     0.002 A 
ATOM     73  C   UNL     1      -1.266 -10.397   9.295  1.00  0.00     0.091 A 
ATOM     74  F   UNL     1      -2.883  -8.662   9.021  1.00  0.00    -0.205 F 
ATOM     75  C   UNL     1      -0.982 -11.766   9.423  1.00  0.00     0.022 A 
BRANCH  73  76
ATOM     76  S   UNL     1       0.131  -9.269   9.298  1.00  0.00     0.127 S 
ATOM     77  O   UNL     1       0.542  -9.305  10.699  1.00  0.00    -0.237 OA
ATOM     78  O   UNL     1       1.051  -9.925   8.368  1.00  0.00    -0.237 OA
ATOM     79  O   UNL     1      -0.392  -7.995   8.824  1.00  0.00    -0.744 OA
ENDBRANCH  73  76
ENDBRANCH  45  69
BRANCH  57  80
ATOM     80  C   UNL     1      -9.572 -11.493  12.573  1.00  0.00     0.023 A 
ATOM     81  C   UNL     1      -9.119 -10.927  13.781  1.00  0.00     0.012 A 
ATOM     82  C   UNL     1     -10.383 -12.644  12.609  1.00  0.00     0.148 A 
ATOM     83  C   UNL     1      -9.428 -11.524  15.002  1.00  0.00     0.002 A 
ATOM     84  C   UNL     1     -10.733 -13.201  13.831  1.00  0.00     0.091 A 
ATOM     85  F   UNL     1     -10.790 -13.178  11.447  1.00  0.00    -0.205 F 
ATOM     86  C   UNL     1     -10.243 -12.653  15.027  1.00  0.00     0.022 A 
BRANCH  84  87
ATOM     87  S   UNL     1     -11.864 -14.591  13.959  1.00  0.00     0.127 S 
ATOM     88  O   UNL     1     -10.951 -15.690  14.268  1.00  0.00    -0.237 OA
ATOM     89  O   UNL     1     -12.729 -14.186  15.067  1.00  0.00    -0.237 OA
ATOM     90  O   UNL     1     -12.537 -14.677  12.670  1.00  0.00    -0.744 OA
ENDBRANCH  84  87
ENDBRANCH  57  80
ENDBRANCH  31  32
ENDBRANCH  23  26
ENDBRANCH  21  22
ENDBRANCH   1  21
TORSDOF 18
