REMARK SMILES O=C(NCCCNC(=O)c1ccccc1C(=O)Nc1ccc(N2C(=O)[C@H]3[C@@H]4CC[C@@H](C4)[C@@H]3C2=O)cc1)c1ccc(-c2c3nc(c(-c4cccc(S(=O)(=O)[O-])c4F)c4ccc([nH]4)c(-c4cccc(S(=O)(=O)[O-])c4F)c4nc(c(-c5cccc(S(=O)(=O)[O-])c5F)c5ccc2[nH]5)C=C4)C=C3)cc1
REMARK SMILES IDX 5 1 4 2 3 3 1 4 2 5 37 7 38 8 99 9 39 10 98 11 40 12 41 13
REMARK SMILES IDX 42 14 92 15 43 16 97 17 91 18 93 19 44 20 96 21 90 22 89 23
REMARK SMILES IDX 45 25 77 26 57 27 76 28 58 29 61 30 75 31 94 32 59 33 60 34
REMARK SMILES IDX 74 36 95 37 62 38 46 39 47 40 55 41 48 42 50 43 56 44 49 45
REMARK SMILES IDX 51 46 52 47 53 48 54 49 78 50 79 51 87 52 80 53 82 54 88 55
REMARK SMILES IDX 81 56 83 57 84 58 85 59 86 60 63 61 64 62 72 63 65 64 67 65
REMARK SMILES IDX 73 66 66 67 68 68 69 69 70 70 71 71 6 72 7 73 8 74 9 76
REMARK SMILES IDX 10 77 11 78 15 79 12 80 14 81 13 82 16 83 17 84 18 85 19 87
REMARK SMILES IDX 20 88 36 89 21 90 35 91 22 92 23 93 24 94 33 95 25 96 26 97
REMARK SMILES IDX 32 98 34 99 27 100 30 101 28 102 31 103 29 104
REMARK H PARENT 3 6 93 24 61 35 7 75 18 86
REMARK Flexibility Score: inf
ROOT
ATOM      1  C   UNL     1       5.319  -0.660   2.310  1.00  0.00     0.042 C 
ENDROOT
BRANCH   1   2
ATOM      2  C   UNL     1       4.773  -0.651   0.888  1.00  0.00     0.118 C 
BRANCH   2   3
ATOM      3  N   UNL     1       3.325  -0.808   0.807  1.00  0.00    -0.352 N 
ATOM      4  O   UNL     1       1.212  -0.277   0.195  1.00  0.00    -0.269 OA
ATOM      5  C   UNL     1       2.409  -0.015   0.149  1.00  0.00     0.251 C 
ATOM      6  H   UNL     1       2.951  -1.584   1.285  1.00  0.00     0.163 HD
BRANCH   5   7
ATOM      7  C   UNL     1       2.898   1.193  -0.543  1.00  0.00     0.039 A 
ATOM      8  C   UNL     1       3.956   1.100  -1.450  1.00  0.00     0.014 A 
ATOM      9  C   UNL     1       2.393   2.436  -0.159  1.00  0.00     0.014 A 
ATOM     10  C   UNL     1       4.645   2.252  -1.806  1.00  0.00     0.010 A 
ATOM     11  C   UNL     1       3.023   3.597  -0.609  1.00  0.00     0.010 A 
ATOM     12  C   UNL     1       4.188   3.513  -1.387  1.00  0.00    -0.014 A 
BRANCH  12  13
ATOM     13  C   UNL     1       4.915   4.739  -1.802  1.00  0.00     0.031 A 
ATOM     14  C   UNL     1       5.515   5.673  -0.785  1.00  0.00     0.074 A 
ATOM     15  C   UNL     1       5.003   5.020  -3.116  1.00  0.00     0.049 A 
ATOM     16  N   UNL     1       6.116   6.820  -0.975  1.00  0.00    -0.248 NA
ATOM     17  C   UNL     1       5.421   5.277   0.629  1.00  0.00     0.031 C 
ATOM     18  C   UNL     1       4.439   4.199  -4.190  1.00  0.00     0.029 A 
ATOM     19  N   UNL     1       5.577   6.077  -3.772  1.00  0.00    -0.354 N 
ATOM     20  C   UNL     1       6.423   7.309   0.290  1.00  0.00     0.074 A 
ATOM     21  C   UNL     1       5.942   6.331   1.243  1.00  0.00     0.031 C 
ATOM     22  C   UNL     1       4.698   4.778  -5.369  1.00  0.00     0.029 A 
ATOM     23  C   UNL     1       5.380   6.043  -5.131  1.00  0.00     0.049 A 
ATOM     24  H   UNL     1       6.080   6.790  -3.315  1.00  0.00     0.167 HD
ATOM     25  C   UNL     1       7.053   8.462   0.623  1.00  0.00     0.034 A 
ATOM     26  C   UNL     1       5.673   6.948  -6.083  1.00  0.00     0.034 A 
ATOM     27  C   UNL     1       7.547   9.414  -0.338  1.00  0.00     0.049 A 
ATOM     28  C   UNL     1       6.367   8.217  -5.688  1.00  0.00     0.074 A 
ATOM     29  C   UNL     1       8.254  10.582  -0.108  1.00  0.00     0.029 A 
ATOM     30  N   UNL     1       7.372   9.320  -1.711  1.00  0.00    -0.354 N 
ATOM     31  N   UNL     1       6.742   8.613  -4.496  1.00  0.00    -0.248 NA
ATOM     32  C   UNL     1       6.704   9.151  -6.769  1.00  0.00     0.031 C 
ATOM     33  C   UNL     1       8.470  11.212  -1.337  1.00  0.00     0.029 A 
ATOM     34  C   UNL     1       7.942  10.414  -2.339  1.00  0.00     0.049 A 
ATOM     35  H   UNL     1       6.909   8.582  -2.171  1.00  0.00     0.167 HD
ATOM     36  C   UNL     1       7.393   9.824  -4.686  1.00  0.00     0.074 A 
ATOM     37  C   UNL     1       7.370  10.090  -6.111  1.00  0.00     0.031 C 
ATOM     38  C   UNL     1       7.952  10.644  -3.763  1.00  0.00     0.034 A 
BRANCH  25  39
ATOM     39  C   UNL     1       7.253   8.760   2.090  1.00  0.00     0.023 A 
ATOM     40  C   UNL     1       8.169   8.000   2.846  1.00  0.00     0.012 A 
ATOM     41  C   UNL     1       6.573   9.829   2.708  1.00  0.00     0.148 A 
ATOM     42  C   UNL     1       8.371   8.269   4.201  1.00  0.00     0.002 A 
ATOM     43  C   UNL     1       6.814  10.121   4.046  1.00  0.00     0.091 A 
ATOM     44  F   UNL     1       5.694  10.533   1.982  1.00  0.00    -0.205 F 
ATOM     45  C   UNL     1       7.701   9.334   4.797  1.00  0.00     0.022 A 
BRANCH  43  46
ATOM     46  S   UNL     1       6.064  11.523   4.883  1.00  0.00     0.127 S 
ATOM     47  O   UNL     1       5.102  10.861   5.762  1.00  0.00    -0.237 OA
ATOM     48  O   UNL     1       7.208  12.120   5.572  1.00  0.00    -0.237 OA
ATOM     49  O   UNL     1       5.488  12.354   3.835  1.00  0.00    -0.744 OA
ENDBRANCH  43  46
ENDBRANCH  25  39
BRANCH  26  50
ATOM     50  C   UNL     1       5.324   6.654  -7.499  1.00  0.00     0.023 A 
ATOM     51  C   UNL     1       6.348   6.370  -8.422  1.00  0.00     0.012 A 
ATOM     52  C   UNL     1       3.979   6.582  -7.915  1.00  0.00     0.148 A 
ATOM     53  C   UNL     1       6.039   6.040  -9.742  1.00  0.00     0.002 A 
ATOM     54  C   UNL     1       3.678   6.195  -9.213  1.00  0.00     0.091 A 
ATOM     55  F   UNL     1       3.023   6.858  -7.017  1.00  0.00    -0.205 F 
ATOM     56  C   UNL     1       4.706   5.940 -10.134  1.00  0.00     0.022 A 
BRANCH  54  57
ATOM     57  S   UNL     1       1.995   5.901  -9.767  1.00  0.00     0.127 S 
ATOM     58  O   UNL     1       1.812   6.971 -10.745  1.00  0.00    -0.237 OA
ATOM     59  O   UNL     1       2.098   4.556 -10.335  1.00  0.00    -0.237 OA
ATOM     60  O   UNL     1       1.164   5.989  -8.574  1.00  0.00    -0.744 OA
ENDBRANCH  54  57
ENDBRANCH  26  50
BRANCH  38  61
ATOM     61  C   UNL     1       8.643  11.885  -4.262  1.00  0.00     0.023 A 
ATOM     62  C   UNL     1       7.890  12.967  -4.757  1.00  0.00     0.012 A 
ATOM     63  C   UNL     1      10.045  12.001  -4.169  1.00  0.00     0.148 A 
ATOM     64  C   UNL     1       8.524  14.136  -5.178  1.00  0.00     0.002 A 
ATOM     65  C   UNL     1      10.664  13.187  -4.540  1.00  0.00     0.091 A 
ATOM     66  F   UNL     1      10.744  10.950  -3.716  1.00  0.00    -0.205 F 
ATOM     67  C   UNL     1       9.907  14.251  -5.057  1.00  0.00     0.022 A 
BRANCH  65  68
ATOM     68  S   UNL     1      12.426  13.462  -4.325  1.00  0.00     0.127 S 
ATOM     69  O   UNL     1      12.895  13.482  -5.709  1.00  0.00    -0.237 OA
ATOM     70  O   UNL     1      12.455  14.760  -3.651  1.00  0.00    -0.237 OA
ATOM     71  O   UNL     1      12.912  12.350  -3.519  1.00  0.00    -0.744 OA
ENDBRANCH  65  68
ENDBRANCH  38  61
ENDBRANCH  12  13
ENDBRANCH   5   7
ENDBRANCH   2   3
ENDBRANCH   1   2
BRANCH   1  72
ATOM     72  C   UNL     1       5.339  -2.040   2.937  1.00  0.00     0.118 C 
BRANCH  72  73
ATOM     73  N   UNL     1       6.242  -2.947   2.253  1.00  0.00    -0.352 N 
ATOM     74  C   UNL     1       6.748  -4.143   2.676  1.00  0.00     0.252 C 
ATOM     75  H   UNL     1       6.532  -2.659   1.357  1.00  0.00     0.163 HD
ATOM     76  O   UNL     1       7.592  -4.729   1.999  1.00  0.00    -0.269 OA
BRANCH  74  77
ATOM     77  C   UNL     1       6.416  -4.683   4.005  1.00  0.00     0.052 A 
ATOM     78  C   UNL     1       7.582  -4.916   4.775  1.00  0.00     0.014 A 
ATOM     79  C   UNL     1       5.146  -4.901   4.562  1.00  0.00     0.052 A 
ATOM     80  C   UNL     1       7.510  -5.253   6.120  1.00  0.00     0.001 A 
ATOM     81  C   UNL     1       5.108  -5.207   5.945  1.00  0.00     0.014 A 
ATOM     82  C   UNL     1       6.266  -5.365   6.716  1.00  0.00     0.001 A 
BRANCH  79  83
ATOM     83  C   UNL     1       3.785  -4.733   3.951  1.00  0.00     0.256 C 
ATOM     84  O   UNL     1       2.877  -4.360   4.704  1.00  0.00    -0.269 OA
ATOM     85  N   UNL     1       3.439  -4.853   2.624  1.00  0.00    -0.322 N 
ATOM     86  H   UNL     1       2.514  -4.578   2.429  1.00  0.00     0.170 HD
BRANCH  85  87
ATOM     87  C   UNL     1       4.144  -5.289   1.507  1.00  0.00     0.041 A 
ATOM     88  C   UNL     1       4.089  -4.474   0.371  1.00  0.00     0.028 A 
ATOM     89  C   UNL     1       4.937  -6.429   1.512  1.00  0.00     0.028 A 
ATOM     90  C   UNL     1       5.035  -4.636  -0.639  1.00  0.00     0.029 A 
ATOM     91  C   UNL     1       5.789  -6.670   0.432  1.00  0.00     0.029 A 
ATOM     92  C   UNL     1       5.919  -5.713  -0.588  1.00  0.00     0.052 A 
BRANCH  92  93
ATOM     93  N   UNL     1       7.048  -5.757  -1.425  1.00  0.00    -0.250 N 
ATOM     94  C   UNL     1       7.564  -6.944  -1.959  1.00  0.00     0.237 C 
ATOM     95  C   UNL     1       7.946  -4.675  -1.556  1.00  0.00     0.237 C 
ATOM     96  O   UNL     1       7.029  -8.015  -2.161  1.00  0.00    -0.274 OA
ATOM     97  C   UNL     1       9.019  -6.650  -2.054  1.00  0.00     0.095 C 
ATOM     98  C   UNL     1       8.974  -5.203  -2.514  1.00  0.00     0.095 C 
ATOM     99  O   UNL     1       7.894  -3.544  -1.105  1.00  0.00    -0.274 OA
ATOM    100  C   UNL     1      10.180  -7.222  -2.867  1.00  0.00     0.002 C 
ATOM    101  C   UNL     1      10.446  -4.971  -2.835  1.00  0.00     0.002 C 
ATOM    102  C   UNL     1      11.399  -7.050  -1.935  1.00  0.00     0.005 C 
ATOM    103  C   UNL     1      10.548  -6.113  -3.880  1.00  0.00     0.009 C 
ATOM    104  C   UNL     1      11.450  -5.503  -1.771  1.00  0.00     0.005 C 
ENDBRANCH  92  93
ENDBRANCH  85  87
ENDBRANCH  79  83
ENDBRANCH  74  77
ENDBRANCH  72  73
ENDBRANCH   1  72
TORSDOF 16
