REMARK SMILES Cc1ccc(S(=O)(=O)n2cc(C(=O)C(=O)N[C@@H](Cc3cnc[nH]3)C(=O)NCCCNC(=O)c3ccc(-c4c5nc(c(-c6cccc(S(=O)(=O)[O-])c6F)c6ccc([nH]6)c(-c6cccc(S(=O)(=O)[O-])c6F)c6nc(c(-c7cccc(S(=O)(=O)[O-])c7F)c7ccc4[nH]7)C=C6)C=C5)cc3)c3ccccc32)cc1
REMARK SMILES IDX 27 1 26 2 24 3 25 4 17 6 16 7 14 8 15 9 12 11 13 12 11 13
REMARK SMILES IDX 9 14 10 15 101 16 96 17 100 18 97 19 99 20 98 21 6 22 7 23
REMARK SMILES IDX 8 24 5 25 1 26 2 27 3 28 103 29 4 30 102 31 18 32 19 33
REMARK SMILES IDX 20 34 23 35 21 36 22 37 28 39 29 40 30 41 31 42 32 44 33 45
REMARK SMILES IDX 34 46 95 47 35 48 94 49 36 50 37 51 38 52 88 53 39 54 93 55
REMARK SMILES IDX 87 56 89 57 40 58 92 59 86 60 85 61 41 63 73 64 53 65 72 66
REMARK SMILES IDX 54 67 57 68 71 69 90 70 55 71 56 72 70 74 91 75 58 76 42 77
REMARK SMILES IDX 43 78 51 79 44 80 46 81 52 82 45 83 47 84 48 85 49 86 50 87
REMARK SMILES IDX 74 88 75 89 83 90 76 91 78 92 84 93 77 94 79 95 80 96 81 97
REMARK SMILES IDX 82 98 59 99 60 100 68 101 61 102 63 103 69 104 62 105 64 106
REMARK SMILES IDX 65 107 66 108 67 109
REMARK H PARENT 26 5 16 10 23 38 30 43 89 62 57 73
REMARK Flexibility Score: inf
ROOT
ATOM      1  C   UNL     1      -8.586   6.295   5.736  1.00  0.00     0.117 C 
ENDROOT
BRANCH   1   2
ATOM      2  N   UNL     1      -7.515   7.026   5.115  1.00  0.00    -0.354 N 
ATOM      3  C   UNL     1      -7.377   7.268   3.775  1.00  0.00     0.242 C 
ATOM      4  O   UNL     1      -6.744   8.270   3.433  1.00  0.00    -0.273 OA
ATOM      5  H   UNL     1      -6.816   7.386   5.708  1.00  0.00     0.163 HD
BRANCH   3   6
ATOM      6  C   UNL     1      -8.064   6.365   2.711  1.00  0.00     0.177 C 
BRANCH   6   7
ATOM      7  N   UNL     1      -7.812   4.935   2.977  1.00  0.00    -0.337 N 
ATOM      8  C   UNL     1      -6.857   4.079   2.459  1.00  0.00     0.293 C 
ATOM      9  O   UNL     1      -6.685   2.999   3.016  1.00  0.00    -0.265 OA
ATOM     10  H   UNL     1      -8.424   4.523   3.629  1.00  0.00     0.164 HD
BRANCH   8  11
ATOM     11  C   UNL     1      -6.054   4.433   1.181  1.00  0.00     0.252 C 
ATOM     12  O   UNL     1      -6.167   5.561   0.714  1.00  0.00    -0.283 OA
BRANCH  11  13
ATOM     13  C   UNL     1      -5.212   3.454   0.473  1.00  0.00     0.054 A 
ATOM     14  N   UNL     1      -4.147   1.600  -0.172  1.00  0.00    -0.240 N 
ATOM     15  C   UNL     1      -4.929   2.144   0.817  1.00  0.00     0.117 A 
ATOM     16  C   UNL     1      -3.890   2.516  -1.170  1.00  0.00     0.065 A 
ATOM     17  C   UNL     1      -4.513   3.703  -0.766  1.00  0.00     0.012 A 
ATOM     18  C   UNL     1      -3.157   2.436  -2.370  1.00  0.00     0.028 A 
ATOM     19  C   UNL     1      -4.372   4.846  -1.585  1.00  0.00     0.011 A 
ATOM     20  C   UNL     1      -3.030   3.590  -3.149  1.00  0.00     0.002 A 
ATOM     21  C   UNL     1      -3.624   4.782  -2.761  1.00  0.00     0.001 A 
BRANCH  14  22
ATOM     22  S   UNL     1      -3.559   0.002  -0.149  1.00  0.00     0.268 S 
ATOM     23  O   UNL     1      -3.871  -0.536  -1.455  1.00  0.00    -0.201 OA
ATOM     24  O   UNL     1      -4.079  -0.598   1.071  1.00  0.00    -0.201 OA
BRANCH  22  25
ATOM     25  C   UNL     1      -1.794   0.060   0.003  1.00  0.00     0.088 A 
ATOM     26  C   UNL     1       2.507  -0.042   0.032  1.00  0.00     0.044 C 
ATOM     27  C   UNL     1       1.007  -0.002   0.042  1.00  0.00    -0.051 A 
ATOM     28  C   UNL     1       0.277  -1.194  -0.040  1.00  0.00     0.005 A 
ATOM     29  C   UNL     1       0.321   1.215   0.141  1.00  0.00     0.005 A 
ATOM     30  C   UNL     1      -1.118  -1.165  -0.066  1.00  0.00     0.022 A 
ATOM     31  C   UNL     1      -1.076   1.250   0.135  1.00  0.00     0.022 A 
ENDBRANCH  22  25
ENDBRANCH  14  22
ENDBRANCH  11  13
ENDBRANCH   8  11
ENDBRANCH   6   7
BRANCH   6  32
ATOM     32  C   UNL     1      -9.531   6.716   2.344  1.00  0.00     0.090 C 
BRANCH  32  33
ATOM     33  C   UNL     1     -10.613   6.386   3.323  1.00  0.00     0.037 A 
ATOM     34  C   UNL     1     -11.187   5.189   3.709  1.00  0.00     0.134 A 
ATOM     35  N   UNL     1     -11.211   7.328   4.136  1.00  0.00    -0.348 N 
ATOM     36  N   UNL     1     -12.001   5.370   4.797  1.00  0.00    -0.245 NA
ATOM     37  C   UNL     1     -11.986   6.659   5.043  1.00  0.00     0.196 A 
ATOM     38  H   UNL     1     -11.100   8.304   4.074  1.00  0.00     0.167 HD
ENDBRANCH  32  33
ENDBRANCH   6  32
ENDBRANCH   3   6
ENDBRANCH   1   2
BRANCH   1  39
ATOM     39  C   UNL     1      -8.210   5.060   6.506  1.00  0.00     0.042 C 
BRANCH  39  40
ATOM     40  C   UNL     1      -8.134   5.378   7.967  1.00  0.00     0.118 C 
BRANCH  40  41
ATOM     41  N   UNL     1      -9.426   5.566   8.602  1.00  0.00    -0.352 N 
ATOM     42  C   UNL     1      -9.726   5.657   9.950  1.00  0.00     0.251 C 
ATOM     43  H   UNL     1     -10.194   5.640   7.990  1.00  0.00     0.163 HD
ATOM     44  O   UNL     1     -10.911   5.616  10.273  1.00  0.00    -0.269 OA
BRANCH  42  45
ATOM     45  C   UNL     1      -8.661   5.986  10.946  1.00  0.00     0.039 A 
ATOM     46  C   UNL     1      -9.058   6.783  12.023  1.00  0.00     0.014 A 
ATOM     47  C   UNL     1      -7.338   6.024  10.544  1.00  0.00     0.014 A 
ATOM     48  C   UNL     1      -8.261   7.855  12.395  1.00  0.00     0.010 A 
ATOM     49  C   UNL     1      -6.681   7.208  10.684  1.00  0.00     0.010 A 
ATOM     50  C   UNL     1      -7.169   8.139  11.599  1.00  0.00    -0.014 A 
BRANCH  50  51
ATOM     51  C   UNL     1      -6.251   9.234  11.764  1.00  0.00     0.031 A 
ATOM     52  C   UNL     1      -5.039   8.909  12.536  1.00  0.00     0.074 A 
ATOM     53  C   UNL     1      -6.353  10.229  10.859  1.00  0.00     0.049 A 
ATOM     54  N   UNL     1      -4.075   9.724  12.729  1.00  0.00    -0.248 NA
ATOM     55  C   UNL     1      -4.806   7.593  13.139  1.00  0.00     0.031 C 
ATOM     56  C   UNL     1      -5.301  11.068  10.305  1.00  0.00     0.029 A 
ATOM     57  N   UNL     1      -7.511  10.775  10.328  1.00  0.00    -0.354 N 
ATOM     58  C   UNL     1      -3.009   9.003  13.228  1.00  0.00     0.074 A 
ATOM     59  C   UNL     1      -3.533   7.698  13.530  1.00  0.00     0.031 C 
ATOM     60  C   UNL     1      -5.857  12.149   9.726  1.00  0.00     0.029 A 
ATOM     61  C   UNL     1      -7.274  12.126  10.053  1.00  0.00     0.049 A 
ATOM     62  H   UNL     1      -8.356  10.294  10.172  1.00  0.00     0.167 HD
ATOM     63  C   UNL     1      -1.786   9.595  13.190  1.00  0.00     0.034 A 
ATOM     64  C   UNL     1      -7.901  13.073  10.824  1.00  0.00     0.034 A 
ATOM     65  C   UNL     1      -1.942  10.972  12.699  1.00  0.00     0.049 A 
ATOM     66  C   UNL     1      -6.941  13.800  11.758  1.00  0.00     0.074 A 
ATOM     67  C   UNL     1      -1.848  11.539  11.439  1.00  0.00     0.029 A 
ATOM     68  N   UNL     1      -2.631  11.878  13.492  1.00  0.00    -0.354 N 
ATOM     69  N   UNL     1      -5.721  13.402  12.006  1.00  0.00    -0.248 NA
ATOM     70  C   UNL     1      -7.245  15.059  12.433  1.00  0.00     0.031 C 
ATOM     71  C   UNL     1      -2.579  12.762  11.461  1.00  0.00     0.029 A 
ATOM     72  C   UNL     1      -3.087  12.947  12.737  1.00  0.00     0.049 A 
ATOM     73  H   UNL     1      -2.777  11.775  14.460  1.00  0.00     0.167 HD
ATOM     74  C   UNL     1      -5.104  14.254  12.880  1.00  0.00     0.074 A 
ATOM     75  C   UNL     1      -6.089  15.305  13.079  1.00  0.00     0.031 C 
ATOM     76  C   UNL     1      -3.852  14.009  13.383  1.00  0.00     0.034 A 
BRANCH  63  77
ATOM     77  C   UNL     1      -0.429   8.946  13.370  1.00  0.00     0.023 A 
ATOM     78  C   UNL     1       0.678   9.707  12.927  1.00  0.00     0.012 A 
ATOM     79  C   UNL     1      -0.130   7.667  13.896  1.00  0.00     0.148 A 
ATOM     80  C   UNL     1       1.989   9.227  12.951  1.00  0.00     0.002 A 
ATOM     81  C   UNL     1       1.184   7.177  13.910  1.00  0.00     0.091 A 
ATOM     82  F   UNL     1      -1.097   6.913  14.418  1.00  0.00    -0.205 F 
ATOM     83  C   UNL     1       2.243   7.956  13.434  1.00  0.00     0.022 A 
BRANCH  81  84
ATOM     84  S   UNL     1       1.620   5.531  14.504  1.00  0.00     0.127 S 
ATOM     85  O   UNL     1       2.290   4.953  13.337  1.00  0.00    -0.237 OA
ATOM     86  O   UNL     1       2.509   5.826  15.626  1.00  0.00    -0.237 OA
ATOM     87  O   UNL     1       0.369   4.875  14.861  1.00  0.00    -0.744 OA
ENDBRANCH  81  84
ENDBRANCH  63  77
BRANCH  64  88
ATOM     88  C   UNL     1      -9.326  12.677  11.101  1.00  0.00     0.023 A 
ATOM     89  C   UNL     1     -10.143  12.534   9.949  1.00  0.00     0.012 A 
ATOM     90  C   UNL     1      -9.681  11.974  12.268  1.00  0.00     0.148 A 
ATOM     91  C   UNL     1     -11.120  11.539   9.883  1.00  0.00     0.002 A 
ATOM     92  C   UNL     1     -10.690  11.008  12.205  1.00  0.00     0.091 A 
ATOM     93  F   UNL     1      -8.988  12.201  13.391  1.00  0.00    -0.205 F 
ATOM     94  C   UNL     1     -11.354  10.740  10.995  1.00  0.00     0.022 A 
BRANCH  92  95
ATOM     95  S   UNL     1     -11.134   9.995  13.624  1.00  0.00     0.127 S 
ATOM     96  O   UNL     1     -12.290  10.716  14.149  1.00  0.00    -0.237 OA
ATOM     97  O   UNL     1     -11.453   8.705  13.013  1.00  0.00    -0.237 OA
ATOM     98  O   UNL     1      -9.952   9.982  14.473  1.00  0.00    -0.744 OA
ENDBRANCH  92  95
ENDBRANCH  64  88
BRANCH  76  99
ATOM     99  C   UNL     1      -3.210  14.722  14.563  1.00  0.00     0.023 A 
ATOM    100  C   UNL     1      -3.961  15.450  15.502  1.00  0.00     0.012 A 
ATOM    101  C   UNL     1      -1.837  14.514  14.874  1.00  0.00     0.148 A 
ATOM    102  C   UNL     1      -3.380  15.983  16.658  1.00  0.00     0.002 A 
ATOM    103  C   UNL     1      -1.305  14.913  16.094  1.00  0.00     0.091 A 
ATOM    104  F   UNL     1      -1.021  13.939  13.979  1.00  0.00    -0.205 F 
ATOM    105  C   UNL     1      -2.062  15.684  16.973  1.00  0.00     0.022 A 
BRANCH 103 106
ATOM    106  S   UNL     1       0.282  14.282  16.660  1.00  0.00     0.127 S 
ATOM    107  O   UNL     1       1.187  15.369  16.296  1.00  0.00    -0.237 OA
ATOM    108  O   UNL     1       0.059  14.128  18.099  1.00  0.00    -0.237 OA
ATOM    109  O   UNL     1       0.465  13.025  15.946  1.00  0.00    -0.744 OA
ENDBRANCH 103 106
ENDBRANCH  76  99
ENDBRANCH  50  51
ENDBRANCH  42  45
ENDBRANCH  40  41
ENDBRANCH  39  40
ENDBRANCH   1  39
TORSDOF 20
