REMARK SMILES O=C(NCCCNC(=O)C1CN(c2cnccn2)C1)c1ccc(-c2c3nc(c(-c4cccc(S(=O)(=O)[O-])c4F)c4ccc([nH]4)c(-c4cccc(S(=O)(=O)[O-])c4F)c4nc(c(-c5cccc(S(=O)(=O)[O-])c5F)c5ccc2[nH]5)C=C4)C=C3)cc1
REMARK SMILES IDX 4 1 3 2 1 3 2 4 20 6 21 7 82 8 22 9 81 10 23 11 24 12 25 13
REMARK SMILES IDX 75 14 26 15 80 16 74 17 76 18 27 19 79 20 73 21 72 22 28 24
REMARK SMILES IDX 60 25 40 26 59 27 41 28 44 29 58 30 77 31 42 32 43 33 57 35
REMARK SMILES IDX 78 36 45 37 29 38 30 39 38 40 31 41 33 42 39 43 32 44 34 45
REMARK SMILES IDX 35 46 36 47 37 48 61 49 62 50 70 51 63 52 65 53 71 54 64 55
REMARK SMILES IDX 66 56 67 57 68 58 69 59 46 60 47 61 55 62 48 63 50 64 56 65
REMARK SMILES IDX 49 66 51 67 52 68 53 69 54 70 5 71 6 72 7 73 8 74 9 76 10 77
REMARK SMILES IDX 11 78 19 79 12 80 13 81 14 82 18 83 15 84 17 85 16 86
REMARK H PARENT 3 5 76 23 44 34 7 75
REMARK Flexibility Score: inf
ROOT
ATOM      1  C   UNL     1       4.609  -1.181  -0.683  1.00  0.00     0.118 C 
ENDROOT
BRANCH   1   2
ATOM      2  N   UNL     1       3.187  -0.862  -0.734  1.00  0.00    -0.352 N 
ATOM      3  O   UNL     1       1.236   0.076  -0.138  1.00  0.00    -0.269 OA
ATOM      4  C   UNL     1       2.463   0.108  -0.082  1.00  0.00     0.251 C 
ATOM      5  H   UNL     1       2.659  -1.436  -1.334  1.00  0.00     0.163 HD
BRANCH   4   6
ATOM      6  C   UNL     1       3.146   1.159   0.705  1.00  0.00     0.039 A 
ATOM      7  C   UNL     1       4.314   1.761   0.238  1.00  0.00     0.014 A 
ATOM      8  C   UNL     1       2.601   1.559   1.929  1.00  0.00     0.014 A 
ATOM      9  C   UNL     1       5.037   2.608   1.071  1.00  0.00     0.010 A 
ATOM     10  C   UNL     1       3.277   2.494   2.721  1.00  0.00     0.010 A 
ATOM     11  C   UNL     1       4.529   2.985   2.325  1.00  0.00    -0.014 A 
BRANCH  11  12
ATOM     12  C   UNL     1       5.320   3.910   3.180  1.00  0.00     0.031 A 
ATOM     13  C   UNL     1       5.831   3.480   4.530  1.00  0.00     0.074 A 
ATOM     14  C   UNL     1       5.605   5.143   2.716  1.00  0.00     0.049 A 
ATOM     15  N   UNL     1       6.598   4.136   5.364  1.00  0.00    -0.248 NA
ATOM     16  C   UNL     1       5.426   2.151   5.016  1.00  0.00     0.031 C 
ATOM     17  C   UNL     1       5.127   5.696   1.446  1.00  0.00     0.029 A 
ATOM     18  N   UNL     1       6.373   6.149   3.245  1.00  0.00    -0.354 N 
ATOM     19  C   UNL     1       6.726   3.328   6.487  1.00  0.00     0.074 A 
ATOM     20  C   UNL     1       5.952   2.132   6.233  1.00  0.00     0.031 C 
ATOM     21  C   UNL     1       5.648   6.919   1.273  1.00  0.00     0.029 A 
ATOM     22  C   UNL     1       6.459   7.258   2.437  1.00  0.00     0.049 A 
ATOM     23  H   UNL     1       6.819   6.083   4.120  1.00  0.00     0.167 HD
ATOM     24  C   UNL     1       7.437   3.550   7.619  1.00  0.00     0.034 A 
ATOM     25  C   UNL     1       7.120   8.419   2.607  1.00  0.00     0.034 A 
ATOM     26  C   UNL     1       8.254   4.713   7.845  1.00  0.00     0.049 A 
ATOM     27  C   UNL     1       7.949   8.611   3.844  1.00  0.00     0.074 A 
ATOM     28  C   UNL     1       9.071   4.992   8.927  1.00  0.00     0.029 A 
ATOM     29  N   UNL     1       8.359   5.788   6.978  1.00  0.00    -0.354 N 
ATOM     30  N   UNL     1       8.166   7.773   4.829  1.00  0.00    -0.248 NA
ATOM     31  C   UNL     1       8.650   9.895   3.980  1.00  0.00     0.031 C 
ATOM     32  C   UNL     1       9.663   6.243   8.717  1.00  0.00     0.029 A 
ATOM     33  C   UNL     1       9.224   6.736   7.499  1.00  0.00     0.049 A 
ATOM     34  H   UNL     1       7.888   5.867   6.117  1.00  0.00     0.167 HD
ATOM     35  C   UNL     1       9.053   8.415   5.685  1.00  0.00     0.074 A 
ATOM     36  C   UNL     1       9.350   9.702   5.089  1.00  0.00     0.031 C 
ATOM     37  C   UNL     1       9.559   7.985   6.866  1.00  0.00     0.034 A 
BRANCH  24  38
ATOM     38  C   UNL     1       7.404   2.491   8.690  1.00  0.00     0.023 A 
ATOM     39  C   UNL     1       8.128   1.295   8.509  1.00  0.00     0.012 A 
ATOM     40  C   UNL     1       6.716   2.705   9.901  1.00  0.00     0.148 A 
ATOM     41  C   UNL     1       8.145   0.317   9.504  1.00  0.00     0.002 A 
ATOM     42  C   UNL     1       6.770   1.742  10.904  1.00  0.00     0.091 A 
ATOM     43  F   UNL     1       6.013   3.837  10.048  1.00  0.00    -0.205 F 
ATOM     44  C   UNL     1       7.476   0.545  10.703  1.00  0.00     0.022 A 
BRANCH  42  45
ATOM     45  S   UNL     1       6.001   1.983  12.510  1.00  0.00     0.127 S 
ATOM     46  O   UNL     1       4.804   1.152  12.392  1.00  0.00    -0.237 OA
ATOM     47  O   UNL     1       7.017   1.459  13.425  1.00  0.00    -0.237 OA
ATOM     48  O   UNL     1       5.767   3.415  12.626  1.00  0.00    -0.744 OA
ENDBRANCH  42  45
ENDBRANCH  24  38
BRANCH  25  49
ATOM     49  C   UNL     1       7.084   9.453   1.535  1.00  0.00     0.023 A 
ATOM     50  C   UNL     1       8.246   9.703   0.779  1.00  0.00     0.012 A 
ATOM     51  C   UNL     1       5.900  10.149   1.225  1.00  0.00     0.148 A 
ATOM     52  C   UNL     1       8.235  10.643  -0.251  1.00  0.00     0.002 A 
ATOM     53  C   UNL     1       5.880  11.042   0.161  1.00  0.00     0.091 A 
ATOM     54  F   UNL     1       4.809   9.910   1.968  1.00  0.00    -0.205 F 
ATOM     55  C   UNL     1       7.050  11.302  -0.569  1.00  0.00     0.022 A 
BRANCH  53  56
ATOM     56  S   UNL     1       4.363  11.821  -0.403  1.00  0.00     0.127 S 
ATOM     57  O   UNL     1       4.516  13.179   0.111  1.00  0.00    -0.237 OA
ATOM     58  O   UNL     1       4.476  11.695  -1.857  1.00  0.00    -0.237 OA
ATOM     59  O   UNL     1       3.285  11.035   0.181  1.00  0.00    -0.744 OA
ENDBRANCH  53  56
ENDBRANCH  25  49
BRANCH  37  60
ATOM     60  C   UNL     1      10.518   8.898   7.583  1.00  0.00     0.023 A 
ATOM     61  C   UNL     1      10.031  10.048   8.234  1.00  0.00     0.012 A 
ATOM     62  C   UNL     1      11.888   8.584   7.664  1.00  0.00     0.148 A 
ATOM     63  C   UNL     1      10.899  10.890   8.928  1.00  0.00     0.002 A 
ATOM     64  C   UNL     1      12.740   9.404   8.395  1.00  0.00     0.091 A 
ATOM     65  F   UNL     1      12.338   7.498   7.017  1.00  0.00    -0.205 F 
ATOM     66  C   UNL     1      12.250  10.562   9.018  1.00  0.00     0.022 A 
BRANCH  64  67
ATOM     67  S   UNL     1      14.474   8.997   8.633  1.00  0.00     0.127 S 
ATOM     68  O   UNL     1      15.120   9.843   7.632  1.00  0.00    -0.237 OA
ATOM     69  O   UNL     1      14.708   9.406  10.019  1.00  0.00    -0.237 OA
ATOM     70  O   UNL     1      14.574   7.561   8.409  1.00  0.00    -0.744 OA
ENDBRANCH  64  67
ENDBRANCH  37  60
ENDBRANCH  11  12
ENDBRANCH   4   6
ENDBRANCH   1   2
BRANCH   1  71
ATOM     71  C   UNL     1       4.887  -2.543  -0.062  1.00  0.00     0.042 C 
BRANCH  71  72
ATOM     72  C   UNL     1       4.305  -3.705  -0.852  1.00  0.00     0.117 C 
BRANCH  72  73
ATOM     73  N   UNL     1       4.895  -3.825  -2.175  1.00  0.00    -0.356 N 
ATOM     74  C   UNL     1       5.732  -4.810  -2.645  1.00  0.00     0.226 C 
ATOM     75  H   UNL     1       4.668  -3.112  -2.815  1.00  0.00     0.163 HD
ATOM     76  O   UNL     1       6.147  -4.709  -3.803  1.00  0.00    -0.275 OA
BRANCH  74  77
ATOM     77  C   UNL     1       6.087  -5.956  -1.689  1.00  0.00     0.117 C 
ATOM     78  C   UNL     1       4.970  -6.961  -1.355  1.00  0.00     0.133 C 
ATOM     79  C   UNL     1       6.867  -7.168  -2.226  1.00  0.00     0.133 C 
ATOM     80  N   UNL     1       5.921  -7.991  -1.562  1.00  0.00    -0.354 N 
BRANCH  80  81
ATOM     81  C   UNL     1       5.954  -9.254  -0.983  1.00  0.00     0.147 A 
ATOM     82  C   UNL     1       7.145  -9.961  -0.814  1.00  0.00     0.157 A 
ATOM     83  N   UNL     1       4.790  -9.780  -0.531  1.00  0.00    -0.236 NA
ATOM     84  N   UNL     1       7.229 -11.172  -0.202  1.00  0.00    -0.259 NA
ATOM     85  C   UNL     1       4.860 -10.992   0.064  1.00  0.00     0.133 A 
ATOM     86  C   UNL     1       6.053 -11.668   0.235  1.00  0.00     0.131 A 
ENDBRANCH  80  81
ENDBRANCH  74  77
ENDBRANCH  72  73
ENDBRANCH  71  72
ENDBRANCH   1  71
TORSDOF 14
