REMARK SMILES C[C@@H](CNC(=O)N(C)CC(C)(C)O)C(=O)NCCCNC(=O)c1ccc(-c2c3nc(c(-c4cccc(S(=O)(=O)[O-])c4F)c4ccc([nH]4)c(-c4cccc(S(=O)(=O)[O-])c4F)c4nc(c(-c5cccc(S(=O)(=O)[O-])c5F)c5ccc2[nH]5)C=C4)C=C3)cc1
REMARK SMILES IDX 14 1 15 2 16 3 2 5 1 6 3 7 4 8 5 9 6 11 7 12 8 13 9 14 10 15
REMARK SMILES IDX 11 16 12 17 13 18 17 20 18 21 19 22 20 23 21 24 22 26 23 27
REMARK SMILES IDX 24 28 85 29 25 30 84 31 26 32 27 33 28 34 78 35 29 36 83 37
REMARK SMILES IDX 77 38 79 39 30 40 82 41 76 42 75 43 31 45 63 46 43 47 62 48
REMARK SMILES IDX 44 49 47 50 61 51 80 52 45 53 46 54 60 56 81 57 48 58 32 59
REMARK SMILES IDX 33 60 41 61 34 62 36 63 42 64 35 65 37 66 38 67 39 68 40 69
REMARK SMILES IDX 64 70 65 71 73 72 66 73 68 74 74 75 67 76 69 77 70 78 71 79
REMARK SMILES IDX 72 80 49 81 50 82 58 83 51 84 53 85 59 86 52 87 54 88 55 89
REMARK SMILES IDX 56 90 57 91
REMARK H PARENT 16 4 4 10 13 19 20 25 79 44 47 55
REMARK Flexibility Score: inf
ROOT
ATOM      1  C   UNL     1      -0.791  -1.475  -0.229  1.00  0.00     0.224 C 
ATOM      2  O   UNL     1      -1.395  -2.062  -1.134  1.00  0.00    -0.275 OA
ATOM      3  N   UNL     1      -1.541  -0.889   0.744  1.00  0.00    -0.356 N 
ATOM      4  H   UNL     1      -2.488  -0.750   0.514  1.00  0.00     0.163 HD
ENDROOT
BRANCH   1   5
ATOM      5  C   UNL     1       0.733  -1.416  -0.255  1.00  0.00     0.094 C 
ATOM      6  C   UNL     1       1.292  -0.002  -0.082  1.00  0.00     0.020 C 
BRANCH   5   7
ATOM      7  C   UNL     1       1.464  -2.498   0.561  1.00  0.00     0.130 C 
BRANCH   7   8
ATOM      8  N   UNL     1       1.126  -2.566   1.969  1.00  0.00    -0.337 N 
ATOM      9  C   UNL     1       0.232  -3.200   2.744  1.00  0.00     0.317 C 
ATOM     10  H   UNL     1       1.715  -1.986   2.505  1.00  0.00     0.165 HD
ATOM     11  O   UNL     1       0.098  -2.685   3.859  1.00  0.00    -0.249 OA
BRANCH   9  12
ATOM     12  N   UNL     1      -0.495  -4.286   2.365  1.00  0.00    -0.325 N 
ATOM     13  C   UNL     1      -0.392  -5.011   1.110  1.00  0.00     0.148 C 
BRANCH  12  14
ATOM     14  C   UNL     1      -1.433  -4.863   3.354  1.00  0.00     0.155 C 
BRANCH  14  15
ATOM     15  C   UNL     1      -0.822  -5.628   4.573  1.00  0.00     0.077 C 
ATOM     16  C   UNL     1      -0.381  -4.704   5.718  1.00  0.00     0.043 C 
ATOM     17  C   UNL     1      -1.879  -6.592   5.134  1.00  0.00     0.043 C 
BRANCH  15  18
ATOM     18  O   UNL     1       0.275  -6.449   4.145  1.00  0.00    -0.389 OA
ATOM     19  H   UNL     1       0.976  -5.887   3.779  1.00  0.00     0.211 HD
ENDBRANCH  15  18
ENDBRANCH  14  15
ENDBRANCH  12  14
ENDBRANCH   9  12
ENDBRANCH   7   8
ENDBRANCH   5   7
ENDBRANCH   1   5
BRANCH   3  20
ATOM     20  C   UNL     1      -1.158  -0.437   2.070  1.00  0.00     0.117 C 
BRANCH  20  21
ATOM     21  C   UNL     1      -1.661   0.946   2.434  1.00  0.00     0.042 C 
BRANCH  21  22
ATOM     22  C   UNL     1      -3.155   0.998   2.714  1.00  0.00     0.118 C 
BRANCH  22  23
ATOM     23  N   UNL     1      -3.567   0.166   3.843  1.00  0.00    -0.352 N 
ATOM     24  C   UNL     1      -4.123   0.498   5.058  1.00  0.00     0.251 C 
ATOM     25  H   UNL     1      -3.421  -0.799   3.712  1.00  0.00     0.163 HD
ATOM     26  O   UNL     1      -4.277  -0.365   5.911  1.00  0.00    -0.269 OA
BRANCH  24  27
ATOM     27  C   UNL     1      -4.510   1.897   5.345  1.00  0.00     0.039 A 
ATOM     28  C   UNL     1      -4.229   2.435   6.604  1.00  0.00     0.014 A 
ATOM     29  C   UNL     1      -5.136   2.681   4.377  1.00  0.00     0.014 A 
ATOM     30  C   UNL     1      -4.492   3.784   6.856  1.00  0.00     0.010 A 
ATOM     31  C   UNL     1      -5.292   4.045   4.589  1.00  0.00     0.010 A 
ATOM     32  C   UNL     1      -4.978   4.613   5.832  1.00  0.00    -0.014 A 
BRANCH  32  33
ATOM     33  C   UNL     1      -5.157   6.075   6.024  1.00  0.00     0.031 A 
ATOM     34  C   UNL     1      -6.512   6.703   5.826  1.00  0.00     0.074 A 
ATOM     35  C   UNL     1      -4.081   6.853   6.261  1.00  0.00     0.049 A 
ATOM     36  N   UNL     1      -6.847   7.966   5.849  1.00  0.00    -0.248 NA
ATOM     37  C   UNL     1      -7.632   5.794   5.522  1.00  0.00     0.031 C 
ATOM     38  C   UNL     1      -2.700   6.378   6.375  1.00  0.00     0.029 A 
ATOM     39  N   UNL     1      -3.975   8.213   6.418  1.00  0.00    -0.354 N 
ATOM     40  C   UNL     1      -8.196   8.008   5.514  1.00  0.00     0.074 A 
ATOM     41  C   UNL     1      -8.609   6.647   5.254  1.00  0.00     0.031 C 
ATOM     42  C   UNL     1      -1.889   7.425   6.593  1.00  0.00     0.029 A 
ATOM     43  C   UNL     1      -2.683   8.649   6.604  1.00  0.00     0.049 A 
ATOM     44  H   UNL     1      -4.750   8.819   6.399  1.00  0.00     0.167 HD
ATOM     45  C   UNL     1      -9.026   9.076   5.464  1.00  0.00     0.034 A 
ATOM     46  C   UNL     1      -2.194   9.894   6.763  1.00  0.00     0.034 A 
ATOM     47  C   UNL     1      -8.627  10.417   5.793  1.00  0.00     0.049 A 
ATOM     48  C   UNL     1      -3.151  11.055   6.781  1.00  0.00     0.074 A 
ATOM     49  C   UNL     1      -9.413  11.552   5.880  1.00  0.00     0.029 A 
ATOM     50  N   UNL     1      -7.330  10.803   6.093  1.00  0.00    -0.354 N 
ATOM     51  N   UNL     1      -4.453  11.053   6.629  1.00  0.00    -0.248 NA
ATOM     52  C   UNL     1      -2.578  12.386   7.030  1.00  0.00     0.031 C 
ATOM     53  C   UNL     1      -8.587  12.628   6.220  1.00  0.00     0.029 A 
ATOM     54  C   UNL     1      -7.291  12.159   6.363  1.00  0.00     0.049 A 
ATOM     55  H   UNL     1      -6.551  10.201   6.111  1.00  0.00     0.167 HD
ATOM     56  C   UNL     1      -4.859  12.371   6.798  1.00  0.00     0.074 A 
ATOM     57  C   UNL     1      -3.667  13.141   7.086  1.00  0.00     0.031 C 
ATOM     58  C   UNL     1      -6.104  12.900   6.706  1.00  0.00     0.034 A 
BRANCH  45  59
ATOM     59  C   UNL     1     -10.469   8.825   5.107  1.00  0.00     0.023 A 
ATOM     60  C   UNL     1     -11.306   8.164   6.029  1.00  0.00     0.012 A 
ATOM     61  C   UNL     1     -11.009   9.284   3.890  1.00  0.00     0.148 A 
ATOM     62  C   UNL     1     -12.647   7.929   5.731  1.00  0.00     0.002 A 
ATOM     63  C   UNL     1     -12.358   9.087   3.619  1.00  0.00     0.091 A 
ATOM     64  F   UNL     1     -10.194   9.891   3.016  1.00  0.00    -0.205 F 
ATOM     65  C   UNL     1     -13.175   8.399   4.532  1.00  0.00     0.022 A 
BRANCH  63  66
ATOM     66  S   UNL     1     -13.153   9.724   2.139  1.00  0.00     0.127 S 
ATOM     67  O   UNL     1     -13.380   8.498   1.375  1.00  0.00    -0.237 OA
ATOM     68  O   UNL     1     -14.366  10.338   2.680  1.00  0.00    -0.237 OA
ATOM     69  O   UNL     1     -12.209  10.664   1.551  1.00  0.00    -0.744 OA
ENDBRANCH  63  66
ENDBRANCH  45  59
BRANCH  46  70
ATOM     70  C   UNL     1      -0.736  10.096   7.005  1.00  0.00     0.023 A 
ATOM     71  C   UNL     1      -0.300  10.489   8.285  1.00  0.00     0.012 A 
ATOM     72  C   UNL     1       0.218   9.868   5.995  1.00  0.00     0.148 A 
ATOM     73  C   UNL     1       1.056  10.683   8.548  1.00  0.00     0.002 A 
ATOM     74  C   UNL     1       1.573  10.011   6.278  1.00  0.00     0.091 A 
ATOM     75  F   UNL     1      -0.216   9.506   4.779  1.00  0.00    -0.205 F 
ATOM     76  C   UNL     1       1.993  10.434   7.548  1.00  0.00     0.022 A 
BRANCH  74  77
ATOM     77  S   UNL     1       2.853   9.584   5.092  1.00  0.00     0.127 S 
ATOM     78  O   UNL     1       3.346  10.901   4.696  1.00  0.00    -0.237 OA
ATOM     79  O   UNL     1       3.778   8.800   5.911  1.00  0.00    -0.237 OA
ATOM     80  O   UNL     1       2.181   8.818   4.051  1.00  0.00    -0.744 OA
ENDBRANCH  74  77
ENDBRANCH  46  70
BRANCH  58  81
ATOM     81  C   UNL     1      -6.255  14.377   6.951  1.00  0.00     0.023 A 
ATOM     82  C   UNL     1      -5.812  15.295   5.978  1.00  0.00     0.012 A 
ATOM     83  C   UNL     1      -6.908  14.851   8.105  1.00  0.00     0.148 A 
ATOM     84  C   UNL     1      -5.991  16.665   6.165  1.00  0.00     0.002 A 
ATOM     85  C   UNL     1      -7.126  16.215   8.261  1.00  0.00     0.091 A 
ATOM     86  F   UNL     1      -7.305  13.963   9.027  1.00  0.00    -0.205 F 
ATOM     87  C   UNL     1      -6.658  17.124   7.298  1.00  0.00     0.022 A 
BRANCH  85  88
ATOM     88  S   UNL     1      -8.060  16.886   9.641  1.00  0.00     0.127 S 
ATOM     89  O   UNL     1      -7.001  17.472  10.461  1.00  0.00    -0.237 OA
ATOM     90  O   UNL     1      -8.932  17.860   8.983  1.00  0.00    -0.237 OA
ATOM     91  O   UNL     1      -8.761  15.756  10.236  1.00  0.00    -0.744 OA
ENDBRANCH  85  88
ENDBRANCH  58  81
ENDBRANCH  32  33
ENDBRANCH  24  27
ENDBRANCH  22  23
ENDBRANCH  21  22
ENDBRANCH  20  21
ENDBRANCH   3  20
TORSDOF 19
