REMARK SMILES Cc1cccc(NC(=O)[C@H]2C=C[C@@H]([NH3+])C2)c1C(=O)NCCCNC(=O)c1ccc(-c2c3nc(c(-c4cccc(S(=O)(=O)[O-])c4F)c4ccc([nH]4)c(-c4cccc(S(=O)(=O)[O-])c4F)c4nc(c(-c5cccc(S(=O)(=O)[O-])c5F)c5ccc2[nH]5)C=C4)C=C3)cc1
REMARK SMILES IDX 21 1 20 2 19 3 17 4 18 5 16 7 1 8 2 9 3 10 4 11 6 12 5 13
REMARK SMILES IDX 7 14 8 15 9 17 10 18 11 19 15 20 12 21 13 22 14 23 22 27
REMARK SMILES IDX 23 28 24 29 25 31 26 32 27 33 88 34 28 35 87 36 29 37 30 38
REMARK SMILES IDX 31 39 81 40 32 41 86 42 80 43 82 44 33 45 85 46 79 47 78 48
REMARK SMILES IDX 34 50 66 51 46 52 65 53 47 54 50 55 64 56 83 57 48 58 49 59
REMARK SMILES IDX 63 61 84 62 51 63 35 64 36 65 44 66 37 67 39 68 45 69 38 70
REMARK SMILES IDX 40 71 41 72 42 73 43 74 67 75 68 76 76 77 69 78 71 79 77 80
REMARK SMILES IDX 70 81 72 82 73 83 74 84 75 85 52 86 53 87 61 88 54 89 56 90
REMARK SMILES IDX 62 91 55 92 57 93 58 94 59 95 60 96
REMARK H PARENT 19 6 7 16 14 24 14 25 14 26 23 30 82 49 50 60
REMARK Flexibility Score: inf
ROOT
ATOM      1  C   UNL     1       4.249   0.910  -0.523  1.00  0.00     0.042 C 
ENDROOT
BRANCH   1   2
ATOM      2  C   UNL     1       3.482   1.455   0.676  1.00  0.00     0.118 C 
BRANCH   2   3
ATOM      3  N   UNL     1       2.285   2.163   0.274  1.00  0.00    -0.352 N 
ATOM      4  C   UNL     1       0.985   1.875  -0.042  1.00  0.00     0.253 C 
ATOM      5  O   UNL     1       0.334   2.902  -0.283  1.00  0.00    -0.269 OA
ATOM      6  H   UNL     1       2.455   3.130   0.210  1.00  0.00     0.163 HD
BRANCH   4   7
ATOM      7  C   UNL     1       0.246   0.541  -0.113  1.00  0.00     0.066 A 
ATOM      8  C   UNL     1       2.194  -1.196  -0.373  1.00  0.00     0.045 C 
ATOM      9  C   UNL     1       0.782  -0.778  -0.150  1.00  0.00    -0.036 A 
ATOM     10  C   UNL     1      -0.067  -1.904  -0.153  1.00  0.00     0.004 A 
ATOM     11  C   UNL     1      -1.390  -1.768  -0.470  1.00  0.00     0.002 A 
ATOM     12  C   UNL     1      -1.183   0.633  -0.266  1.00  0.00     0.054 A 
ATOM     13  C   UNL     1      -1.892  -0.497  -0.637  1.00  0.00     0.027 A 
BRANCH  12  14
ATOM     14  N   UNL     1      -1.902   1.837  -0.063  1.00  0.00    -0.325 N 
ATOM     15  C   UNL     1      -3.203   2.205   0.093  1.00  0.00     0.231 C 
ATOM     16  H   UNL     1      -1.300   2.614  -0.025  1.00  0.00     0.169 HD
ATOM     17  O   UNL     1      -3.385   3.426   0.260  1.00  0.00    -0.274 OA
BRANCH  15  18
ATOM     18  C   UNL     1      -4.482   1.336   0.040  1.00  0.00     0.107 C 
ATOM     19  C   UNL     1      -4.971   1.154  -1.368  1.00  0.00    -0.012 C 
ATOM     20  C   UNL     1      -4.631  -0.055   0.676  1.00  0.00     0.087 C 
ATOM     21  C   UNL     1      -5.479  -0.065  -1.573  1.00  0.00     0.033 C 
ATOM     22  C   UNL     1      -5.420  -0.918  -0.348  1.00  0.00     0.205 C 
BRANCH  22  23
ATOM     23  N   UNL     1      -4.814  -2.209  -0.648  1.00  0.00    -0.352 N 
ATOM     24  H   UNL     1      -3.883  -2.065  -1.038  1.00  0.00     0.345 HD
ATOM     25  H   UNL     1      -5.393  -2.707  -1.323  1.00  0.00     0.345 HD
ATOM     26  H   UNL     1      -4.742  -2.758   0.209  1.00  0.00     0.345 HD
ENDBRANCH  22  23
ENDBRANCH  15  18
ENDBRANCH  12  14
ENDBRANCH   4   7
ENDBRANCH   2   3
ENDBRANCH   1   2
BRANCH   1  27
ATOM     27  C   UNL     1       5.560   1.582  -0.874  1.00  0.00     0.118 C 
BRANCH  27  28
ATOM     28  N   UNL     1       6.576   0.550  -1.140  1.00  0.00    -0.352 N 
ATOM     29  C   UNL     1       7.650   0.563  -2.010  1.00  0.00     0.251 C 
ATOM     30  H   UNL     1       6.474  -0.278  -0.617  1.00  0.00     0.163 HD
ATOM     31  O   UNL     1       8.375  -0.404  -2.146  1.00  0.00    -0.269 OA
BRANCH  29  32
ATOM     32  C   UNL     1       7.900   1.838  -2.701  1.00  0.00     0.039 A 
ATOM     33  C   UNL     1       8.806   2.693  -2.070  1.00  0.00     0.014 A 
ATOM     34  C   UNL     1       6.903   2.307  -3.555  1.00  0.00     0.014 A 
ATOM     35  C   UNL     1       8.544   4.053  -2.071  1.00  0.00     0.010 A 
ATOM     36  C   UNL     1       6.615   3.657  -3.510  1.00  0.00     0.010 A 
ATOM     37  C   UNL     1       7.379   4.503  -2.691  1.00  0.00    -0.014 A 
BRANCH  37  38
ATOM     38  C   UNL     1       6.885   5.860  -2.536  1.00  0.00     0.031 A 
ATOM     39  C   UNL     1       7.350   6.877  -3.486  1.00  0.00     0.074 A 
ATOM     40  C   UNL     1       6.037   6.204  -1.542  1.00  0.00     0.049 A 
ATOM     41  N   UNL     1       7.362   8.142  -3.248  1.00  0.00    -0.248 NA
ATOM     42  C   UNL     1       7.926   6.509  -4.770  1.00  0.00     0.031 C 
ATOM     43  C   UNL     1       5.270   7.440  -1.433  1.00  0.00     0.029 A 
ATOM     44  N   UNL     1       5.900   5.602  -0.289  1.00  0.00    -0.354 N 
ATOM     45  C   UNL     1       7.676   8.772  -4.431  1.00  0.00     0.074 A 
ATOM     46  C   UNL     1       8.123   7.714  -5.305  1.00  0.00     0.031 C 
ATOM     47  C   UNL     1       4.984   7.658  -0.141  1.00  0.00     0.029 A 
ATOM     48  C   UNL     1       5.686   6.649   0.632  1.00  0.00     0.049 A 
ATOM     49  H   UNL     1       5.944   4.639  -0.089  1.00  0.00     0.167 HD
ATOM     50  C   UNL     1       7.362  10.090  -4.572  1.00  0.00     0.034 A 
ATOM     51  C   UNL     1       6.467   6.878   1.728  1.00  0.00     0.034 A 
ATOM     52  C   UNL     1       6.896  10.668  -3.297  1.00  0.00     0.049 A 
ATOM     53  C   UNL     1       7.060   8.280   1.775  1.00  0.00     0.074 A 
ATOM     54  C   UNL     1       5.651  10.974  -2.770  1.00  0.00     0.029 A 
ATOM     55  N   UNL     1       7.788  10.761  -2.236  1.00  0.00    -0.354 N 
ATOM     56  N   UNL     1       6.844   9.221   0.897  1.00  0.00    -0.248 NA
ATOM     57  C   UNL     1       8.067   8.665   2.761  1.00  0.00     0.031 C 
ATOM     58  C   UNL     1       5.805  11.243  -1.378  1.00  0.00     0.029 A 
ATOM     59  C   UNL     1       7.144  11.120  -1.059  1.00  0.00     0.049 A 
ATOM     60  H   UNL     1       8.755  10.593  -2.310  1.00  0.00     0.167 HD
ATOM     61  C   UNL     1       7.776  10.222   1.062  1.00  0.00     0.074 A 
ATOM     62  C   UNL     1       8.507   9.826   2.255  1.00  0.00     0.031 C 
ATOM     63  C   UNL     1       7.935  11.247   0.162  1.00  0.00     0.034 A 
BRANCH  50  64
ATOM     64  C   UNL     1       7.170  10.774  -5.920  1.00  0.00     0.023 A 
ATOM     65  C   UNL     1       6.367  11.935  -5.947  1.00  0.00     0.012 A 
ATOM     66  C   UNL     1       7.628  10.321  -7.179  1.00  0.00     0.148 A 
ATOM     67  C   UNL     1       5.943  12.531  -7.141  1.00  0.00     0.002 A 
ATOM     68  C   UNL     1       7.141  10.860  -8.374  1.00  0.00     0.091 A 
ATOM     69  F   UNL     1       8.620   9.434  -7.251  1.00  0.00    -0.205 F 
ATOM     70  C   UNL     1       6.293  11.966  -8.358  1.00  0.00     0.022 A 
BRANCH  68  71
ATOM     71  S   UNL     1       7.497  10.119  -9.979  1.00  0.00     0.127 S 
ATOM     72  O   UNL     1       6.156   9.950 -10.543  1.00  0.00    -0.237 OA
ATOM     73  O   UNL     1       8.304  11.148 -10.630  1.00  0.00    -0.237 OA
ATOM     74  O   UNL     1       8.185   8.862  -9.705  1.00  0.00    -0.744 OA
ENDBRANCH  68  71
ENDBRANCH  50  64
BRANCH  51  75
ATOM     75  C   UNL     1       7.165   5.651   2.219  1.00  0.00     0.023 A 
ATOM     76  C   UNL     1       6.359   4.553   2.608  1.00  0.00     0.012 A 
ATOM     77  C   UNL     1       8.519   5.424   1.928  1.00  0.00     0.148 A 
ATOM     78  C   UNL     1       6.850   3.249   2.533  1.00  0.00     0.002 A 
ATOM     79  C   UNL     1       9.003   4.122   1.872  1.00  0.00     0.091 A 
ATOM     80  F   UNL     1       9.306   6.464   1.629  1.00  0.00    -0.205 F 
ATOM     81  C   UNL     1       8.159   3.031   2.119  1.00  0.00     0.022 A 
BRANCH  79  82
ATOM     82  S   UNL     1      10.696   3.818   1.359  1.00  0.00     0.127 S 
ATOM     83  O   UNL     1      11.412   3.964   2.622  1.00  0.00    -0.237 OA
ATOM     84  O   UNL     1      10.630   2.453   0.840  1.00  0.00    -0.237 OA
ATOM     85  O   UNL     1      10.945   4.830   0.343  1.00  0.00    -0.744 OA
ENDBRANCH  79  82
ENDBRANCH  51  75
BRANCH  63  86
ATOM     86  C   UNL     1       8.910  12.418   0.312  1.00  0.00     0.023 A 
ATOM     87  C   UNL     1       9.489  12.762   1.549  1.00  0.00     0.012 A 
ATOM     88  C   UNL     1       9.227  13.282  -0.775  1.00  0.00     0.148 A 
ATOM     89  C   UNL     1      10.443  13.780   1.679  1.00  0.00     0.002 A 
ATOM     90  C   UNL     1      10.149  14.319  -0.640  1.00  0.00     0.091 A 
ATOM     91  F   UNL     1       8.592  13.145  -1.943  1.00  0.00    -0.205 F 
ATOM     92  C   UNL     1      10.789  14.546   0.578  1.00  0.00     0.022 A 
BRANCH  90  93
ATOM     93  S   UNL     1      10.546  15.444  -1.987  1.00  0.00     0.127 S 
ATOM     94  O   UNL     1       9.916  16.682  -1.528  1.00  0.00    -0.237 OA
ATOM     95  O   UNL     1      12.008  15.457  -1.952  1.00  0.00    -0.237 OA
ATOM     96  O   UNL     1       9.971  14.860  -3.190  1.00  0.00    -0.744 OA
ENDBRANCH  90  93
ENDBRANCH  63  86
ENDBRANCH  37  38
ENDBRANCH  29  32
ENDBRANCH  27  28
ENDBRANCH   1  27
TORSDOF 16
