REMARK SMILES C[C@@H](Oc1ccccc1Cl)C(=O)N1CC[C@H](C(=O)NCCCNC(=O)c2ccc(-c3c4nc(c(-c5cccc(S(=O)(=O)[O-])c5F)c5ccc([nH]5)c(-c5cccc(S(=O)(=O)[O-])c5F)c5nc(c(-c6cccc(S(=O)(=O)[O-])c6F)c6ccc3[nH]6)C=C5)C=C4)cc2)[C@@H]1C
REMARK SMILES IDX 20 1 19 2 17 3 18 4 16 6 13 7 14 8 89 9 15 10 90 11 11 12
REMARK SMILES IDX 12 13 2 14 1 15 3 16 4 17 5 18 9 19 6 20 8 21 10 22 7 23
REMARK SMILES IDX 21 24 22 25 23 26 24 27 25 29 26 30 27 31 88 32 28 33 87 34
REMARK SMILES IDX 29 35 30 36 31 37 81 38 32 39 86 40 80 41 82 42 33 43 85 44
REMARK SMILES IDX 79 45 78 46 34 48 66 49 46 50 65 51 47 52 50 53 64 54 83 55
REMARK SMILES IDX 48 56 49 57 63 59 84 60 51 61 35 62 36 63 44 64 37 65 39 66
REMARK SMILES IDX 45 67 38 68 40 69 41 70 42 71 43 72 67 73 68 74 76 75 69 76
REMARK SMILES IDX 71 77 77 78 70 79 72 80 73 81 74 82 75 83 52 84 53 85 61 86
REMARK SMILES IDX 54 87 56 88 62 89 55 90 57 91 58 92 59 93 60 94
REMARK H PARENT 19 5 23 28 82 47 50 58
REMARK Flexibility Score: inf
ROOT
ATOM      1  C   UNL     1      -2.229   3.212   3.409  1.00  0.00     0.117 C 
ENDROOT
BRANCH   1   2
ATOM      2  N   UNL     1      -3.390   2.360   3.217  1.00  0.00    -0.356 N 
ATOM      3  C   UNL     1      -3.506   1.028   2.970  1.00  0.00     0.225 C 
ATOM      4  O   UNL     1      -4.651   0.594   2.818  1.00  0.00    -0.275 OA
ATOM      5  H   UNL     1      -4.251   2.835   3.276  1.00  0.00     0.163 HD
BRANCH   3   6
ATOM      6  C   UNL     1      -2.281   0.116   2.946  1.00  0.00     0.102 C 
ATOM      7  N   UNL     1      -1.642  -1.186   1.030  1.00  0.00    -0.336 N 
ATOM      8  C   UNL     1      -2.824  -1.798   1.596  1.00  0.00     0.121 C 
ATOM      9  C   UNL     1      -1.397   0.112   1.668  1.00  0.00     0.094 C 
ATOM     10  C   UNL     1      -2.736  -1.357   3.049  1.00  0.00     0.037 C 
ATOM     11  C   UNL     1      -1.662   1.237   0.674  1.00  0.00     0.032 C 
BRANCH   7  12
ATOM     12  C   UNL     1      -0.856  -1.884   0.133  1.00  0.00     0.263 C 
ATOM     13  O   UNL     1      -1.316  -2.853  -0.484  1.00  0.00    -0.271 OA
BRANCH  12  14
ATOM     14  C   UNL     1       0.644  -1.544  -0.018  1.00  0.00     0.259 C 
ATOM     15  C   UNL     1       0.949  -0.205  -0.674  1.00  0.00     0.064 C 
BRANCH  14  16
ATOM     16  O   UNL     1       1.236  -1.626   1.293  1.00  0.00    -0.479 OA
BRANCH  16  17
ATOM     17  C   UNL     1       2.534  -2.063   1.259  1.00  0.00     0.139 A 
ATOM     18  C   UNL     1       2.798  -3.421   1.063  1.00  0.00     0.048 A 
ATOM     19  C   UNL     1       3.584  -1.174   1.510  1.00  0.00     0.083 A 
ATOM     20  C   UNL     1       4.117  -3.878   1.060  1.00  0.00     0.004 A 
ATOM     21  C   UNL     1       4.902  -1.630   1.482  1.00  0.00     0.024 A 
ATOM     22  Cl  UNL     1       3.295   0.487   1.877  1.00  0.00    -0.080 Cl
ATOM     23  C   UNL     1       5.169  -2.982   1.253  1.00  0.00     0.002 A 
ENDBRANCH  16  17
ENDBRANCH  14  16
ENDBRANCH  12  14
ENDBRANCH   7  12
ENDBRANCH   3   6
ENDBRANCH   1   2
BRANCH   1  24
ATOM     24  C   UNL     1      -2.124   4.303   2.341  1.00  0.00     0.042 C 
BRANCH  24  25
ATOM     25  C   UNL     1      -3.339   5.211   2.199  1.00  0.00     0.118 C 
BRANCH  25  26
ATOM     26  N   UNL     1      -3.490   6.141   3.303  1.00  0.00    -0.352 N 
ATOM     27  C   UNL     1      -3.563   7.516   3.279  1.00  0.00     0.251 C 
ATOM     28  H   UNL     1      -3.549   5.730   4.195  1.00  0.00     0.163 HD
ATOM     29  O   UNL     1      -3.536   8.135   4.338  1.00  0.00    -0.269 OA
BRANCH  27  30
ATOM     30  C   UNL     1      -3.642   8.250   1.992  1.00  0.00     0.039 A 
ATOM     31  C   UNL     1      -2.876   9.409   1.834  1.00  0.00     0.014 A 
ATOM     32  C   UNL     1      -4.469   7.822   0.950  1.00  0.00     0.014 A 
ATOM     33  C   UNL     1      -2.893  10.099   0.618  1.00  0.00     0.010 A 
ATOM     34  C   UNL     1      -4.422   8.463  -0.288  1.00  0.00     0.010 A 
ATOM     35  C   UNL     1      -3.640   9.614  -0.468  1.00  0.00    -0.014 A 
BRANCH  35  36
ATOM     36  C   UNL     1      -3.606  10.289  -1.795  1.00  0.00     0.031 A 
ATOM     37  C   UNL     1      -4.863  10.863  -2.394  1.00  0.00     0.074 A 
ATOM     38  C   UNL     1      -2.458  10.316  -2.503  1.00  0.00     0.049 A 
ATOM     39  N   UNL     1      -5.037  11.433  -3.559  1.00  0.00    -0.248 NA
ATOM     40  C   UNL     1      -6.091  10.763  -1.589  1.00  0.00     0.031 C 
ATOM     41  C   UNL     1      -1.185   9.735  -2.072  1.00  0.00     0.029 A 
ATOM     42  N   UNL     1      -2.184  10.827  -3.748  1.00  0.00    -0.354 N 
ATOM     43  C   UNL     1      -6.394  11.722  -3.644  1.00  0.00     0.074 A 
ATOM     44  C   UNL     1      -7.003  11.238  -2.425  1.00  0.00     0.031 C 
ATOM     45  C   UNL     1      -0.267   9.924  -3.033  1.00  0.00     0.029 A 
ATOM     46  C   UNL     1      -0.891  10.603  -4.164  1.00  0.00     0.049 A 
ATOM     47  H   UNL     1      -2.849  11.308  -4.292  1.00  0.00     0.167 HD
ATOM     48  C   UNL     1      -7.070  12.355  -4.633  1.00  0.00     0.034 A 
ATOM     49  C   UNL     1      -0.278  10.895  -5.329  1.00  0.00     0.034 A 
ATOM     50  C   UNL     1      -6.459  12.865  -5.832  1.00  0.00     0.049 A 
ATOM     51  C   UNL     1      -1.044  11.617  -6.404  1.00  0.00     0.074 A 
ATOM     52  C   UNL     1      -7.043  13.598  -6.850  1.00  0.00     0.029 A 
ATOM     53  N   UNL     1      -5.130  12.684  -6.184  1.00  0.00    -0.354 N 
ATOM     54  N   UNL     1      -2.292  12.020  -6.399  1.00  0.00    -0.248 NA
ATOM     55  C   UNL     1      -0.309  11.957  -7.631  1.00  0.00     0.031 C 
ATOM     56  C   UNL     1      -6.078  13.826  -7.836  1.00  0.00     0.029 A 
ATOM     57  C   UNL     1      -4.880  13.274  -7.411  1.00  0.00     0.049 A 
ATOM     58  H   UNL     1      -4.463  12.205  -5.641  1.00  0.00     0.167 HD
ATOM     59  C   UNL     1      -2.481  12.692  -7.601  1.00  0.00     0.074 A 
ATOM     60  C   UNL     1      -1.214  12.657  -8.303  1.00  0.00     0.031 C 
ATOM     61  C   UNL     1      -3.605  13.277  -8.083  1.00  0.00     0.034 A 
BRANCH  48  62
ATOM     62  C   UNL     1      -8.552  12.563  -4.447  1.00  0.00     0.023 A 
ATOM     63  C   UNL     1      -9.015  13.472  -3.472  1.00  0.00     0.012 A 
ATOM     64  C   UNL     1      -9.485  11.901  -5.269  1.00  0.00     0.148 A 
ATOM     65  C   UNL     1     -10.381  13.684  -3.289  1.00  0.00     0.002 A 
ATOM     66  C   UNL     1     -10.843  12.156  -5.114  1.00  0.00     0.091 A 
ATOM     67  F   UNL     1      -9.030  11.028  -6.179  1.00  0.00    -0.205 F 
ATOM     68  C   UNL     1     -11.293  13.035  -4.115  1.00  0.00     0.022 A 
BRANCH  66  69
ATOM     69  S   UNL     1     -12.092  11.436  -6.185  1.00  0.00     0.127 S 
ATOM     70  O   UNL     1     -12.750  10.495  -5.279  1.00  0.00    -0.237 OA
ATOM     71  O   UNL     1     -12.900  12.602  -6.542  1.00  0.00    -0.237 OA
ATOM     72  O   UNL     1     -11.371  10.833  -7.296  1.00  0.00    -0.744 OA
ENDBRANCH  66  69
ENDBRANCH  48  62
BRANCH  49  73
ATOM     73  C   UNL     1       1.159  10.547  -5.517  1.00  0.00     0.023 A 
ATOM     74  C   UNL     1       2.122  11.573  -5.566  1.00  0.00     0.012 A 
ATOM     75  C   UNL     1       1.579   9.206  -5.616  1.00  0.00     0.148 A 
ATOM     76  C   UNL     1       3.474  11.273  -5.740  1.00  0.00     0.002 A 
ATOM     77  C   UNL     1       2.932   8.911  -5.731  1.00  0.00     0.091 A 
ATOM     78  F   UNL     1       0.645   8.245  -5.575  1.00  0.00    -0.205 F 
ATOM     79  C   UNL     1       3.880   9.943  -5.812  1.00  0.00     0.022 A 
BRANCH  77  80
ATOM     80  S   UNL     1       3.560   7.229  -5.696  1.00  0.00     0.127 S 
ATOM     81  O   UNL     1       4.080   7.075  -7.052  1.00  0.00    -0.237 OA
ATOM     82  O   UNL     1       4.579   7.311  -4.649  1.00  0.00    -0.237 OA
ATOM     83  O   UNL     1       2.420   6.387  -5.359  1.00  0.00    -0.744 OA
ENDBRANCH  77  80
ENDBRANCH  49  73
BRANCH  61  84
ATOM     84  C   UNL     1      -3.520  13.976  -9.416  1.00  0.00     0.023 A 
ATOM     85  C   UNL     1      -3.398  13.225 -10.602  1.00  0.00     0.012 A 
ATOM     86  C   UNL     1      -3.642  15.378  -9.495  1.00  0.00     0.148 A 
ATOM     87  C   UNL     1      -3.367  13.861 -11.843  1.00  0.00     0.002 A 
ATOM     88  C   UNL     1      -3.663  16.000 -10.737  1.00  0.00     0.091 A 
ATOM     89  F   UNL     1      -3.739  16.076  -8.354  1.00  0.00    -0.205 F 
ATOM     90  C   UNL     1      -3.512  15.245 -11.912  1.00  0.00     0.022 A 
BRANCH  88  91
ATOM     91  S   UNL     1      -3.945  17.764 -10.928  1.00  0.00     0.127 S 
ATOM     92  O   UNL     1      -2.634  18.227 -11.382  1.00  0.00    -0.237 OA
ATOM     93  O   UNL     1      -4.992  17.800 -11.950  1.00  0.00    -0.237 OA
ATOM     94  O   UNL     1      -4.359  18.251  -9.620  1.00  0.00    -0.744 OA
ENDBRANCH  88  91
ENDBRANCH  61  84
ENDBRANCH  35  36
ENDBRANCH  27  30
ENDBRANCH  25  26
ENDBRANCH  24  25
ENDBRANCH   1  24
TORSDOF 17
