REMARK SMILES CC[C@H](Oc1ccccc1/C=C1\SC(N)=[NH+]C1=O)C(=O)NCCCNC(=O)c1ccc(-c2c3nc(c(-c4cccc(S(=O)(=O)[O-])c4F)c4ccc([nH]4)c(-c4cccc(S(=O)(=O)[O-])c4F)c4nc(c(-c5cccc(S(=O)(=O)[O-])c5F)c5ccc2[nH]5)C=C4)C=C3)cc1
REMARK SMILES IDX 23 1 22 2 21 3 19 4 20 5 3 7 2 8 1 9 4 10 5 11 6 12 10 13
REMARK SMILES IDX 7 14 9 15 8 16 11 17 12 18 13 19 17 20 14 21 16 22 18 23
REMARK SMILES IDX 15 24 24 28 25 29 26 30 27 32 28 33 29 34 90 35 30 36 89 37
REMARK SMILES IDX 31 38 32 39 33 40 83 41 34 42 88 43 82 44 84 45 35 46 87 47
REMARK SMILES IDX 81 48 80 49 36 51 68 52 48 53 67 54 49 55 52 56 66 57 85 58
REMARK SMILES IDX 50 59 51 60 65 62 86 63 53 64 37 65 38 66 46 67 39 68 41 69
REMARK SMILES IDX 47 70 40 71 42 72 43 73 44 74 45 75 69 76 70 77 78 78 71 79
REMARK SMILES IDX 73 80 79 81 72 82 74 83 75 84 76 85 77 86 54 87 55 88 63 89
REMARK SMILES IDX 56 90 58 91 64 92 57 93 59 94 60 95 61 96 62 97
REMARK H PARENT 21 6 16 25 15 26 15 27 25 31 84 50 52 61
REMARK Flexibility Score: inf
ROOT
ATOM      1  C   UNL     1      -2.955   2.712  -1.756  1.00  0.00     0.042 C 
ENDROOT
BRANCH   1   2
ATOM      2  C   UNL     1      -2.012   1.945  -2.662  1.00  0.00     0.118 C 
BRANCH   2   3
ATOM      3  N   UNL     1      -0.746   2.603  -2.855  1.00  0.00    -0.353 N 
ATOM      4  C   UNL     1       0.515   2.148  -2.626  1.00  0.00     0.261 C 
ATOM      5  O   UNL     1       1.431   2.905  -2.977  1.00  0.00    -0.271 OA
ATOM      6  H   UNL     1      -0.801   3.522  -3.206  1.00  0.00     0.163 HD
BRANCH   4   7
ATOM      7  C   UNL     1       0.843   0.727  -2.052  1.00  0.00     0.261 C 
BRANCH   7   8
ATOM      8  C   UNL     1       0.831  -0.397  -3.118  1.00  0.00     0.052 C 
ATOM      9  C   UNL     1      -0.325  -0.437  -4.111  1.00  0.00     0.008 C 
ENDBRANCH   7   8
BRANCH   7  10
ATOM     10  O   UNL     1       0.607   0.300  -0.703  1.00  0.00    -0.480 OA
BRANCH  10  11
ATOM     11  C   UNL     1      -0.651   0.059  -0.242  1.00  0.00     0.127 A 
ATOM     12  C   UNL     1      -1.479  -0.900  -0.835  1.00  0.00     0.047 A 
ATOM     13  C   UNL     1      -1.082   0.682   0.943  1.00  0.00     0.018 A 
ATOM     14  C   UNL     1      -2.794  -1.079  -0.400  1.00  0.00     0.004 A 
ATOM     15  C   UNL     1      -2.404   0.491   1.380  1.00  0.00     0.012 A 
ATOM     16  C   UNL     1      -3.268  -0.356   0.687  1.00  0.00     0.001 A 
BRANCH  13  17
ATOM     17  C   UNL     1      -0.177   1.398   1.856  1.00  0.00     0.036 C 
ATOM     18  C   UNL     1       0.355   2.618   1.730  1.00  0.00     0.110 C 
ATOM     19  S   UNL     1       0.150   3.757   0.471  1.00  0.00     0.006 SA
ATOM     20  C   UNL     1       1.274   3.186   2.769  1.00  0.00     0.346 C 
ATOM     21  C   UNL     1       1.240   4.836   1.291  1.00  0.00     0.314 C 
ATOM     22  N   UNL     1       1.724   4.442   2.415  1.00  0.00    -0.200 N 
ATOM     23  O   UNL     1       1.596   2.590   3.784  1.00  0.00    -0.240 OA
ATOM     24  N   UNL     1       1.512   6.012   0.693  1.00  0.00    -0.281 N 
ATOM     25  H   UNL     1       2.346   4.976   2.962  1.00  0.00     0.316 HD
ATOM     26  H   UNL     1       1.095   6.233  -0.171  1.00  0.00     0.302 HD
ATOM     27  H   UNL     1       2.127   6.651   1.121  1.00  0.00     0.302 HD
ENDBRANCH  13  17
ENDBRANCH  10  11
ENDBRANCH   7  10
ENDBRANCH   4   7
ENDBRANCH   2   3
ENDBRANCH   1   2
BRANCH   1  28
ATOM     28  C   UNL     1      -3.672   3.830  -2.488  1.00  0.00     0.118 C 
BRANCH  28  29
ATOM     29  N   UNL     1      -4.567   3.316  -3.521  1.00  0.00    -0.352 N 
ATOM     30  C   UNL     1      -5.938   3.298  -3.586  1.00  0.00     0.251 C 
ATOM     31  H   UNL     1      -4.114   2.917  -4.298  1.00  0.00     0.163 HD
ATOM     32  O   UNL     1      -6.490   2.573  -4.410  1.00  0.00    -0.269 OA
BRANCH  30  33
ATOM     33  C   UNL     1      -6.741   4.136  -2.672  1.00  0.00     0.039 A 
ATOM     34  C   UNL     1      -7.974   3.663  -2.218  1.00  0.00     0.014 A 
ATOM     35  C   UNL     1      -6.291   5.396  -2.274  1.00  0.00     0.014 A 
ATOM     36  C   UNL     1      -8.718   4.433  -1.324  1.00  0.00     0.010 A 
ATOM     37  C   UNL     1      -6.961   6.092  -1.279  1.00  0.00     0.010 A 
ATOM     38  C   UNL     1      -8.199   5.636  -0.814  1.00  0.00    -0.014 A 
BRANCH  38  39
ATOM     39  C   UNL     1      -8.947   6.426   0.196  1.00  0.00     0.031 A 
ATOM     40  C   UNL     1      -9.337   7.855  -0.083  1.00  0.00     0.074 A 
ATOM     41  C   UNL     1      -9.229   5.866   1.389  1.00  0.00     0.049 A 
ATOM     42  N   UNL     1     -10.018   8.681   0.668  1.00  0.00    -0.248 NA
ATOM     43  C   UNL     1      -8.877   8.449  -1.350  1.00  0.00     0.031 C 
ATOM     44  C   UNL     1      -8.806   4.529   1.817  1.00  0.00     0.029 A 
ATOM     45  N   UNL     1      -9.931   6.349   2.462  1.00  0.00    -0.354 N 
ATOM     46  C   UNL     1     -10.040   9.890  -0.017  1.00  0.00     0.074 A 
ATOM     47  C   UNL     1      -9.256   9.711  -1.217  1.00  0.00     0.031 C 
ATOM     48  C   UNL     1      -9.291   4.285   3.044  1.00  0.00     0.029 A 
ATOM     49  C   UNL     1     -10.027   5.457   3.504  1.00  0.00     0.049 A 
ATOM     50  H   UNL     1     -10.329   7.250   2.485  1.00  0.00     0.167 HD
ATOM     51  C   UNL     1     -10.686  11.036   0.301  1.00  0.00     0.034 A 
ATOM     52  C   UNL     1     -10.644   5.569   4.696  1.00  0.00     0.034 A 
ATOM     53  C   UNL     1     -11.495  11.195   1.478  1.00  0.00     0.049 A 
ATOM     54  C   UNL     1     -11.400   6.832   5.000  1.00  0.00     0.074 A 
ATOM     55  C   UNL     1     -12.266  12.281   1.853  1.00  0.00     0.029 A 
ATOM     56  N   UNL     1     -11.628  10.245   2.479  1.00  0.00    -0.354 N 
ATOM     57  N   UNL     1     -11.550   7.904   4.260  1.00  0.00    -0.248 NA
ATOM     58  C   UNL     1     -12.107   6.884   6.287  1.00  0.00     0.031 C 
ATOM     59  C   UNL     1     -12.835  12.000   3.100  1.00  0.00     0.029 A 
ATOM     60  C   UNL     1     -12.456  10.723   3.479  1.00  0.00     0.049 A 
ATOM     61  H   UNL     1     -11.197   9.360   2.477  1.00  0.00     0.167 HD
ATOM     62  C   UNL     1     -12.392   8.746   4.977  1.00  0.00     0.074 A 
ATOM     63  C   UNL     1     -12.745   8.042   6.193  1.00  0.00     0.031 C 
ATOM     64  C   UNL     1     -12.821   9.995   4.668  1.00  0.00     0.034 A 
BRANCH  51  65
ATOM     65  C   UNL     1     -10.582  12.191  -0.664  1.00  0.00     0.023 A 
ATOM     66  C   UNL     1     -11.200  12.106  -1.929  1.00  0.00     0.012 A 
ATOM     67  C   UNL     1      -9.914  13.378  -0.303  1.00  0.00     0.148 A 
ATOM     68  C   UNL     1     -11.121  13.164  -2.834  1.00  0.00     0.002 A 
ATOM     69  C   UNL     1      -9.885  14.448  -1.190  1.00  0.00     0.091 A 
ATOM     70  F   UNL     1      -9.313  13.435   0.894  1.00  0.00    -0.205 F 
ATOM     71  C   UNL     1     -10.474  14.338  -2.460  1.00  0.00     0.022 A 
BRANCH  69  72
ATOM     72  S   UNL     1      -9.149  16.033  -0.775  1.00  0.00     0.127 S 
ATOM     73  O   UNL     1      -7.995  16.065  -1.673  1.00  0.00    -0.237 OA
ATOM     74  O   UNL     1     -10.219  16.967  -1.124  1.00  0.00    -0.237 OA
ATOM     75  O   UNL     1      -8.831  15.971   0.644  1.00  0.00    -0.744 OA
ENDBRANCH  69  72
ENDBRANCH  51  65
BRANCH  52  76
ATOM     76  C   UNL     1     -10.624   4.431   5.657  1.00  0.00     0.023 A 
ATOM     77  C   UNL     1     -11.813   3.725   5.928  1.00  0.00     0.012 A 
ATOM     78  C   UNL     1      -9.429   4.028   6.283  1.00  0.00     0.148 A 
ATOM     79  C   UNL     1     -11.819   2.663   6.834  1.00  0.00     0.002 A 
ATOM     80  C   UNL     1      -9.430   2.932   7.136  1.00  0.00     0.091 A 
ATOM     81  F   UNL     1      -8.311   4.717   6.016  1.00  0.00    -0.205 F 
ATOM     82  C   UNL     1     -10.627   2.261   7.430  1.00  0.00     0.022 A 
BRANCH  80  83
ATOM     83  S   UNL     1      -7.919   2.257   7.834  1.00  0.00     0.127 S 
ATOM     84  O   UNL     1      -8.072   2.584   9.249  1.00  0.00    -0.237 OA
ATOM     85  O   UNL     1      -8.049   0.835   7.511  1.00  0.00    -0.237 OA
ATOM     86  O   UNL     1      -6.830   2.932   7.141  1.00  0.00    -0.744 OA
ENDBRANCH  80  83
ENDBRANCH  52  76
BRANCH  64  87
ATOM     87  C   UNL     1     -13.745  10.667   5.649  1.00  0.00     0.023 A 
ATOM     88  C   UNL     1     -13.261  11.080   6.907  1.00  0.00     0.012 A 
ATOM     89  C   UNL     1     -15.088  10.922   5.309  1.00  0.00     0.148 A 
ATOM     90  C   UNL     1     -14.111  11.685   7.831  1.00  0.00     0.002 A 
ATOM     91  C   UNL     1     -15.915  11.578   6.212  1.00  0.00     0.091 A 
ATOM     92  F   UNL     1     -15.536  10.509   4.114  1.00  0.00    -0.205 F 
ATOM     93  C   UNL     1     -15.434  11.943   7.480  1.00  0.00     0.022 A 
BRANCH  91  94
ATOM     94  S   UNL     1     -17.602  12.042   5.808  1.00  0.00     0.127 S 
ATOM     95  O   UNL     1     -18.372  11.094   6.611  1.00  0.00    -0.237 OA
ATOM     96  O   UNL     1     -17.662  13.428   6.275  1.00  0.00    -0.237 OA
ATOM     97  O   UNL     1     -17.726  11.886   4.365  1.00  0.00    -0.744 OA
ENDBRANCH  91  94
ENDBRANCH  64  87
ENDBRANCH  38  39
ENDBRANCH  30  33
ENDBRANCH  28  29
ENDBRANCH   1  28
TORSDOF 17
