REMARK SMILES COCC[C@]1(C(=O)NCCCNC(=O)c2ccc(-c3c4nc(c(-c5cccc(S(=O)(=O)[O-])c5F)c5ccc([nH]5)c(-c5cccc(S(=O)(=O)[O-])c5F)c5nc(c(-c6cccc(S(=O)(=O)[O-])c6F)c6ccc3[nH]6)C=C5)C=C4)cc2)CCCN(C(=O)c2ccc3c(c2)CCCO3)C1
REMARK SMILES IDX 10 1 9 2 8 3 6 4 7 5 5 7 78 8 94 9 79 10 81 11 80 12 4 13
REMARK SMILES IDX 3 14 2 15 1 16 82 17 83 18 84 19 85 20 89 21 86 22 88 23
REMARK SMILES IDX 87 24 90 25 93 26 91 27 92 28 11 29 12 30 13 31 14 33 15 34
REMARK SMILES IDX 16 35 77 36 17 37 76 38 18 39 19 40 20 41 70 42 21 43 75 44
REMARK SMILES IDX 69 45 71 46 22 47 74 48 68 49 67 50 23 52 55 53 35 54 54 55
REMARK SMILES IDX 36 56 39 57 53 58 72 59 37 60 38 61 52 63 73 64 40 65 24 66
REMARK SMILES IDX 25 67 33 68 26 69 28 70 34 71 27 72 29 73 30 74 31 75 32 76
REMARK SMILES IDX 56 77 57 78 65 79 58 80 60 81 66 82 59 83 61 84 62 85 63 86
REMARK SMILES IDX 64 87 41 88 42 89 50 90 43 91 45 92 51 93 44 94 46 95 47 96
REMARK SMILES IDX 48 97 49 98
REMARK H PARENT 8 6 12 32 71 51 39 62
REMARK Flexibility Score: inf
ROOT
ATOM      1  C   UNL     1       3.254   0.581   3.877  1.00  0.00     0.042 C 
ENDROOT
BRANCH   1   2
ATOM      2  C   UNL     1       2.681   1.974   3.642  1.00  0.00     0.117 C 
BRANCH   2   3
ATOM      3  N   UNL     1       3.070   2.518   2.351  1.00  0.00    -0.355 N 
ATOM      4  C   UNL     1       2.430   2.636   1.157  1.00  0.00     0.228 C 
ATOM      5  O   UNL     1       3.100   3.148   0.253  1.00  0.00    -0.274 OA
ATOM      6  H   UNL     1       3.987   2.876   2.339  1.00  0.00     0.163 HD
BRANCH   4   7
ATOM      7  C   UNL     1       0.965   2.204   0.927  1.00  0.00     0.069 C 
ATOM      8  C   UNL     1       0.734   0.728   1.312  1.00  0.00     0.021 C 
ATOM      9  C   UNL     1       0.057   3.128   1.771  1.00  0.00     0.136 C 
ATOM     10  C   UNL     1      -0.738   0.335   1.277  1.00  0.00     0.023 C 
ATOM     11  N   UNL     1      -1.336   2.672   1.804  1.00  0.00    -0.338 N 
ATOM     12  C   UNL     1      -1.549   1.267   2.167  1.00  0.00     0.120 C 
BRANCH   7  13
ATOM     13  C   UNL     1       0.602   2.469  -0.581  1.00  0.00     0.047 C 
BRANCH  13  14
ATOM     14  C   UNL     1       1.282   1.547  -1.600  1.00  0.00     0.161 C 
BRANCH  14  15
ATOM     15  O   UNL     1       0.437   0.423  -1.844  1.00  0.00    -0.385 OA
ATOM     16  C   UNL     1       1.083  -0.840  -1.774  1.00  0.00     0.194 C 
ENDBRANCH  14  15
ENDBRANCH  13  14
ENDBRANCH   7  13
BRANCH  11  17
ATOM     17  C   UNL     1      -2.332   3.584   1.471  1.00  0.00     0.253 C 
ATOM     18  O   UNL     1      -2.108   4.718   1.050  1.00  0.00    -0.269 OA
BRANCH  17  19
ATOM     19  C   UNL     1      -3.748   3.199   1.628  1.00  0.00     0.040 A 
ATOM     20  C   UNL     1      -4.606   3.348   0.531  1.00  0.00     0.017 A 
ATOM     21  C   UNL     1      -4.232   2.755   2.865  1.00  0.00     0.021 A 
ATOM     22  C   UNL     1      -5.958   3.042   0.666  1.00  0.00     0.047 A 
ATOM     23  C   UNL     1      -5.581   2.436   2.990  1.00  0.00    -0.005 A 
ATOM     24  C   UNL     1      -6.437   2.616   1.900  1.00  0.00     0.122 A 
ATOM     25  C   UNL     1      -6.168   1.851   4.235  1.00  0.00     0.043 C 
ATOM     26  O   UNL     1      -7.772   2.345   2.035  1.00  0.00    -0.493 OA
ATOM     27  C   UNL     1      -7.477   2.562   4.524  1.00  0.00     0.046 C 
ATOM     28  C   UNL     1      -8.289   2.881   3.262  1.00  0.00     0.230 C 
ENDBRANCH  17  19
ENDBRANCH  11  17
ENDBRANCH   4   7
ENDBRANCH   2   3
ENDBRANCH   1   2
BRANCH   1  29
ATOM     29  C   UNL     1       4.762   0.566   4.079  1.00  0.00     0.118 C 
BRANCH  29  30
ATOM     30  N   UNL     1       5.158   1.279   5.285  1.00  0.00    -0.352 N 
ATOM     31  C   UNL     1       5.707   0.806   6.451  1.00  0.00     0.251 C 
ATOM     32  H   UNL     1       5.010   2.252   5.261  1.00  0.00     0.163 HD
ATOM     33  O   UNL     1       5.728   1.530   7.442  1.00  0.00    -0.269 OA
BRANCH  31  34
ATOM     34  C   UNL     1       6.266  -0.562   6.519  1.00  0.00     0.039 A 
ATOM     35  C   UNL     1       6.084  -1.313   7.684  1.00  0.00     0.014 A 
ATOM     36  C   UNL     1       7.007  -1.090   5.458  1.00  0.00     0.014 A 
ATOM     37  C   UNL     1       6.602  -2.608   7.763  1.00  0.00     0.010 A 
ATOM     38  C   UNL     1       7.445  -2.409   5.504  1.00  0.00     0.010 A 
ATOM     39  C   UNL     1       7.263  -3.176   6.663  1.00  0.00    -0.014 A 
BRANCH  39  40
ATOM     40  C   UNL     1       7.783  -4.566   6.701  1.00  0.00     0.031 A 
ATOM     41  C   UNL     1       9.259  -4.824   6.551  1.00  0.00     0.074 A 
ATOM     42  C   UNL     1       6.919  -5.597   6.774  1.00  0.00     0.049 A 
ATOM     43  N   UNL     1       9.893  -5.965   6.479  1.00  0.00    -0.248 NA
ATOM     44  C   UNL     1      10.135  -3.646   6.433  1.00  0.00     0.031 C 
ATOM     45  C   UNL     1       5.461  -5.476   6.840  1.00  0.00     0.029 A 
ATOM     46  N   UNL     1       7.139  -6.952   6.772  1.00  0.00    -0.354 N 
ATOM     47  C   UNL     1      11.229  -5.646   6.267  1.00  0.00     0.074 A 
ATOM     48  C   UNL     1      11.311  -4.204   6.187  1.00  0.00     0.031 C 
ATOM     49  C   UNL     1       4.918  -6.703   6.875  1.00  0.00     0.029 A 
ATOM     50  C   UNL     1       5.984  -7.698   6.804  1.00  0.00     0.049 A 
ATOM     51  H   UNL     1       8.038  -7.351   6.751  1.00  0.00     0.167 HD
ATOM     52  C   UNL     1      12.297  -6.474   6.178  1.00  0.00     0.034 A 
ATOM     53  C   UNL     1       5.803  -9.033   6.772  1.00  0.00     0.034 A 
ATOM     54  C   UNL     1      12.216  -7.903   6.313  1.00  0.00     0.049 A 
ATOM     55  C   UNL     1       7.010  -9.930   6.731  1.00  0.00     0.074 A 
ATOM     56  C   UNL     1      13.247  -8.825   6.335  1.00  0.00     0.029 A 
ATOM     57  N   UNL     1      11.036  -8.618   6.449  1.00  0.00    -0.354 N 
ATOM     58  N   UNL     1       8.279  -9.603   6.692  1.00  0.00    -0.248 NA
ATOM     59  C   UNL     1       6.764 -11.379   6.767  1.00  0.00     0.031 C 
ATOM     60  C   UNL     1      12.689 -10.101   6.466  1.00  0.00     0.029 A 
ATOM     61  C   UNL     1      11.312  -9.971   6.549  1.00  0.00     0.049 A 
ATOM     62  H   UNL     1      10.135  -8.223   6.470  1.00  0.00     0.167 HD
ATOM     63  C   UNL     1       8.983 -10.801   6.738  1.00  0.00     0.074 A 
ATOM     64  C   UNL     1       7.998 -11.860   6.827  1.00  0.00     0.031 C 
ATOM     65  C   UNL     1      10.322 -11.007   6.696  1.00  0.00     0.034 A 
BRANCH  52  66
ATOM     66  C   UNL     1      13.655  -5.851   5.983  1.00  0.00     0.023 A 
ATOM     67  C   UNL     1      14.252  -5.140   7.045  1.00  0.00     0.012 A 
ATOM     68  C   UNL     1      14.364  -6.013   4.777  1.00  0.00     0.148 A 
ATOM     69  C   UNL     1      15.516  -4.571   6.898  1.00  0.00     0.002 A 
ATOM     70  C   UNL     1      15.643  -5.482   4.654  1.00  0.00     0.091 A 
ATOM     71  F   UNL     1      13.772  -6.673   3.770  1.00  0.00    -0.205 F 
ATOM     72  C   UNL     1      16.215  -4.751   5.708  1.00  0.00     0.022 A 
BRANCH  70  73
ATOM     73  S   UNL     1      16.657  -5.726   3.191  1.00  0.00     0.127 S 
ATOM     74  O   UNL     1      16.640  -4.392   2.594  1.00  0.00    -0.237 OA
ATOM     75  O   UNL     1      17.942  -6.119   3.769  1.00  0.00    -0.237 OA
ATOM     76  O   UNL     1      15.997  -6.768   2.415  1.00  0.00    -0.744 OA
ENDBRANCH  70  73
ENDBRANCH  52  66
BRANCH  53  77
ATOM     77  C   UNL     1       4.427  -9.598   6.857  1.00  0.00     0.023 A 
ATOM     78  C   UNL     1       4.025 -10.260   8.034  1.00  0.00     0.012 A 
ATOM     79  C   UNL     1       3.505  -9.451   5.803  1.00  0.00     0.148 A 
ATOM     80  C   UNL     1       2.741 -10.793   8.147  1.00  0.00     0.002 A 
ATOM     81  C   UNL     1       2.210  -9.935   5.944  1.00  0.00     0.091 A 
ATOM     82  F   UNL     1       3.909  -8.827   4.688  1.00  0.00    -0.205 F 
ATOM     83  C   UNL     1       1.831 -10.622   7.108  1.00  0.00     0.022 A 
BRANCH  81  84
ATOM     84  S   UNL     1       0.933  -9.637   4.716  1.00  0.00     0.127 S 
ATOM     85  O   UNL     1       0.776 -10.960   4.119  1.00  0.00    -0.237 OA
ATOM     86  O   UNL     1      -0.189  -9.196   5.545  1.00  0.00    -0.237 OA
ATOM     87  O   UNL     1       1.469  -8.604   3.838  1.00  0.00    -0.744 OA
ENDBRANCH  81  84
ENDBRANCH  53  77
BRANCH  65  88
ATOM     88  C   UNL     1      10.814 -12.427   6.785  1.00  0.00     0.023 A 
ATOM     89  C   UNL     1      10.665 -13.291   5.682  1.00  0.00     0.012 A 
ATOM     90  C   UNL     1      11.498 -12.878   7.931  1.00  0.00     0.148 A 
ATOM     91  C   UNL     1      11.162 -14.593   5.731  1.00  0.00     0.002 A 
ATOM     92  C   UNL     1      12.033 -14.160   7.954  1.00  0.00     0.091 A 
ATOM     93  F   UNL     1      11.612 -12.046   8.977  1.00  0.00    -0.205 F 
ATOM     94  C   UNL     1      11.857 -15.022   6.859  1.00  0.00     0.022 A 
BRANCH  92  95
ATOM     95  S   UNL     1      13.025 -14.764   9.325  1.00  0.00     0.127 S 
ATOM     96  O   UNL     1      12.106 -15.701   9.967  1.00  0.00    -0.237 OA
ATOM     97  O   UNL     1      14.156 -15.390   8.639  1.00  0.00    -0.237 OA
ATOM     98  O   UNL     1      13.374 -13.590  10.113  1.00  0.00    -0.744 OA
ENDBRANCH  92  95
ENDBRANCH  65  88
ENDBRANCH  39  40
ENDBRANCH  31  34
ENDBRANCH  29  30
ENDBRANCH   1  29
TORSDOF 18
