REMARK SMILES C[C@H](c1ccc(Br)s1)[NH+]1CCC(CC(=O)NCCCNC(=O)c2ccc(-c3c4nc(c(-c5cccc(S(=O)(=O)[O-])c5F)c5ccc([nH]5)c(-c5cccc(S(=O)(=O)[O-])c5F)c5nc(c(-c6cccc(S(=O)(=O)[O-])c6F)c6ccc3[nH]6)C=C5)C=C4)cc2)CC1
REMARK SMILES IDX 18 1 17 2 16 3 14 4 15 5 13 7 12 8 9 9 10 10 87 11 11 13
REMARK SMILES IDX 86 14 2 15 1 16 3 17 4 18 8 19 5 20 6 21 7 22 19 23 20 24
REMARK SMILES IDX 21 25 22 27 23 28 24 29 85 30 25 31 84 32 26 33 27 34 28 35
REMARK SMILES IDX 78 36 29 37 83 38 77 39 79 40 30 41 82 42 76 43 75 44 31 46
REMARK SMILES IDX 63 47 43 48 62 49 44 50 47 51 61 52 80 53 45 54 46 55 60 57
REMARK SMILES IDX 81 58 48 59 32 60 33 61 41 62 34 63 36 64 42 65 35 66 37 67
REMARK SMILES IDX 38 68 39 69 40 70 64 71 65 72 73 73 66 74 68 75 74 76 67 77
REMARK SMILES IDX 69 78 70 79 71 80 72 81 49 82 50 83 58 84 51 85 53 86 59 87
REMARK SMILES IDX 52 88 54 89 55 90 56 91 57 92
REMARK H PARENT 16 6 9 12 20 26 79 45 47 56
REMARK Flexibility Score: inf
ROOT
ATOM      1  C   UNL     1      -3.717   2.526   0.334  1.00  0.00     0.042 C 
ENDROOT
BRANCH   1   2
ATOM      2  C   UNL     1      -4.958   1.649   0.555  1.00  0.00     0.117 C 
BRANCH   2   3
ATOM      3  N   UNL     1      -5.502   1.064  -0.668  1.00  0.00    -0.356 N 
ATOM      4  C   UNL     1      -5.576  -0.231  -1.104  1.00  0.00     0.220 C 
ATOM      5  O   UNL     1      -6.169  -0.449  -2.164  1.00  0.00    -0.275 OA
ATOM      6  H   UNL     1      -5.885   1.721  -1.293  1.00  0.00     0.163 HD
BRANCH   4   7
ATOM      7  C   UNL     1      -4.931  -1.379  -0.332  1.00  0.00     0.104 C 
BRANCH   7   8
ATOM      8  C   UNL     1      -3.490  -1.703  -0.791  1.00  0.00     0.009 C 
ATOM      9  N   UNL     1      -0.748  -1.462   0.269  1.00  0.00    -0.328 N 
ATOM     10  C   UNL     1      -1.173  -0.629  -0.867  1.00  0.00     0.263 C 
ATOM     11  C   UNL     1      -1.299  -2.810   0.042  1.00  0.00     0.263 C 
ATOM     12  H   UNL     1      -1.111  -1.075   1.140  1.00  0.00     0.348 HD
ATOM     13  C   UNL     1      -2.663  -0.434  -0.752  1.00  0.00     0.066 C 
ATOM     14  C   UNL     1      -2.842  -2.787   0.093  1.00  0.00     0.066 C 
BRANCH   9  15
ATOM     15  C   UNL     1       0.731  -1.462   0.474  1.00  0.00     0.222 C 
ATOM     16  C   UNL     1       1.049  -1.903   1.913  1.00  0.00     0.082 C 
BRANCH  15  17
ATOM     17  C   UNL     1       1.332  -0.086   0.225  1.00  0.00     0.063 A 
ATOM     18  C   UNL     1       1.211   1.086   0.958  1.00  0.00     0.023 A 
ATOM     19  S   UNL     1       2.175   0.197  -1.252  1.00  0.00    -0.127 S 
ATOM     20  C   UNL     1       1.631   2.232   0.212  1.00  0.00     0.028 A 
ATOM     21  C   UNL     1       2.084   1.871  -1.032  1.00  0.00     0.070 A 
ATOM     22  Br  UNL     1       2.481   3.085  -2.398  1.00  0.00    -0.039 Br
ENDBRANCH  15  17
ENDBRANCH   9  15
ENDBRANCH   7   8
ENDBRANCH   4   7
ENDBRANCH   2   3
ENDBRANCH   1   2
BRANCH   1  23
ATOM     23  C   UNL     1      -3.966   3.848  -0.379  1.00  0.00     0.118 C 
BRANCH  23  24
ATOM     24  N   UNL     1      -4.301   4.910   0.553  1.00  0.00    -0.352 N 
ATOM     25  C   UNL     1      -3.565   5.997   0.966  1.00  0.00     0.251 C 
ATOM     26  H   UNL     1      -5.197   4.841   0.954  1.00  0.00     0.163 HD
ATOM     27  O   UNL     1      -3.946   6.618   1.957  1.00  0.00    -0.269 OA
BRANCH  25  28
ATOM     28  C   UNL     1      -2.332   6.436   0.258  1.00  0.00     0.039 A 
ATOM     29  C   UNL     1      -1.292   7.000   1.009  1.00  0.00     0.014 A 
ATOM     30  C   UNL     1      -2.214   6.391  -1.133  1.00  0.00     0.014 A 
ATOM     31  C   UNL     1      -0.139   7.485   0.377  1.00  0.00     0.010 A 
ATOM     32  C   UNL     1      -1.030   6.800  -1.756  1.00  0.00     0.010 A 
ATOM     33  C   UNL     1       0.013   7.374  -1.013  1.00  0.00    -0.014 A 
BRANCH  33  34
ATOM     34  C   UNL     1       1.226   7.881  -1.718  1.00  0.00     0.031 A 
ATOM     35  C   UNL     1       1.099   8.975  -2.751  1.00  0.00     0.074 A 
ATOM     36  C   UNL     1       2.432   7.318  -1.492  1.00  0.00     0.049 A 
ATOM     37  N   UNL     1       2.010   9.471  -3.550  1.00  0.00    -0.248 NA
ATOM     38  C   UNL     1      -0.233   9.584  -2.917  1.00  0.00     0.031 C 
ATOM     39  C   UNL     1       2.700   6.240  -0.540  1.00  0.00     0.029 A 
ATOM     40  N   UNL     1       3.653   7.548  -2.081  1.00  0.00    -0.354 N 
ATOM     41  C   UNL     1       1.362  10.430  -4.323  1.00  0.00     0.074 A 
ATOM     42  C   UNL     1      -0.030  10.414  -3.931  1.00  0.00     0.031 C 
ATOM     43  C   UNL     1       3.991   5.879  -0.632  1.00  0.00     0.029 A 
ATOM     44  C   UNL     1       4.637   6.679  -1.665  1.00  0.00     0.049 A 
ATOM     45  H   UNL     1       3.808   8.265  -2.737  1.00  0.00     0.167 HD
ATOM     46  C   UNL     1       1.881  11.278  -5.244  1.00  0.00     0.034 A 
ATOM     47  C   UNL     1       5.911   6.530  -2.080  1.00  0.00     0.034 A 
ATOM     48  C   UNL     1       3.273  11.329  -5.601  1.00  0.00     0.049 A 
ATOM     49  C   UNL     1       6.458   7.466  -3.124  1.00  0.00     0.074 A 
ATOM     50  C   UNL     1       3.907  12.199  -6.471  1.00  0.00     0.029 A 
ATOM     51  N   UNL     1       4.249  10.478  -5.106  1.00  0.00    -0.354 N 
ATOM     52  N   UNL     1       5.856   8.450  -3.745  1.00  0.00    -0.248 NA
ATOM     53  C   UNL     1       7.874   7.303  -3.485  1.00  0.00     0.031 C 
ATOM     54  C   UNL     1       5.266  11.867  -6.510  1.00  0.00     0.029 A 
ATOM     55  C   UNL     1       5.480  10.802  -5.651  1.00  0.00     0.049 A 
ATOM     56  H   UNL     1       4.090   9.750  -4.463  1.00  0.00     0.167 HD
ATOM     57  C   UNL     1       6.832   9.059  -4.527  1.00  0.00     0.074 A 
ATOM     58  C   UNL     1       8.064   8.335  -4.297  1.00  0.00     0.031 C 
ATOM     59  C   UNL     1       6.714  10.120  -5.362  1.00  0.00     0.034 A 
BRANCH  46  60
ATOM     60  C   UNL     1       0.952  12.283  -5.876  1.00  0.00     0.023 A 
ATOM     61  C   UNL     1       0.486  13.367  -5.104  1.00  0.00     0.012 A 
ATOM     62  C   UNL     1       0.599  12.205  -7.238  1.00  0.00     0.148 A 
ATOM     63  C   UNL     1      -0.342  14.339  -5.664  1.00  0.00     0.002 A 
ATOM     64  C   UNL     1      -0.193  13.200  -7.801  1.00  0.00     0.091 A 
ATOM     65  F   UNL     1       1.038  11.160  -7.954  1.00  0.00    -0.205 F 
ATOM     66  C   UNL     1      -0.672  14.261  -7.014  1.00  0.00     0.022 A 
BRANCH  64  67
ATOM     67  S   UNL     1      -0.614  13.237  -9.548  1.00  0.00     0.127 S 
ATOM     68  O   UNL     1      -2.043  12.928  -9.512  1.00  0.00    -0.237 OA
ATOM     69  O   UNL     1      -0.299  14.618  -9.912  1.00  0.00    -0.237 OA
ATOM     70  O   UNL     1       0.226  12.233 -10.185  1.00  0.00    -0.744 OA
ENDBRANCH  64  67
ENDBRANCH  46  60
BRANCH  47  71
ATOM     71  C   UNL     1       6.788   5.498  -1.457  1.00  0.00     0.023 A 
ATOM     72  C   UNL     1       7.811   5.905  -0.579  1.00  0.00     0.012 A 
ATOM     73  C   UNL     1       6.619   4.127  -1.725  1.00  0.00     0.148 A 
ATOM     74  C   UNL     1       8.668   4.967  -0.002  1.00  0.00     0.002 A 
ATOM     75  C   UNL     1       7.440   3.192  -1.104  1.00  0.00     0.091 A 
ATOM     76  F   UNL     1       5.669   3.763  -2.597  1.00  0.00    -0.205 F 
ATOM     77  C   UNL     1       8.476   3.611  -0.255  1.00  0.00     0.022 A 
BRANCH  75  78
ATOM     78  S   UNL     1       7.196   1.421  -1.284  1.00  0.00     0.127 S 
ATOM     79  O   UNL     1       8.306   1.053  -2.158  1.00  0.00    -0.237 OA
ATOM     80  O   UNL     1       7.318   0.955   0.097  1.00  0.00    -0.237 OA
ATOM     81  O   UNL     1       5.862   1.268  -1.852  1.00  0.00    -0.744 OA
ENDBRANCH  75  78
ENDBRANCH  47  71
BRANCH  59  82
ATOM     82  C   UNL     1       7.960  10.612  -6.049  1.00  0.00     0.023 A 
ATOM     83  C   UNL     1       8.512   9.876  -7.115  1.00  0.00     0.012 A 
ATOM     84  C   UNL     1       8.536  11.846  -5.687  1.00  0.00     0.148 A 
ATOM     85  C   UNL     1       9.637  10.346  -7.792  1.00  0.00     0.002 A 
ATOM     86  C   UNL     1       9.628  12.331  -6.396  1.00  0.00     0.091 A 
ATOM     87  F   UNL     1       8.006  12.522  -4.657  1.00  0.00    -0.205 F 
ATOM     88  C   UNL     1      10.187  11.577  -7.441  1.00  0.00     0.022 A 
BRANCH  86  89
ATOM     89  S   UNL     1      10.343  13.948  -6.077  1.00  0.00     0.127 S 
ATOM     90  O   UNL     1      11.607  13.594  -5.433  1.00  0.00    -0.237 OA
ATOM     91  O   UNL     1      10.480  14.499  -7.426  1.00  0.00    -0.237 OA
ATOM     92  O   UNL     1       9.386  14.651  -5.233  1.00  0.00    -0.744 OA
ENDBRANCH  86  89
ENDBRANCH  59  82
ENDBRANCH  33  34
ENDBRANCH  25  28
ENDBRANCH  23  24
ENDBRANCH   1  23
TORSDOF 16
