REMARK SMILES Cc1cccc(-c2ccc(Cl)c(C(=O)NCCCNC(=O)c3ccc(-c4c5nc(c(-c6cccc(S(=O)(=O)[O-])c6F)c6ccc([nH]6)c(-c6cccc(S(=O)(=O)[O-])c6F)c6nc(c(-c7cccc(S(=O)(=O)[O-])c7F)c7ccc4[nH]7)C=C6)C=C5)cc3)c2)c1
REMARK SMILES IDX 18 1 17 2 16 3 15 4 13 5 14 6 12 8 7 9 8 10 85 11 9 12 10 13
REMARK SMILES IDX 11 14 6 15 1 16 2 17 3 18 86 19 4 20 5 21 19 22 20 23 21 25
REMARK SMILES IDX 22 26 23 27 84 28 24 29 83 30 25 31 26 32 27 33 77 34 28 35
REMARK SMILES IDX 82 36 76 37 78 38 29 39 81 40 75 41 74 42 30 44 62 45 42 46
REMARK SMILES IDX 61 47 43 48 46 49 60 50 79 51 44 52 45 53 59 55 80 56 47 57
REMARK SMILES IDX 31 58 32 59 40 60 33 61 35 62 41 63 34 64 36 65 37 66 38 67
REMARK SMILES IDX 39 68 63 69 64 70 72 71 65 72 67 73 73 74 66 75 68 76 69 77
REMARK SMILES IDX 70 78 71 79 48 80 49 81 57 82 50 83 52 84 58 85 51 86 53 87
REMARK SMILES IDX 54 88 55 89 56 90
REMARK H PARENT 15 7 19 24 78 43 46 54
REMARK Flexibility Score: inf
ROOT
ATOM      1  C   UNL     1      -6.901   7.295   0.430  1.00  0.00     0.118 C 
ENDROOT
BRANCH   1   2
ATOM      2  C   UNL     1      -5.702   6.547  -0.101  1.00  0.00     0.042 C 
BRANCH   2   3
ATOM      3  C   UNL     1      -4.476   6.733   0.763  1.00  0.00     0.118 C 
BRANCH   3   4
ATOM      4  N   UNL     1      -4.324   5.756   1.831  1.00  0.00    -0.352 N 
ATOM      5  C   UNL     1      -3.464   4.693   1.983  1.00  0.00     0.252 C 
ATOM      6  O   UNL     1      -3.494   4.048   3.030  1.00  0.00    -0.269 OA
ATOM      7  H   UNL     1      -4.950   5.879   2.581  1.00  0.00     0.163 HD
BRANCH   5   8
ATOM      8  C   UNL     1      -2.590   4.217   0.882  1.00  0.00     0.059 A 
ATOM      9  C   UNL     1      -1.675   2.284  -0.295  1.00  0.00    -0.017 A 
ATOM     10  C   UNL     1      -1.260   3.141  -1.324  1.00  0.00     0.010 A 
ATOM     11  C   UNL     1      -2.446   2.822   0.745  1.00  0.00     0.024 A 
ATOM     12  C   UNL     1      -1.311   4.517  -1.146  1.00  0.00     0.022 A 
ATOM     13  C   UNL     1      -1.842   5.036   0.034  1.00  0.00     0.053 A 
ATOM     14  Cl  UNL     1      -1.262   6.606   0.501  1.00  0.00    -0.083 Cl
BRANCH   9  15
ATOM     15  C   UNL     1      -1.061   0.953  -0.194  1.00  0.00    -0.018 A 
ATOM     16  C   UNL     1       2.545  -0.304   0.033  1.00  0.00     0.044 C 
ATOM     17  C   UNL     1       1.046  -0.305  -0.013  1.00  0.00    -0.051 A 
ATOM     18  C   UNL     1       0.315  -1.490   0.054  1.00  0.00     0.003 A 
ATOM     19  C   UNL     1       0.349   0.898  -0.135  1.00  0.00     0.012 A 
ATOM     20  C   UNL     1      -1.084  -1.459   0.017  1.00  0.00     0.001 A 
ATOM     21  C   UNL     1      -1.772  -0.244  -0.101  1.00  0.00     0.009 A 
ENDBRANCH   9  15
ENDBRANCH   5   8
ENDBRANCH   3   4
ENDBRANCH   2   3
ENDBRANCH   1   2
BRANCH   1  22
ATOM     22  N   UNL     1      -6.835   8.739   0.247  1.00  0.00    -0.352 N 
ATOM     23  C   UNL     1      -7.780   9.711   0.516  1.00  0.00     0.251 C 
ATOM     24  H   UNL     1      -5.987   9.073  -0.125  1.00  0.00     0.163 HD
ATOM     25  O   UNL     1      -7.534  10.864   0.153  1.00  0.00    -0.269 OA
BRANCH  23  26
ATOM     26  C   UNL     1      -8.980   9.409   1.339  1.00  0.00     0.039 A 
ATOM     27  C   UNL     1      -9.475  10.410   2.189  1.00  0.00     0.014 A 
ATOM     28  C   UNL     1      -9.473   8.116   1.458  1.00  0.00     0.014 A 
ATOM     29  C   UNL     1     -10.219  10.059   3.314  1.00  0.00     0.010 A 
ATOM     30  C   UNL     1     -10.099   7.747   2.616  1.00  0.00     0.010 A 
ATOM     31  C   UNL     1     -10.393   8.711   3.578  1.00  0.00    -0.014 A 
BRANCH  31  32
ATOM     32  C   UNL     1     -10.841   8.122   4.822  1.00  0.00     0.031 A 
ATOM     33  C   UNL     1     -12.246   7.685   4.933  1.00  0.00     0.074 A 
ATOM     34  C   UNL     1      -9.859   7.603   5.596  1.00  0.00     0.049 A 
ATOM     35  N   UNL     1     -12.769   7.160   5.984  1.00  0.00    -0.248 NA
ATOM     36  C   UNL     1     -13.179   7.795   3.817  1.00  0.00     0.031 C 
ATOM     37  C   UNL     1      -9.965   6.488   6.528  1.00  0.00     0.029 A 
ATOM     38  N   UNL     1      -8.530   8.009   5.756  1.00  0.00    -0.354 N 
ATOM     39  C   UNL     1     -13.957   6.570   5.598  1.00  0.00     0.074 A 
ATOM     40  C   UNL     1     -14.223   7.108   4.287  1.00  0.00     0.031 C 
ATOM     41  C   UNL     1      -8.904   6.517   7.353  1.00  0.00     0.029 A 
ATOM     42  C   UNL     1      -8.233   7.781   7.108  1.00  0.00     0.049 A 
ATOM     43  H   UNL     1      -7.931   8.377   5.067  1.00  0.00     0.167 HD
ATOM     44  C   UNL     1     -14.466   5.572   6.378  1.00  0.00     0.034 A 
ATOM     45  C   UNL     1      -8.130   8.791   8.032  1.00  0.00     0.034 A 
ATOM     46  C   UNL     1     -13.679   5.450   7.624  1.00  0.00     0.049 A 
ATOM     47  C   UNL     1      -9.169   8.694   9.150  1.00  0.00     0.074 A 
ATOM     48  C   UNL     1     -12.699   4.565   8.045  1.00  0.00     0.029 A 
ATOM     49  N   UNL     1     -13.633   6.525   8.510  1.00  0.00    -0.354 N 
ATOM     50  N   UNL     1     -10.166   7.849   9.148  1.00  0.00    -0.248 NA
ATOM     51  C   UNL     1      -9.182   9.533  10.348  1.00  0.00     0.031 C 
ATOM     52  C   UNL     1     -11.974   5.186   9.105  1.00  0.00     0.029 A 
ATOM     53  C   UNL     1     -12.537   6.426   9.357  1.00  0.00     0.049 A 
ATOM     54  H   UNL     1     -14.290   7.258   8.532  1.00  0.00     0.167 HD
ATOM     55  C   UNL     1     -11.007   8.096  10.197  1.00  0.00     0.074 A 
ATOM     56  C   UNL     1     -10.297   9.103  10.970  1.00  0.00     0.031 C 
ATOM     57  C   UNL     1     -12.239   7.504  10.303  1.00  0.00     0.034 A 
BRANCH  44  58
ATOM     58  C   UNL     1     -15.485   4.516   5.944  1.00  0.00     0.023 A 
ATOM     59  C   UNL     1     -15.656   3.398   6.794  1.00  0.00     0.012 A 
ATOM     60  C   UNL     1     -16.239   4.479   4.744  1.00  0.00     0.148 A 
ATOM     61  C   UNL     1     -16.453   2.296   6.452  1.00  0.00     0.002 A 
ATOM     62  C   UNL     1     -17.015   3.370   4.385  1.00  0.00     0.091 A 
ATOM     63  F   UNL     1     -16.266   5.532   3.933  1.00  0.00    -0.205 F 
ATOM     64  C   UNL     1     -17.118   2.271   5.236  1.00  0.00     0.022 A 
BRANCH  62  65
ATOM     65  S   UNL     1     -17.888   3.266   2.807  1.00  0.00     0.127 S 
ATOM     66  O   UNL     1     -17.382   2.006   2.259  1.00  0.00    -0.237 OA
ATOM     67  O   UNL     1     -19.287   3.228   3.227  1.00  0.00    -0.237 OA
ATOM     68  O   UNL     1     -17.504   4.446   2.042  1.00  0.00    -0.744 OA
ENDBRANCH  62  65
ENDBRANCH  44  58
BRANCH  45  69
ATOM     69  C   UNL     1      -7.575  10.055   7.451  1.00  0.00     0.023 A 
ATOM     70  C   UNL     1      -6.263   9.971   6.922  1.00  0.00     0.012 A 
ATOM     71  C   UNL     1      -8.408  11.107   7.027  1.00  0.00     0.148 A 
ATOM     72  C   UNL     1      -5.867  10.780   5.856  1.00  0.00     0.002 A 
ATOM     73  C   UNL     1      -7.993  11.930   5.978  1.00  0.00     0.091 A 
ATOM     74  F   UNL     1      -9.611  11.246   7.599  1.00  0.00    -0.205 F 
ATOM     75  C   UNL     1      -6.751  11.728   5.354  1.00  0.00     0.022 A 
BRANCH  73  76
ATOM     76  S   UNL     1      -9.062  13.208   5.294  1.00  0.00     0.127 S 
ATOM     77  O   UNL     1      -8.615  14.388   6.027  1.00  0.00    -0.237 OA
ATOM     78  O   UNL     1      -8.706  13.197   3.875  1.00  0.00    -0.237 OA
ATOM     79  O   UNL     1     -10.416  12.752   5.570  1.00  0.00    -0.744 OA
ENDBRANCH  73  76
ENDBRANCH  45  69
BRANCH  57  80
ATOM     80  C   UNL     1     -13.306   7.912  11.300  1.00  0.00     0.023 A 
ATOM     81  C   UNL     1     -13.374   9.212  11.838  1.00  0.00     0.012 A 
ATOM     82  C   UNL     1     -14.382   7.038  11.605  1.00  0.00     0.148 A 
ATOM     83  C   UNL     1     -14.412   9.607  12.688  1.00  0.00     0.002 A 
ATOM     84  C   UNL     1     -15.471   7.473  12.355  1.00  0.00     0.091 A 
ATOM     85  F   UNL     1     -14.348   5.765  11.182  1.00  0.00    -0.205 F 
ATOM     86  C   UNL     1     -15.474   8.746  12.928  1.00  0.00     0.022 A 
BRANCH  84  87
ATOM     87  S   UNL     1     -16.968   6.483  12.469  1.00  0.00     0.127 S 
ATOM     88  O   UNL     1     -16.746   5.733  13.702  1.00  0.00    -0.237 OA
ATOM     89  O   UNL     1     -18.016   7.503  12.557  1.00  0.00    -0.237 OA
ATOM     90  O   UNL     1     -17.001   5.705  11.237  1.00  0.00    -0.744 OA
ENDBRANCH  84  87
ENDBRANCH  57  80
ENDBRANCH  31  32
ENDBRANCH  23  26
ENDBRANCH   1  22
TORSDOF 14
