REMARK SMILES Cc1ccc(C(=O)NCCCNC(=O)c2ccc(-c3c4nc(c(-c5cccc(S(=O)(=O)[O-])c5F)c5ccc([nH]5)c(-c5cccc(S(=O)(=O)[O-])c5F)c5nc(c(-c6cccc(S(=O)(=O)[O-])c6F)c6ccc3[nH]6)C=C5)C=C4)cc2)c2c1N[C@H](c1ccccc1F)[C@H]1CC=C[C@@H]21
REMARK SMILES IDX 11 1 10 2 9 3 8 4 6 5 7 6 5 8 1 9 2 10 3 11 79 12 4 13 78 14
REMARK SMILES IDX 80 15 93 16 81 17 89 19 92 20 90 21 91 22 82 23 83 24 87 25
REMARK SMILES IDX 84 26 86 27 88 28 85 29 12 30 13 31 14 33 15 34 16 35 77 36
REMARK SMILES IDX 17 37 76 38 18 39 19 40 20 41 70 42 21 43 75 44 69 45 71 46
REMARK SMILES IDX 22 47 74 48 68 49 67 50 23 52 55 53 35 54 54 55 36 56 39 57
REMARK SMILES IDX 53 58 72 59 37 60 38 61 52 63 73 64 40 65 24 66 25 67 33 68
REMARK SMILES IDX 26 69 28 70 34 71 27 72 29 73 30 74 31 75 32 76 56 77 57 78
REMARK SMILES IDX 65 79 58 80 60 81 66 82 59 83 61 84 62 85 63 86 64 87 41 88
REMARK SMILES IDX 42 89 50 90 43 91 45 92 51 93 44 94 46 95 47 96 48 97 49 98
REMARK H PARENT 8 7 80 18 12 32 71 51 39 62
REMARK Flexibility Score: inf
ROOT
ATOM      1  C   UNL     1      -3.362   5.600  -4.745  1.00  0.00     0.118 C 
ENDROOT
BRANCH   1   2
ATOM      2  C   UNL     1      -2.508   4.383  -4.383  1.00  0.00     0.042 C 
BRANCH   2   3
ATOM      3  C   UNL     1      -1.067   4.756  -4.030  1.00  0.00     0.118 C 
BRANCH   3   4
ATOM      4  N   UNL     1      -1.036   5.500  -2.787  1.00  0.00    -0.352 N 
ATOM      5  C   UNL     1      -0.895   5.177  -1.464  1.00  0.00     0.251 C 
ATOM      6  O   UNL     1      -1.150   6.110  -0.703  1.00  0.00    -0.269 OA
ATOM      7  H   UNL     1      -1.141   6.469  -2.927  1.00  0.00     0.163 HD
BRANCH   5   8
ATOM      8  C   UNL     1      -0.432   3.837  -0.945  1.00  0.00     0.045 A 
ATOM      9  C   UNL     1       1.050  -0.032   0.342  1.00  0.00     0.046 C 
ATOM     10  C   UNL     1       0.494   1.315  -0.037  1.00  0.00    -0.028 A 
ATOM     11  C   UNL     1      -0.164   1.439  -1.262  1.00  0.00     0.006 A 
ATOM     12  C   UNL     1       0.619   2.442   0.804  1.00  0.00     0.042 A 
ATOM     13  C   UNL     1      -0.654   2.672  -1.684  1.00  0.00     0.014 A 
ATOM     14  C   UNL     1       0.192   3.713   0.336  1.00  0.00    -0.005 A 
ATOM     15  N   UNL     1       1.164   2.287   2.071  1.00  0.00    -0.377 N 
ATOM     16  C   UNL     1       0.337   4.904   1.259  1.00  0.00     0.050 C 
ATOM     17  C   UNL     1       1.627   3.411   2.866  1.00  0.00     0.117 C 
ATOM     18  H   UNL     1       1.239   1.379   2.445  1.00  0.00     0.161 HD
ATOM     19  C   UNL     1       0.657   4.591   2.731  1.00  0.00     0.031 C 
ATOM     20  C   UNL     1       1.431   5.880   0.909  1.00  0.00    -0.023 C 
ATOM     21  C   UNL     1       1.293   5.900   3.241  1.00  0.00     0.034 C 
ATOM     22  C   UNL     1       1.942   6.447   2.009  1.00  0.00    -0.030 C 
BRANCH  17  23
ATOM     23  C   UNL     1       1.915   2.929   4.288  1.00  0.00     0.010 A 
ATOM     24  C   UNL     1       3.016   2.074   4.496  1.00  0.00     0.009 A 
ATOM     25  C   UNL     1       1.172   3.298   5.419  1.00  0.00     0.128 A 
ATOM     26  C   UNL     1       3.362   1.632   5.778  1.00  0.00     0.001 A 
ATOM     27  C   UNL     1       1.515   2.864   6.699  1.00  0.00     0.039 A 
ATOM     28  F   UNL     1       0.112   4.111   5.328  1.00  0.00    -0.207 F 
ATOM     29  C   UNL     1       2.614   2.033   6.882  1.00  0.00     0.003 A 
ENDBRANCH  17  23
ENDBRANCH   5   8
ENDBRANCH   3   4
ENDBRANCH   2   3
ENDBRANCH   1   2
BRANCH   1  30
ATOM     30  N   UNL     1      -2.906   6.220  -5.982  1.00  0.00    -0.352 N 
ATOM     31  C   UNL     1      -3.498   6.205  -7.220  1.00  0.00     0.251 C 
ATOM     32  H   UNL     1      -2.058   6.717  -5.922  1.00  0.00     0.163 HD
ATOM     33  O   UNL     1      -2.850   6.502  -8.218  1.00  0.00    -0.269 OA
BRANCH  31  34
ATOM     34  C   UNL     1      -4.923   5.840  -7.335  1.00  0.00     0.039 A 
ATOM     35  C   UNL     1      -5.320   4.927  -8.314  1.00  0.00     0.014 A 
ATOM     36  C   UNL     1      -5.864   6.433  -6.488  1.00  0.00     0.014 A 
ATOM     37  C   UNL     1      -6.667   4.579  -8.420  1.00  0.00     0.010 A 
ATOM     38  C   UNL     1      -7.196   6.044  -6.558  1.00  0.00     0.010 A 
ATOM     39  C   UNL     1      -7.610   5.129  -7.537  1.00  0.00    -0.014 A 
BRANCH  39  40
ATOM     40  C   UNL     1      -9.047   4.791  -7.644  1.00  0.00     0.031 A 
ATOM     41  C   UNL     1     -10.025   5.838  -8.097  1.00  0.00     0.074 A 
ATOM     42  C   UNL     1      -9.477   3.571  -7.271  1.00  0.00     0.049 A 
ATOM     43  N   UNL     1     -11.320   5.745  -8.232  1.00  0.00    -0.248 NA
ATOM     44  C   UNL     1      -9.480   7.167  -8.424  1.00  0.00     0.031 C 
ATOM     45  C   UNL     1      -8.625   2.496  -6.760  1.00  0.00     0.029 A 
ATOM     46  N   UNL     1     -10.741   3.039  -7.245  1.00  0.00    -0.354 N 
ATOM     47  C   UNL     1     -11.749   7.006  -8.624  1.00  0.00     0.074 A 
ATOM     48  C   UNL     1     -10.582   7.855  -8.688  1.00  0.00     0.031 C 
ATOM     49  C   UNL     1      -9.390   1.429  -6.479  1.00  0.00     0.029 A 
ATOM     50  C   UNL     1     -10.785   1.750  -6.771  1.00  0.00     0.049 A 
ATOM     51  H   UNL     1     -11.540   3.534  -7.539  1.00  0.00     0.167 HD
ATOM     52  C   UNL     1     -13.003   7.412  -8.927  1.00  0.00     0.034 A 
ATOM     53  C   UNL     1     -11.832   0.920  -6.594  1.00  0.00     0.034 A 
ATOM     54  C   UNL     1     -14.152   6.552  -8.911  1.00  0.00     0.049 A 
ATOM     55  C   UNL     1     -13.211   1.384  -6.968  1.00  0.00     0.074 A 
ATOM     56  C   UNL     1     -15.445   6.846  -9.301  1.00  0.00     0.029 A 
ATOM     57  N   UNL     1     -14.150   5.239  -8.471  1.00  0.00    -0.354 N 
ATOM     58  N   UNL     1     -13.578   2.537  -7.473  1.00  0.00    -0.248 NA
ATOM     59  C   UNL     1     -14.314   0.432  -6.777  1.00  0.00     0.031 C 
ATOM     60  C   UNL     1     -16.233   5.715  -9.075  1.00  0.00     0.029 A 
ATOM     61  C   UNL     1     -15.424   4.711  -8.565  1.00  0.00     0.049 A 
ATOM     62  H   UNL     1     -13.359   4.753  -8.142  1.00  0.00     0.167 HD
ATOM     63  C   UNL     1     -14.949   2.443  -7.682  1.00  0.00     0.074 A 
ATOM     64  C   UNL     1     -15.347   1.116  -7.257  1.00  0.00     0.031 C 
ATOM     65  C   UNL     1     -15.798   3.376  -8.175  1.00  0.00     0.034 A 
BRANCH  52  66
ATOM     66  C   UNL     1     -13.197   8.838  -9.357  1.00  0.00     0.023 A 
ATOM     67  C   UNL     1     -12.832   9.224 -10.661  1.00  0.00     0.012 A 
ATOM     68  C   UNL     1     -13.825   9.766  -8.504  1.00  0.00     0.148 A 
ATOM     69  C   UNL     1     -13.077  10.520 -11.109  1.00  0.00     0.002 A 
ATOM     70  C   UNL     1     -14.096  11.046  -8.969  1.00  0.00     0.091 A 
ATOM     71  F   UNL     1     -14.146   9.376  -7.263  1.00  0.00    -0.205 F 
ATOM     72  C   UNL     1     -13.719  11.427 -10.268  1.00  0.00     0.022 A 
BRANCH  70  73
ATOM     73  S   UNL     1     -14.966  12.273  -7.987  1.00  0.00     0.127 S 
ATOM     74  O   UNL     1     -13.934  13.296  -7.813  1.00  0.00    -0.237 OA
ATOM     75  O   UNL     1     -16.060  12.656  -8.878  1.00  0.00    -0.237 OA
ATOM     76  O   UNL     1     -15.377  11.597  -6.765  1.00  0.00    -0.744 OA
ENDBRANCH  70  73
ENDBRANCH  52  66
BRANCH  53  77
ATOM     77  C   UNL     1     -11.580  -0.466  -6.118  1.00  0.00     0.023 A 
ATOM     78  C   UNL     1     -11.588  -1.519  -7.051  1.00  0.00     0.012 A 
ATOM     79  C   UNL     1     -11.237  -0.730  -4.778  1.00  0.00     0.148 A 
ATOM     80  C   UNL     1     -11.260  -2.817  -6.659  1.00  0.00     0.002 A 
ATOM     81  C   UNL     1     -10.877  -2.019  -4.401  1.00  0.00     0.091 A 
ATOM     82  F   UNL     1     -11.230   0.293  -3.913  1.00  0.00    -0.205 F 
ATOM     83  C   UNL     1     -10.895  -3.065  -5.338  1.00  0.00     0.022 A 
BRANCH  81  84
ATOM     84  S   UNL     1     -10.299  -2.425  -2.750  1.00  0.00     0.127 S 
ATOM     85  O   UNL     1     -11.271  -3.432  -2.330  1.00  0.00    -0.237 OA
ATOM     86  O   UNL     1      -8.958  -2.940  -3.025  1.00  0.00    -0.237 OA
ATOM     87  O   UNL     1     -10.332  -1.178  -1.998  1.00  0.00    -0.744 OA
ENDBRANCH  81  84
ENDBRANCH  53  77
BRANCH  65  88
ATOM     88  C   UNL     1     -17.253   3.021  -8.303  1.00  0.00     0.023 A 
ATOM     89  C   UNL     1     -18.076   3.061  -7.161  1.00  0.00     0.012 A 
ATOM     90  C   UNL     1     -17.828   2.807  -9.571  1.00  0.00     0.148 A 
ATOM     91  C   UNL     1     -19.454   2.890  -7.280  1.00  0.00     0.002 A 
ATOM     92  C   UNL     1     -19.206   2.673  -9.686  1.00  0.00     0.091 A 
ATOM     93  F   UNL     1     -17.019   2.771 -10.639  1.00  0.00    -0.205 F 
ATOM     94  C   UNL     1     -20.019   2.710  -8.541  1.00  0.00     0.022 A 
BRANCH  92  95
ATOM     95  S   UNL     1     -20.035   2.518 -11.272  1.00  0.00     0.127 S 
ATOM     96  O   UNL     1     -20.586   1.166 -11.188  1.00  0.00    -0.237 OA
ATOM     97  O   UNL     1     -21.031   3.588 -11.204  1.00  0.00    -0.237 OA
ATOM     98  O   UNL     1     -19.008   2.705 -12.287  1.00  0.00    -0.744 OA
ENDBRANCH  92  95
ENDBRANCH  65  88
ENDBRANCH  39  40
ENDBRANCH  31  34
ENDBRANCH   1  30
TORSDOF 14
