REMARK SMILES O=C(NCCCNC(=O)[C@H](c1ccccc1)C(c1ccccc1)c1ccccc1)c1ccc(-c2c3nc(c(-c4cccc(S(=O)(=O)[O-])c4F)c4ccc([nH]4)c(-c4cccc(S(=O)(=O)[O-])c4F)c4nc(c(-c5cccc(S(=O)(=O)[O-])c5F)c5ccc2[nH]5)C=C4)C=C3)cc1
REMARK SMILES IDX 4 1 3 2 1 3 2 4 30 6 31 7 92 8 32 9 91 10 33 11 34 12 35 13
REMARK SMILES IDX 85 14 36 15 90 16 84 17 86 18 37 19 89 20 83 21 82 22 38 24
REMARK SMILES IDX 70 25 50 26 69 27 51 28 54 29 68 30 87 31 52 32 53 33 67 35
REMARK SMILES IDX 88 36 55 37 39 38 40 39 48 40 41 41 43 42 49 43 42 44 44 45
REMARK SMILES IDX 45 46 46 47 47 48 71 49 72 50 80 51 73 52 75 53 81 54 74 55
REMARK SMILES IDX 76 56 77 57 78 58 79 59 56 60 57 61 65 62 58 63 60 64 66 65
REMARK SMILES IDX 59 66 61 67 62 68 63 69 64 70 5 71 6 72 7 73 8 74 9 76 10 77
REMARK SMILES IDX 17 78 18 79 19 80 23 81 20 82 22 83 21 84 24 85 25 86 29 87
REMARK SMILES IDX 26 88 28 89 27 90 11 91 12 92 16 93 13 94 15 95 14 96
REMARK H PARENT 3 5 86 23 54 34 7 75
REMARK Flexibility Score: inf
ROOT
ATOM      1  C   UNL     1       4.719  -2.903   2.630  1.00  0.00     0.118 C 
ENDROOT
BRANCH   1   2
ATOM      2  N   UNL     1       4.820  -1.452   2.553  1.00  0.00    -0.352 N 
ATOM      3  O   UNL     1       4.135   0.682   2.723  1.00  0.00    -0.269 OA
ATOM      4  C   UNL     1       4.022  -0.474   3.107  1.00  0.00     0.251 C 
ATOM      5  H   UNL     1       5.577  -1.117   2.021  1.00  0.00     0.163 HD
BRANCH   4   6
ATOM      6  C   UNL     1       3.013  -0.827   4.134  1.00  0.00     0.039 A 
ATOM      7  C   UNL     1       3.299  -1.771   5.119  1.00  0.00     0.014 A 
ATOM      8  C   UNL     1       1.765  -0.197   4.123  1.00  0.00     0.014 A 
ATOM      9  C   UNL     1       2.286  -2.241   5.945  1.00  0.00     0.010 A 
ATOM     10  C   UNL     1       0.784  -0.579   5.046  1.00  0.00     0.010 A 
ATOM     11  C   UNL     1       1.018  -1.641   5.933  1.00  0.00    -0.014 A 
BRANCH  11  12
ATOM     12  C   UNL     1      -0.013  -2.115   6.895  1.00  0.00     0.031 A 
ATOM     13  C   UNL     1      -1.328  -2.677   6.424  1.00  0.00     0.074 A 
ATOM     14  C   UNL     1       0.259  -2.057   8.215  1.00  0.00     0.049 A 
ATOM     15  N   UNL     1      -2.309  -3.176   7.132  1.00  0.00    -0.248 NA
ATOM     16  C   UNL     1      -1.586  -2.670   4.975  1.00  0.00     0.031 C 
ATOM     17  C   UNL     1       1.482  -1.498   8.799  1.00  0.00     0.029 A 
ATOM     18  N   UNL     1      -0.460  -2.480   9.304  1.00  0.00    -0.354 N 
ATOM     19  C   UNL     1      -3.318  -3.489   6.228  1.00  0.00     0.074 A 
ATOM     20  C   UNL     1      -2.831  -3.122   4.916  1.00  0.00     0.031 C 
ATOM     21  C   UNL     1       1.452  -1.659  10.129  1.00  0.00     0.029 A 
ATOM     22  C   UNL     1       0.182  -2.268  10.502  1.00  0.00     0.049 A 
ATOM     23  H   UNL     1      -1.350  -2.896   9.235  1.00  0.00     0.167 HD
ATOM     24  C   UNL     1      -4.532  -4.041   6.467  1.00  0.00     0.034 A 
ATOM     25  C   UNL     1      -0.208  -2.523  11.765  1.00  0.00     0.034 A 
ATOM     26  C   UNL     1      -4.993  -4.445   7.770  1.00  0.00     0.049 A 
ATOM     27  C   UNL     1      -1.545  -3.165  11.994  1.00  0.00     0.074 A 
ATOM     28  C   UNL     1      -6.176  -5.080   8.106  1.00  0.00     0.029 A 
ATOM     29  N   UNL     1      -4.298  -4.246   8.954  1.00  0.00    -0.354 N 
ATOM     30  N   UNL     1      -2.429  -3.564  11.113  1.00  0.00    -0.248 NA
ATOM     31  C   UNL     1      -1.925  -3.418  13.390  1.00  0.00     0.031 C 
ATOM     32  C   UNL     1      -6.210  -5.238   9.496  1.00  0.00     0.029 A 
ATOM     33  C   UNL     1      -5.031  -4.735  10.023  1.00  0.00     0.049 A 
ATOM     34  H   UNL     1      -3.413  -3.820   9.025  1.00  0.00     0.167 HD
ATOM     35  C   UNL     1      -3.454  -4.151  11.845  1.00  0.00     0.074 A 
ATOM     36  C   UNL     1      -3.069  -4.071  13.240  1.00  0.00     0.031 C 
ATOM     37  C   UNL     1      -4.613  -4.697  11.401  1.00  0.00     0.034 A 
BRANCH  24  38
ATOM     38  C   UNL     1      -5.451  -4.260   5.290  1.00  0.00     0.023 A 
ATOM     39  C   UNL     1      -5.165  -5.271   4.350  1.00  0.00     0.012 A 
ATOM     40  C   UNL     1      -6.630  -3.501   5.147  1.00  0.00     0.148 A 
ATOM     41  C   UNL     1      -6.015  -5.497   3.267  1.00  0.00     0.002 A 
ATOM     42  C   UNL     1      -7.496  -3.763   4.091  1.00  0.00     0.091 A 
ATOM     43  F   UNL     1      -6.879  -2.530   6.038  1.00  0.00    -0.205 F 
ATOM     44  C   UNL     1      -7.184  -4.751   3.143  1.00  0.00     0.022 A 
BRANCH  42  45
ATOM     45  S   UNL     1      -9.066  -2.910   3.895  1.00  0.00     0.127 S 
ATOM     46  O   UNL     1      -8.780  -2.024   2.767  1.00  0.00    -0.237 OA
ATOM     47  O   UNL     1      -9.979  -4.011   3.588  1.00  0.00    -0.237 OA
ATOM     48  O   UNL     1      -9.322  -2.248   5.165  1.00  0.00    -0.744 OA
ENDBRANCH  42  45
ENDBRANCH  24  38
BRANCH  25  49
ATOM     49  C   UNL     1       0.709  -2.219  12.899  1.00  0.00     0.023 A 
ATOM     50  C   UNL     1       1.285  -3.278  13.625  1.00  0.00     0.012 A 
ATOM     51  C   UNL     1       1.047  -0.893  13.232  1.00  0.00     0.148 A 
ATOM     52  C   UNL     1       2.161  -3.022  14.681  1.00  0.00     0.002 A 
ATOM     53  C   UNL     1       1.965  -0.646  14.244  1.00  0.00     0.091 A 
ATOM     54  F   UNL     1       0.479   0.101  12.534  1.00  0.00    -0.205 F 
ATOM     55  C   UNL     1       2.510  -1.708  14.982  1.00  0.00     0.022 A 
BRANCH  53  56
ATOM     56  S   UNL     1       2.578   1.002  14.607  1.00  0.00     0.127 S 
ATOM     57  O   UNL     1       1.973   1.264  15.911  1.00  0.00    -0.237 OA
ATOM     58  O   UNL     1       4.025   0.787  14.630  1.00  0.00    -0.237 OA
ATOM     59  O   UNL     1       2.113   1.845  13.514  1.00  0.00    -0.744 OA
ENDBRANCH  53  56
ENDBRANCH  25  49
BRANCH  37  60
ATOM     60  C   UNL     1      -5.530  -5.303  12.430  1.00  0.00     0.023 A 
ATOM     61  C   UNL     1      -6.247  -4.474  13.316  1.00  0.00     0.012 A 
ATOM     62  C   UNL     1      -5.722  -6.698  12.480  1.00  0.00     0.148 A 
ATOM     63  C   UNL     1      -7.109  -5.028  14.262  1.00  0.00     0.002 A 
ATOM     64  C   UNL     1      -6.622  -7.238  13.389  1.00  0.00     0.091 A 
ATOM     65  F   UNL     1      -5.013  -7.472  11.645  1.00  0.00    -0.205 F 
ATOM     66  C   UNL     1      -7.306  -6.407  14.291  1.00  0.00     0.022 A 
BRANCH  64  67
ATOM     67  S   UNL     1      -7.010  -8.992  13.424  1.00  0.00     0.127 S 
ATOM     68  O   UNL     1      -6.288  -9.433  14.616  1.00  0.00    -0.237 OA
ATOM     69  O   UNL     1      -8.467  -8.986  13.561  1.00  0.00    -0.237 OA
ATOM     70  O   UNL     1      -6.527  -9.532  12.161  1.00  0.00    -0.744 OA
ENDBRANCH  64  67
ENDBRANCH  37  60
ENDBRANCH  11  12
ENDBRANCH   4   6
ENDBRANCH   1   2
BRANCH   1  71
ATOM     71  C   UNL     1       4.116  -3.499   1.372  1.00  0.00     0.042 C 
BRANCH  71  72
ATOM     72  C   UNL     1       5.078  -3.542   0.198  1.00  0.00     0.117 C 
BRANCH  72  73
ATOM     73  N   UNL     1       6.223  -4.415   0.403  1.00  0.00    -0.355 N 
ATOM     74  C   UNL     1       6.721  -5.430  -0.365  1.00  0.00     0.228 C 
ATOM     75  H   UNL     1       6.722  -4.247   1.234  1.00  0.00     0.163 HD
ATOM     76  O   UNL     1       7.856  -5.834  -0.086  1.00  0.00    -0.274 OA
BRANCH  74  77
ATOM     77  C   UNL     1       5.936  -6.060  -1.535  1.00  0.00     0.120 C 
BRANCH  77  78
ATOM     78  C   UNL     1       4.714  -6.882  -0.982  1.00  0.00     0.066 C 
BRANCH  78  79
ATOM     79  C   UNL     1       3.890  -7.583  -2.084  1.00  0.00    -0.039 A 
ATOM     80  C   UNL     1       2.611  -7.090  -2.406  1.00  0.00     0.004 A 
ATOM     81  C   UNL     1       4.359  -8.675  -2.831  1.00  0.00     0.004 A 
ATOM     82  C   UNL     1       1.874  -7.611  -3.473  1.00  0.00     0.000 A 
ATOM     83  C   UNL     1       3.585  -9.252  -3.844  1.00  0.00     0.000 A 
ATOM     84  C   UNL     1       2.355  -8.702  -4.184  1.00  0.00     0.000 A 
ENDBRANCH  78  79
BRANCH  78  85
ATOM     85  C   UNL     1       5.068  -7.825   0.199  1.00  0.00    -0.039 A 
ATOM     86  C   UNL     1       5.822  -9.002   0.064  1.00  0.00     0.004 A 
ATOM     87  C   UNL     1       4.630  -7.501   1.496  1.00  0.00     0.004 A 
ATOM     88  C   UNL     1       6.029  -9.867   1.147  1.00  0.00     0.000 A 
ATOM     89  C   UNL     1       4.883  -8.334   2.591  1.00  0.00     0.000 A 
ATOM     90  C   UNL     1       5.557  -9.535   2.411  1.00  0.00     0.000 A 
ENDBRANCH  78  85
ENDBRANCH  77  78
BRANCH  77  91
ATOM     91  C   UNL     1       5.745  -5.011  -2.652  1.00  0.00    -0.035 A 
ATOM     92  C   UNL     1       4.513  -4.433  -2.994  1.00  0.00     0.004 A 
ATOM     93  C   UNL     1       6.884  -4.524  -3.319  1.00  0.00     0.004 A 
ATOM     94  C   UNL     1       4.413  -3.408  -3.939  1.00  0.00     0.000 A 
ATOM     95  C   UNL     1       6.788  -3.500  -4.270  1.00  0.00     0.000 A 
ATOM     96  C   UNL     1       5.553  -2.939  -4.578  1.00  0.00     0.000 A 
ENDBRANCH  77  91
ENDBRANCH  74  77
ENDBRANCH  72  73
ENDBRANCH  71  72
ENDBRANCH   1  71
TORSDOF 17
