REMARK SMILES O=C(C[NH+]1CCC2(CC1)CC(=O)N2)NCCCNC(=O)c1ccc(-c2c3nc(c(-c4cccc(S(=O)(=O)[O-])c4F)c4ccc([nH]4)c(-c4cccc(S(=O)(=O)[O-])c4F)c4nc(c(-c5cccc(S(=O)(=O)[O-])c5F)c5ccc2[nH]5)C=C4)C=C3)cc1
REMARK SMILES IDX 17 1 16 2 15 3 14 4 1 5 2 6 3 8 4 9 5 10 9 11 6 13 8 14 7 15
REMARK SMILES IDX 10 16 13 17 11 18 12 20 18 21 19 22 20 24 21 25 22 26 83 27
REMARK SMILES IDX 23 28 82 29 24 30 25 31 26 32 76 33 27 34 81 35 75 36 77 37
REMARK SMILES IDX 28 38 80 39 74 40 73 41 29 43 61 44 41 45 60 46 42 47 45 48
REMARK SMILES IDX 59 49 78 50 43 51 44 52 58 54 79 55 46 56 30 57 31 58 39 59
REMARK SMILES IDX 32 60 34 61 40 62 33 63 35 64 36 65 37 66 38 67 62 68 63 69
REMARK SMILES IDX 71 70 64 71 66 72 72 73 65 74 67 75 68 76 69 77 70 78 47 79
REMARK SMILES IDX 48 80 56 81 49 82 51 83 57 84 50 85 52 86 53 87 54 88 55 89
REMARK H PARENT 14 7 4 12 13 19 18 23 77 42 45 53
REMARK Flexibility Score: inf
ROOT
ATOM      1  C   UNL     1       3.963  -1.887  -3.522  1.00  0.00     0.118 C 
ENDROOT
BRANCH   1   2
ATOM      2  C   UNL     1       2.468  -1.595  -3.433  1.00  0.00     0.042 C 
BRANCH   2   3
ATOM      3  C   UNL     1       1.918  -1.333  -2.039  1.00  0.00     0.118 C 
BRANCH   3   4
ATOM      4  N   UNL     1       2.603  -0.277  -1.317  1.00  0.00    -0.351 N 
ATOM      5  O   UNL     1       0.960  -0.002   0.255  1.00  0.00    -0.269 OA
ATOM      6  C   UNL     1       2.111   0.203  -0.121  1.00  0.00     0.275 C 
ATOM      7  H   UNL     1       3.433   0.103  -1.686  1.00  0.00     0.163 HD
BRANCH   6   8
ATOM      8  C   UNL     1       3.137   0.953   0.733  1.00  0.00     0.363 C 
BRANCH   8   9
ATOM      9  N   UNL     1       3.907   0.111   1.672  1.00  0.00    -0.327 N 
ATOM     10  C   UNL     1       3.137  -0.579   2.700  1.00  0.00     0.265 C 
ATOM     11  C   UNL     1       4.956  -0.734   1.120  1.00  0.00     0.265 C 
ATOM     12  H   UNL     1       4.413   0.857   2.148  1.00  0.00     0.348 HD
ATOM     13  C   UNL     1       2.509  -1.895   2.258  1.00  0.00     0.090 C 
ATOM     14  C   UNL     1       4.503  -2.088   0.583  1.00  0.00     0.090 C 
ATOM     15  C   UNL     1       3.465  -2.779   1.460  1.00  0.00     0.059 C 
ATOM     16  C   UNL     1       2.718  -3.941   0.726  1.00  0.00     0.128 C 
ATOM     17  N   UNL     1       4.060  -3.820   2.299  1.00  0.00    -0.350 N 
ATOM     18  C   UNL     1       3.296  -4.833   1.828  1.00  0.00     0.222 C 
ATOM     19  H   UNL     1       4.774  -3.792   2.977  1.00  0.00     0.164 HD
ATOM     20  O   UNL     1       3.162  -5.970   2.221  1.00  0.00    -0.275 OA
ENDBRANCH   8   9
ENDBRANCH   6   8
ENDBRANCH   3   4
ENDBRANCH   2   3
ENDBRANCH   1   2
BRANCH   1  21
ATOM     21  N   UNL     1       4.357  -3.229  -3.110  1.00  0.00    -0.352 N 
ATOM     22  C   UNL     1       5.084  -4.174  -3.806  1.00  0.00     0.251 C 
ATOM     23  H   UNL     1       4.064  -3.499  -2.210  1.00  0.00     0.163 HD
ATOM     24  O   UNL     1       5.291  -5.278  -3.313  1.00  0.00    -0.269 OA
BRANCH  22  25
ATOM     25  C   UNL     1       5.568  -3.866  -5.171  1.00  0.00     0.039 A 
ATOM     26  C   UNL     1       5.268  -4.751  -6.210  1.00  0.00     0.014 A 
ATOM     27  C   UNL     1       6.239  -2.672  -5.438  1.00  0.00     0.014 A 
ATOM     28  C   UNL     1       5.537  -4.381  -7.532  1.00  0.00     0.010 A 
ATOM     29  C   UNL     1       6.419  -2.267  -6.757  1.00  0.00     0.010 A 
ATOM     30  C   UNL     1       6.056  -3.109  -7.821  1.00  0.00    -0.014 A 
BRANCH  30  31
ATOM     31  C   UNL     1       6.192  -2.613  -9.218  1.00  0.00     0.031 A 
ATOM     32  C   UNL     1       7.538  -2.194  -9.743  1.00  0.00     0.074 A 
ATOM     33  C   UNL     1       5.090  -2.425  -9.974  1.00  0.00     0.049 A 
ATOM     34  N   UNL     1       7.839  -1.618 -10.877  1.00  0.00    -0.248 NA
ATOM     35  C   UNL     1       8.696  -2.425  -8.863  1.00  0.00     0.031 C 
ATOM     36  C   UNL     1       3.717  -2.727  -9.563  1.00  0.00     0.029 A 
ATOM     37  N   UNL     1       4.946  -1.899 -11.236  1.00  0.00    -0.354 N 
ATOM     38  C   UNL     1       9.207  -1.380 -10.832  1.00  0.00     0.074 A 
ATOM     39  C   UNL     1       9.674  -1.845  -9.543  1.00  0.00     0.031 C 
ATOM     40  C   UNL     1       2.874  -2.383 -10.550  1.00  0.00     0.029 A 
ATOM     41  C   UNL     1       3.635  -1.792 -11.645  1.00  0.00     0.049 A 
ATOM     42  H   UNL     1       5.708  -1.625 -11.796  1.00  0.00     0.167 HD
ATOM     43  C   UNL     1      10.009  -0.845 -11.782  1.00  0.00     0.034 A 
ATOM     44  C   UNL     1       3.102  -1.256 -12.761  1.00  0.00     0.034 A 
ATOM     45  C   UNL     1       9.550  -0.413 -13.074  1.00  0.00     0.049 A 
ATOM     46  C   UNL     1       4.015  -0.673 -13.806  1.00  0.00     0.074 A 
ATOM     47  C   UNL     1      10.298   0.065 -14.135  1.00  0.00     0.029 A 
ATOM     48  N   UNL     1       8.224  -0.391 -13.478  1.00  0.00    -0.354 N 
ATOM     49  N   UNL     1       5.323  -0.584 -13.800  1.00  0.00    -0.248 NA
ATOM     50  C   UNL     1       3.385  -0.143 -15.025  1.00  0.00     0.031 C 
ATOM     51  C   UNL     1       9.421   0.417 -15.164  1.00  0.00     0.029 A 
ATOM     52  C   UNL     1       8.131   0.109 -14.765  1.00  0.00     0.049 A 
ATOM     53  H   UNL     1       7.462  -0.687 -12.930  1.00  0.00     0.167 HD
ATOM     54  C   UNL     1       5.673  -0.034 -15.028  1.00  0.00     0.074 A 
ATOM     55  C   UNL     1       4.442   0.184 -15.757  1.00  0.00     0.031 C 
ATOM     56  C   UNL     1       6.905   0.268 -15.504  1.00  0.00     0.034 A 
BRANCH  43  57
ATOM     57  C   UNL     1      11.479  -0.722 -11.474  1.00  0.00     0.023 A 
ATOM     58  C   UNL     1      12.276  -1.881 -11.381  1.00  0.00     0.012 A 
ATOM     59  C   UNL     1      12.083   0.543 -11.338  1.00  0.00     0.148 A 
ATOM     60  C   UNL     1      13.642  -1.786 -11.118  1.00  0.00     0.002 A 
ATOM     61  C   UNL     1      13.453   0.633 -11.126  1.00  0.00     0.091 A 
ATOM     62  F   UNL     1      11.306   1.634 -11.411  1.00  0.00    -0.205 F 
ATOM     63  C   UNL     1      14.231  -0.530 -11.002  1.00  0.00     0.022 A 
BRANCH  61  64
ATOM     64  S   UNL     1      14.321   2.203 -11.045  1.00  0.00     0.127 S 
ATOM     65  O   UNL     1      14.718   2.247  -9.639  1.00  0.00    -0.237 OA
ATOM     66  O   UNL     1      15.423   1.992 -11.984  1.00  0.00    -0.237 OA
ATOM     67  O   UNL     1      13.359   3.217 -11.452  1.00  0.00    -0.744 OA
ENDBRANCH  61  64
ENDBRANCH  43  57
BRANCH  44  68
ATOM     68  C   UNL     1       1.625  -1.276 -12.970  1.00  0.00     0.023 A 
ATOM     69  C   UNL     1       1.076  -2.092 -13.979  1.00  0.00     0.012 A 
ATOM     70  C   UNL     1       0.762  -0.502 -12.169  1.00  0.00     0.148 A 
ATOM     71  C   UNL     1      -0.300  -2.109 -14.211  1.00  0.00     0.002 A 
ATOM     72  C   UNL     1      -0.612  -0.568 -12.368  1.00  0.00     0.091 A 
ATOM     73  F   UNL     1       1.304   0.274 -11.220  1.00  0.00    -0.205 F 
ATOM     74  C   UNL     1      -1.144  -1.355 -13.401  1.00  0.00     0.022 A 
BRANCH  72  75
ATOM     75  S   UNL     1      -1.783   0.268 -11.293  1.00  0.00     0.127 S 
ATOM     76  O   UNL     1      -2.348   1.273 -12.190  1.00  0.00    -0.237 OA
ATOM     77  O   UNL     1      -2.691  -0.822 -10.935  1.00  0.00    -0.237 OA
ATOM     78  O   UNL     1      -0.998   0.787 -10.181  1.00  0.00    -0.744 OA
ENDBRANCH  72  75
ENDBRANCH  44  68
BRANCH  56  79
ATOM     79  C   UNL     1       7.012   0.806 -16.907  1.00  0.00     0.023 A 
ATOM     80  C   UNL     1       6.606   2.123 -17.197  1.00  0.00     0.012 A 
ATOM     81  C   UNL     1       7.619   0.030 -17.916  1.00  0.00     0.148 A 
ATOM     82  C   UNL     1       6.781   2.651 -18.476  1.00  0.00     0.002 A 
ATOM     83  C   UNL     1       7.840   0.581 -19.171  1.00  0.00     0.091 A 
ATOM     84  F   UNL     1       7.983  -1.226 -17.621  1.00  0.00    -0.205 F 
ATOM     85  C   UNL     1       7.411   1.887 -19.457  1.00  0.00     0.022 A 
BRANCH  83  86
ATOM     86  S   UNL     1       8.734  -0.288 -20.463  1.00  0.00     0.127 S 
ATOM     87  O   UNL     1       7.686  -0.500 -21.460  1.00  0.00    -0.237 OA
ATOM     88  O   UNL     1       9.751   0.692 -20.846  1.00  0.00    -0.237 OA
ATOM     89  O   UNL     1       9.259  -1.500 -19.849  1.00  0.00    -0.744 OA
ENDBRANCH  83  86
ENDBRANCH  56  79
ENDBRANCH  30  31
ENDBRANCH  22  25
ENDBRANCH   1  21
TORSDOF 14
