REMARK SMILES CCn1cccc1C(=O)N(C)c1snc(C)c1C(=O)NCCCNC(=O)c1ccc(-c2c3nc(c(-c4cccc(S(=O)(=O)[O-])c4F)c4ccc([nH]4)c(-c4cccc(S(=O)(=O)[O-])c4F)c4nc(c(-c5cccc(S(=O)(=O)[O-])c5F)c5ccc2[nH]5)C=C4)C=C3)cc1
REMARK SMILES IDX 21 1 20 2 18 3 19 4 17 6 12 7 13 8 14 9 15 10 16 11 10 12
REMARK SMILES IDX 11 13 8 14 9 15 7 16 3 17 4 18 5 19 6 20 2 21 1 22 22 23
REMARK SMILES IDX 23 24 24 25 25 26 26 28 27 29 28 30 89 31 29 32 88 33 30 34
REMARK SMILES IDX 31 35 32 36 82 37 33 38 87 39 81 40 83 41 34 42 86 43 80 44
REMARK SMILES IDX 79 45 35 47 67 48 47 49 66 50 48 51 51 52 65 53 84 54 49 55
REMARK SMILES IDX 50 56 64 58 85 59 52 60 36 61 37 62 45 63 38 64 40 65 46 66
REMARK SMILES IDX 39 67 41 68 42 69 43 70 44 71 68 72 69 73 77 74 70 75 72 76
REMARK SMILES IDX 78 77 71 78 73 79 74 80 75 81 76 82 53 83 54 84 62 85 55 86
REMARK SMILES IDX 57 87 63 88 56 89 58 90 59 91 60 92 61 93
REMARK H PARENT 20 5 24 27 83 46 51 57
REMARK Flexibility Score: inf
ROOT
ATOM      1  C   UNL     1      -0.825  -3.293   1.060  1.00  0.00     0.118 C 
ENDROOT
BRANCH   1   2
ATOM      2  N   UNL     1      -1.971  -3.749   1.786  1.00  0.00    -0.352 N 
ATOM      3  C   UNL     1      -3.257  -3.911   1.325  1.00  0.00     0.256 C 
ATOM      4  O   UNL     1      -3.848  -4.901   1.766  1.00  0.00    -0.269 OA
ATOM      5  H   UNL     1      -1.821  -3.974   2.733  1.00  0.00     0.163 HD
BRANCH   3   6
ATOM      6  C   UNL     1      -3.990  -2.937   0.493  1.00  0.00     0.097 A 
ATOM      7  C   UNL     1      -3.631  -2.072  -0.542  1.00  0.00     0.131 A 
ATOM      8  S   UNL     1      -5.022  -1.279  -1.155  1.00  0.00    -0.017 S 
ATOM      9  N   UNL     1      -6.074  -1.867  -0.046  1.00  0.00    -0.195 NA
ATOM     10  C   UNL     1      -5.421  -2.696   0.771  1.00  0.00     0.066 A 
ATOM     11  C   UNL     1      -6.220  -3.236   1.919  1.00  0.00     0.069 C 
BRANCH   7  12
ATOM     12  N   UNL     1      -2.432  -1.619  -1.118  1.00  0.00    -0.300 N 
ATOM     13  C   UNL     1      -1.991  -0.291  -0.737  1.00  0.00     0.154 C 
BRANCH  12  14
ATOM     14  C   UNL     1      -1.779  -2.496  -2.010  1.00  0.00     0.275 C 
ATOM     15  O   UNL     1      -2.446  -3.406  -2.519  1.00  0.00    -0.267 OA
BRANCH  14  16
ATOM     16  C   UNL     1      -0.304  -2.505  -2.234  1.00  0.00     0.107 A 
ATOM     17  N   UNL     1       0.753  -1.592  -2.216  1.00  0.00    -0.344 N 
ATOM     18  C   UNL     1       1.951  -2.256  -2.428  1.00  0.00     0.086 A 
ATOM     19  C   UNL     1       1.702  -3.578  -2.655  1.00  0.00     0.020 A 
ATOM     20  C   UNL     1       0.314  -3.732  -2.539  1.00  0.00     0.033 A 
BRANCH  17  21
ATOM     21  C   UNL     1       0.796  -0.139  -2.200  1.00  0.00     0.119 C 
ATOM     22  C   UNL     1       1.452   0.457  -0.954  1.00  0.00     0.027 C 
ENDBRANCH  17  21
ENDBRANCH  14  16
ENDBRANCH  12  14
ENDBRANCH   7  12
ENDBRANCH   3   6
ENDBRANCH   1   2
BRANCH   1  23
ATOM     23  C   UNL     1       0.164  -2.425   1.819  1.00  0.00     0.042 C 
BRANCH  23  24
ATOM     24  C   UNL     1       1.473  -3.153   2.064  1.00  0.00     0.118 C 
BRANCH  24  25
ATOM     25  N   UNL     1       2.099  -3.586   0.811  1.00  0.00    -0.352 N 
ATOM     26  C   UNL     1       3.236  -4.347   0.626  1.00  0.00     0.251 C 
ATOM     27  H   UNL     1       1.647  -3.293  -0.013  1.00  0.00     0.163 HD
ATOM     28  O   UNL     1       3.775  -4.452  -0.455  1.00  0.00    -0.269 OA
BRANCH  26  29
ATOM     29  C   UNL     1       3.821  -4.996   1.804  1.00  0.00     0.039 A 
ATOM     30  C   UNL     1       5.176  -4.780   2.072  1.00  0.00     0.014 A 
ATOM     31  C   UNL     1       3.001  -5.721   2.668  1.00  0.00     0.014 A 
ATOM     32  C   UNL     1       5.684  -5.192   3.291  1.00  0.00     0.010 A 
ATOM     33  C   UNL     1       3.481  -6.057   3.913  1.00  0.00     0.010 A 
ATOM     34  C   UNL     1       4.815  -5.777   4.222  1.00  0.00    -0.014 A 
BRANCH  34  35
ATOM     35  C   UNL     1       5.270  -5.985   5.604  1.00  0.00     0.031 A 
ATOM     36  C   UNL     1       5.377  -4.647   6.362  1.00  0.00     0.074 A 
ATOM     37  C   UNL     1       5.478  -7.291   5.948  1.00  0.00     0.049 A 
ATOM     38  N   UNL     1       6.264  -4.243   7.222  1.00  0.00    -0.248 NA
ATOM     39  C   UNL     1       4.453  -3.535   6.002  1.00  0.00     0.031 C 
ATOM     40  C   UNL     1       5.273  -8.441   5.034  1.00  0.00     0.029 A 
ATOM     41  N   UNL     1       5.872  -7.935   7.099  1.00  0.00    -0.354 N 
ATOM     42  C   UNL     1       5.847  -2.966   7.686  1.00  0.00     0.074 A 
ATOM     43  C   UNL     1       4.857  -2.512   6.761  1.00  0.00     0.031 C 
ATOM     44  C   UNL     1       5.592  -9.604   5.635  1.00  0.00     0.029 A 
ATOM     45  C   UNL     1       6.025  -9.339   6.991  1.00  0.00     0.049 A 
ATOM     46  H   UNL     1       6.037  -7.452   7.941  1.00  0.00     0.167 HD
ATOM     47  C   UNL     1       6.184  -2.482   8.924  1.00  0.00     0.034 A 
ATOM     48  C   UNL     1       6.513 -10.228   7.909  1.00  0.00     0.034 A 
ATOM     49  C   UNL     1       6.896  -3.508   9.619  1.00  0.00     0.049 A 
ATOM     50  C   UNL     1       6.725  -9.456   9.140  1.00  0.00     0.074 A 
ATOM     51  C   UNL     1       8.145  -4.052   9.487  1.00  0.00     0.029 A 
ATOM     52  N   UNL     1       6.095  -4.354  10.353  1.00  0.00    -0.354 N 
ATOM     53  N   UNL     1       5.772  -9.020   9.911  1.00  0.00    -0.248 NA
ATOM     54  C   UNL     1       8.081  -8.989   9.455  1.00  0.00     0.031 C 
ATOM     55  C   UNL     1       7.925  -5.419   9.755  1.00  0.00     0.029 A 
ATOM     56  C   UNL     1       6.632  -5.606  10.264  1.00  0.00     0.049 A 
ATOM     57  H   UNL     1       5.284  -4.101  10.851  1.00  0.00     0.167 HD
ATOM     58  C   UNL     1       6.375  -7.952  10.527  1.00  0.00     0.074 A 
ATOM     59  C   UNL     1       7.800  -8.198  10.486  1.00  0.00     0.031 C 
ATOM     60  C   UNL     1       5.767  -6.736  10.505  1.00  0.00     0.034 A 
BRANCH  47  61
ATOM     61  C   UNL     1       5.707  -1.335   9.802  1.00  0.00     0.023 A 
ATOM     62  C   UNL     1       6.476  -1.131  10.989  1.00  0.00     0.012 A 
ATOM     63  C   UNL     1       4.473  -0.672   9.730  1.00  0.00     0.148 A 
ATOM     64  C   UNL     1       5.981  -0.462  12.107  1.00  0.00     0.002 A 
ATOM     65  C   UNL     1       4.004   0.052  10.835  1.00  0.00     0.091 A 
ATOM     66  F   UNL     1       3.717  -0.792   8.636  1.00  0.00    -0.205 F 
ATOM     67  C   UNL     1       4.730   0.114  12.035  1.00  0.00     0.022 A 
BRANCH  65  68
ATOM     68  S   UNL     1       2.449   0.954  10.819  1.00  0.00     0.127 S 
ATOM     69  O   UNL     1       1.588   0.093  11.624  1.00  0.00    -0.237 OA
ATOM     70  O   UNL     1       2.823   2.214  11.469  1.00  0.00    -0.237 OA
ATOM     71  O   UNL     1       2.094   1.099   9.414  1.00  0.00    -0.744 OA
ENDBRANCH  65  68
ENDBRANCH  47  61
BRANCH  48  72
ATOM     72  C   UNL     1       6.999 -11.656   7.870  1.00  0.00     0.023 A 
ATOM     73  C   UNL     1       6.655 -12.586   6.879  1.00  0.00     0.012 A 
ATOM     74  C   UNL     1       7.944 -12.105   8.837  1.00  0.00     0.148 A 
ATOM     75  C   UNL     1       7.304 -13.834   6.788  1.00  0.00     0.002 A 
ATOM     76  C   UNL     1       8.673 -13.275   8.676  1.00  0.00     0.091 A 
ATOM     77  F   UNL     1       8.122 -11.410   9.965  1.00  0.00    -0.205 F 
ATOM     78  C   UNL     1       8.349 -14.157   7.652  1.00  0.00     0.022 A 
BRANCH  76  79
ATOM     79  S   UNL     1      10.147 -13.607   9.661  1.00  0.00     0.127 S 
ATOM     80  O   UNL     1       9.850 -14.919  10.232  1.00  0.00    -0.237 OA
ATOM     81  O   UNL     1      11.189 -13.603   8.634  1.00  0.00    -0.237 OA
ATOM     82  O   UNL     1      10.250 -12.520  10.625  1.00  0.00    -0.744 OA
ENDBRANCH  76  79
ENDBRANCH  48  72
BRANCH  60  83
ATOM     83  C   UNL     1       4.240  -6.775  10.408  1.00  0.00     0.023 A 
ATOM     84  C   UNL     1       3.556  -7.484  11.417  1.00  0.00     0.012 A 
ATOM     85  C   UNL     1       3.458  -6.256   9.348  1.00  0.00     0.148 A 
ATOM     86  C   UNL     1       2.174  -7.690  11.370  1.00  0.00     0.002 A 
ATOM     87  C   UNL     1       2.075  -6.473   9.289  1.00  0.00     0.091 A 
ATOM     88  F   UNL     1       4.065  -5.554   8.394  1.00  0.00    -0.205 F 
ATOM     89  C   UNL     1       1.434  -7.189  10.307  1.00  0.00     0.022 A 
BRANCH  87  90
ATOM     90  S   UNL     1       1.022  -5.939   7.919  1.00  0.00     0.127 S 
ATOM     91  O   UNL     1       0.364  -7.186   7.522  1.00  0.00    -0.237 OA
ATOM     92  O   UNL     1       0.136  -4.975   8.564  1.00  0.00    -0.237 OA
ATOM     93  O   UNL     1       1.907  -5.389   6.898  1.00  0.00    -0.744 OA
ENDBRANCH  87  90
ENDBRANCH  60  83
ENDBRANCH  34  35
ENDBRANCH  26  29
ENDBRANCH  24  25
ENDBRANCH  23  24
ENDBRANCH   1  23
TORSDOF 17
