REMARK SMILES COc1cc([C@@H]2CC(=O)Nc3c(C(=O)NCCCNC(=O)c4ccc(-c5c6nc(c(-c7cccc(S(=O)(=O)[O-])c7F)c7ccc([nH]7)c(-c7cccc(S(=O)(=O)[O-])c7F)c7nc(c(-c8cccc(S(=O)(=O)[O-])c8F)c8ccc5[nH]8)C=C7)C=C6)cc4)cn(-c4ccccc4)c32)ccc1O
REMARK SMILES IDX 17 1 16 2 15 3 13 4 14 5 12 7 6 8 7 9 93 10 8 11 11 12 86 13
REMARK SMILES IDX 9 14 10 15 85 16 5 18 3 19 4 20 96 21 95 22 94 23 2 24 1 25
REMARK SMILES IDX 97 26 87 28 88 29 92 30 89 31 91 32 90 33 18 34 19 35 20 36
REMARK SMILES IDX 21 38 22 39 23 40 84 41 24 42 83 43 25 44 26 45 27 46 77 47
REMARK SMILES IDX 28 48 82 49 76 50 78 51 29 52 81 53 75 54 74 55 30 57 62 58
REMARK SMILES IDX 42 59 61 60 43 61 46 62 60 63 79 64 44 65 45 66 59 68 80 69
REMARK SMILES IDX 47 70 31 71 32 72 40 73 33 74 35 75 41 76 34 77 36 78 37 79
REMARK SMILES IDX 38 80 39 81 63 82 64 83 72 84 65 85 67 86 73 87 66 88 68 89
REMARK SMILES IDX 69 90 70 91 71 92 48 93 49 94 57 95 50 96 52 97 58 98 51 99
REMARK SMILES IDX 53 100 54 101 55 102 56 103
REMARK H PARENT 15 6 10 17 97 27 19 37 78 56 46 67
REMARK Flexibility Score: inf
ROOT
ATOM      1  C   UNL     1      -1.814  -6.698   8.207  1.00  0.00     0.042 C 
ENDROOT
BRANCH   1   2
ATOM      2  C   UNL     1      -2.604  -7.091   6.945  1.00  0.00     0.118 C 
BRANCH   2   3
ATOM      3  N   UNL     1      -3.934  -6.536   6.937  1.00  0.00    -0.352 N 
ATOM      4  C   UNL     1      -4.444  -5.337   6.522  1.00  0.00     0.254 C 
ATOM      5  O   UNL     1      -5.675  -5.267   6.510  1.00  0.00    -0.269 OA
ATOM      6  H   UNL     1      -4.615  -7.144   7.307  1.00  0.00     0.163 HD
BRANCH   4   7
ATOM      7  C   UNL     1      -3.643  -4.190   6.073  1.00  0.00     0.081 A 
ATOM      8  C   UNL     1      -0.880  -1.845   5.192  1.00  0.00     0.078 C 
ATOM      9  C   UNL     1       0.120  -2.259   6.279  1.00  0.00     0.115 C 
ATOM     10  C   UNL     1      -2.172  -2.572   5.420  1.00  0.00     0.055 A 
ATOM     11  C   UNL     1       0.122  -3.755   6.476  1.00  0.00     0.225 C 
ATOM     12  C   UNL     1      -2.270  -3.802   6.029  1.00  0.00     0.076 A 
ATOM     13  N   UNL     1      -3.433  -2.140   5.100  1.00  0.00    -0.317 N 
ATOM     14  O   UNL     1       1.139  -4.384   6.766  1.00  0.00    -0.275 OA
ATOM     15  N   UNL     1      -1.088  -4.391   6.405  1.00  0.00    -0.324 N 
ATOM     16  C   UNL     1      -4.318  -3.069   5.574  1.00  0.00     0.107 A 
ATOM     17  H   UNL     1      -1.113  -5.346   6.643  1.00  0.00     0.170 HD
BRANCH   8  18
ATOM     18  C   UNL     1      -0.297  -2.094   3.805  1.00  0.00    -0.034 A 
ATOM     19  C   UNL     1       0.660  -1.151   1.765  1.00  0.00     0.160 A 
ATOM     20  C   UNL     1       0.182  -0.999   3.070  1.00  0.00     0.054 A 
ATOM     21  C   UNL     1       0.707  -2.432   1.211  1.00  0.00     0.157 A 
ATOM     22  C   UNL     1       0.243  -3.533   1.923  1.00  0.00     0.050 A 
ATOM     23  C   UNL     1      -0.251  -3.367   3.215  1.00  0.00     0.008 A 
BRANCH  19  24
ATOM     24  O   UNL     1       1.062   0.022   1.190  1.00  0.00    -0.493 OA
ATOM     25  C   UNL     1       0.972   0.125  -0.224  1.00  0.00     0.278 C 
ENDBRANCH  19  24
BRANCH  21  26
ATOM     26  O   UNL     1       1.254  -2.704  -0.009  1.00  0.00    -0.504 OA
ATOM     27  H   UNL     1       1.587  -2.006  -0.540  1.00  0.00     0.293 HD
ENDBRANCH  21  26
ENDBRANCH   8  18
BRANCH  13  28
ATOM     28  C   UNL     1      -3.772  -0.957   4.417  1.00  0.00     0.045 A 
ATOM     29  C   UNL     1      -3.198  -0.700   3.169  1.00  0.00     0.026 A 
ATOM     30  C   UNL     1      -4.629  -0.034   5.013  1.00  0.00     0.026 A 
ATOM     31  C   UNL     1      -3.405   0.528   2.550  1.00  0.00     0.002 A 
ATOM     32  C   UNL     1      -4.829   1.198   4.390  1.00  0.00     0.002 A 
ATOM     33  C   UNL     1      -4.205   1.484   3.171  1.00  0.00     0.000 A 
ENDBRANCH  13  28
ENDBRANCH   4   7
ENDBRANCH   2   3
ENDBRANCH   1   2
BRANCH   1  34
ATOM     34  C   UNL     1      -1.769  -7.812   9.220  1.00  0.00     0.118 C 
BRANCH  34  35
ATOM     35  N   UNL     1      -0.897  -8.908   8.747  1.00  0.00    -0.352 N 
ATOM     36  C   UNL     1      -0.673 -10.155   9.312  1.00  0.00     0.251 C 
ATOM     37  H   UNL     1      -0.405  -8.727   7.913  1.00  0.00     0.163 HD
ATOM     38  O   UNL     1       0.302 -10.821   9.018  1.00  0.00    -0.269 OA
BRANCH  36  39
ATOM     39  C   UNL     1      -1.675 -10.643  10.270  1.00  0.00     0.039 A 
ATOM     40  C   UNL     1      -1.357 -11.318  11.450  1.00  0.00     0.014 A 
ATOM     41  C   UNL     1      -2.976 -10.271   9.988  1.00  0.00     0.014 A 
ATOM     42  C   UNL     1      -2.390 -11.563  12.351  1.00  0.00     0.010 A 
ATOM     43  C   UNL     1      -3.830 -10.132  11.027  1.00  0.00     0.010 A 
ATOM     44  C   UNL     1      -3.629 -10.956  12.113  1.00  0.00    -0.014 A 
BRANCH  44  45
ATOM     45  C   UNL     1      -4.788 -11.088  12.968  1.00  0.00     0.031 A 
ATOM     46  C   UNL     1      -4.602 -10.487  14.306  1.00  0.00     0.074 A 
ATOM     47  C   UNL     1      -5.993 -11.428  12.450  1.00  0.00     0.049 A 
ATOM     48  N   UNL     1      -4.421 -11.108  15.422  1.00  0.00    -0.248 NA
ATOM     49  C   UNL     1      -4.365  -9.036  14.386  1.00  0.00     0.031 C 
ATOM     50  C   UNL     1      -6.368 -11.640  11.039  1.00  0.00     0.029 A 
ATOM     51  N   UNL     1      -7.192 -11.495  13.073  1.00  0.00    -0.354 N 
ATOM     52  C   UNL     1      -4.326 -10.107  16.385  1.00  0.00     0.074 A 
ATOM     53  C   UNL     1      -4.008  -8.906  15.665  1.00  0.00     0.031 C 
ATOM     54  C   UNL     1      -7.711 -11.546  10.907  1.00  0.00     0.029 A 
ATOM     55  C   UNL     1      -8.297 -11.440  12.228  1.00  0.00     0.049 A 
ATOM     56  H   UNL     1      -7.277 -11.575  14.050  1.00  0.00     0.167 HD
ATOM     57  C   UNL     1      -4.819 -10.299  17.642  1.00  0.00     0.034 A 
ATOM     58  C   UNL     1      -9.587 -11.253  12.606  1.00  0.00     0.034 A 
ATOM     59  C   UNL     1      -5.158 -11.692  17.839  1.00  0.00     0.049 A 
ATOM     60  C   UNL     1      -9.655 -11.568  14.055  1.00  0.00     0.074 A 
ATOM     61  C   UNL     1      -4.464 -12.885  17.785  1.00  0.00     0.029 A 
ATOM     62  N   UNL     1      -6.488 -12.023  17.711  1.00  0.00    -0.354 N 
ATOM     63  N   UNL     1      -9.427 -12.758  14.539  1.00  0.00    -0.248 NA
ATOM     64  C   UNL     1      -9.472 -10.466  14.987  1.00  0.00     0.031 C 
ATOM     65  C   UNL     1      -5.357 -13.797  17.145  1.00  0.00     0.029 A 
ATOM     66  C   UNL     1      -6.572 -13.142  16.927  1.00  0.00     0.049 A 
ATOM     67  H   UNL     1      -7.246 -11.540  18.112  1.00  0.00     0.167 HD
ATOM     68  C   UNL     1      -8.636 -12.530  15.659  1.00  0.00     0.074 A 
ATOM     69  C   UNL     1      -8.777 -11.098  15.938  1.00  0.00     0.031 C 
ATOM     70  C   UNL     1      -7.696 -13.438  16.062  1.00  0.00     0.034 A 
BRANCH  57  71
ATOM     71  C   UNL     1      -5.393  -9.229  18.555  1.00  0.00     0.023 A 
ATOM     72  C   UNL     1      -5.843  -9.670  19.823  1.00  0.00     0.012 A 
ATOM     73  C   UNL     1      -5.762  -7.918  18.178  1.00  0.00     0.148 A 
ATOM     74  C   UNL     1      -6.700  -8.900  20.615  1.00  0.00     0.002 A 
ATOM     75  C   UNL     1      -6.567  -7.130  18.996  1.00  0.00     0.091 A 
ATOM     76  F   UNL     1      -5.436  -7.437  16.980  1.00  0.00    -0.205 F 
ATOM     77  C   UNL     1      -7.069  -7.630  20.197  1.00  0.00     0.022 A 
BRANCH  75  78
ATOM     78  S   UNL     1      -7.051  -5.461  18.526  1.00  0.00     0.127 S 
ATOM     79  O   UNL     1      -8.469  -5.644  18.228  1.00  0.00    -0.237 OA
ATOM     80  O   UNL     1      -6.766  -4.713  19.750  1.00  0.00    -0.237 OA
ATOM     81  O   UNL     1      -6.204  -5.103  17.396  1.00  0.00    -0.744 OA
ENDBRANCH  75  78
ENDBRANCH  57  71
BRANCH  58  82
ATOM     82  C   UNL     1     -10.676 -10.529  11.903  1.00  0.00     0.023 A 
ATOM     83  C   UNL     1     -12.023 -10.764  12.250  1.00  0.00     0.012 A 
ATOM     84  C   UNL     1     -10.388  -9.408  11.093  1.00  0.00     0.148 A 
ATOM     85  C   UNL     1     -13.042  -9.899  11.825  1.00  0.00     0.002 A 
ATOM     86  C   UNL     1     -11.404  -8.555  10.668  1.00  0.00     0.091 A 
ATOM     87  F   UNL     1      -9.108  -9.125  10.819  1.00  0.00    -0.205 F 
ATOM     88  C   UNL     1     -12.732  -8.791  11.040  1.00  0.00     0.022 A 
BRANCH  86  89
ATOM     89  S   UNL     1     -11.071  -7.091   9.678  1.00  0.00     0.127 S 
ATOM     90  O   UNL     1     -12.051  -7.227   8.600  1.00  0.00    -0.237 OA
ATOM     91  O   UNL     1     -11.349  -6.017  10.628  1.00  0.00    -0.237 OA
ATOM     92  O   UNL     1      -9.684  -7.215   9.250  1.00  0.00    -0.744 OA
ENDBRANCH  86  89
ENDBRANCH  58  82
BRANCH  70  93
ATOM     93  C   UNL     1      -7.673 -14.790  15.389  1.00  0.00     0.023 A 
ATOM     94  C   UNL     1      -7.359 -14.960  14.023  1.00  0.00     0.012 A 
ATOM     95  C   UNL     1      -7.774 -15.930  16.202  1.00  0.00     0.148 A 
ATOM     96  C   UNL     1      -7.164 -16.235  13.480  1.00  0.00     0.002 A 
ATOM     97  C   UNL     1      -7.534 -17.191  15.672  1.00  0.00     0.091 A 
ATOM     98  F   UNL     1      -8.066 -15.754  17.500  1.00  0.00    -0.205 F 
ATOM     99  C   UNL     1      -7.237 -17.350  14.309  1.00  0.00     0.022 A 
BRANCH  97 100
ATOM    100  S   UNL     1      -7.485 -18.648  16.717  1.00  0.00     0.127 S 
ATOM    101  O   UNL     1      -8.743 -19.308  16.376  1.00  0.00    -0.237 OA
ATOM    102  O   UNL     1      -6.283 -19.335  16.241  1.00  0.00    -0.237 OA
ATOM    103  O   UNL     1      -7.385 -18.156  18.086  1.00  0.00    -0.744 OA
ENDBRANCH  97 100
ENDBRANCH  70  93
ENDBRANCH  44  45
ENDBRANCH  36  39
ENDBRANCH  34  35
ENDBRANCH   1  34
TORSDOF 17
