REMARK SMILES C[C@@](O)(CNC(=O)c1ccc(Br)cc1N)CC(=O)NCCCNC(=O)c1ccc(-c2c3nc(c(-c4cccc(S(=O)(=O)[O-])c4F)c4ccc([nH]4)c(-c4cccc(S(=O)(=O)[O-])c4F)c4nc(c(-c5cccc(S(=O)(=O)[O-])c5F)c5ccc2[nH]5)C=C4)C=C3)cc1
REMARK SMILES IDX 20 1 19 2 17 3 18 4 16 6 2 7 1 8 3 9 4 11 5 12 6 13 7 15
REMARK SMILES IDX 8 16 9 17 14 18 10 19 13 20 11 21 12 22 15 23 21 26 22 27
REMARK SMILES IDX 23 28 24 29 25 31 26 32 27 33 88 34 28 35 87 36 29 37 30 38
REMARK SMILES IDX 31 39 81 40 32 41 86 42 80 43 82 44 33 45 85 46 79 47 78 48
REMARK SMILES IDX 34 50 66 51 46 52 65 53 47 54 50 55 64 56 83 57 48 58 49 59
REMARK SMILES IDX 63 61 84 62 51 63 35 64 36 65 44 66 37 67 39 68 45 69 38 70
REMARK SMILES IDX 40 71 41 72 42 73 43 74 67 75 68 76 76 77 69 78 71 79 77 80
REMARK SMILES IDX 70 81 72 82 73 83 74 84 75 85 52 86 53 87 61 88 54 89 56 90
REMARK SMILES IDX 62 91 55 92 57 93 58 94 59 95 60 96
REMARK H PARENT 19 5 3 10 5 14 15 24 15 25 23 30 82 49 50 60
REMARK Flexibility Score: inf
ROOT
ATOM      1  C   UNL     1      -1.894   2.518   0.169  1.00  0.00     0.117 C 
ENDROOT
BRANCH   1   2
ATOM      2  N   UNL     1      -1.060   2.898   1.317  1.00  0.00    -0.356 N 
ATOM      3  C   UNL     1       0.187   2.659   1.797  1.00  0.00     0.222 C 
ATOM      4  O   UNL     1       0.572   3.351   2.748  1.00  0.00    -0.275 OA
ATOM      5  H   UNL     1      -1.551   3.505   1.916  1.00  0.00     0.163 HD
BRANCH   3   6
ATOM      6  C   UNL     1       1.142   1.671   1.212  1.00  0.00     0.136 C 
BRANCH   6   7
ATOM      7  C   UNL     1       0.525   0.380   0.748  1.00  0.00     0.088 C 
ATOM      8  C   UNL     1       1.593  -0.722   0.622  1.00  0.00     0.044 C 
BRANCH   7   9
ATOM      9  O   UNL     1       0.116   0.559  -0.635  1.00  0.00    -0.388 OA
ATOM     10  H   UNL     1      -0.287  -0.260  -0.962  1.00  0.00     0.211 HD
ENDBRANCH   7   9
BRANCH   7  11
ATOM     11  C   UNL     1      -0.726  -0.096   1.553  1.00  0.00     0.151 C 
BRANCH  11  12
ATOM     12  N   UNL     1      -1.126   0.297   2.956  1.00  0.00    -0.349 N 
ATOM     13  C   UNL     1      -1.933   1.102   3.772  1.00  0.00     0.253 C 
ATOM     14  H   UNL     1      -0.581  -0.253   3.563  1.00  0.00     0.163 HD
ATOM     15  O   UNL     1      -2.269   0.487   4.803  1.00  0.00    -0.269 OA
BRANCH  13  16
ATOM     16  C   UNL     1      -2.404   2.570   3.776  1.00  0.00     0.062 A 
ATOM     17  C   UNL     1      -3.288   3.207   2.874  1.00  0.00     0.017 A 
ATOM     18  C   UNL     1      -2.134   3.338   4.931  1.00  0.00     0.045 A 
ATOM     19  C   UNL     1      -3.668   4.557   2.936  1.00  0.00     0.016 A 
ATOM     20  C   UNL     1      -2.437   4.723   4.965  1.00  0.00     0.042 A 
ATOM     21  C   UNL     1      -3.183   5.330   3.961  1.00  0.00     0.020 A 
ATOM     22  Br  UNL     1      -3.559   7.178   3.998  1.00  0.00    -0.051 Br
BRANCH  18  23
ATOM     23  N   UNL     1      -1.470   2.798   6.042  1.00  0.00    -0.398 N 
ATOM     24  H   UNL     1      -1.239   1.841   6.061  1.00  0.00     0.156 HD
ATOM     25  H   UNL     1      -1.234   3.376   6.803  1.00  0.00     0.156 HD
ENDBRANCH  18  23
ENDBRANCH  13  16
ENDBRANCH  11  12
ENDBRANCH   7  11
ENDBRANCH   6   7
ENDBRANCH   3   6
ENDBRANCH   1   2
BRANCH   1  26
ATOM     26  C   UNL     1      -3.188   1.546   0.099  1.00  0.00     0.042 C 
BRANCH  26  27
ATOM     27  C   UNL     1      -3.899   0.419   0.986  1.00  0.00     0.118 C 
BRANCH  27  28
ATOM     28  N   UNL     1      -4.644   0.745   2.210  1.00  0.00    -0.352 N 
ATOM     29  C   UNL     1      -5.861   0.325   2.700  1.00  0.00     0.251 C 
ATOM     30  H   UNL     1      -4.184   1.391   2.794  1.00  0.00     0.163 HD
ATOM     31  O   UNL     1      -6.360   0.823   3.681  1.00  0.00    -0.269 OA
BRANCH  29  32
ATOM     32  C   UNL     1      -6.487  -0.816   2.039  1.00  0.00     0.039 A 
ATOM     33  C   UNL     1      -5.768  -2.011   1.987  1.00  0.00     0.014 A 
ATOM     34  C   UNL     1      -7.721  -0.652   1.417  1.00  0.00     0.014 A 
ATOM     35  C   UNL     1      -6.201  -3.005   1.135  1.00  0.00     0.010 A 
ATOM     36  C   UNL     1      -8.177  -1.672   0.595  1.00  0.00     0.010 A 
ATOM     37  C   UNL     1      -7.375  -2.807   0.394  1.00  0.00    -0.014 A 
BRANCH  37  38
ATOM     38  C   UNL     1      -7.679  -3.728  -0.711  1.00  0.00     0.031 A 
ATOM     39  C   UNL     1      -7.506  -3.250  -2.122  1.00  0.00     0.074 A 
ATOM     40  C   UNL     1      -8.047  -4.987  -0.432  1.00  0.00     0.049 A 
ATOM     41  N   UNL     1      -7.783  -3.867  -3.238  1.00  0.00    -0.248 NA
ATOM     42  C   UNL     1      -6.949  -1.897  -2.305  1.00  0.00     0.031 C 
ATOM     43  C   UNL     1      -8.197  -5.541   0.914  1.00  0.00     0.029 A 
ATOM     44  N   UNL     1      -8.362  -6.022  -1.266  1.00  0.00    -0.354 N 
ATOM     45  C   UNL     1      -7.474  -2.968  -4.250  1.00  0.00     0.074 A 
ATOM     46  C   UNL     1      -6.993  -1.759  -3.622  1.00  0.00     0.031 C 
ATOM     47  C   UNL     1      -8.574  -6.823   0.814  1.00  0.00     0.029 A 
ATOM     48  C   UNL     1      -8.738  -7.157  -0.597  1.00  0.00     0.049 A 
ATOM     49  H   UNL     1      -8.322  -5.958  -2.248  1.00  0.00     0.167 HD
ATOM     50  C   UNL     1      -7.565  -3.150  -5.587  1.00  0.00     0.034 A 
ATOM     51  C   UNL     1      -9.194  -8.328  -1.076  1.00  0.00     0.034 A 
ATOM     52  C   UNL     1      -8.012  -4.374  -6.190  1.00  0.00     0.049 A 
ATOM     53  C   UNL     1      -9.320  -8.498  -2.559  1.00  0.00     0.074 A 
ATOM     54  C   UNL     1      -8.146  -4.675  -7.532  1.00  0.00     0.029 A 
ATOM     55  N   UNL     1      -8.393  -5.506  -5.483  1.00  0.00    -0.354 N 
ATOM     56  N   UNL     1      -9.016  -7.647  -3.510  1.00  0.00    -0.248 NA
ATOM     57  C   UNL     1      -9.840  -9.783  -3.037  1.00  0.00     0.031 C 
ATOM     58  C   UNL     1      -8.609  -5.991  -7.636  1.00  0.00     0.029 A 
ATOM     59  C   UNL     1      -8.756  -6.512  -6.359  1.00  0.00     0.049 A 
ATOM     60  H   UNL     1      -8.402  -5.581  -4.501  1.00  0.00     0.167 HD
ATOM     61  C   UNL     1      -9.308  -8.291  -4.704  1.00  0.00     0.074 A 
ATOM     62  C   UNL     1      -9.786  -9.616  -4.353  1.00  0.00     0.031 C 
ATOM     63  C   UNL     1      -9.209  -7.825  -5.974  1.00  0.00     0.034 A 
BRANCH  50  64
ATOM     64  C   UNL     1      -7.135  -2.015  -6.473  1.00  0.00     0.023 A 
ATOM     65  C   UNL     1      -5.760  -1.772  -6.663  1.00  0.00     0.012 A 
ATOM     66  C   UNL     1      -8.079  -1.212  -7.140  1.00  0.00     0.148 A 
ATOM     67  C   UNL     1      -5.329  -0.736  -7.490  1.00  0.00     0.002 A 
ATOM     68  C   UNL     1      -7.643  -0.199  -7.986  1.00  0.00     0.091 A 
ATOM     69  F   UNL     1      -9.382  -1.442  -6.921  1.00  0.00    -0.205 F 
ATOM     70  C   UNL     1      -6.269   0.044  -8.158  1.00  0.00     0.022 A 
BRANCH  68  71
ATOM     71  S   UNL     1      -8.769   0.837  -8.927  1.00  0.00     0.127 S 
ATOM     72  O   UNL     1      -8.585   2.135  -8.277  1.00  0.00    -0.237 OA
ATOM     73  O   UNL     1      -8.213   0.747 -10.277  1.00  0.00    -0.237 OA
ATOM     74  O   UNL     1     -10.089   0.243  -8.769  1.00  0.00    -0.744 OA
ENDBRANCH  68  71
ENDBRANCH  50  64
BRANCH  51  75
ATOM     75  C   UNL     1      -9.524  -9.405  -0.110  1.00  0.00     0.023 A 
ATOM     76  C   UNL     1      -8.607 -10.452   0.089  1.00  0.00     0.012 A 
ATOM     77  C   UNL     1     -10.659  -9.307   0.719  1.00  0.00     0.148 A 
ATOM     78  C   UNL     1      -8.809 -11.383   1.108  1.00  0.00     0.002 A 
ATOM     79  C   UNL     1     -10.833 -10.211   1.757  1.00  0.00     0.091 A 
ATOM     80  F   UNL     1     -11.507  -8.290   0.510  1.00  0.00    -0.205 F 
ATOM     81  C   UNL     1      -9.913 -11.255   1.950  1.00  0.00     0.022 A 
BRANCH  79  82
ATOM     82  S   UNL     1     -12.151 -10.058   2.968  1.00  0.00     0.127 S 
ATOM     83  O   UNL     1     -12.850 -11.332   2.810  1.00  0.00    -0.237 OA
ATOM     84  O   UNL     1     -11.394  -9.920   4.212  1.00  0.00    -0.237 OA
ATOM     85  O   UNL     1     -12.914  -8.880   2.581  1.00  0.00    -0.744 OA
ENDBRANCH  79  82
ENDBRANCH  51  75
BRANCH  63  86
ATOM     86  C   UNL     1      -9.643  -8.748  -7.076  1.00  0.00     0.023 A 
ATOM     87  C   UNL     1     -11.018  -8.913  -7.331  1.00  0.00     0.012 A 
ATOM     88  C   UNL     1      -8.697  -9.380  -7.904  1.00  0.00     0.148 A 
ATOM     89  C   UNL     1     -11.447  -9.713  -8.387  1.00  0.00     0.002 A 
ATOM     90  C   UNL     1      -9.132 -10.149  -8.976  1.00  0.00     0.091 A 
ATOM     91  F   UNL     1      -7.395  -9.215  -7.630  1.00  0.00    -0.205 F 
ATOM     92  C   UNL     1     -10.506 -10.322  -9.215  1.00  0.00     0.022 A 
BRANCH  90  93
ATOM     93  S   UNL     1      -7.995 -10.913 -10.137  1.00  0.00     0.127 S 
ATOM     94  O   UNL     1      -8.120 -12.327  -9.787  1.00  0.00    -0.237 OA
ATOM     95  O   UNL     1      -8.579 -10.549 -11.428  1.00  0.00    -0.237 OA
ATOM     96  O   UNL     1      -6.692 -10.317  -9.873  1.00  0.00    -0.744 OA
ENDBRANCH  90  93
ENDBRANCH  63  86
ENDBRANCH  37  38
ENDBRANCH  29  32
ENDBRANCH  27  28
ENDBRANCH  26  27
ENDBRANCH   1  26
TORSDOF 19
