REMARK SMILES O=C(/C=C/c1ccccc1Oc1cccc(Cl)c1)NCCCNC(=O)c1ccc(-c2c3nc(c(-c4cccc(S(=O)(=O)[O-])c4F)c4ccc([nH]4)c(-c4cccc(S(=O)(=O)[O-])c4F)c4nc(c(-c5cccc(S(=O)(=O)[O-])c5F)c5ccc2[nH]5)C=C4)C=C3)cc1
REMARK SMILES IDX 21 1 20 2 19 3 1 4 2 5 3 7 4 8 5 9 6 10 10 11 7 12 9 13 8 14
REMARK SMILES IDX 11 15 12 16 13 17 18 18 14 19 16 20 15 21 17 22 22 23 23 24
REMARK SMILES IDX 24 25 25 27 26 28 27 29 88 30 28 31 87 32 29 33 30 34 31 35
REMARK SMILES IDX 81 36 32 37 86 38 80 39 82 40 33 41 85 42 79 43 78 44 34 46
REMARK SMILES IDX 66 47 46 48 65 49 47 50 50 51 64 52 83 53 48 54 49 55 63 57
REMARK SMILES IDX 84 58 51 59 35 60 36 61 44 62 37 63 39 64 45 65 38 66 40 67
REMARK SMILES IDX 41 68 42 69 43 70 67 71 68 72 76 73 69 74 71 75 77 76 70 77
REMARK SMILES IDX 72 78 73 79 74 80 75 81 52 82 53 83 61 84 54 85 56 86 62 87
REMARK SMILES IDX 55 88 57 89 58 90 59 91 60 92
REMARK H PARENT 19 6 23 26 82 45 50 56
REMARK Flexibility Score: inf
ROOT
ATOM      1  C   UNL     1       2.377  -1.205   3.326  1.00  0.00     0.042 C 
ENDROOT
BRANCH   1   2
ATOM      2  C   UNL     1       2.056  -0.121   2.308  1.00  0.00     0.118 C 
BRANCH   2   3
ATOM      3  N   UNL     1       2.800  -0.263   1.074  1.00  0.00    -0.352 N 
ATOM      4  O   UNL     1       1.377  -1.771   0.090  1.00  0.00    -0.270 OA
ATOM      5  C   UNL     1       2.383  -1.071   0.047  1.00  0.00     0.244 C 
ATOM      6  H   UNL     1       3.639   0.242   0.967  1.00  0.00     0.163 HD
BRANCH   5   7
ATOM      7  C   UNL     1       3.164  -0.981  -1.217  1.00  0.00     0.072 C 
ATOM      8  C   UNL     1       4.366  -0.402  -1.347  1.00  0.00     0.017 C 
BRANCH   8   9
ATOM      9  C   UNL     1       5.023  -0.173  -2.641  1.00  0.00     0.017 A 
ATOM     10  C   UNL     1       6.215  -0.899  -2.833  1.00  0.00     0.012 A 
ATOM     11  C   UNL     1       4.607   0.727  -3.644  1.00  0.00     0.134 A 
ATOM     12  C   UNL     1       6.976  -0.754  -3.995  1.00  0.00     0.001 A 
ATOM     13  C   UNL     1       5.383   0.852  -4.811  1.00  0.00     0.048 A 
ATOM     14  C   UNL     1       6.559   0.124  -4.986  1.00  0.00     0.004 A 
BRANCH  11  15
ATOM     15  O   UNL     1       3.476   1.519  -3.710  1.00  0.00    -0.457 OA
BRANCH  15  16
ATOM     16  C   UNL     1       2.741   1.828  -2.600  1.00  0.00     0.128 A 
ATOM     17  C   UNL     1       1.391   1.463  -2.617  1.00  0.00     0.047 A 
ATOM     18  C   UNL     1       3.266   2.541  -1.524  1.00  0.00     0.067 A 
ATOM     19  C   UNL     1       0.581   1.728  -1.514  1.00  0.00     0.005 A 
ATOM     20  C   UNL     1       2.451   2.797  -0.421  1.00  0.00     0.044 A 
ATOM     21  C   UNL     1       1.116   2.388  -0.407  1.00  0.00     0.021 A 
ATOM     22  Cl  UNL     1       3.115   3.575   0.963  1.00  0.00    -0.084 Cl
ENDBRANCH  15  16
ENDBRANCH  11  15
ENDBRANCH   8   9
ENDBRANCH   5   7
ENDBRANCH   2   3
ENDBRANCH   1   2
BRANCH   1  23
ATOM     23  C   UNL     1       3.853  -1.306   3.692  1.00  0.00     0.118 C 
BRANCH  23  24
ATOM     24  N   UNL     1       4.368  -0.130   4.382  1.00  0.00    -0.352 N 
ATOM     25  C   UNL     1       5.133  -0.050   5.522  1.00  0.00     0.251 C 
ATOM     26  H   UNL     1       4.134   0.734   3.972  1.00  0.00     0.163 HD
ATOM     27  O   UNL     1       5.379   1.053   6.008  1.00  0.00    -0.269 OA
BRANCH  25  28
ATOM     28  C   UNL     1       5.632  -1.277   6.186  1.00  0.00     0.039 A 
ATOM     29  C   UNL     1       5.560  -1.360   7.579  1.00  0.00     0.014 A 
ATOM     30  C   UNL     1       6.161  -2.343   5.454  1.00  0.00     0.014 A 
ATOM     31  C   UNL     1       5.951  -2.535   8.227  1.00  0.00     0.010 A 
ATOM     32  C   UNL     1       6.467  -3.544   6.093  1.00  0.00     0.010 A 
ATOM     33  C   UNL     1       6.369  -3.655   7.487  1.00  0.00    -0.014 A 
BRANCH  33  34
ATOM     34  C   UNL     1       6.662  -4.946   8.167  1.00  0.00     0.031 A 
ATOM     35  C   UNL     1       8.031  -5.569   8.097  1.00  0.00     0.074 A 
ATOM     36  C   UNL     1       5.667  -5.594   8.807  1.00  0.00     0.049 A 
ATOM     37  N   UNL     1       8.464  -6.671   8.656  1.00  0.00    -0.248 NA
ATOM     38  C   UNL     1       9.040  -4.884   7.273  1.00  0.00     0.031 C 
ATOM     39  C   UNL     1       4.271  -5.152   8.866  1.00  0.00     0.029 A 
ATOM     40  N   UNL     1       5.671  -6.767   9.520  1.00  0.00    -0.354 N 
ATOM     41  C   UNL     1       9.779  -6.825   8.234  1.00  0.00     0.074 A 
ATOM     42  C   UNL     1      10.063  -5.725   7.338  1.00  0.00     0.031 C 
ATOM     43  C   UNL     1       3.561  -6.027   9.594  1.00  0.00     0.029 A 
ATOM     44  C   UNL     1       4.439  -7.107  10.031  1.00  0.00     0.049 A 
ATOM     45  H   UNL     1       6.479  -7.314   9.654  1.00  0.00     0.167 HD
ATOM     46  C   UNL     1      10.681  -7.776   8.582  1.00  0.00     0.034 A 
ATOM     47  C   UNL     1       4.058  -8.167  10.770  1.00  0.00     0.034 A 
ATOM     48  C   UNL     1      10.405  -8.853   9.496  1.00  0.00     0.049 A 
ATOM     49  C   UNL     1       5.090  -9.178  11.187  1.00  0.00     0.074 A 
ATOM     50  C   UNL     1      11.275  -9.817   9.977  1.00  0.00     0.029 A 
ATOM     51  N   UNL     1       9.166  -9.121  10.057  1.00  0.00    -0.354 N 
ATOM     52  N   UNL     1       6.372  -9.211  10.913  1.00  0.00    -0.248 NA
ATOM     53  C   UNL     1       4.632 -10.274  12.052  1.00  0.00     0.031 C 
ATOM     54  C   UNL     1      10.554 -10.686  10.803  1.00  0.00     0.029 A 
ATOM     55  C   UNL     1       9.245 -10.239  10.872  1.00  0.00     0.049 A 
ATOM     56  H   UNL     1       8.350  -8.594   9.899  1.00  0.00     0.167 HD
ATOM     57  C   UNL     1       6.880 -10.307  11.602  1.00  0.00     0.074 A 
ATOM     58  C   UNL     1       5.771 -10.893  12.328  1.00  0.00     0.031 C 
ATOM     59  C   UNL     1       8.146 -10.791  11.622  1.00  0.00     0.034 A 
BRANCH  46  60
ATOM     60  C   UNL     1      12.072  -7.667   8.008  1.00  0.00     0.023 A 
ATOM     61  C   UNL     1      12.922  -6.624   8.431  1.00  0.00     0.012 A 
ATOM     62  C   UNL     1      12.560  -8.628   7.100  1.00  0.00     0.148 A 
ATOM     63  C   UNL     1      14.220  -6.517   7.934  1.00  0.00     0.002 A 
ATOM     64  C   UNL     1      13.872  -8.542   6.646  1.00  0.00     0.091 A 
ATOM     65  F   UNL     1      11.734  -9.602   6.693  1.00  0.00    -0.205 F 
ATOM     66  C   UNL     1      14.698  -7.481   7.051  1.00  0.00     0.022 A 
BRANCH  64  67
ATOM     67  S   UNL     1      14.611  -9.779   5.573  1.00  0.00     0.127 S 
ATOM     68  O   UNL     1      14.761  -9.033   4.324  1.00  0.00    -0.237 OA
ATOM     69  O   UNL     1      15.868 -10.072   6.262  1.00  0.00    -0.237 OA
ATOM     70  O   UNL     1      13.669 -10.888   5.527  1.00  0.00    -0.744 OA
ENDBRANCH  64  67
ENDBRANCH  46  60
BRANCH  47  71
ATOM     71  C   UNL     1       2.643  -8.288  11.226  1.00  0.00     0.023 A 
ATOM     72  C   UNL     1       2.336  -8.129  12.592  1.00  0.00     0.012 A 
ATOM     73  C   UNL     1       1.601  -8.538  10.313  1.00  0.00     0.148 A 
ATOM     74  C   UNL     1       1.023  -8.256  13.046  1.00  0.00     0.002 A 
ATOM     75  C   UNL     1       0.288  -8.605  10.764  1.00  0.00     0.091 A 
ATOM     76  F   UNL     1       1.915  -8.695   9.020  1.00  0.00    -0.205 F 
ATOM     77  C   UNL     1      -0.001  -8.484  12.132  1.00  0.00     0.022 A 
BRANCH  75  78
ATOM     78  S   UNL     1      -1.107  -8.760   9.644  1.00  0.00     0.127 S 
ATOM     79  O   UNL     1      -1.577 -10.111   9.938  1.00  0.00    -0.237 OA
ATOM     80  O   UNL     1      -1.986  -7.686  10.107  1.00  0.00    -0.237 OA
ATOM     81  O   UNL     1      -0.564  -8.557   8.308  1.00  0.00    -0.744 OA
ENDBRANCH  75  78
ENDBRANCH  47  71
BRANCH  59  82
ATOM     82  C   UNL     1       8.415 -11.993  12.493  1.00  0.00     0.023 A 
ATOM     83  C   UNL     1       7.880 -13.252  12.148  1.00  0.00     0.012 A 
ATOM     84  C   UNL     1       9.226 -11.881  13.639  1.00  0.00     0.148 A 
ATOM     85  C   UNL     1       8.103 -14.364  12.959  1.00  0.00     0.002 A 
ATOM     86  C   UNL     1       9.490 -13.006  14.412  1.00  0.00     0.091 A 
ATOM     87  F   UNL     1       9.712 -10.674  13.965  1.00  0.00    -0.205 F 
ATOM     88  C   UNL     1       8.915 -14.244  14.084  1.00  0.00     0.022 A 
BRANCH  86  89
ATOM     89  S   UNL     1      10.604 -12.962  15.819  1.00  0.00     0.127 S 
ATOM     90  O   UNL     1       9.670 -13.009  16.942  1.00  0.00    -0.237 OA
ATOM     91  O   UNL     1      11.393 -14.181  15.630  1.00  0.00    -0.237 OA
ATOM     92  O   UNL     1      11.366 -11.727  15.687  1.00  0.00    -0.744 OA
ENDBRANCH  86  89
ENDBRANCH  59  82
ENDBRANCH  33  34
ENDBRANCH  25  28
ENDBRANCH  23  24
ENDBRANCH   1  23
TORSDOF 16
