REMARK SMILES Cc1ccc(CCC(=O)N2CCC3(CC2)[C@H](C(=O)NCCCNC(=O)c2ccc(-c4c5nc(c(-c6cccc(S(=O)(=O)[O-])c6F)c6ccc([nH]6)c(-c6cccc(S(=O)(=O)[O-])c6F)c6nc(c(-c7cccc(S(=O)(=O)[O-])c7F)c7ccc4[nH]7)C=C6)C=C5)cc2)CC(=O)N3C)cc1
REMARK SMILES IDX 21 1 20 2 19 3 17 4 18 5 16 7 8 8 9 9 10 10 11 11 15 12
REMARK SMILES IDX 12 13 14 14 13 15 92 16 89 17 90 18 93 19 91 20 7 21 6 22
REMARK SMILES IDX 5 23 1 24 2 25 3 26 95 27 4 28 94 29 22 30 23 31 24 32 25 34
REMARK SMILES IDX 26 35 27 36 88 37 28 38 87 39 29 40 30 41 31 42 81 43 32 44
REMARK SMILES IDX 86 45 80 46 82 47 33 48 85 49 79 50 78 51 34 53 66 54 46 55
REMARK SMILES IDX 65 56 47 57 50 58 64 59 83 60 48 61 49 62 63 64 84 65 51 66
REMARK SMILES IDX 35 67 36 68 44 69 37 70 39 71 45 72 38 73 40 74 41 75 42 76
REMARK SMILES IDX 43 77 67 78 68 79 76 80 69 81 71 82 77 83 70 84 72 85 73 86
REMARK SMILES IDX 74 87 75 88 52 89 53 90 61 91 54 92 56 93 62 94 55 95 57 96
REMARK SMILES IDX 58 97 59 98 60 99
REMARK H PARENT 19 6 23 33 82 52 50 63
REMARK Flexibility Score: inf
ROOT
ATOM      1  C   UNL     1       2.237  -5.521  -3.841  1.00  0.00     0.042 C 
ENDROOT
BRANCH   1   2
ATOM      2  C   UNL     1       2.998  -4.388  -4.515  1.00  0.00     0.117 C 
BRANCH   2   3
ATOM      3  N   UNL     1       2.193  -3.314  -5.076  1.00  0.00    -0.356 N 
ATOM      4  C   UNL     1       1.767  -2.115  -4.609  1.00  0.00     0.226 C 
ATOM      5  O   UNL     1       1.339  -1.316  -5.451  1.00  0.00    -0.275 OA
ATOM      6  H   UNL     1       1.893  -3.498  -5.995  1.00  0.00     0.163 HD
BRANCH   4   7
ATOM      7  C   UNL     1       1.725  -1.694  -3.139  1.00  0.00     0.113 C 
ATOM      8  C   UNL     1      -3.311  -1.808  -1.374  1.00  0.00     0.222 C 
ATOM      9  O   UNL     1      -4.319  -2.425  -1.723  1.00  0.00    -0.275 OA
ATOM     10  N   UNL     1      -2.066  -2.411  -1.367  1.00  0.00    -0.343 N 
ATOM     11  C   UNL     1      -1.714  -3.471  -2.293  1.00  0.00     0.122 C 
ATOM     12  C   UNL     1      -1.024  -2.115  -0.430  1.00  0.00     0.122 C 
ATOM     13  C   UNL     1      -0.429  -3.082  -3.043  1.00  0.00     0.051 C 
ATOM     14  C   UNL     1       0.158  -1.494  -1.151  1.00  0.00     0.051 C 
ATOM     15  C   UNL     1       0.744  -2.465  -2.207  1.00  0.00     0.058 C 
ATOM     16  N   UNL     1       1.688  -3.366  -1.513  1.00  0.00    -0.339 N 
ATOM     17  C   UNL     1       3.079  -1.706  -2.453  1.00  0.00     0.116 C 
ATOM     18  C   UNL     1       2.999  -2.889  -1.534  1.00  0.00     0.223 C 
ATOM     19  C   UNL     1       1.331  -4.415  -0.577  1.00  0.00     0.147 C 
ATOM     20  O   UNL     1       3.942  -3.321  -0.889  1.00  0.00    -0.275 OA
BRANCH   8  21
ATOM     21  C   UNL     1      -3.387  -0.288  -1.151  1.00  0.00     0.105 C 
BRANCH  21  22
ATOM     22  C   UNL     1      -3.317   0.298   0.273  1.00  0.00     0.045 C 
BRANCH  22  23
ATOM     23  C   UNL     1      -1.946   0.823   0.673  1.00  0.00    -0.047 A 
ATOM     24  C   UNL     1       2.316   1.177   1.048  1.00  0.00     0.044 C 
ATOM     25  C   UNL     1       0.816   1.207   1.040  1.00  0.00    -0.051 A 
ATOM     26  C   UNL     1       0.075   0.481   1.978  1.00  0.00     0.004 A 
ATOM     27  C   UNL     1       0.139   1.877   0.014  1.00  0.00     0.004 A 
ATOM     28  C   UNL     1      -1.304   0.322   1.817  1.00  0.00     0.004 A 
ATOM     29  C   UNL     1      -1.235   1.692  -0.164  1.00  0.00     0.004 A 
ENDBRANCH  22  23
ENDBRANCH  21  22
ENDBRANCH   8  21
ENDBRANCH   4   7
ENDBRANCH   2   3
ENDBRANCH   1   2
BRANCH   1  30
ATOM     30  C   UNL     1       1.337  -6.340  -4.753  1.00  0.00     0.118 C 
BRANCH  30  31
ATOM     31  N   UNL     1       1.485  -7.767  -4.487  1.00  0.00    -0.352 N 
ATOM     32  C   UNL     1       0.691  -8.822  -4.904  1.00  0.00     0.251 C 
ATOM     33  H   UNL     1       2.259  -8.014  -3.931  1.00  0.00     0.163 HD
ATOM     34  O   UNL     1       0.878  -9.950  -4.484  1.00  0.00    -0.269 OA
BRANCH  32  35
ATOM     35  C   UNL     1      -0.290  -8.538  -5.965  1.00  0.00     0.039 A 
ATOM     36  C   UNL     1       0.004  -9.046  -7.235  1.00  0.00     0.014 A 
ATOM     37  C   UNL     1      -1.235  -7.532  -5.781  1.00  0.00     0.014 A 
ATOM     38  C   UNL     1      -0.476  -8.382  -8.356  1.00  0.00     0.010 A 
ATOM     39  C   UNL     1      -1.661  -6.835  -6.892  1.00  0.00     0.010 A 
ATOM     40  C   UNL     1      -1.222  -7.221  -8.168  1.00  0.00    -0.014 A 
BRANCH  40  41
ATOM     41  C   UNL     1      -1.541  -6.301  -9.245  1.00  0.00     0.031 A 
ATOM     42  C   UNL     1      -2.815  -6.433  -9.971  1.00  0.00     0.074 A 
ATOM     43  C   UNL     1      -0.706  -5.274  -9.516  1.00  0.00     0.049 A 
ATOM     44  N   UNL     1      -3.015  -5.982 -11.162  1.00  0.00    -0.248 NA
ATOM     45  C   UNL     1      -3.960  -7.132  -9.403  1.00  0.00     0.031 C 
ATOM     46  C   UNL     1      -1.019  -4.077 -10.285  1.00  0.00     0.029 A 
ATOM     47  N   UNL     1       0.681  -5.220  -9.330  1.00  0.00    -0.354 N 
ATOM     48  C   UNL     1      -4.366  -6.085 -11.411  1.00  0.00     0.074 A 
ATOM     49  C   UNL     1      -4.896  -6.870 -10.319  1.00  0.00     0.031 C 
ATOM     50  C   UNL     1       0.126  -3.550 -10.741  1.00  0.00     0.029 A 
ATOM     51  C   UNL     1       1.191  -4.481 -10.412  1.00  0.00     0.049 A 
ATOM     52  H   UNL     1       1.194  -5.618  -8.591  1.00  0.00     0.167 HD
ATOM     53  C   UNL     1      -4.923  -5.358 -12.419  1.00  0.00     0.034 A 
ATOM     54  C   UNL     1       2.139  -4.936 -11.280  1.00  0.00     0.034 A 
ATOM     55  C   UNL     1      -3.914  -4.571 -13.134  1.00  0.00     0.049 A 
ATOM     56  C   UNL     1       1.702  -4.890 -12.731  1.00  0.00     0.074 A 
ATOM     57  C   UNL     1      -3.482  -3.260 -12.999  1.00  0.00     0.029 A 
ATOM     58  N   UNL     1      -2.989  -5.207 -13.950  1.00  0.00    -0.354 N 
ATOM     59  N   UNL     1       0.489  -4.614 -13.123  1.00  0.00    -0.248 NA
ATOM     60  C   UNL     1       2.586  -5.186 -13.855  1.00  0.00     0.031 C 
ATOM     61  C   UNL     1      -2.257  -3.125 -13.700  1.00  0.00     0.029 A 
ATOM     62  C   UNL     1      -1.952  -4.346 -14.276  1.00  0.00     0.049 A 
ATOM     63  H   UNL     1      -3.060  -6.140 -14.256  1.00  0.00     0.167 HD
ATOM     64  C   UNL     1       0.376  -4.819 -14.476  1.00  0.00     0.074 A 
ATOM     65  C   UNL     1       1.740  -5.092 -14.896  1.00  0.00     0.031 C 
ATOM     66  C   UNL     1      -0.843  -4.803 -15.106  1.00  0.00     0.034 A 
BRANCH  53  67
ATOM     67  C   UNL     1      -6.410  -5.078 -12.495  1.00  0.00     0.023 A 
ATOM     68  C   UNL     1      -6.816  -3.816 -12.982  1.00  0.00     0.012 A 
ATOM     69  C   UNL     1      -7.437  -5.933 -12.041  1.00  0.00     0.148 A 
ATOM     70  C   UNL     1      -8.138  -3.372 -12.901  1.00  0.00     0.002 A 
ATOM     71  C   UNL     1      -8.743  -5.461 -11.880  1.00  0.00     0.091 A 
ATOM     72  F   UNL     1      -7.170  -7.228 -11.826  1.00  0.00    -0.205 F 
ATOM     73  C   UNL     1      -9.095  -4.177 -12.305  1.00  0.00     0.022 A 
BRANCH  71  74
ATOM     74  S   UNL     1      -9.996  -6.403 -10.992  1.00  0.00     0.127 S 
ATOM     75  O   UNL     1     -10.609  -5.382 -10.138  1.00  0.00    -0.237 OA
ATOM     76  O   UNL     1     -10.854  -6.886 -12.070  1.00  0.00    -0.237 OA
ATOM     77  O   UNL     1      -9.264  -7.425 -10.252  1.00  0.00    -0.744 OA
ENDBRANCH  71  74
ENDBRANCH  53  67
BRANCH  54  78
ATOM     78  C   UNL     1       3.078  -5.929 -10.688  1.00  0.00     0.023 A 
ATOM     79  C   UNL     1       3.932  -5.467  -9.659  1.00  0.00     0.012 A 
ATOM     80  C   UNL     1       2.877  -7.311 -10.837  1.00  0.00     0.148 A 
ATOM     81  C   UNL     1       4.479  -6.350  -8.728  1.00  0.00     0.002 A 
ATOM     82  C   UNL     1       3.418  -8.186  -9.897  1.00  0.00     0.091 A 
ATOM     83  F   UNL     1       2.098  -7.741 -11.838  1.00  0.00    -0.205 F 
ATOM     84  C   UNL     1       4.193  -7.706  -8.828  1.00  0.00     0.022 A 
BRANCH  82  85
ATOM     85  S   UNL     1       3.028  -9.941  -9.906  1.00  0.00     0.127 S 
ATOM     86  O   UNL     1       4.191 -10.495 -10.591  1.00  0.00    -0.237 OA
ATOM     87  O   UNL     1       2.951 -10.246  -8.478  1.00  0.00    -0.237 OA
ATOM     88  O   UNL     1       1.755 -10.035 -10.605  1.00  0.00    -0.744 OA
ENDBRANCH  82  85
ENDBRANCH  54  78
BRANCH  66  89
ATOM     89  C   UNL     1      -1.131  -5.222 -16.543  1.00  0.00     0.023 A 
ATOM     90  C   UNL     1      -0.234  -5.991 -17.308  1.00  0.00     0.012 A 
ATOM     91  C   UNL     1      -2.398  -4.965 -17.137  1.00  0.00     0.148 A 
ATOM     92  C   UNL     1      -0.549  -6.444 -18.597  1.00  0.00     0.002 A 
ATOM     93  C   UNL     1      -2.748  -5.512 -18.371  1.00  0.00     0.091 A 
ATOM     94  F   UNL     1      -3.279  -4.162 -16.522  1.00  0.00    -0.205 F 
ATOM     95  C   UNL     1      -1.815  -6.229 -19.119  1.00  0.00     0.022 A 
BRANCH  93  96
ATOM     96  S   UNL     1      -4.447  -5.446 -18.960  1.00  0.00     0.127 S 
ATOM     97  O   UNL     1      -4.456  -4.207 -19.734  1.00  0.00    -0.237 OA
ATOM     98  O   UNL     1      -4.553  -6.665 -19.764  1.00  0.00    -0.237 OA
ATOM     99  O   UNL     1      -5.259  -5.460 -17.750  1.00  0.00    -0.744 OA
ENDBRANCH  93  96
ENDBRANCH  66  89
ENDBRANCH  40  41
ENDBRANCH  32  35
ENDBRANCH  30  31
ENDBRANCH   1  30
TORSDOF 16
