REMARK SMILES O=C(COc1cccc(NC(=O)c2ccc3c(c2)C(=O)N(c2ccccc2-c2ccccc2)C3=O)c1)NCCCNC(=O)c1ccc(-c2c3nc(c(-c4cccc(S(=O)(=O)[O-])c4F)c4ccc([nH]4)c(-c4cccc(S(=O)(=O)[O-])c4F)c4nc(c(-c5cccc(S(=O)(=O)[O-])c5F)c5ccc2[nH]5)C=C4)C=C3)cc1
REMARK SMILES IDX 1 1 2 2 37 3 3 5 4 6 5 7 6 8 36 9 7 10 9 11 8 12 10 13 11 14
REMARK SMILES IDX 12 16 13 17 14 18 18 19 15 20 17 21 16 22 19 23 34 24 20 25
REMARK SMILES IDX 21 26 35 27 22 28 23 29 27 30 24 31 26 32 25 33 28 34 29 35
REMARK SMILES IDX 33 36 30 37 32 38 31 39 38 40 39 41 40 42 41 43 42 44 43 46
REMARK SMILES IDX 44 47 45 48 106 49 46 50 105 51 47 52 48 53 49 54 99 55
REMARK SMILES IDX 50 56 104 57 98 58 100 59 51 60 103 61 97 62 96 63 52 65
REMARK SMILES IDX 84 66 64 67 83 68 65 69 68 70 82 71 101 72 66 73 67 74 81 76
REMARK SMILES IDX 102 77 69 78 53 79 54 80 62 81 55 82 57 83 63 84 56 85 58 86
REMARK SMILES IDX 59 87 60 88 61 89 85 90 86 91 94 92 87 93 89 94 95 95 88 96
REMARK SMILES IDX 90 97 91 98 92 99 93 100 70 101 71 102 79 103 72 104 74 105
REMARK SMILES IDX 80 106 73 107 75 108 76 109 77 110 78 111
REMARK H PARENT 37 4 10 15 41 45 100 64 68 75
REMARK Flexibility Score: inf
ROOT
ATOM      1  O   UNL     1       0.813  -0.002   0.907  1.00  0.00    -0.271 OA
ATOM      2  C   UNL     1       1.951  -0.016   0.448  1.00  0.00     0.257 C 
ATOM      3  N   UNL     1       2.682   1.120   0.167  1.00  0.00    -0.353 N 
ATOM      4  H   UNL     1       3.644   1.033  -0.023  1.00  0.00     0.163 HD
ENDROOT
BRANCH   2   5
ATOM      5  C   UNL     1       2.659  -1.316   0.069  1.00  0.00     0.329 C 
BRANCH   5   6
ATOM      6  O   UNL     1       3.649  -1.203  -0.946  1.00  0.00    -0.484 OA
BRANCH   6   7
ATOM      7  C   UNL     1       3.204  -1.125  -2.240  1.00  0.00     0.122 A 
ATOM      8  C   UNL     1       3.956  -1.851  -3.155  1.00  0.00     0.046 A 
ATOM      9  C   UNL     1       2.189  -0.269  -2.696  1.00  0.00     0.072 A 
ATOM     10  C   UNL     1       3.704  -1.713  -4.511  1.00  0.00     0.006 A 
ATOM     11  C   UNL     1       1.942  -0.091  -4.066  1.00  0.00     0.045 A 
ATOM     12  C   UNL     1       2.719  -0.828  -4.957  1.00  0.00     0.026 A 
BRANCH  11  13
ATOM     13  N   UNL     1       1.001   0.908  -4.433  1.00  0.00    -0.322 N 
ATOM     14  C   UNL     1       0.420   1.267  -5.637  1.00  0.00     0.255 C 
ATOM     15  H   UNL     1       0.701   1.459  -3.674  1.00  0.00     0.170 HD
ATOM     16  O   UNL     1      -0.202   2.315  -5.769  1.00  0.00    -0.269 OA
BRANCH  14  17
ATOM     17  C   UNL     1       0.414   0.306  -6.748  1.00  0.00     0.041 A 
ATOM     18  C   UNL     1       1.358   0.409  -7.795  1.00  0.00     0.015 A 
ATOM     19  C   UNL     1      -0.370  -0.830  -6.567  1.00  0.00     0.028 A 
ATOM     20  C   UNL     1       1.678  -0.732  -8.551  1.00  0.00     0.015 A 
ATOM     21  C   UNL     1      -0.015  -1.924  -7.320  1.00  0.00     0.054 A 
ATOM     22  C   UNL     1       1.018  -1.909  -8.227  1.00  0.00     0.053 A 
ATOM     23  C   UNL     1      -0.377  -3.300  -7.067  1.00  0.00     0.266 C 
ATOM     24  C   UNL     1       1.356  -3.313  -8.489  1.00  0.00     0.266 C 
ATOM     25  O   UNL     1      -1.409  -3.550  -6.474  1.00  0.00    -0.268 OA
ATOM     26  N   UNL     1       0.638  -4.075  -7.587  1.00  0.00    -0.242 N 
ATOM     27  O   UNL     1       2.082  -3.606  -9.421  1.00  0.00    -0.268 OA
BRANCH  26  28
ATOM     28  C   UNL     1       0.879  -5.431  -7.163  1.00  0.00     0.060 A 
ATOM     29  C   UNL     1      -0.151  -6.106  -6.461  1.00  0.00     0.027 A 
ATOM     30  C   UNL     1       2.125  -6.107  -7.264  1.00  0.00     0.006 A 
ATOM     31  C   UNL     1       0.013  -7.365  -5.880  1.00  0.00     0.002 A 
ATOM     32  C   UNL     1       2.253  -7.406  -6.699  1.00  0.00     0.011 A 
ATOM     33  C   UNL     1       1.217  -8.024  -6.007  1.00  0.00     0.001 A 
BRANCH  30  34
ATOM     34  C   UNL     1       3.385  -5.540  -7.768  1.00  0.00    -0.016 A 
ATOM     35  C   UNL     1       3.876  -5.881  -9.038  1.00  0.00     0.009 A 
ATOM     36  C   UNL     1       4.182  -4.732  -6.940  1.00  0.00     0.009 A 
ATOM     37  C   UNL     1       5.098  -5.379  -9.490  1.00  0.00     0.001 A 
ATOM     38  C   UNL     1       5.409  -4.236  -7.389  1.00  0.00     0.001 A 
ATOM     39  C   UNL     1       5.860  -4.551  -8.668  1.00  0.00     0.000 A 
ENDBRANCH  30  34
ENDBRANCH  26  28
ENDBRANCH  14  17
ENDBRANCH  11  13
ENDBRANCH   6   7
ENDBRANCH   5   6
ENDBRANCH   2   5
BRANCH   3  40
ATOM     40  C   UNL     1       2.080   2.435   0.142  1.00  0.00     0.117 C 
BRANCH  40  41
ATOM     41  C   UNL     1       2.416   3.271   1.363  1.00  0.00     0.042 C 
BRANCH  41  42
ATOM     42  C   UNL     1       3.901   3.575   1.523  1.00  0.00     0.118 C 
BRANCH  42  43
ATOM     43  N   UNL     1       4.453   4.350   0.419  1.00  0.00    -0.352 N 
ATOM     44  C   UNL     1       5.165   5.525   0.427  1.00  0.00     0.251 C 
ATOM     45  H   UNL     1       4.291   3.971  -0.474  1.00  0.00     0.163 HD
ATOM     46  O   UNL     1       5.422   6.072  -0.644  1.00  0.00    -0.269 OA
BRANCH  44  47
ATOM     47  C   UNL     1       5.607   6.146   1.697  1.00  0.00     0.039 A 
ATOM     48  C   UNL     1       5.551   7.538   1.816  1.00  0.00     0.014 A 
ATOM     49  C   UNL     1       6.107   5.381   2.754  1.00  0.00     0.014 A 
ATOM     50  C   UNL     1       5.947   8.154   3.007  1.00  0.00     0.010 A 
ATOM     51  C   UNL     1       6.422   5.988   3.968  1.00  0.00     0.010 A 
ATOM     52  C   UNL     1       6.363   7.383   4.104  1.00  0.00    -0.014 A 
BRANCH  52  53
ATOM     53  C   UNL     1       6.746   8.022   5.391  1.00  0.00     0.031 A 
ATOM     54  C   UNL     1       8.150   7.890   5.922  1.00  0.00     0.074 A 
ATOM     55  C   UNL     1       5.813   8.668   6.118  1.00  0.00     0.049 A 
ATOM     56  N   UNL     1       8.662   8.370   7.026  1.00  0.00    -0.248 NA
ATOM     57  C   UNL     1       9.095   7.093   5.124  1.00  0.00     0.031 C 
ATOM     58  C   UNL     1       4.397   8.790   5.763  1.00  0.00     0.029 A 
ATOM     59  N   UNL     1       5.911   9.328   7.318  1.00  0.00    -0.354 N 
ATOM     60  C   UNL     1       9.971   7.907   7.073  1.00  0.00     0.074 A 
ATOM     61  C   UNL     1      10.165   7.074   5.906  1.00  0.00     0.031 C 
ATOM     62  C   UNL     1       3.763   9.491   6.717  1.00  0.00     0.029 A 
ATOM     63  C   UNL     1       4.719   9.853   7.759  1.00  0.00     0.049 A 
ATOM     64  H   UNL     1       6.756   9.418   7.815  1.00  0.00     0.167 HD
ATOM     65  C   UNL     1      10.938   8.175   7.984  1.00  0.00     0.034 A 
ATOM     66  C   UNL     1       4.429  10.553   8.873  1.00  0.00     0.034 A 
ATOM     67  C   UNL     1      10.761   9.044   9.116  1.00  0.00     0.049 A 
ATOM     68  C   UNL     1       5.538  10.902   9.829  1.00  0.00     0.074 A 
ATOM     69  C   UNL     1      11.702   9.447  10.048  1.00  0.00     0.029 A 
ATOM     70  N   UNL     1       9.565   9.648   9.470  1.00  0.00    -0.354 N 
ATOM     71  N   UNL     1       6.811  10.591   9.766  1.00  0.00    -0.248 NA
ATOM     72  C   UNL     1       5.181  11.740  10.983  1.00  0.00     0.031 C 
ATOM     73  C   UNL     1      11.070  10.286  10.973  1.00  0.00     0.029 A 
ATOM     74  C   UNL     1       9.742  10.422  10.604  1.00  0.00     0.049 A 
ATOM     75  H   UNL     1       8.714   9.542   8.986  1.00  0.00     0.167 HD
ATOM     76  C   UNL     1       7.412  11.227  10.846  1.00  0.00     0.074 A 
ATOM     77  C   UNL     1       6.368  11.960  11.533  1.00  0.00     0.031 C 
ATOM     78  C   UNL     1       8.708  11.195  11.243  1.00  0.00     0.034 A 
BRANCH  65  79
ATOM     79  C   UNL     1      12.300   7.570   7.755  1.00  0.00     0.023 A 
ATOM     80  C   UNL     1      13.105   8.056   6.703  1.00  0.00     0.012 A 
ATOM     81  C   UNL     1      12.806   6.567   8.603  1.00  0.00     0.148 A 
ATOM     82  C   UNL     1      14.375   7.529   6.477  1.00  0.00     0.002 A 
ATOM     83  C   UNL     1      14.092   6.077   8.399  1.00  0.00     0.091 A 
ATOM     84  F   UNL     1      12.020   6.101   9.584  1.00  0.00    -0.205 F 
ATOM     85  C   UNL     1      14.872   6.548   7.330  1.00  0.00     0.022 A 
BRANCH  83  86
ATOM     86  S   UNL     1      14.853   4.869   9.489  1.00  0.00     0.127 S 
ATOM     87  O   UNL     1      14.838   3.668   8.655  1.00  0.00    -0.237 OA
ATOM     88  O   UNL     1      16.181   5.443   9.707  1.00  0.00    -0.237 OA
ATOM     89  O   UNL     1      14.013   4.818  10.678  1.00  0.00    -0.744 OA
ENDBRANCH  83  86
ENDBRANCH  65  79
BRANCH  66  90
ATOM     90  C   UNL     1       3.043  11.054   9.097  1.00  0.00     0.023 A 
ATOM     91  C   UNL     1       2.781  12.434   8.980  1.00  0.00     0.012 A 
ATOM     92  C   UNL     1       1.984  10.177   9.399  1.00  0.00     0.148 A 
ATOM     93  C   UNL     1       1.497  12.935   9.193  1.00  0.00     0.002 A 
ATOM     94  C   UNL     1       0.696  10.677   9.556  1.00  0.00     0.091 A 
ATOM     95  F   UNL     1       2.256   8.870   9.517  1.00  0.00    -0.205 F 
ATOM     96  C   UNL     1       0.454  12.057   9.471  1.00  0.00     0.022 A 
BRANCH  94  97
ATOM     97  S   UNL     1      -0.728   9.607   9.787  1.00  0.00     0.127 S 
ATOM     98  O   UNL     1      -1.049   9.835  11.193  1.00  0.00    -0.237 OA
ATOM     99  O   UNL     1      -1.688  10.171   8.836  1.00  0.00    -0.237 OA
ATOM    100  O   UNL     1      -0.268   8.267   9.449  1.00  0.00    -0.744 OA
ENDBRANCH  94  97
ENDBRANCH  66  90
BRANCH  78 101
ATOM    101  C   UNL     1       9.087  12.010  12.453  1.00  0.00     0.023 A 
ATOM    102  C   UNL     1       8.672  11.599  13.735  1.00  0.00     0.012 A 
ATOM    103  C   UNL     1       9.899  13.154  12.324  1.00  0.00     0.148 A 
ATOM    104  C   UNL     1       9.025  12.336  14.865  1.00  0.00     0.002 A 
ATOM    105  C   UNL     1      10.287  13.856  13.460  1.00  0.00     0.091 A 
ATOM    106  F   UNL     1      10.267  13.546  11.095  1.00  0.00    -0.205 F 
ATOM    107  C   UNL     1       9.840  13.457  14.729  1.00  0.00     0.022 A 
BRANCH 105 108
ATOM    108  S   UNL     1      11.414  15.252  13.376  1.00  0.00     0.127 S 
ATOM    109  O   UNL     1      10.496  16.385  13.473  1.00  0.00    -0.237 OA
ATOM    110  O   UNL     1      12.257  15.048  14.555  1.00  0.00    -0.237 OA
ATOM    111  O   UNL     1      12.118  15.115  12.107  1.00  0.00    -0.744 OA
ENDBRANCH 105 108
ENDBRANCH  78 101
ENDBRANCH  52  53
ENDBRANCH  44  47
ENDBRANCH  42  43
ENDBRANCH  41  42
ENDBRANCH  40  41
ENDBRANCH   3  40
TORSDOF 19
