REMARK SMILES Nc1oc(-c2ccccc2)cc1C(=O)NCCCNC(=O)c1ccc(-c2c3nc(c(-c4cccc(S(=O)(=O)[O-])c4F)c4ccc([nH]4)c(-c4cccc(S(=O)(=O)[O-])c4F)c4nc(c(-c5cccc(S(=O)(=O)[O-])c5F)c5ccc2[nH]5)C=C4)C=C3)cc1
REMARK SMILES IDX 18 1 17 2 16 3 15 4 13 5 14 6 12 8 2 9 3 10 4 11 11 12 1 13
REMARK SMILES IDX 5 16 6 17 10 18 7 19 9 20 8 21 19 22 20 23 21 25 22 26 23 27
REMARK SMILES IDX 84 28 24 29 83 30 25 31 26 32 27 33 77 34 28 35 82 36 76 37
REMARK SMILES IDX 78 38 29 39 81 40 75 41 74 42 30 44 62 45 42 46 61 47 43 48
REMARK SMILES IDX 46 49 60 50 79 51 44 52 45 53 59 55 80 56 47 57 31 58 32 59
REMARK SMILES IDX 40 60 33 61 35 62 41 63 34 64 36 65 37 66 38 67 39 68 63 69
REMARK SMILES IDX 64 70 72 71 65 72 67 73 73 74 66 75 68 76 69 77 70 78 71 79
REMARK SMILES IDX 48 80 49 81 57 82 50 83 52 84 58 85 51 86 53 87 54 88 55 89
REMARK SMILES IDX 56 90
REMARK H PARENT 15 7 1 14 1 15 19 24 78 43 46 54
REMARK Flexibility Score: inf
ROOT
ATOM      1  C   UNL     1      -5.309   2.349   2.484  1.00  0.00     0.118 C 
ENDROOT
BRANCH   1   2
ATOM      2  C   UNL     1      -4.098   2.927   1.767  1.00  0.00     0.042 C 
BRANCH   2   3
ATOM      3  C   UNL     1      -2.807   2.740   2.572  1.00  0.00     0.118 C 
BRANCH   3   4
ATOM      4  N   UNL     1      -2.256   1.403   2.448  1.00  0.00    -0.352 N 
ATOM      5  C   UNL     1      -1.285   0.884   1.619  1.00  0.00     0.256 C 
ATOM      6  O   UNL     1      -0.899  -0.256   1.860  1.00  0.00    -0.269 OA
ATOM      7  H   UNL     1      -2.647   0.747   3.069  1.00  0.00     0.163 HD
BRANCH   5   8
ATOM      8  C   UNL     1      -0.716   1.680   0.541  1.00  0.00     0.103 A 
ATOM      9  C   UNL     1       0.435   1.336  -0.155  1.00  0.00     0.203 A 
ATOM     10  O   UNL     1       0.779   2.298  -1.055  1.00  0.00    -0.440 OA
ATOM     11  C   UNL     1      -0.170   3.263  -0.963  1.00  0.00     0.137 A 
ATOM     12  C   UNL     1      -1.138   2.893  -0.062  1.00  0.00     0.067 A 
BRANCH   9  13
ATOM     13  N   UNL     1       1.244   0.275  -0.094  1.00  0.00    -0.369 N 
ATOM     14  H   UNL     1       2.027   0.218  -0.687  1.00  0.00     0.159 HD
ATOM     15  H   UNL     1       1.056  -0.451   0.545  1.00  0.00     0.159 HD
ENDBRANCH   9  13
BRANCH  11  16
ATOM     16  C   UNL     1      -0.003   4.472  -1.739  1.00  0.00     0.017 A 
ATOM     17  C   UNL     1      -0.076   4.455  -3.132  1.00  0.00     0.012 A 
ATOM     18  C   UNL     1       0.108   5.699  -1.067  1.00  0.00     0.012 A 
ATOM     19  C   UNL     1      -0.069   5.657  -3.844  1.00  0.00     0.001 A 
ATOM     20  C   UNL     1       0.124   6.897  -1.778  1.00  0.00     0.001 A 
ATOM     21  C   UNL     1       0.025   6.875  -3.167  1.00  0.00     0.000 A 
ENDBRANCH  11  16
ENDBRANCH   5   8
ENDBRANCH   3   4
ENDBRANCH   2   3
ENDBRANCH   1   2
BRANCH   1  22
ATOM     22  N   UNL     1      -5.636   3.105   3.694  1.00  0.00    -0.352 N 
ATOM     23  C   UNL     1      -6.564   2.817   4.676  1.00  0.00     0.251 C 
ATOM     24  H   UNL     1      -5.123   3.935   3.827  1.00  0.00     0.163 HD
ATOM     25  O   UNL     1      -6.947   3.695   5.433  1.00  0.00    -0.269 OA
BRANCH  23  26
ATOM     26  C   UNL     1      -7.096   1.446   4.779  1.00  0.00     0.039 A 
ATOM     27  C   UNL     1      -8.454   1.240   5.027  1.00  0.00     0.014 A 
ATOM     28  C   UNL     1      -6.237   0.367   4.588  1.00  0.00     0.014 A 
ATOM     29  C   UNL     1      -8.952  -0.057   4.982  1.00  0.00     0.010 A 
ATOM     30  C   UNL     1      -6.753  -0.894   4.396  1.00  0.00     0.010 A 
ATOM     31  C   UNL     1      -8.104  -1.122   4.625  1.00  0.00    -0.014 A 
BRANCH  31  32
ATOM     32  C   UNL     1      -8.679  -2.435   4.341  1.00  0.00     0.031 A 
ATOM     33  C   UNL     1      -9.852  -2.391   3.425  1.00  0.00     0.074 A 
ATOM     34  C   UNL     1      -8.135  -3.616   4.710  1.00  0.00     0.049 A 
ATOM     35  N   UNL     1     -11.089  -2.598   3.735  1.00  0.00    -0.248 NA
ATOM     36  C   UNL     1      -9.655  -1.895   2.053  1.00  0.00     0.031 C 
ATOM     37  C   UNL     1      -6.830  -3.859   5.334  1.00  0.00     0.029 A 
ATOM     38  N   UNL     1      -8.592  -4.879   4.476  1.00  0.00    -0.354 N 
ATOM     39  C   UNL     1     -11.788  -2.524   2.535  1.00  0.00     0.074 A 
ATOM     40  C   UNL     1     -10.908  -1.882   1.594  1.00  0.00     0.031 C 
ATOM     41  C   UNL     1      -6.495  -5.159   5.186  1.00  0.00     0.029 A 
ATOM     42  C   UNL     1      -7.626  -5.871   4.624  1.00  0.00     0.049 A 
ATOM     43  H   UNL     1      -9.524  -5.073   4.226  1.00  0.00     0.167 HD
ATOM     44  C   UNL     1     -12.919  -3.257   2.340  1.00  0.00     0.034 A 
ATOM     45  C   UNL     1      -7.736  -7.174   4.266  1.00  0.00     0.034 A 
ATOM     46  C   UNL     1     -13.469  -3.729   3.586  1.00  0.00     0.049 A 
ATOM     47  C   UNL     1      -9.181  -7.482   4.190  1.00  0.00     0.074 A 
ATOM     48  C   UNL     1     -13.832  -3.130   4.778  1.00  0.00     0.029 A 
ATOM     49  N   UNL     1     -13.326  -5.065   3.873  1.00  0.00    -0.354 N 
ATOM     50  N   UNL     1      -9.971  -7.499   5.227  1.00  0.00    -0.248 NA
ATOM     51  C   UNL     1      -9.836  -7.357   2.900  1.00  0.00     0.031 C 
ATOM     52  C   UNL     1     -13.379  -4.029   5.789  1.00  0.00     0.029 A 
ATOM     53  C   UNL     1     -12.852  -5.155   5.155  1.00  0.00     0.049 A 
ATOM     54  H   UNL     1     -13.527  -5.817   3.271  1.00  0.00     0.167 HD
ATOM     55  C   UNL     1     -11.142  -6.912   4.768  1.00  0.00     0.074 A 
ATOM     56  C   UNL     1     -11.039  -6.949   3.310  1.00  0.00     0.031 C 
ATOM     57  C   UNL     1     -11.945  -6.188   5.603  1.00  0.00     0.034 A 
BRANCH  44  58
ATOM     58  C   UNL     1     -13.305  -3.876   1.016  1.00  0.00     0.023 A 
ATOM     59  C   UNL     1     -14.584  -4.467   0.916  1.00  0.00     0.012 A 
ATOM     60  C   UNL     1     -12.393  -4.147  -0.032  1.00  0.00     0.148 A 
ATOM     61  C   UNL     1     -14.919  -5.314  -0.146  1.00  0.00     0.002 A 
ATOM     62  C   UNL     1     -12.765  -4.906  -1.133  1.00  0.00     0.091 A 
ATOM     63  F   UNL     1     -11.109  -3.800   0.089  1.00  0.00    -0.205 F 
ATOM     64  C   UNL     1     -14.015  -5.523  -1.180  1.00  0.00     0.022 A 
BRANCH  62  65
ATOM     65  S   UNL     1     -11.655  -5.135  -2.527  1.00  0.00     0.127 S 
ATOM     66  O   UNL     1     -11.239  -6.522  -2.345  1.00  0.00    -0.237 OA
ATOM     67  O   UNL     1     -12.549  -4.897  -3.661  1.00  0.00    -0.237 OA
ATOM     68  O   UNL     1     -10.618  -4.123  -2.367  1.00  0.00    -0.744 OA
ENDBRANCH  62  65
ENDBRANCH  44  58
BRANCH  45  69
ATOM     69  C   UNL     1      -6.713  -8.119   3.754  1.00  0.00     0.023 A 
ATOM     70  C   UNL     1      -6.999  -9.501   3.733  1.00  0.00     0.012 A 
ATOM     71  C   UNL     1      -5.602  -7.660   3.013  1.00  0.00     0.148 A 
ATOM     72  C   UNL     1      -6.239 -10.386   2.959  1.00  0.00     0.002 A 
ATOM     73  C   UNL     1      -4.845  -8.546   2.250  1.00  0.00     0.091 A 
ATOM     74  F   UNL     1      -5.346  -6.346   2.977  1.00  0.00    -0.205 F 
ATOM     75  C   UNL     1      -5.170  -9.907   2.208  1.00  0.00     0.022 A 
BRANCH  73  76
ATOM     76  S   UNL     1      -3.465  -7.995   1.237  1.00  0.00     0.127 S 
ATOM     77  O   UNL     1      -2.435  -8.983   1.562  1.00  0.00    -0.237 OA
ATOM     78  O   UNL     1      -4.016  -8.106  -0.111  1.00  0.00    -0.237 OA
ATOM     79  O   UNL     1      -3.159  -6.644   1.689  1.00  0.00    -0.744 OA
ENDBRANCH  73  76
ENDBRANCH  45  69
BRANCH  57  80
ATOM     80  C   UNL     1     -11.709  -6.272   7.091  1.00  0.00     0.023 A 
ATOM     81  C   UNL     1     -10.492  -5.895   7.698  1.00  0.00     0.012 A 
ATOM     82  C   UNL     1     -12.808  -6.577   7.913  1.00  0.00     0.148 A 
ATOM     83  C   UNL     1     -10.371  -5.848   9.091  1.00  0.00     0.002 A 
ATOM     84  C   UNL     1     -12.699  -6.481   9.295  1.00  0.00     0.091 A 
ATOM     85  F   UNL     1     -13.959  -6.937   7.324  1.00  0.00    -0.205 F 
ATOM     86  C   UNL     1     -11.479  -6.127   9.889  1.00  0.00     0.022 A 
BRANCH  84  87
ATOM     87  S   UNL     1     -14.124  -6.704  10.362  1.00  0.00     0.127 S 
ATOM     88  O   UNL     1     -13.880  -8.030  10.924  1.00  0.00    -0.237 OA
ATOM     89  O   UNL     1     -13.981  -5.600  11.313  1.00  0.00    -0.237 OA
ATOM     90  O   UNL     1     -15.293  -6.593   9.498  1.00  0.00    -0.744 OA
ENDBRANCH  84  87
ENDBRANCH  57  80
ENDBRANCH  31  32
ENDBRANCH  23  26
ENDBRANCH   1  22
TORSDOF 15
