REMARK SMILES C[C@H]([NH2+]CC1CCCC1)[C@H](C)C(=O)NCCCNC(=O)c1ccc(-c2c3nc(c(-c4cccc(S(=O)(=O)[O-])c4F)c4ccc([nH]4)c(-c4cccc(S(=O)(=O)[O-])c4F)c4nc(c(-c5cccc(S(=O)(=O)[O-])c5F)c5ccc2[nH]5)C=C4)C=C3)cc1
REMARK SMILES IDX 15 1 14 2 12 3 13 4 10 6 11 7 2 8 1 9 3 10 4 13 5 14 6 15
REMARK SMILES IDX 9 16 7 17 8 18 16 19 17 20 18 21 19 22 20 24 21 25 22 26
REMARK SMILES IDX 83 27 23 28 82 29 24 30 25 31 26 32 76 33 27 34 81 35 75 36
REMARK SMILES IDX 77 37 28 38 80 39 74 40 73 41 29 43 61 44 41 45 60 46 42 47
REMARK SMILES IDX 45 48 59 49 78 50 43 51 44 52 58 54 79 55 46 56 30 57 31 58
REMARK SMILES IDX 39 59 32 60 34 61 40 62 33 63 35 64 36 65 37 66 38 67 62 68
REMARK SMILES IDX 63 69 71 70 64 71 66 72 72 73 65 74 67 75 68 76 69 77 70 78
REMARK SMILES IDX 47 79 48 80 56 81 49 82 51 83 57 84 50 85 52 86 53 87 54 88
REMARK SMILES IDX 55 89
REMARK H PARENT 14 5 3 11 3 12 18 23 77 42 45 53
REMARK Flexibility Score: inf
ROOT
ATOM      1  C   UNL     1      -0.400   0.801   3.963  1.00  0.00     0.117 C 
ENDROOT
BRANCH   1   2
ATOM      2  N   UNL     1      -1.252   1.777   3.309  1.00  0.00    -0.356 N 
ATOM      3  C   UNL     1      -1.573   1.931   1.996  1.00  0.00     0.228 C 
ATOM      4  O   UNL     1      -2.347   2.845   1.693  1.00  0.00    -0.275 OA
ATOM      5  H   UNL     1      -1.665   2.435   3.914  1.00  0.00     0.163 HD
BRANCH   3   6
ATOM      6  C   UNL     1      -0.997   1.018   0.918  1.00  0.00     0.133 C 
ATOM      7  C   UNL     1       0.529   1.163   0.870  1.00  0.00     0.024 C 
BRANCH   6   8
ATOM      8  C   UNL     1      -1.559  -0.430   1.027  1.00  0.00     0.191 C 
ATOM      9  C   UNL     1      -0.867  -1.412   0.071  1.00  0.00     0.076 C 
BRANCH   8  10
ATOM     10  N   UNL     1      -3.028  -0.384   0.894  1.00  0.00    -0.343 N 
ATOM     11  H   UNL     1      -3.249   0.325   0.195  1.00  0.00     0.346 HD
ATOM     12  H   UNL     1      -3.366  -0.191   1.837  1.00  0.00     0.346 HD
BRANCH  10  13
ATOM     13  C   UNL     1      -3.707  -1.608   0.502  1.00  0.00     0.264 C 
BRANCH  13  14
ATOM     14  C   UNL     1      -5.236  -1.479   0.521  1.00  0.00     0.044 C 
ATOM     15  C   UNL     1      -5.837  -0.936   1.817  1.00  0.00     0.009 C 
ATOM     16  C   UNL     1      -5.823  -0.533  -0.528  1.00  0.00     0.009 C 
ATOM     17  C   UNL     1      -7.282  -0.632   1.433  1.00  0.00     0.001 C 
ATOM     18  C   UNL     1      -7.254  -0.285  -0.056  1.00  0.00     0.001 C 
ENDBRANCH  13  14
ENDBRANCH  10  13
ENDBRANCH   8  10
ENDBRANCH   6   8
ENDBRANCH   3   6
ENDBRANCH   1   2
BRANCH   1  19
ATOM     19  C   UNL     1       0.822   1.431   4.608  1.00  0.00     0.042 C 
BRANCH  19  20
ATOM     20  C   UNL     1       0.493   2.413   5.722  1.00  0.00     0.118 C 
BRANCH  20  21
ATOM     21  N   UNL     1      -0.179   1.780   6.851  1.00  0.00    -0.352 N 
ATOM     22  C   UNL     1       0.239   1.615   8.148  1.00  0.00     0.251 C 
ATOM     23  H   UNL     1      -1.071   1.414   6.652  1.00  0.00     0.163 HD
ATOM     24  O   UNL     1      -0.401   0.884   8.904  1.00  0.00    -0.269 OA
BRANCH  22  25
ATOM     25  C   UNL     1       1.461   2.293   8.631  1.00  0.00     0.039 A 
ATOM     26  C   UNL     1       2.344   1.595   9.459  1.00  0.00     0.014 A 
ATOM     27  C   UNL     1       1.737   3.613   8.272  1.00  0.00     0.014 A 
ATOM     28  C   UNL     1       3.536   2.200   9.866  1.00  0.00     0.010 A 
ATOM     29  C   UNL     1       2.970   4.173   8.587  1.00  0.00     0.010 A 
ATOM     30  C   UNL     1       3.877   3.481   9.400  1.00  0.00    -0.014 A 
BRANCH  30  31
ATOM     31  C   UNL     1       5.170   4.121   9.756  1.00  0.00     0.031 A 
ATOM     32  C   UNL     1       5.186   5.426  10.506  1.00  0.00     0.074 A 
ATOM     33  C   UNL     1       6.326   3.572   9.332  1.00  0.00     0.049 A 
ATOM     34  N   UNL     1       6.207   6.165  10.857  1.00  0.00    -0.248 NA
ATOM     35  C   UNL     1       3.881   5.993  10.885  1.00  0.00     0.031 C 
ATOM     36  C   UNL     1       6.443   2.347   8.538  1.00  0.00     0.029 A 
ATOM     37  N   UNL     1       7.625   3.986   9.494  1.00  0.00    -0.354 N 
ATOM     38  C   UNL     1       5.668   7.293  11.464  1.00  0.00     0.074 A 
ATOM     39  C   UNL     1       4.230   7.168  11.386  1.00  0.00     0.031 C 
ATOM     40  C   UNL     1       7.740   2.097   8.303  1.00  0.00     0.029 A 
ATOM     41  C   UNL     1       8.546   3.160   8.893  1.00  0.00     0.049 A 
ATOM     42  H   UNL     1       7.874   4.797   9.994  1.00  0.00     0.167 HD
ATOM     43  C   UNL     1       6.308   8.325  12.065  1.00  0.00     0.034 A 
ATOM     44  C   UNL     1       9.889   3.252   8.823  1.00  0.00     0.034 A 
ATOM     45  C   UNL     1       7.738   8.433  12.165  1.00  0.00     0.049 A 
ATOM     46  C   UNL     1      10.578   4.404   9.501  1.00  0.00     0.074 A 
ATOM     47  C   UNL     1       8.487   9.399  12.812  1.00  0.00     0.029 A 
ATOM     48  N   UNL     1       8.639   7.548  11.591  1.00  0.00    -0.354 N 
ATOM     49  N   UNL     1      10.057   5.388  10.194  1.00  0.00    -0.248 NA
ATOM     50  C   UNL     1      12.045   4.441   9.417  1.00  0.00     0.031 C 
ATOM     51  C   UNL     1       9.841   9.116  12.601  1.00  0.00     0.029 A 
ATOM     52  C   UNL     1       9.936   7.951  11.857  1.00  0.00     0.049 A 
ATOM     53  H   UNL     1       8.392   6.750  11.070  1.00  0.00     0.167 HD
ATOM     54  C   UNL     1      11.131   6.134  10.665  1.00  0.00     0.074 A 
ATOM     55  C   UNL     1      12.333   5.479  10.189  1.00  0.00     0.031 C 
ATOM     56  C   UNL     1      11.124   7.263  11.418  1.00  0.00     0.034 A 
BRANCH  43  57
ATOM     57  C   UNL     1       5.453   9.398  12.695  1.00  0.00     0.023 A 
ATOM     58  C   UNL     1       4.676   9.092  13.833  1.00  0.00     0.012 A 
ATOM     59  C   UNL     1       5.431  10.708  12.180  1.00  0.00     0.148 A 
ATOM     60  C   UNL     1       3.849  10.054  14.412  1.00  0.00     0.002 A 
ATOM     61  C   UNL     1       4.644  11.676  12.795  1.00  0.00     0.091 A 
ATOM     62  F   UNL     1       6.159  10.980  11.088  1.00  0.00    -0.205 F 
ATOM     63  C   UNL     1       3.840  11.347  13.899  1.00  0.00     0.022 A 
BRANCH  61  64
ATOM     64  S   UNL     1       4.628  13.391  12.262  1.00  0.00     0.127 S 
ATOM     65  O   UNL     1       3.311  13.493  11.635  1.00  0.00    -0.237 OA
ATOM     66  O   UNL     1       4.755  14.109  13.531  1.00  0.00    -0.237 OA
ATOM     67  O   UNL     1       5.764  13.542  11.364  1.00  0.00    -0.744 OA
ENDBRANCH  61  64
ENDBRANCH  43  57
BRANCH  44  68
ATOM     68  C   UNL     1      10.675   2.176   8.154  1.00  0.00     0.023 A 
ATOM     69  C   UNL     1      11.471   1.319   8.940  1.00  0.00     0.012 A 
ATOM     70  C   UNL     1      10.621   1.978   6.761  1.00  0.00     0.148 A 
ATOM     71  C   UNL     1      12.224   0.305   8.348  1.00  0.00     0.002 A 
ATOM     72  C   UNL     1      11.331   0.932   6.184  1.00  0.00     0.091 A 
ATOM     73  F   UNL     1       9.861   2.807   6.032  1.00  0.00    -0.205 F 
ATOM     74  C   UNL     1      12.147   0.106   6.972  1.00  0.00     0.022 A 
BRANCH  72  75
ATOM     75  S   UNL     1      11.200   0.519   4.441  1.00  0.00     0.127 S 
ATOM     76  O   UNL     1      12.547   0.813   3.961  1.00  0.00    -0.237 OA
ATOM     77  O   UNL     1      10.861  -0.904   4.495  1.00  0.00    -0.237 OA
ATOM     78  O   UNL     1      10.143   1.369   3.910  1.00  0.00    -0.744 OA
ENDBRANCH  72  75
ENDBRANCH  44  68
BRANCH  56  79
ATOM     79  C   UNL     1      12.455   7.842  11.821  1.00  0.00     0.023 A 
ATOM     80  C   UNL     1      13.275   8.470  10.863  1.00  0.00     0.012 A 
ATOM     81  C   UNL     1      12.861   7.824  13.171  1.00  0.00     0.148 A 
ATOM     82  C   UNL     1      14.493   9.038  11.234  1.00  0.00     0.002 A 
ATOM     83  C   UNL     1      14.049   8.440  13.543  1.00  0.00     0.091 A 
ATOM     84  F   UNL     1      12.076   7.207  14.066  1.00  0.00    -0.205 F 
ATOM     85  C   UNL     1      14.874   9.034  12.574  1.00  0.00     0.022 A 
BRANCH  83  86
ATOM     86  S   UNL     1      14.572   8.572  15.257  1.00  0.00     0.127 S 
ATOM     87  O   UNL     1      15.712   7.658  15.292  1.00  0.00    -0.237 OA
ATOM     88  O   UNL     1      14.922   9.989  15.363  1.00  0.00    -0.237 OA
ATOM     89  O   UNL     1      13.425   8.171  16.060  1.00  0.00    -0.744 OA
ENDBRANCH  83  86
ENDBRANCH  56  79
ENDBRANCH  30  31
ENDBRANCH  22  25
ENDBRANCH  20  21
ENDBRANCH  19  20
ENDBRANCH   1  19
TORSDOF 17
