REMARK SMILES O=C(NCCCNC(=O)[C@H]1CC[C@@H](CNc2ncccn2)O1)c1ccc(-c2c3nc(c(-c4cccc(S(=O)(=O)[O-])c4F)c4ccc([nH]4)c(-c4cccc(S(=O)(=O)[O-])c4F)c4nc(c(-c5cccc(S(=O)(=O)[O-])c5F)c5ccc2[nH]5)C=C4)C=C3)cc1
REMARK SMILES IDX 5 1 4 2 3 3 1 4 2 5 23 7 24 8 85 9 25 10 84 11 26 12 27 13
REMARK SMILES IDX 28 14 78 15 29 16 83 17 77 18 79 19 30 20 82 21 76 22 75 23
REMARK SMILES IDX 31 25 63 26 43 27 62 28 44 29 47 30 61 31 80 32 45 33 46 34
REMARK SMILES IDX 60 36 81 37 48 38 32 39 33 40 41 41 34 42 36 43 42 44 35 45
REMARK SMILES IDX 37 46 38 47 39 48 40 49 64 50 65 51 73 52 66 53 68 54 74 55
REMARK SMILES IDX 67 56 69 57 70 58 71 59 72 60 49 61 50 62 58 63 51 64 53 65
REMARK SMILES IDX 59 66 52 67 54 68 55 69 56 70 57 71 6 72 7 73 8 74 9 76
REMARK SMILES IDX 10 77 11 78 22 79 12 80 13 81 14 82 15 83 16 85 17 86 21 87
REMARK SMILES IDX 18 88 20 89 19 90
REMARK H PARENT 3 6 79 24 47 35 7 75 15 84
REMARK Flexibility Score: inf
ROOT
ATOM      1  C   UNL     1       4.013  -1.475   7.676  1.00  0.00     0.042 C 
ENDROOT
BRANCH   1   2
ATOM      2  C   UNL     1       2.960  -1.800   8.722  1.00  0.00     0.118 C 
BRANCH   2   3
ATOM      3  N   UNL     1       3.529  -1.849  10.062  1.00  0.00    -0.352 N 
ATOM      4  O   UNL     1       3.937  -1.220  12.180  1.00  0.00    -0.269 OA
ATOM      5  C   UNL     1       3.230  -1.118  11.186  1.00  0.00     0.251 C 
ATOM      6  H   UNL     1       4.245  -2.514  10.182  1.00  0.00     0.163 HD
BRANCH   5   7
ATOM      7  C   UNL     1       2.079  -0.188  11.175  1.00  0.00     0.039 A 
ATOM      8  C   UNL     1       0.856  -0.563  10.615  1.00  0.00     0.014 A 
ATOM      9  C   UNL     1       2.233   1.081  11.741  1.00  0.00     0.014 A 
ATOM     10  C   UNL     1      -0.163   0.374  10.486  1.00  0.00     0.010 A 
ATOM     11  C   UNL     1       1.176   1.992  11.692  1.00  0.00     0.010 A 
ATOM     12  C   UNL     1      -0.018   1.656  11.036  1.00  0.00    -0.014 A 
BRANCH  12  13
ATOM     13  C   UNL     1      -1.147   2.617  10.986  1.00  0.00     0.031 A 
ATOM     14  C   UNL     1      -1.017   3.923  10.257  1.00  0.00     0.074 A 
ATOM     15  C   UNL     1      -2.279   2.317  11.653  1.00  0.00     0.049 A 
ATOM     16  N   UNL     1      -1.868   4.913  10.186  1.00  0.00    -0.248 NA
ATOM     17  C   UNL     1       0.236   4.156   9.521  1.00  0.00     0.031 C 
ATOM     18  C   UNL     1      -2.497   1.093  12.426  1.00  0.00     0.029 A 
ATOM     19  N   UNL     1      -3.442   3.024  11.812  1.00  0.00    -0.354 N 
ATOM     20  C   UNL     1      -1.238   5.906   9.447  1.00  0.00     0.074 A 
ATOM     21  C   UNL     1       0.069   5.398   9.087  1.00  0.00     0.031 C 
ATOM     22  C   UNL     1      -3.716   1.134  12.980  1.00  0.00     0.029 A 
ATOM     23  C   UNL     1      -4.341   2.410  12.652  1.00  0.00     0.049 A 
ATOM     24  H   UNL     1      -3.618   3.885  11.369  1.00  0.00     0.167 HD
ATOM     25  C   UNL     1      -1.712   7.125   9.092  1.00  0.00     0.034 A 
ATOM     26  C   UNL     1      -5.522   2.836  13.137  1.00  0.00     0.034 A 
ATOM     27  C   UNL     1      -3.030   7.599   9.421  1.00  0.00     0.049 A 
ATOM     28  C   UNL     1      -6.040   4.176  12.704  1.00  0.00     0.074 A 
ATOM     29  C   UNL     1      -3.635   8.786   9.047  1.00  0.00     0.029 A 
ATOM     30  N   UNL     1      -3.945   6.913  10.206  1.00  0.00    -0.354 N 
ATOM     31  N   UNL     1      -5.480   5.051  11.905  1.00  0.00    -0.248 NA
ATOM     32  C   UNL     1      -7.358   4.577  13.211  1.00  0.00     0.031 C 
ATOM     33  C   UNL     1      -4.911   8.823   9.620  1.00  0.00     0.029 A 
ATOM     34  C   UNL     1      -5.108   7.652  10.335  1.00  0.00     0.049 A 
ATOM     35  H   UNL     1      -3.790   6.029  10.611  1.00  0.00     0.167 HD
ATOM     36  C   UNL     1      -6.386   6.096  11.790  1.00  0.00     0.074 A 
ATOM     37  C   UNL     1      -7.540   5.737  12.592  1.00  0.00     0.031 C 
ATOM     38  C   UNL     1      -6.267   7.253  11.093  1.00  0.00     0.034 A 
BRANCH  25  39
ATOM     39  C   UNL     1      -0.811   8.018   8.279  1.00  0.00     0.023 A 
ATOM     40  C   UNL     1      -0.585   7.728   6.919  1.00  0.00     0.012 A 
ATOM     41  C   UNL     1      -0.227   9.168   8.845  1.00  0.00     0.148 A 
ATOM     42  C   UNL     1       0.235   8.548   6.144  1.00  0.00     0.002 A 
ATOM     43  C   UNL     1       0.559  10.002   8.056  1.00  0.00     0.091 A 
ATOM     44  F   UNL     1      -0.430   9.419  10.147  1.00  0.00    -0.205 F 
ATOM     45  C   UNL     1       0.799   9.688   6.709  1.00  0.00     0.022 A 
BRANCH  43  46
ATOM     46  S   UNL     1       1.262  11.529   8.690  1.00  0.00     0.127 S 
ATOM     47  O   UNL     1       2.628  11.117   9.008  1.00  0.00    -0.237 OA
ATOM     48  O   UNL     1       1.151  12.430   7.542  1.00  0.00    -0.237 OA
ATOM     49  O   UNL     1       0.429  11.901   9.826  1.00  0.00    -0.744 OA
ENDBRANCH  43  46
ENDBRANCH  25  39
BRANCH  26  50
ATOM     50  C   UNL     1      -6.289   1.946  14.050  1.00  0.00     0.023 A 
ATOM     51  C   UNL     1      -7.440   1.292  13.575  1.00  0.00     0.012 A 
ATOM     52  C   UNL     1      -5.815   1.654  15.346  1.00  0.00     0.148 A 
ATOM     53  C   UNL     1      -8.110   0.365  14.375  1.00  0.00     0.002 A 
ATOM     54  C   UNL     1      -6.452   0.688  16.114  1.00  0.00     0.091 A 
ATOM     55  F   UNL     1      -4.721   2.296  15.780  1.00  0.00    -0.205 F 
ATOM     56  C   UNL     1      -7.608   0.052  15.636  1.00  0.00     0.022 A 
BRANCH  54  57
ATOM     57  S   UNL     1      -5.787   0.109  17.680  1.00  0.00     0.127 S 
ATOM     58  O   UNL     1      -6.760   0.638  18.631  1.00  0.00    -0.237 OA
ATOM     59  O   UNL     1      -5.824  -1.344  17.504  1.00  0.00    -0.237 OA
ATOM     60  O   UNL     1      -4.446   0.668  17.769  1.00  0.00    -0.744 OA
ENDBRANCH  54  57
ENDBRANCH  26  50
BRANCH  38  61
ATOM     61  C   UNL     1      -7.425   8.212  11.132  1.00  0.00     0.023 A 
ATOM     62  C   UNL     1      -7.630   9.010  12.274  1.00  0.00     0.012 A 
ATOM     63  C   UNL     1      -8.241   8.395   9.999  1.00  0.00     0.148 A 
ATOM     64  C   UNL     1      -8.643   9.968  12.293  1.00  0.00     0.002 A 
ATOM     65  C   UNL     1      -9.220   9.380  10.010  1.00  0.00     0.091 A 
ATOM     66  F   UNL     1      -8.038   7.609   8.932  1.00  0.00    -0.205 F 
ATOM     67  C   UNL     1      -9.428  10.162  11.158  1.00  0.00     0.022 A 
BRANCH  65  68
ATOM     68  S   UNL     1     -10.216   9.762   8.564  1.00  0.00     0.127 S 
ATOM     69  O   UNL     1     -11.524   9.242   8.958  1.00  0.00    -0.237 OA
ATOM     70  O   UNL     1     -10.131  11.222   8.506  1.00  0.00    -0.237 OA
ATOM     71  O   UNL     1      -9.582   9.076   7.447  1.00  0.00    -0.744 OA
ENDBRANCH  65  68
ENDBRANCH  38  61
ENDBRANCH  12  13
ENDBRANCH   5   7
ENDBRANCH   2   3
ENDBRANCH   1   2
BRANCH   1  72
ATOM     72  C   UNL     1       4.992  -2.623   7.476  1.00  0.00     0.117 C 
BRANCH  72  73
ATOM     73  N   UNL     1       4.528  -3.562   6.479  1.00  0.00    -0.354 N 
ATOM     74  C   UNL     1       5.166  -3.984   5.350  1.00  0.00     0.249 C 
ATOM     75  H   UNL     1       3.636  -3.947   6.636  1.00  0.00     0.163 HD
ATOM     76  O   UNL     1       4.607  -4.840   4.657  1.00  0.00    -0.272 OA
BRANCH  74  77
ATOM     77  C   UNL     1       6.535  -3.406   4.943  1.00  0.00     0.207 C 
ATOM     78  C   UNL     1       6.540  -1.915   4.621  1.00  0.00     0.045 C 
ATOM     79  O   UNL     1       7.544  -3.641   5.928  1.00  0.00    -0.363 OA
ATOM     80  C   UNL     1       7.686  -1.334   5.430  1.00  0.00     0.037 C 
ATOM     81  C   UNL     1       8.476  -2.553   5.883  1.00  0.00     0.138 C 
BRANCH  81  82
ATOM     82  C   UNL     1       9.237  -2.405   7.216  1.00  0.00     0.148 C 
BRANCH  82  83
ATOM     83  N   UNL     1       8.366  -2.157   8.344  1.00  0.00    -0.352 N 
ATOM     84  H   UNL     1       7.946  -1.270   8.419  1.00  0.00     0.163 HD
BRANCH  83  85
ATOM     85  C   UNL     1       8.092  -3.082   9.313  1.00  0.00     0.222 A 
ATOM     86  N   UNL     1       7.099  -2.752  10.154  1.00  0.00    -0.222 NA
ATOM     87  N   UNL     1       8.796  -4.217   9.407  1.00  0.00    -0.222 NA
ATOM     88  C   UNL     1       6.816  -3.619  11.148  1.00  0.00     0.117 A 
ATOM     89  C   UNL     1       8.473  -5.056  10.411  1.00  0.00     0.117 A 
ATOM     90  C   UNL     1       7.478  -4.806  11.323  1.00  0.00     0.040 A 
ENDBRANCH  83  85
ENDBRANCH  82  83
ENDBRANCH  81  82
ENDBRANCH  74  77
ENDBRANCH  72  73
ENDBRANCH   1  72
TORSDOF 16
