REMARK SMILES CCCN1CCC[C@@]2(CCN(c3ccc(C(=O)NCCCNC(=O)c4ccc(-c5c6nc(c(-c7cccc(S(=O)(=O)[O-])c7F)c7ccc([nH]7)c(-c7cccc(S(=O)(=O)[O-])c7F)c7nc(c(-c8cccc(S(=O)(=O)[O-])c8F)c8ccc5[nH]8)C=C7)C=C6)cc4)cn3)C2)C1=O
REMARK SMILES IDX 20 1 19 2 18 3 16 4 17 5 15 7 12 8 13 9 89 10 14 11 88 12
REMARK SMILES IDX 11 13 4 14 5 15 91 16 6 17 8 18 92 19 7 20 9 21 90 22 10 23
REMARK SMILES IDX 3 24 2 25 1 26 21 27 22 28 23 29 24 31 25 32 26 33 87 34
REMARK SMILES IDX 27 35 86 36 28 37 29 38 30 39 80 40 31 41 85 42 79 43 81 44
REMARK SMILES IDX 32 45 84 46 78 47 77 48 33 50 65 51 45 52 64 53 46 54 49 55
REMARK SMILES IDX 63 56 82 57 47 58 48 59 62 61 83 62 50 63 34 64 35 65 43 66
REMARK SMILES IDX 36 67 38 68 44 69 37 70 39 71 40 72 41 73 42 74 66 75 67 76
REMARK SMILES IDX 75 77 68 78 70 79 76 80 69 81 71 82 72 83 73 84 74 85 51 86
REMARK SMILES IDX 52 87 60 88 53 89 55 90 61 91 54 92 56 93 57 94 58 95 59 96
REMARK H PARENT 18 6 22 30 81 49 49 60
REMARK Flexibility Score: inf
ROOT
ATOM      1  C   UNL     1       5.797   7.592   9.047  1.00  0.00     0.042 C 
ENDROOT
BRANCH   1   2
ATOM      2  C   UNL     1       5.898   6.072   8.916  1.00  0.00     0.118 C 
BRANCH   2   3
ATOM      3  N   UNL     1       5.064   5.387   9.890  1.00  0.00    -0.352 N 
ATOM      4  C   UNL     1       3.813   4.827   9.808  1.00  0.00     0.252 C 
ATOM      5  O   UNL     1       3.407   4.204  10.790  1.00  0.00    -0.269 OA
ATOM      6  H   UNL     1       5.476   5.311  10.781  1.00  0.00     0.163 HD
BRANCH   4   7
ATOM      7  C   UNL     1       2.955   4.899   8.600  1.00  0.00     0.058 A 
ATOM      8  C   UNL     1       1.240   4.789   6.410  1.00  0.00     0.128 A 
ATOM      9  C   UNL     1       2.233   5.759   6.475  1.00  0.00     0.048 A 
ATOM     10  N   UNL     1       1.057   3.914   7.416  1.00  0.00    -0.239 NA
ATOM     11  C   UNL     1       3.065   5.840   7.587  1.00  0.00     0.019 A 
ATOM     12  C   UNL     1       1.918   3.978   8.472  1.00  0.00     0.127 A 
BRANCH   8  13
ATOM     13  N   UNL     1       0.448   4.748   5.295  1.00  0.00    -0.356 N 
ATOM     14  N   UNL     1       0.610   2.066   1.990  1.00  0.00    -0.342 N 
ATOM     15  C   UNL     1       0.974   2.760   0.764  1.00  0.00     0.119 C 
ATOM     16  C   UNL     1      -0.315   2.622   2.870  1.00  0.00     0.230 C 
ATOM     17  C   UNL     1       1.188   4.250   0.963  1.00  0.00     0.023 C 
ATOM     18  C   UNL     1      -0.174   4.136   3.078  1.00  0.00     0.069 C 
ATOM     19  O   UNL     1      -1.093   1.931   3.525  1.00  0.00    -0.274 OA
ATOM     20  C   UNL     1       0.015   4.851   1.734  1.00  0.00     0.021 C 
ATOM     21  C   UNL     1      -1.362   4.704   3.882  1.00  0.00     0.040 C 
ATOM     22  C   UNL     1       1.037   4.376   4.017  1.00  0.00     0.135 C 
ATOM     23  C   UNL     1      -0.966   4.454   5.342  1.00  0.00     0.119 C 
BRANCH  14  24
ATOM     24  C   UNL     1       0.991   0.667   2.168  1.00  0.00     0.119 C 
BRANCH  24  25
ATOM     25  C   UNL     1       0.270  -0.344   1.279  1.00  0.00     0.018 C 
ATOM     26  C   UNL     1       0.810  -0.398  -0.142  1.00  0.00     0.006 C 
ENDBRANCH  24  25
ENDBRANCH  14  24
ENDBRANCH   8  13
ENDBRANCH   4   7
ENDBRANCH   2   3
ENDBRANCH   1   2
BRANCH   1  27
ATOM     27  C   UNL     1       6.580   8.159  10.229  1.00  0.00     0.118 C 
BRANCH  27  28
ATOM     28  N   UNL     1       8.016   7.996  10.053  1.00  0.00    -0.352 N 
ATOM     29  C   UNL     1       9.025   8.924  10.067  1.00  0.00     0.251 C 
ATOM     30  H   UNL     1       8.310   7.069   9.900  1.00  0.00     0.163 HD
ATOM     31  O   UNL     1      10.138   8.590   9.665  1.00  0.00    -0.269 OA
BRANCH  29  32
ATOM     32  C   UNL     1       8.800  10.303  10.555  1.00  0.00     0.039 A 
ATOM     33  C   UNL     1       9.487  11.350   9.931  1.00  0.00     0.014 A 
ATOM     34  C   UNL     1       7.985  10.571  11.659  1.00  0.00     0.014 A 
ATOM     35  C   UNL     1       9.335  12.659  10.392  1.00  0.00     0.010 A 
ATOM     36  C   UNL     1       7.777  11.886  12.072  1.00  0.00     0.010 A 
ATOM     37  C   UNL     1       8.463  12.942  11.456  1.00  0.00    -0.014 A 
BRANCH  37  38
ATOM     38  C   UNL     1       8.265  14.337  11.925  1.00  0.00     0.031 A 
ATOM     39  C   UNL     1       8.678  14.748  13.313  1.00  0.00     0.074 A 
ATOM     40  C   UNL     1       7.654  15.224  11.114  1.00  0.00     0.049 A 
ATOM     41  N   UNL     1       8.594  15.922  13.883  1.00  0.00    -0.248 NA
ATOM     42  C   UNL     1       9.235  13.700  14.183  1.00  0.00     0.031 C 
ATOM     43  C   UNL     1       7.128  14.923   9.781  1.00  0.00     0.029 A 
ATOM     44  N   UNL     1       7.358  16.551  11.297  1.00  0.00    -0.354 N 
ATOM     45  C   UNL     1       9.054  15.749  15.183  1.00  0.00     0.074 A 
ATOM     46  C   UNL     1       9.382  14.348  15.330  1.00  0.00     0.031 C 
ATOM     47  C   UNL     1       6.588  16.036   9.260  1.00  0.00     0.029 A 
ATOM     48  C   UNL     1       6.711  17.123  10.227  1.00  0.00     0.049 A 
ATOM     49  H   UNL     1       7.587  17.047  12.116  1.00  0.00     0.167 HD
ATOM     50  C   UNL     1       9.220  16.677  16.157  1.00  0.00     0.034 A 
ATOM     51  C   UNL     1       6.273  18.384  10.040  1.00  0.00     0.034 A 
ATOM     52  C   UNL     1       8.934  18.077  15.990  1.00  0.00     0.049 A 
ATOM     53  C   UNL     1       6.529  19.409  11.110  1.00  0.00     0.074 A 
ATOM     54  C   UNL     1       9.151  19.113  16.881  1.00  0.00     0.029 A 
ATOM     55  N   UNL     1       8.365  18.637  14.857  1.00  0.00    -0.354 N 
ATOM     56  N   UNL     1       7.123  19.261  12.270  1.00  0.00    -0.248 NA
ATOM     57  C   UNL     1       6.096  20.785  10.829  1.00  0.00     0.031 C 
ATOM     58  C   UNL     1       8.698  20.298  16.292  1.00  0.00     0.029 A 
ATOM     59  C   UNL     1       8.218  20.004  15.025  1.00  0.00     0.049 A 
ATOM     60  H   UNL     1       8.103  18.137  14.051  1.00  0.00     0.167 HD
ATOM     61  C   UNL     1       7.169  20.527  12.840  1.00  0.00     0.074 A 
ATOM     62  C   UNL     1       6.559  21.434  11.889  1.00  0.00     0.031 C 
ATOM     63  C   UNL     1       7.660  20.902  14.048  1.00  0.00     0.034 A 
BRANCH  50  64
ATOM     64  C   UNL     1       9.793  16.214  17.473  1.00  0.00     0.023 A 
ATOM     65  C   UNL     1      11.150  15.835  17.543  1.00  0.00     0.012 A 
ATOM     66  C   UNL     1       9.013  16.199  18.646  1.00  0.00     0.148 A 
ATOM     67  C   UNL     1      11.710  15.410  18.747  1.00  0.00     0.002 A 
ATOM     68  C   UNL     1       9.591  15.817  19.852  1.00  0.00     0.091 A 
ATOM     69  F   UNL     1       7.720  16.541  18.560  1.00  0.00    -0.205 F 
ATOM     70  C   UNL     1      10.934  15.411  19.902  1.00  0.00     0.022 A 
BRANCH  68  71
ATOM     71  S   UNL     1       8.695  15.860  21.409  1.00  0.00     0.127 S 
ATOM     72  O   UNL     1       8.444  14.440  21.645  1.00  0.00    -0.237 OA
ATOM     73  O   UNL     1       9.674  16.464  22.314  1.00  0.00    -0.237 OA
ATOM     74  O   UNL     1       7.514  16.677  21.166  1.00  0.00    -0.744 OA
ENDBRANCH  68  71
ENDBRANCH  50  64
BRANCH  51  75
ATOM     75  C   UNL     1       5.641  18.760   8.745  1.00  0.00     0.023 A 
ATOM     76  C   UNL     1       6.352  19.577   7.844  1.00  0.00     0.012 A 
ATOM     77  C   UNL     1       4.373  18.272   8.375  1.00  0.00     0.148 A 
ATOM     78  C   UNL     1       5.801  19.923   6.610  1.00  0.00     0.002 A 
ATOM     79  C   UNL     1       3.854  18.575   7.122  1.00  0.00     0.091 A 
ATOM     80  F   UNL     1       3.709  17.503   9.250  1.00  0.00    -0.205 F 
ATOM     81  C   UNL     1       4.559  19.413   6.244  1.00  0.00     0.022 A 
BRANCH  79  82
ATOM     82  S   UNL     1       2.327  17.852   6.510  1.00  0.00     0.127 S 
ATOM     83  O   UNL     1       1.426  19.000   6.521  1.00  0.00    -0.237 OA
ATOM     84  O   UNL     1       2.723  17.390   5.179  1.00  0.00    -0.237 OA
ATOM     85  O   UNL     1       2.000  16.779   7.442  1.00  0.00    -0.744 OA
ENDBRANCH  79  82
ENDBRANCH  51  75
BRANCH  63  86
ATOM     86  C   UNL     1       7.593  22.364  14.403  1.00  0.00     0.023 A 
ATOM     87  C   UNL     1       6.355  22.948  14.736  1.00  0.00     0.012 A 
ATOM     88  C   UNL     1       8.767  23.140  14.479  1.00  0.00     0.148 A 
ATOM     89  C   UNL     1       6.282  24.290  15.108  1.00  0.00     0.002 A 
ATOM     90  C   UNL     1       8.692  24.463  14.896  1.00  0.00     0.091 A 
ATOM     91  F   UNL     1       9.933  22.572  14.138  1.00  0.00    -0.205 F 
ATOM     92  C   UNL     1       7.450  25.044  15.200  1.00  0.00     0.022 A 
BRANCH  90  93
ATOM     93  S   UNL     1      10.156  25.477  15.134  1.00  0.00     0.127 S 
ATOM     94  O   UNL     1      10.111  26.346  13.959  1.00  0.00    -0.237 OA
ATOM     95  O   UNL     1       9.869  26.150  16.401  1.00  0.00    -0.237 OA
ATOM     96  O   UNL     1      11.279  24.549  15.186  1.00  0.00    -0.744 OA
ENDBRANCH  90  93
ENDBRANCH  63  86
ENDBRANCH  37  38
ENDBRANCH  29  32
ENDBRANCH  27  28
ENDBRANCH   1  27
TORSDOF 16
