REMARK SMILES Cc1ccc(Br)cc1S(=O)(=O)N[C@H]1C=C[C@H](C(=O)NCCCNC(=O)c2ccc(-c3c4nc(c(-c5cccc(S(=O)(=O)[O-])c5F)c5ccc([nH]5)c(-c5cccc(S(=O)(=O)[O-])c5F)c5nc(c(-c6cccc(S(=O)(=O)[O-])c6F)c6ccc3[nH]6)C=C5)C=C4)cc2)C1
REMARK SMILES IDX 21 1 20 2 19 3 17 4 18 5 16 7 13 8 14 9 89 10 15 11 12 12
REMARK SMILES IDX 9 14 10 15 11 16 8 17 1 18 2 19 3 20 4 21 7 22 5 23 6 24
REMARK SMILES IDX 22 25 23 26 24 27 25 29 26 30 27 31 88 32 28 33 87 34 29 35
REMARK SMILES IDX 30 36 31 37 81 38 32 39 86 40 80 41 82 42 33 43 85 44 79 45
REMARK SMILES IDX 78 46 34 48 66 49 46 50 65 51 47 52 50 53 64 54 83 55 48 56
REMARK SMILES IDX 49 57 63 59 84 60 51 61 35 62 36 63 44 64 37 65 39 66 45 67
REMARK SMILES IDX 38 68 40 69 41 70 42 71 43 72 67 73 68 74 76 75 69 76 71 77
REMARK SMILES IDX 77 78 70 79 72 80 73 81 74 82 75 83 52 84 53 85 61 86 54 87
REMARK SMILES IDX 56 88 62 89 55 90 57 91 58 92 59 93 60 94
REMARK H PARENT 19 6 12 13 23 28 82 47 50 58
REMARK Flexibility Score: inf
ROOT
ATOM      1  C   UNL     1       3.396   1.333  -4.533  1.00  0.00     0.042 C 
ENDROOT
BRANCH   1   2
ATOM      2  C   UNL     1       3.243   0.016  -3.784  1.00  0.00     0.117 C 
BRANCH   2   3
ATOM      3  N   UNL     1       4.353  -0.887  -4.038  1.00  0.00    -0.356 N 
ATOM      4  C   UNL     1       5.521  -1.171  -3.416  1.00  0.00     0.226 C 
ATOM      5  O   UNL     1       6.279  -1.933  -4.033  1.00  0.00    -0.274 OA
ATOM      6  H   UNL     1       4.224  -1.420  -4.856  1.00  0.00     0.163 HD
BRANCH   4   7
ATOM      7  C   UNL     1       5.975  -0.627  -2.058  1.00  0.00     0.103 C 
ATOM      8  C   UNL     1       4.993   1.421  -1.169  1.00  0.00     0.093 C 
ATOM      9  C   UNL     1       6.397   1.648  -1.630  1.00  0.00    -0.011 C 
ATOM     10  C   UNL     1       4.960  -0.110  -1.054  1.00  0.00     0.042 C 
ATOM     11  C   UNL     1       6.918   0.535  -2.165  1.00  0.00    -0.016 C 
BRANCH   8  12
ATOM     12  N   UNL     1       4.757   2.020   0.132  1.00  0.00    -0.204 NA
ATOM     13  H   UNL     1       4.986   1.316   0.834  1.00  0.00     0.142 HD
BRANCH  12  14
ATOM     14  S   UNL     1       3.209   2.590   0.486  1.00  0.00     0.241 S 
ATOM     15  O   UNL     1       2.778   3.357  -0.668  1.00  0.00    -0.207 OA
ATOM     16  O   UNL     1       3.255   3.162   1.804  1.00  0.00    -0.207 OA
BRANCH  14  17
ATOM     17  C   UNL     1       2.183   1.131   0.578  1.00  0.00     0.086 A 
ATOM     18  C   UNL     1       3.715  -0.118   2.242  1.00  0.00     0.046 C 
ATOM     19  C   UNL     1       2.531  -0.012   1.322  1.00  0.00    -0.031 A 
ATOM     20  C   UNL     1       1.696  -1.143   1.232  1.00  0.00     0.006 A 
ATOM     21  C   UNL     1       0.523  -1.122   0.474  1.00  0.00     0.016 A 
ATOM     22  C   UNL     1       0.988   1.157  -0.166  1.00  0.00     0.037 A 
ATOM     23  C   UNL     1       0.163   0.037  -0.202  1.00  0.00     0.019 A 
ATOM     24  Br  UNL     1      -1.460   0.091  -1.167  1.00  0.00    -0.051 Br
ENDBRANCH  14  17
ENDBRANCH  12  14
ENDBRANCH   8  12
ENDBRANCH   4   7
ENDBRANCH   2   3
ENDBRANCH   1   2
BRANCH   1  25
ATOM     25  C   UNL     1       3.233   1.182  -6.040  1.00  0.00     0.118 C 
BRANCH  25  26
ATOM     26  N   UNL     1       1.877   0.793  -6.413  1.00  0.00    -0.352 N 
ATOM     27  C   UNL     1       0.938   1.471  -7.151  1.00  0.00     0.251 C 
ATOM     28  H   UNL     1       1.591  -0.090  -6.085  1.00  0.00     0.163 HD
ATOM     29  O   UNL     1      -0.221   1.067  -7.173  1.00  0.00    -0.269 OA
BRANCH  27  30
ATOM     30  C   UNL     1       1.320   2.681  -7.909  1.00  0.00     0.039 A 
ATOM     31  C   UNL     1       0.456   3.780  -7.925  1.00  0.00     0.014 A 
ATOM     32  C   UNL     1       2.519   2.723  -8.623  1.00  0.00     0.014 A 
ATOM     33  C   UNL     1       0.825   4.940  -8.611  1.00  0.00     0.010 A 
ATOM     34  C   UNL     1       2.926   3.907  -9.225  1.00  0.00     0.010 A 
ATOM     35  C   UNL     1       2.076   5.023  -9.242  1.00  0.00    -0.014 A 
BRANCH  35  36
ATOM     36  C   UNL     1       2.519   6.251  -9.949  1.00  0.00     0.031 A 
ATOM     37  C   UNL     1       2.831   6.195 -11.422  1.00  0.00     0.074 A 
ATOM     38  C   UNL     1       2.751   7.378  -9.249  1.00  0.00     0.049 A 
ATOM     39  N   UNL     1       3.337   7.120 -12.194  1.00  0.00    -0.248 NA
ATOM     40  C   UNL     1       2.580   4.916 -12.109  1.00  0.00     0.031 C 
ATOM     41  C   UNL     1       2.577   7.530  -7.803  1.00  0.00     0.029 A 
ATOM     42  N   UNL     1       3.214   8.604  -9.657  1.00  0.00    -0.354 N 
ATOM     43  C   UNL     1       3.521   6.520 -13.434  1.00  0.00     0.074 A 
ATOM     44  C   UNL     1       3.100   5.143 -13.306  1.00  0.00     0.031 C 
ATOM     45  C   UNL     1       2.921   8.778  -7.446  1.00  0.00     0.029 A 
ATOM     46  C   UNL     1       3.363   9.508  -8.631  1.00  0.00     0.049 A 
ATOM     47  H   UNL     1       3.421   8.817 -10.596  1.00  0.00     0.167 HD
ATOM     48  C   UNL     1       3.966   7.073 -14.587  1.00  0.00     0.034 A 
ATOM     49  C   UNL     1       3.803  10.781  -8.645  1.00  0.00     0.034 A 
ATOM     50  C   UNL     1       4.294   8.465 -14.732  1.00  0.00     0.049 A 
ATOM     51  C   UNL     1       4.193  11.401  -9.959  1.00  0.00     0.074 A 
ATOM     52  C   UNL     1       4.637   9.154 -15.881  1.00  0.00     0.029 A 
ATOM     53  N   UNL     1       4.308   9.383 -13.693  1.00  0.00    -0.354 N 
ATOM     54  N   UNL     1       4.202  10.863 -11.155  1.00  0.00    -0.248 NA
ATOM     55  C   UNL     1       4.596  12.815  -9.934  1.00  0.00     0.031 C 
ATOM     56  C   UNL     1       4.859  10.492 -15.536  1.00  0.00     0.029 A 
ATOM     57  C   UNL     1       4.649  10.634 -14.173  1.00  0.00     0.049 A 
ATOM     58  H   UNL     1       4.104   9.175 -12.753  1.00  0.00     0.167 HD
ATOM     59  C   UNL     1       4.578  11.876 -12.027  1.00  0.00     0.074 A 
ATOM     60  C   UNL     1       4.767  13.068 -11.225  1.00  0.00     0.031 C 
ATOM     61  C   UNL     1       4.769  11.822 -13.368  1.00  0.00     0.034 A 
BRANCH  48  62
ATOM     62  C   UNL     1       4.047   6.188 -15.803  1.00  0.00     0.023 A 
ATOM     63  C   UNL     1       2.858   5.776 -16.439  1.00  0.00     0.012 A 
ATOM     64  C   UNL     1       5.289   5.801 -16.343  1.00  0.00     0.148 A 
ATOM     65  C   UNL     1       2.901   4.965 -17.572  1.00  0.00     0.002 A 
ATOM     66  C   UNL     1       5.325   5.026 -17.498  1.00  0.00     0.091 A 
ATOM     67  F   UNL     1       6.410   6.180 -15.712  1.00  0.00    -0.205 F 
ATOM     68  C   UNL     1       4.133   4.598 -18.106  1.00  0.00     0.022 A 
BRANCH  66  69
ATOM     69  S   UNL     1       6.863   4.565 -18.304  1.00  0.00     0.127 S 
ATOM     70  O   UNL     1       6.985   3.158 -17.927  1.00  0.00    -0.237 OA
ATOM     71  O   UNL     1       6.554   4.793 -19.716  1.00  0.00    -0.237 OA
ATOM     72  O   UNL     1       7.879   5.454 -17.758  1.00  0.00    -0.744 OA
ENDBRANCH  66  69
ENDBRANCH  48  62
BRANCH  49  73
ATOM     73  C   UNL     1       3.799  11.581  -7.388  1.00  0.00     0.023 A 
ATOM     74  C   UNL     1       2.833  12.594  -7.227  1.00  0.00     0.012 A 
ATOM     75  C   UNL     1       4.705  11.324  -6.341  1.00  0.00     0.148 A 
ATOM     76  C   UNL     1       2.785  13.354  -6.059  1.00  0.00     0.002 A 
ATOM     77  C   UNL     1       4.620  12.052  -5.159  1.00  0.00     0.091 A 
ATOM     78  F   UNL     1       5.627  10.367  -6.517  1.00  0.00    -0.205 F 
ATOM     79  C   UNL     1       3.670  13.076  -5.021  1.00  0.00     0.022 A 
BRANCH  77  80
ATOM     80  S   UNL     1       5.638  11.673  -3.728  1.00  0.00     0.127 S 
ATOM     81  O   UNL     1       6.638  12.737  -3.781  1.00  0.00    -0.237 OA
ATOM     82  O   UNL     1       4.679  11.785  -2.628  1.00  0.00    -0.237 OA
ATOM     83  O   UNL     1       6.132  10.321  -3.953  1.00  0.00    -0.744 OA
ENDBRANCH  77  80
ENDBRANCH  49  73
BRANCH  61  84
ATOM     84  C   UNL     1       5.180  13.090 -14.066  1.00  0.00     0.023 A 
ATOM     85  C   UNL     1       6.505  13.551 -13.942  1.00  0.00     0.012 A 
ATOM     86  C   UNL     1       4.283  13.774 -14.909  1.00  0.00     0.148 A 
ATOM     87  C   UNL     1       6.925  14.689 -14.629  1.00  0.00     0.002 A 
ATOM     88  C   UNL     1       4.721  14.882 -15.625  1.00  0.00     0.091 A 
ATOM     89  F   UNL     1       3.020  13.331 -14.996  1.00  0.00    -0.205 F 
ATOM     90  C   UNL     1       6.038  15.346 -15.479  1.00  0.00     0.022 A 
BRANCH  88  91
ATOM     91  S   UNL     1       3.669  15.728 -16.810  1.00  0.00     0.127 S 
ATOM     92  O   UNL     1       3.254  16.907 -16.053  1.00  0.00    -0.237 OA
ATOM     93  O   UNL     1       4.593  16.005 -17.911  1.00  0.00    -0.237 OA
ATOM     94  O   UNL     1       2.609  14.785 -17.141  1.00  0.00    -0.744 OA
ENDBRANCH  88  91
ENDBRANCH  61  84
ENDBRANCH  35  36
ENDBRANCH  27  30
ENDBRANCH  25  26
ENDBRANCH   1  25
TORSDOF 16
