REMARK SMILES O=C(NCCCNC(=O)[C@@H](Cc1ccccc1)N1C(=O)/C(=C/c2ccncc2)SC1=S)c1ccc(-c2c3nc(c(-c4cccc(S(=O)(=O)[O-])c4F)c4ccc([nH]4)c(-c4cccc(S(=O)(=O)[O-])c4F)c4nc(c(-c5cccc(S(=O)(=O)[O-])c5F)c5ccc2[nH]5)C=C4)C=C3)cc1
REMARK SMILES IDX 4 1 3 2 1 3 2 4 32 6 33 7 94 8 34 9 93 10 35 11 36 12 37 13
REMARK SMILES IDX 87 14 38 15 92 16 86 17 88 18 39 19 91 20 85 21 84 22 40 24
REMARK SMILES IDX 72 25 52 26 71 27 53 28 56 29 70 30 89 31 54 32 55 33 69 35
REMARK SMILES IDX 90 36 57 37 41 38 42 39 50 40 43 41 45 42 51 43 44 44 46 45
REMARK SMILES IDX 47 46 48 47 49 48 73 49 74 50 82 51 75 52 77 53 83 54 76 55
REMARK SMILES IDX 78 56 79 57 80 58 81 59 58 60 59 61 67 62 60 63 62 64 68 65
REMARK SMILES IDX 61 66 63 67 64 68 65 69 66 70 5 71 6 72 7 73 8 74 9 76 10 77
REMARK SMILES IDX 11 78 12 79 13 80 17 81 14 82 16 83 15 84 18 85 19 86 30 87
REMARK SMILES IDX 20 88 21 89 29 90 31 91 22 92 23 93 24 94 28 95 25 96 27 97
REMARK SMILES IDX 26 98
REMARK H PARENT 3 5 88 23 56 34 7 75
REMARK Flexibility Score: inf
ROOT
ATOM      1  C   UNL     1       4.281  -1.649   0.079  1.00  0.00     0.118 C 
ENDROOT
BRANCH   1   2
ATOM      2  N   UNL     1       2.873  -1.282  -0.013  1.00  0.00    -0.352 N 
ATOM      3  O   UNL     1       1.054   0.005  -0.091  1.00  0.00    -0.269 OA
ATOM      4  C   UNL     1       2.249  -0.108  -0.363  1.00  0.00     0.251 C 
ATOM      5  H   UNL     1       2.253  -2.011   0.219  1.00  0.00     0.163 HD
BRANCH   4   6
ATOM      6  C   UNL     1       2.957   1.009  -1.041  1.00  0.00     0.039 A 
ATOM      7  C   UNL     1       4.022   0.797  -1.918  1.00  0.00     0.014 A 
ATOM      8  C   UNL     1       2.470   2.313  -0.874  1.00  0.00     0.014 A 
ATOM      9  C   UNL     1       4.684   1.874  -2.505  1.00  0.00     0.010 A 
ATOM     10  C   UNL     1       3.066   3.385  -1.549  1.00  0.00     0.010 A 
ATOM     11  C   UNL     1       4.196   3.179  -2.353  1.00  0.00    -0.014 A 
BRANCH  11  12
ATOM     12  C   UNL     1       4.815   4.301  -3.107  1.00  0.00     0.031 A 
ATOM     13  C   UNL     1       5.413   5.477  -2.387  1.00  0.00     0.074 A 
ATOM     14  C   UNL     1       4.788   4.279  -4.455  1.00  0.00     0.049 A 
ATOM     15  N   UNL     1       5.915   6.578  -2.882  1.00  0.00    -0.248 NA
ATOM     16  C   UNL     1       5.440   5.413  -0.918  1.00  0.00     0.031 C 
ATOM     17  C   UNL     1       4.206   3.207  -5.267  1.00  0.00     0.029 A 
ATOM     18  N   UNL     1       5.234   5.189  -5.381  1.00  0.00    -0.354 N 
ATOM     19  C   UNL     1       6.268   7.362  -1.790  1.00  0.00     0.074 A 
ATOM     20  C   UNL     1       5.920   6.608  -0.604  1.00  0.00     0.031 C 
ATOM     21  C   UNL     1       4.328   3.518  -6.564  1.00  0.00     0.029 A 
ATOM     22  C   UNL     1       4.931   4.840  -6.678  1.00  0.00     0.049 A 
ATOM     23  H   UNL     1       5.722   6.010  -5.142  1.00  0.00     0.167 HD
ATOM     24  C   UNL     1       6.834   8.594  -1.778  1.00  0.00     0.034 A 
ATOM     25  C   UNL     1       5.077   5.522  -7.830  1.00  0.00     0.034 A 
ATOM     26  C   UNL     1       7.188   9.326  -2.965  1.00  0.00     0.049 A 
ATOM     27  C   UNL     1       5.703   6.885  -7.794  1.00  0.00     0.074 A 
ATOM     28  C   UNL     1       7.825  10.551  -3.063  1.00  0.00     0.029 A 
ATOM     29  N   UNL     1       6.917   8.913  -4.262  1.00  0.00    -0.354 N 
ATOM     30  N   UNL     1       6.129   7.564  -6.758  1.00  0.00    -0.248 NA
ATOM     31  C   UNL     1       5.894   7.566  -9.081  1.00  0.00     0.031 C 
ATOM     32  C   UNL     1       7.897  10.898  -4.415  1.00  0.00     0.029 A 
ATOM     33  C   UNL     1       7.356   9.865  -5.165  1.00  0.00     0.049 A 
ATOM     34  H   UNL     1       6.477   8.066  -4.504  1.00  0.00     0.167 HD
ATOM     35  C   UNL     1       6.676   8.735  -7.267  1.00  0.00     0.074 A 
ATOM     36  C   UNL     1       6.528   8.671  -8.708  1.00  0.00     0.031 C 
ATOM     37  C   UNL     1       7.247   9.766  -6.600  1.00  0.00     0.034 A 
BRANCH  24  38
ATOM     38  C   UNL     1       7.099   9.228  -0.435  1.00  0.00     0.023 A 
ATOM     39  C   UNL     1       8.094   8.700   0.414  1.00  0.00     0.012 A 
ATOM     40  C   UNL     1       6.378  10.367  -0.024  1.00  0.00     0.148 A 
ATOM     41  C   UNL     1       8.329   9.261   1.670  1.00  0.00     0.002 A 
ATOM     42  C   UNL     1       6.653  10.951   1.208  1.00  0.00     0.091 A 
ATOM     43  F   UNL     1       5.424  10.849  -0.833  1.00  0.00    -0.205 F 
ATOM     44  C   UNL     1       7.614  10.389   2.063  1.00  0.00     0.022 A 
BRANCH  42  45
ATOM     45  S   UNL     1       5.843  12.455   1.765  1.00  0.00     0.127 S 
ATOM     46  O   UNL     1       4.932  11.938   2.784  1.00  0.00    -0.237 OA
ATOM     47  O   UNL     1       6.966  13.233   2.290  1.00  0.00    -0.237 OA
ATOM     48  O   UNL     1       5.210  13.028   0.586  1.00  0.00    -0.744 OA
ENDBRANCH  42  45
ENDBRANCH  24  38
BRANCH  25  49
ATOM     49  C   UNL     1       4.630   4.898  -9.106  1.00  0.00     0.023 A 
ATOM     50  C   UNL     1       5.586   4.448 -10.036  1.00  0.00     0.012 A 
ATOM     51  C   UNL     1       3.262   4.673  -9.360  1.00  0.00     0.148 A 
ATOM     52  C   UNL     1       5.187   3.798 -11.204  1.00  0.00     0.002 A 
ATOM     53  C   UNL     1       2.875   3.973 -10.496  1.00  0.00     0.091 A 
ATOM     54  F   UNL     1       2.371   5.112  -8.461  1.00  0.00    -0.205 F 
ATOM     55  C   UNL     1       3.835   3.548 -11.428  1.00  0.00     0.022 A 
BRANCH  53  56
ATOM     56  S   UNL     1       1.174   3.481 -10.796  1.00  0.00     0.127 S 
ATOM     57  O   UNL     1       0.855   4.235 -12.006  1.00  0.00    -0.237 OA
ATOM     58  O   UNL     1       1.312   2.037 -10.988  1.00  0.00    -0.237 OA
ATOM     59  O   UNL     1       0.432   3.864  -9.603  1.00  0.00    -0.744 OA
ENDBRANCH  53  56
ENDBRANCH  25  49
BRANCH  37  60
ATOM     60  C   UNL     1       7.826  10.895  -7.410  1.00  0.00     0.023 A 
ATOM     61  C   UNL     1       6.980  11.831  -8.035  1.00  0.00     0.012 A 
ATOM     62  C   UNL     1       9.222  11.084  -7.452  1.00  0.00     0.148 A 
ATOM     63  C   UNL     1       7.518  12.930  -8.705  1.00  0.00     0.002 A 
ATOM     64  C   UNL     1       9.747  12.208  -8.074  1.00  0.00     0.091 A 
ATOM     65  F   UNL     1      10.007  10.167  -6.868  1.00  0.00    -0.205 F 
ATOM     66  C   UNL     1       8.897  13.127  -8.710  1.00  0.00     0.022 A 
BRANCH  64  67
ATOM     67  S   UNL     1      11.500  12.599  -8.038  1.00  0.00     0.127 S 
ATOM     68  O   UNL     1      11.868  12.442  -9.444  1.00  0.00    -0.237 OA
ATOM     69  O   UNL     1      11.497  13.980  -7.558  1.00  0.00    -0.237 OA
ATOM     70  O   UNL     1      12.110  11.640  -7.127  1.00  0.00    -0.744 OA
ENDBRANCH  64  67
ENDBRANCH  37  60
ENDBRANCH  11  12
ENDBRANCH   4   6
ENDBRANCH   1   2
BRANCH   1  71
ATOM     71  C   UNL     1       4.751  -1.751   1.524  1.00  0.00     0.042 C 
BRANCH  71  72
ATOM     72  C   UNL     1       4.165  -2.923   2.316  1.00  0.00     0.117 C 
BRANCH  72  73
ATOM     73  N   UNL     1       5.170  -3.927   2.614  1.00  0.00    -0.354 N 
ATOM     74  C   UNL     1       6.022  -4.136   3.650  1.00  0.00     0.243 C 
ATOM     75  H   UNL     1       5.252  -4.608   1.908  1.00  0.00     0.163 HD
ATOM     76  O   UNL     1       6.859  -5.033   3.463  1.00  0.00    -0.273 OA
BRANCH  74  77
ATOM     77  C   UNL     1       6.120  -3.293   4.960  1.00  0.00     0.185 C 
BRANCH  77  78
ATOM     78  C   UNL     1       6.828  -1.946   4.615  1.00  0.00     0.071 C 
BRANCH  78  79
ATOM     79  C   UNL     1       6.099  -0.632   4.389  1.00  0.00    -0.045 A 
ATOM     80  C   UNL     1       6.884   0.480   4.033  1.00  0.00     0.004 A 
ATOM     81  C   UNL     1       4.719  -0.430   4.508  1.00  0.00     0.004 A 
ATOM     82  C   UNL     1       6.303   1.720   3.751  1.00  0.00     0.000 A 
ATOM     83  C   UNL     1       4.132   0.805   4.208  1.00  0.00     0.000 A 
ATOM     84  C   UNL     1       4.924   1.877   3.819  1.00  0.00     0.000 A 
ENDBRANCH  78  79
ENDBRANCH  77  78
BRANCH  77  85
ATOM     85  N   UNL     1       4.960  -3.246   5.878  1.00  0.00    -0.280 N 
ATOM     86  C   UNL     1       4.085  -4.321   5.922  1.00  0.00     0.266 C 
ATOM     87  C   UNL     1       4.882  -2.468   7.023  1.00  0.00     0.149 C 
ATOM     88  O   UNL     1       4.191  -5.382   5.317  1.00  0.00    -0.268 OA
ATOM     89  C   UNL     1       2.983  -4.063   6.888  1.00  0.00     0.081 C 
ATOM     90  S   UNL     1       3.252  -2.563   7.672  1.00  0.00    -0.054 SA
ATOM     91  S   UNL     1       6.059  -1.614   7.839  1.00  0.00    -0.052 S 
ATOM     92  C   UNL     1       1.958  -4.901   7.097  1.00  0.00     0.029 C 
BRANCH  92  93
ATOM     93  C   UNL     1       0.811  -4.548   7.939  1.00  0.00    -0.021 A 
ATOM     94  C   UNL     1      -0.208  -3.766   7.391  1.00  0.00     0.028 A 
ATOM     95  C   UNL     1       0.757  -4.887   9.289  1.00  0.00     0.028 A 
ATOM     96  C   UNL     1      -1.234  -3.346   8.219  1.00  0.00     0.111 A 
ATOM     97  C   UNL     1      -0.316  -4.420  10.033  1.00  0.00     0.111 A 
ATOM     98  N   UNL     1      -1.314  -3.662   9.528  1.00  0.00    -0.265 NA
ENDBRANCH  92  93
ENDBRANCH  77  85
ENDBRANCH  74  77
ENDBRANCH  72  73
ENDBRANCH  71  72
ENDBRANCH   1  71
TORSDOF 17
