REMARK SMILES Cc1cc2c(c(C)c1Cl)C=C(C(=O)NCCCNC(=O)c1ccc(-c3c4nc(c(-c5cccc(S(=O)(=O)[O-])c5F)c5ccc([nH]5)c(-c5cccc(S(=O)(=O)[O-])c5F)c5nc(c(-c6cccc(S(=O)(=O)[O-])c6F)c6ccc3[nH]6)C=C5)C=C4)cc1)[C@@H](C(F)(F)F)O2
REMARK SMILES IDX 17 1 16 2 15 3 14 4 12 5 13 6 11 8 1 9 2 10 3 11 8 12 4 13
REMARK SMILES IDX 6 14 9 15 5 16 89 17 7 18 10 19 84 20 85 21 86 22 87 23
REMARK SMILES IDX 88 24 18 25 19 26 20 28 21 29 22 30 83 31 23 32 82 33 24 34
REMARK SMILES IDX 25 35 26 36 76 37 27 38 81 39 75 40 77 41 28 42 80 43 74 44
REMARK SMILES IDX 73 45 29 47 61 48 41 49 60 50 42 51 45 52 59 53 78 54 43 55
REMARK SMILES IDX 44 56 58 58 79 59 46 60 30 61 31 62 39 63 32 64 34 65 40 66
REMARK SMILES IDX 33 67 35 68 36 69 37 70 38 71 62 72 63 73 71 74 64 75 66 76
REMARK SMILES IDX 72 77 65 78 67 79 68 80 69 81 70 82 47 83 48 84 56 85 49 86
REMARK SMILES IDX 51 87 57 88 50 89 52 90 53 91 54 92 55 93
REMARK H PARENT 14 7 18 27 77 46 45 57
REMARK Flexibility Score: inf
ROOT
ATOM      1  C   UNL     1       1.086  -8.275   7.277  1.00  0.00     0.118 C 
ENDROOT
BRANCH   1   2
ATOM      2  C   UNL     1       1.185  -7.498   5.971  1.00  0.00     0.042 C 
BRANCH   2   3
ATOM      3  C   UNL     1      -0.156  -6.925   5.540  1.00  0.00     0.118 C 
BRANCH   3   4
ATOM      4  N   UNL     1      -0.514  -5.736   6.301  1.00  0.00    -0.352 N 
ATOM      5  C   UNL     1      -0.625  -4.407   6.071  1.00  0.00     0.251 C 
ATOM      6  O   UNL     1      -1.004  -3.736   7.037  1.00  0.00    -0.270 OA
ATOM      7  H   UNL     1      -0.735  -5.959   7.234  1.00  0.00     0.163 HD
BRANCH   5   8
ATOM      8  C   UNL     1      -0.339  -3.734   4.771  1.00  0.00     0.067 C 
ATOM      9  C   UNL     1       0.943   0.255  -0.199  1.00  0.00     0.046 C 
ATOM     10  C   UNL     1       0.511  -0.349   1.109  1.00  0.00    -0.028 A 
ATOM     11  C   UNL     1       0.721  -1.722   1.270  1.00  0.00     0.052 A 
ATOM     12  C   UNL     1      -0.020   0.386   2.188  1.00  0.00     0.047 A 
ATOM     13  C   UNL     1       0.387  -2.356   2.459  1.00  0.00     0.128 A 
ATOM     14  C   UNL     1      -0.368  -0.251   3.408  1.00  0.00    -0.021 A 
ATOM     15  Cl  UNL     1      -0.225   2.103   2.008  1.00  0.00    -0.084 Cl
ATOM     16  C   UNL     1      -0.146  -1.644   3.537  1.00  0.00     0.022 A 
ATOM     17  O   UNL     1       0.665  -3.691   2.499  1.00  0.00    -0.475 OA
ATOM     18  C   UNL     1      -0.949   0.516   4.573  1.00  0.00     0.047 C 
ATOM     19  C   UNL     1      -0.397  -2.389   4.776  1.00  0.00     0.026 C 
ATOM     20  C   UNL     1      -0.028  -4.469   3.503  1.00  0.00     0.314 C 
BRANCH  20  21
ATOM     21  C   UNL     1      -1.279  -5.111   2.873  1.00  0.00     0.429 C 
ATOM     22  F   UNL     1      -0.927  -6.063   1.974  1.00  0.00    -0.167 F 
ATOM     23  F   UNL     1      -2.071  -5.724   3.787  1.00  0.00    -0.167 F 
ATOM     24  F   UNL     1      -2.058  -4.213   2.228  1.00  0.00    -0.167 F 
ENDBRANCH  20  21
ENDBRANCH   5   8
ENDBRANCH   3   4
ENDBRANCH   2   3
ENDBRANCH   1   2
BRANCH   1  25
ATOM     25  N   UNL     1       0.213  -9.441   7.150  1.00  0.00    -0.352 N 
ATOM     26  C   UNL     1       0.526 -10.773   7.066  1.00  0.00     0.251 C 
ATOM     27  H   UNL     1      -0.750  -9.237   7.119  1.00  0.00     0.163 HD
ATOM     28  O   UNL     1      -0.322 -11.575   6.678  1.00  0.00    -0.269 OA
BRANCH  26  29
ATOM     29  C   UNL     1       1.874 -11.238   7.445  1.00  0.00     0.039 A 
ATOM     30  C   UNL     1       2.500 -12.230   6.686  1.00  0.00     0.014 A 
ATOM     31  C   UNL     1       2.509 -10.703   8.567  1.00  0.00     0.014 A 
ATOM     32  C   UNL     1       3.793 -12.636   7.021  1.00  0.00     0.010 A 
ATOM     33  C   UNL     1       3.829 -11.032   8.836  1.00  0.00     0.010 A 
ATOM     34  C   UNL     1       4.479 -12.016   8.079  1.00  0.00    -0.014 A 
BRANCH  34  35
ATOM     35  C   UNL     1       5.867 -12.394   8.434  1.00  0.00     0.031 A 
ATOM     36  C   UNL     1       6.159 -12.965   9.796  1.00  0.00     0.074 A 
ATOM     37  C   UNL     1       6.867 -12.154   7.562  1.00  0.00     0.049 A 
ATOM     38  N   UNL     1       7.310 -13.293  10.320  1.00  0.00    -0.248 NA
ATOM     39  C   UNL     1       5.013 -13.169  10.701  1.00  0.00     0.031 C 
ATOM     40  C   UNL     1       6.709 -11.542   6.241  1.00  0.00     0.029 A 
ATOM     41  N   UNL     1       8.216 -12.380   7.662  1.00  0.00    -0.354 N 
ATOM     42  C   UNL     1       7.031 -13.717  11.614  1.00  0.00     0.074 A 
ATOM     43  C   UNL     1       5.610 -13.555  11.819  1.00  0.00     0.031 C 
ATOM     44  C   UNL     1       7.910 -11.464   5.645  1.00  0.00     0.029 A 
ATOM     45  C   UNL     1       8.927 -11.986   6.551  1.00  0.00     0.049 A 
ATOM     46  H   UNL     1       8.637 -12.787   8.454  1.00  0.00     0.167 HD
ATOM     47  C   UNL     1       7.875 -14.238  12.533  1.00  0.00     0.034 A 
ATOM     48  C   UNL     1      10.249 -12.043   6.295  1.00  0.00     0.034 A 
ATOM     49  C   UNL     1       9.277 -14.447  12.301  1.00  0.00     0.049 A 
ATOM     50  C   UNL     1      11.161 -12.643   7.333  1.00  0.00     0.074 A 
ATOM     51  C   UNL     1      10.207 -15.026  13.144  1.00  0.00     0.029 A 
ATOM     52  N   UNL     1       9.948 -14.094  11.141  1.00  0.00    -0.354 N 
ATOM     53  N   UNL     1      10.857 -13.160   8.499  1.00  0.00    -0.248 NA
ATOM     54  C   UNL     1      12.594 -12.698   7.009  1.00  0.00     0.031 C 
ATOM     55  C   UNL     1      11.446 -15.007  12.501  1.00  0.00     0.029 A 
ATOM     56  C   UNL     1      11.282 -14.440  11.246  1.00  0.00     0.049 A 
ATOM     57  H   UNL     1       9.536 -13.661  10.359  1.00  0.00     0.167 HD
ATOM     58  C   UNL     1      12.051 -13.632   9.031  1.00  0.00     0.074 A 
ATOM     59  C   UNL     1      13.081 -13.362   8.049  1.00  0.00     0.031 C 
ATOM     60  C   UNL     1      12.280 -14.218  10.232  1.00  0.00     0.034 A 
BRANCH  47  61
ATOM     61  C   UNL     1       7.299 -14.702  13.845  1.00  0.00     0.023 A 
ATOM     62  C   UNL     1       6.510 -15.870  13.874  1.00  0.00     0.012 A 
ATOM     63  C   UNL     1       7.622 -14.056  15.054  1.00  0.00     0.148 A 
ATOM     64  C   UNL     1       6.036 -16.379  15.082  1.00  0.00     0.002 A 
ATOM     65  C   UNL     1       7.187 -14.596  16.259  1.00  0.00     0.091 A 
ATOM     66  F   UNL     1       8.359 -12.937  15.003  1.00  0.00    -0.205 F 
ATOM     67  C   UNL     1       6.387 -15.751  16.273  1.00  0.00     0.022 A 
BRANCH  65  68
ATOM     68  S   UNL     1       7.652 -13.918  17.856  1.00  0.00     0.127 S 
ATOM     69  O   UNL     1       6.355 -13.496  18.386  1.00  0.00    -0.237 OA
ATOM     70  O   UNL     1       8.234 -15.082  18.523  1.00  0.00    -0.237 OA
ATOM     71  O   UNL     1       8.587 -12.836  17.580  1.00  0.00    -0.744 OA
ENDBRANCH  65  68
ENDBRANCH  47  61
BRANCH  48  72
ATOM     72  C   UNL     1      10.776 -11.601   4.971  1.00  0.00     0.023 A 
ATOM     73  C   UNL     1      11.300 -12.564   4.086  1.00  0.00     0.012 A 
ATOM     74  C   UNL     1      10.737 -10.252   4.569  1.00  0.00     0.148 A 
ATOM     75  C   UNL     1      11.806 -12.188   2.840  1.00  0.00     0.002 A 
ATOM     76  C   UNL     1      11.187  -9.893   3.303  1.00  0.00     0.091 A 
ATOM     77  F   UNL     1      10.246  -9.347   5.427  1.00  0.00    -0.205 F 
ATOM     78  C   UNL     1      11.739 -10.856   2.445  1.00  0.00     0.022 A 
BRANCH  76  79
ATOM     79  S   UNL     1      11.012  -8.226   2.655  1.00  0.00     0.127 S 
ATOM     80  O   UNL     1      12.396  -7.760   2.647  1.00  0.00    -0.237 OA
ATOM     81  O   UNL     1      10.438  -8.475   1.332  1.00  0.00    -0.237 OA
ATOM     82  O   UNL     1      10.116  -7.539   3.576  1.00  0.00    -0.744 OA
ENDBRANCH  76  79
ENDBRANCH  48  72
BRANCH  60  83
ATOM     83  C   UNL     1      13.689 -14.636  10.559  1.00  0.00     0.023 A 
ATOM     84  C   UNL     1      14.650 -13.654  10.869  1.00  0.00     0.012 A 
ATOM     85  C   UNL     1      14.024 -15.999  10.685  1.00  0.00     0.148 A 
ATOM     86  C   UNL     1      15.930 -14.022  11.279  1.00  0.00     0.002 A 
ATOM     87  C   UNL     1      15.284 -16.358  11.147  1.00  0.00     0.091 A 
ATOM     88  F   UNL     1      13.096 -16.916  10.373  1.00  0.00    -0.205 F 
ATOM     89  C   UNL     1      16.241 -15.371  11.433  1.00  0.00     0.022 A 
BRANCH  87  90
ATOM     90  S   UNL     1      15.740 -18.062  11.485  1.00  0.00     0.127 S 
ATOM     91  O   UNL     1      16.725 -18.320  10.435  1.00  0.00    -0.237 OA
ATOM     92  O   UNL     1      16.297 -17.970  12.835  1.00  0.00    -0.237 OA
ATOM     93  O   UNL     1      14.511 -18.837  11.388  1.00  0.00    -0.744 OA
ENDBRANCH  87  90
ENDBRANCH  60  83
ENDBRANCH  34  35
ENDBRANCH  26  29
ENDBRANCH   1  25
TORSDOF 14
