REMARK SMILES O=C(NCCCNC(=O)c1cc(S(=O)(=O)Nc2ccc(F)c(C(F)(F)F)c2)c[nH]1)c1ccc(-c2c3nc(c(-c4cccc(S(=O)(=O)[O-])c4F)c4ccc([nH]4)c(-c4cccc(S(=O)(=O)[O-])c4F)c4nc(c(-c5cccc(S(=O)(=O)[O-])c5F)c5ccc2[nH]5)C=C4)C=C3)cc1
REMARK SMILES IDX 5 1 4 2 3 3 1 4 2 5 30 7 31 8 92 9 32 10 91 11 33 12 34 13
REMARK SMILES IDX 35 14 85 15 36 16 90 17 84 18 86 19 37 20 89 21 83 22 82 23
REMARK SMILES IDX 38 25 70 26 50 27 69 28 51 29 54 30 68 31 87 32 52 33 53 34
REMARK SMILES IDX 67 36 88 37 55 38 39 39 40 40 48 41 41 42 43 43 49 44 42 45
REMARK SMILES IDX 44 46 45 47 46 48 47 49 71 50 72 51 80 52 73 53 75 54 81 55
REMARK SMILES IDX 74 56 76 57 77 58 78 59 79 60 56 61 57 62 65 63 58 64 60 65
REMARK SMILES IDX 66 66 59 67 61 68 62 69 63 70 64 71 6 72 7 73 8 74 9 76
REMARK SMILES IDX 10 77 11 78 29 79 12 80 28 81 13 83 14 84 15 85 16 86 17 88
REMARK SMILES IDX 18 89 27 90 19 91 22 92 20 93 21 94 23 95 24 96 25 97 26 98
REMARK H PARENT 3 6 86 24 54 35 7 75 29 82 16 87
REMARK Flexibility Score: inf
ROOT
ATOM      1  C   UNL     1       4.966   1.993   0.488  1.00  0.00     0.042 C 
ENDROOT
BRANCH   1   2
ATOM      2  C   UNL     1       4.569   0.646   1.079  1.00  0.00     0.118 C 
BRANCH   2   3
ATOM      3  N   UNL     1       3.154   0.335   1.010  1.00  0.00    -0.352 N 
ATOM      4  O   UNL     1       1.150  -0.271   0.272  1.00  0.00    -0.269 OA
ATOM      5  C   UNL     1       2.297   0.062  -0.029  1.00  0.00     0.251 C 
ATOM      6  H   UNL     1       2.716   0.317   1.891  1.00  0.00     0.163 HD
BRANCH   5   7
ATOM      7  C   UNL     1       2.666   0.232  -1.459  1.00  0.00     0.039 A 
ATOM      8  C   UNL     1       3.963   0.072  -1.948  1.00  0.00     0.014 A 
ATOM      9  C   UNL     1       1.634   0.562  -2.356  1.00  0.00     0.014 A 
ATOM     10  C   UNL     1       4.253   0.347  -3.279  1.00  0.00     0.010 A 
ATOM     11  C   UNL     1       1.909   0.793  -3.704  1.00  0.00     0.010 A 
ATOM     12  C   UNL     1       3.225   0.695  -4.160  1.00  0.00    -0.014 A 
BRANCH  12  13
ATOM     13  C   UNL     1       3.563   0.708  -5.602  1.00  0.00     0.031 A 
ATOM     14  C   UNL     1       3.652  -0.747  -6.146  1.00  0.00     0.074 A 
ATOM     15  C   UNL     1       3.844   1.932  -6.155  1.00  0.00     0.049 A 
ATOM     16  N   UNL     1       4.474  -1.275  -7.005  1.00  0.00    -0.248 NA
ATOM     17  C   UNL     1       2.792  -1.802  -5.536  1.00  0.00     0.031 C 
ATOM     18  C   UNL     1       3.665   3.236  -5.470  1.00  0.00     0.029 A 
ATOM     19  N   UNL     1       4.337   2.349  -7.377  1.00  0.00    -0.354 N 
ATOM     20  C   UNL     1       4.067  -2.623  -7.214  1.00  0.00     0.074 A 
ATOM     21  C   UNL     1       3.134  -2.924  -6.176  1.00  0.00     0.031 C 
ATOM     22  C   UNL     1       4.121   4.257  -6.232  1.00  0.00     0.029 A 
ATOM     23  C   UNL     1       4.622   3.738  -7.493  1.00  0.00     0.049 A 
ATOM     24  H   UNL     1       4.483   1.723  -8.123  1.00  0.00     0.167 HD
ATOM     25  C   UNL     1       4.418  -3.347  -8.323  1.00  0.00     0.034 A 
ATOM     26  C   UNL     1       5.257   4.411  -8.508  1.00  0.00     0.034 A 
ATOM     27  C   UNL     1       5.196  -2.512  -9.177  1.00  0.00     0.049 A 
ATOM     28  C   UNL     1       5.448   3.415  -9.571  1.00  0.00     0.074 A 
ATOM     29  C   UNL     1       6.494  -2.083  -9.142  1.00  0.00     0.029 A 
ATOM     30  N   UNL     1       4.473  -1.748 -10.059  1.00  0.00    -0.354 N 
ATOM     31  N   UNL     1       4.495   2.928 -10.309  1.00  0.00    -0.248 NA
ATOM     32  C   UNL     1       6.782   2.827  -9.751  1.00  0.00     0.031 C 
ATOM     33  C   UNL     1       6.414  -0.782  -9.673  1.00  0.00     0.029 A 
ATOM     34  C   UNL     1       5.132  -0.557 -10.192  1.00  0.00     0.049 A 
ATOM     35  H   UNL     1       3.638  -2.008 -10.511  1.00  0.00     0.167 HD
ATOM     36  C   UNL     1       5.050   1.753 -10.745  1.00  0.00     0.074 A 
ATOM     37  C   UNL     1       6.484   1.920 -10.674  1.00  0.00     0.031 C 
ATOM     38  C   UNL     1       4.362   0.592 -10.600  1.00  0.00     0.034 A 
BRANCH  25  39
ATOM     39  C   UNL     1       3.990  -4.665  -8.944  1.00  0.00     0.023 A 
ATOM     40  C   UNL     1       4.837  -5.138  -9.995  1.00  0.00     0.012 A 
ATOM     41  C   UNL     1       2.741  -5.293  -8.810  1.00  0.00     0.148 A 
ATOM     42  C   UNL     1       4.417  -6.053 -10.957  1.00  0.00     0.002 A 
ATOM     43  C   UNL     1       2.344  -6.259  -9.749  1.00  0.00     0.091 A 
ATOM     44  F   UNL     1       1.915  -4.912  -7.831  1.00  0.00    -0.205 F 
ATOM     45  C   UNL     1       3.156  -6.600 -10.843  1.00  0.00     0.022 A 
BRANCH  43  46
ATOM     46  S   UNL     1       0.780  -7.141  -9.655  1.00  0.00     0.127 S 
ATOM     47  O   UNL     1       0.009  -6.512 -10.724  1.00  0.00    -0.237 OA
ATOM     48  O   UNL     1       1.193  -8.519  -9.939  1.00  0.00    -0.237 OA
ATOM     49  O   UNL     1       0.295  -6.938  -8.297  1.00  0.00    -0.744 OA
ENDBRANCH  43  46
ENDBRANCH  25  39
BRANCH  26  50
ATOM     50  C   UNL     1       5.893   5.774  -8.735  1.00  0.00     0.023 A 
ATOM     51  C   UNL     1       5.710   6.887  -7.905  1.00  0.00     0.012 A 
ATOM     52  C   UNL     1       6.843   5.949  -9.793  1.00  0.00     0.148 A 
ATOM     53  C   UNL     1       6.506   8.046  -8.045  1.00  0.00     0.002 A 
ATOM     54  C   UNL     1       7.724   7.025  -9.838  1.00  0.00     0.091 A 
ATOM     55  F   UNL     1       6.880   5.078 -10.806  1.00  0.00    -0.205 F 
ATOM     56  C   UNL     1       7.549   8.094  -8.969  1.00  0.00     0.022 A 
BRANCH  54  57
ATOM     57  S   UNL     1       9.206   6.997 -10.872  1.00  0.00     0.127 S 
ATOM     58  O   UNL     1       9.128   8.278 -11.570  1.00  0.00    -0.237 OA
ATOM     59  O   UNL     1      10.261   6.910  -9.862  1.00  0.00    -0.237 OA
ATOM     60  O   UNL     1       9.089   5.822 -11.726  1.00  0.00    -0.744 OA
ENDBRANCH  54  57
ENDBRANCH  26  50
BRANCH  38  61
ATOM     61  C   UNL     1       2.842   0.733 -10.576  1.00  0.00     0.023 A 
ATOM     62  C   UNL     1       2.230   1.254 -11.732  1.00  0.00     0.012 A 
ATOM     63  C   UNL     1       2.001   0.468  -9.468  1.00  0.00     0.148 A 
ATOM     64  C   UNL     1       0.854   1.500 -11.789  1.00  0.00     0.002 A 
ATOM     65  C   UNL     1       0.627   0.728  -9.515  1.00  0.00     0.091 A 
ATOM     66  F   UNL     1       2.542  -0.042  -8.367  1.00  0.00    -0.205 F 
ATOM     67  C   UNL     1       0.053   1.237 -10.684  1.00  0.00     0.022 A 
BRANCH  65  68
ATOM     68  S   UNL     1      -0.485   0.506  -8.107  1.00  0.00     0.127 S 
ATOM     69  O   UNL     1      -1.214   1.777  -8.078  1.00  0.00    -0.237 OA
ATOM     70  O   UNL     1      -1.291  -0.635  -8.530  1.00  0.00    -0.237 OA
ATOM     71  O   UNL     1       0.361   0.284  -6.939  1.00  0.00    -0.744 OA
ENDBRANCH  65  68
ENDBRANCH  38  61
ENDBRANCH  12  13
ENDBRANCH   5   7
ENDBRANCH   2   3
ENDBRANCH   1   2
BRANCH   1  72
ATOM     72  C   UNL     1       4.461   3.177   1.296  1.00  0.00     0.118 C 
BRANCH  72  73
ATOM     73  N   UNL     1       5.182   3.316   2.554  1.00  0.00    -0.351 N 
ATOM     74  C   UNL     1       6.164   4.199   2.922  1.00  0.00     0.267 C 
ATOM     75  H   UNL     1       4.921   2.673   3.252  1.00  0.00     0.163 HD
ATOM     76  O   UNL     1       6.861   3.917   3.896  1.00  0.00    -0.268 OA
BRANCH  74  77
ATOM     77  C   UNL     1       6.325   5.445   2.209  1.00  0.00     0.105 A 
ATOM     78  C   UNL     1       5.415   6.193   1.488  1.00  0.00     0.055 A 
ATOM     79  N   UNL     1       7.480   6.200   2.255  1.00  0.00    -0.356 N 
ATOM     80  C   UNL     1       5.983   7.442   1.168  1.00  0.00     0.106 A 
ATOM     81  C   UNL     1       7.289   7.401   1.615  1.00  0.00     0.105 A 
ATOM     82  H   UNL     1       8.319   5.918   2.685  1.00  0.00     0.166 HD
BRANCH  80  83
ATOM     83  S   UNL     1       5.149   8.795   0.472  1.00  0.00     0.263 S 
ATOM     84  O   UNL     1       5.195   9.791   1.518  1.00  0.00    -0.201 OA
ATOM     85  O   UNL     1       5.811   8.993  -0.801  1.00  0.00    -0.201 OA
BRANCH  83  86
ATOM     86  N   UNL     1       3.533   8.458   0.115  1.00  0.00    -0.280 N 
ATOM     87  H   UNL     1       3.156   8.803  -0.726  1.00  0.00     0.180 HD
BRANCH  86  88
ATOM     88  C   UNL     1       2.691   7.698   0.977  1.00  0.00     0.050 A 
ATOM     89  C   UNL     1       2.780   7.752   2.369  1.00  0.00     0.030 A 
ATOM     90  C   UNL     1       1.776   6.818   0.383  1.00  0.00     0.043 A 
ATOM     91  C   UNL     1       2.073   6.832   3.147  1.00  0.00     0.042 A 
ATOM     92  C   UNL     1       1.036   5.907   1.163  1.00  0.00     0.093 A 
ATOM     93  C   UNL     1       1.220   5.913   2.541  1.00  0.00     0.135 A 
ATOM     94  F   UNL     1       0.587   5.027   3.320  1.00  0.00    -0.206 F 
BRANCH  92  95
ATOM     95  C   UNL     1       0.076   4.954   0.508  1.00  0.00     0.419 C 
ATOM     96  F   UNL     1      -0.988   5.609  -0.034  1.00  0.00    -0.166 F 
ATOM     97  F   UNL     1       0.662   4.274  -0.515  1.00  0.00    -0.166 F 
ATOM     98  F   UNL     1      -0.445   4.011   1.336  1.00  0.00    -0.166 F 
ENDBRANCH  92  95
ENDBRANCH  86  88
ENDBRANCH  83  86
ENDBRANCH  80  83
ENDBRANCH  74  77
ENDBRANCH  72  73
ENDBRANCH   1  72
TORSDOF 17
