REMARK SMILES Cc1nc(C)c(C(=O)N2CCC([C@H](C)C(=O)NCCCNC(=O)c3ccc(-c4c5nc(c(-c6cccc(S(=O)(=O)[O-])c6F)c6ccc([nH]6)c(-c6cccc(S(=O)(=O)[O-])c6F)c6nc(c(-c7cccc(S(=O)(=O)[O-])c7F)c7ccc4[nH]7)C=C6)C=C5)cc3)CC2)s1
REMARK SMILES IDX 19 1 18 2 17 3 15 4 16 5 13 7 14 8 12 9 7 10 8 11 9 12 10 13
REMARK SMILES IDX 88 14 11 15 87 16 6 17 1 18 2 19 3 20 89 21 4 22 5 23 20 24
REMARK SMILES IDX 21 25 22 26 23 28 24 29 25 30 86 31 26 32 85 33 27 34 28 35
REMARK SMILES IDX 29 36 79 37 30 38 84 39 78 40 80 41 31 42 83 43 77 44 76 45
REMARK SMILES IDX 32 47 64 48 44 49 63 50 45 51 48 52 62 53 81 54 46 55 47 56
REMARK SMILES IDX 61 58 82 59 49 60 33 61 34 62 42 63 35 64 37 65 43 66 36 67
REMARK SMILES IDX 38 68 39 69 40 70 41 71 65 72 66 73 74 74 67 75 69 76 75 77
REMARK SMILES IDX 68 78 70 79 71 80 72 81 73 82 50 83 51 84 59 85 52 86 54 87
REMARK SMILES IDX 60 88 53 89 55 90 56 91 57 92 58 93
REMARK H PARENT 17 6 21 27 80 46 48 57
REMARK Flexibility Score: inf
ROOT
ATOM      1  C   UNL     1       3.645  -6.684   1.582  1.00  0.00     0.042 C 
ENDROOT
BRANCH   1   2
ATOM      2  C   UNL     1       2.638  -7.809   1.525  1.00  0.00     0.117 C 
BRANCH   2   3
ATOM      3  N   UNL     1       1.740  -7.851   2.660  1.00  0.00    -0.356 N 
ATOM      4  C   UNL     1       0.385  -7.952   2.683  1.00  0.00     0.223 C 
ATOM      5  O   UNL     1      -0.153  -8.166   3.773  1.00  0.00    -0.275 OA
ATOM      6  H   UNL     1       2.174  -7.799   3.542  1.00  0.00     0.163 HD
BRANCH   4   7
ATOM      7  C   UNL     1      -0.470  -7.799   1.418  1.00  0.00     0.078 C 
ATOM      8  C   UNL     1      -0.399  -6.356   0.908  1.00  0.00     0.018 C 
BRANCH   7   9
ATOM      9  C   UNL     1      -0.370  -8.928   0.335  1.00  0.00     0.005 C 
ATOM     10  C   UNL     1       2.293 -11.180  -1.983  1.00  0.00     0.265 C 
ATOM     11  O   UNL     1       3.069 -10.365  -2.485  1.00  0.00    -0.268 OA
ATOM     12  N   UNL     1       1.101 -10.733  -1.403  1.00  0.00    -0.338 N 
ATOM     13  C   UNL     1       0.400  -9.619  -2.012  1.00  0.00     0.120 C 
ATOM     14  C   UNL     1       0.481 -11.299  -0.213  1.00  0.00     0.120 C 
ATOM     15  C   UNL     1       0.175  -8.475  -1.038  1.00  0.00     0.026 C 
ATOM     16  C   UNL     1       0.292 -10.226   0.857  1.00  0.00     0.026 C 
BRANCH  10  17
ATOM     17  C   UNL     1       2.530 -12.614  -2.076  1.00  0.00     0.115 A 
ATOM     18  C   UNL     1       1.812 -16.380  -2.734  1.00  0.00     0.079 C 
ATOM     19  C   UNL     1       2.317 -15.005  -2.479  1.00  0.00     0.091 A 
ATOM     20  N   UNL     1       3.587 -14.675  -2.446  1.00  0.00    -0.246 NA
ATOM     21  S   UNL     1       1.220 -13.718  -2.257  1.00  0.00    -0.113 S 
ATOM     22  C   UNL     1       3.725 -13.302  -2.253  1.00  0.00     0.061 A 
ATOM     23  C   UNL     1       5.109 -12.751  -2.304  1.00  0.00     0.068 C 
ENDBRANCH  10  17
ENDBRANCH   7   9
ENDBRANCH   4   7
ENDBRANCH   2   3
ENDBRANCH   1   2
BRANCH   1  24
ATOM     24  C   UNL     1       4.677  -6.869   2.678  1.00  0.00     0.118 C 
BRANCH  24  25
ATOM     25  N   UNL     1       5.484  -8.074   2.502  1.00  0.00    -0.352 N 
ATOM     26  C   UNL     1       6.835  -8.205   2.289  1.00  0.00     0.251 C 
ATOM     27  H   UNL     1       4.984  -8.921   2.542  1.00  0.00     0.163 HD
ATOM     28  O   UNL     1       7.308  -9.300   1.995  1.00  0.00    -0.269 OA
BRANCH  26  29
ATOM     29  C   UNL     1       7.708  -7.020   2.400  1.00  0.00     0.039 A 
ATOM     30  C   UNL     1       8.697  -6.802   1.439  1.00  0.00     0.014 A 
ATOM     31  C   UNL     1       7.521  -6.107   3.439  1.00  0.00     0.014 A 
ATOM     32  C   UNL     1       9.445  -5.623   1.479  1.00  0.00     0.010 A 
ATOM     33  C   UNL     1       8.180  -4.888   3.409  1.00  0.00     0.010 A 
ATOM     34  C   UNL     1       9.162  -4.639   2.440  1.00  0.00    -0.014 A 
BRANCH  34  35
ATOM     35  C   UNL     1       9.881  -3.342   2.471  1.00  0.00     0.031 A 
ATOM     36  C   UNL     1      10.655  -2.946   3.701  1.00  0.00     0.074 A 
ATOM     37  C   UNL     1       9.744  -2.476   1.448  1.00  0.00     0.049 A 
ATOM     38  N   UNL     1      11.266  -1.822   3.965  1.00  0.00    -0.248 NA
ATOM     39  C   UNL     1      10.712  -3.929   4.798  1.00  0.00     0.031 C 
ATOM     40  C   UNL     1       8.942  -2.706   0.244  1.00  0.00     0.029 A 
ATOM     41  N   UNL     1      10.253  -1.215   1.270  1.00  0.00    -0.354 N 
ATOM     42  C   UNL     1      11.733  -1.943   5.269  1.00  0.00     0.074 A 
ATOM     43  C   UNL     1      11.296  -3.230   5.759  1.00  0.00     0.031 C 
ATOM     44  C   UNL     1       9.024  -1.629  -0.553  1.00  0.00     0.029 A 
ATOM     45  C   UNL     1       9.858  -0.621   0.094  1.00  0.00     0.049 A 
ATOM     46  H   UNL     1      10.846  -0.776   1.923  1.00  0.00     0.167 HD
ATOM     47  C   UNL     1      12.493  -1.079   5.982  1.00  0.00     0.034 A 
ATOM     48  C   UNL     1      10.138   0.599  -0.405  1.00  0.00     0.034 A 
ATOM     49  C   UNL     1      12.983   0.168   5.463  1.00  0.00     0.049 A 
ATOM     50  C   UNL     1      11.042   1.513   0.376  1.00  0.00     0.074 A 
ATOM     51  C   UNL     1      13.849   1.067   6.057  1.00  0.00     0.029 A 
ATOM     52  N   UNL     1      12.649   0.691   4.223  1.00  0.00    -0.354 N 
ATOM     53  N   UNL     1      11.614   1.312   1.539  1.00  0.00    -0.248 NA
ATOM     54  C   UNL     1      11.371   2.807  -0.240  1.00  0.00     0.031 C 
ATOM     55  C   UNL     1      14.027   2.143   5.181  1.00  0.00     0.029 A 
ATOM     56  C   UNL     1      13.286   1.904   4.034  1.00  0.00     0.049 A 
ATOM     57  H   UNL     1      12.047   0.262   3.573  1.00  0.00     0.167 HD
ATOM     58  C   UNL     1      12.395   2.436   1.780  1.00  0.00     0.074 A 
ATOM     59  C   UNL     1      12.239   3.305   0.631  1.00  0.00     0.031 C 
ATOM     60  C   UNL     1      13.160   2.731   2.861  1.00  0.00     0.034 A 
BRANCH  47  61
ATOM     61  C   UNL     1      12.894  -1.491   7.374  1.00  0.00     0.023 A 
ATOM     62  C   UNL     1      13.819  -2.542   7.549  1.00  0.00     0.012 A 
ATOM     63  C   UNL     1      12.383  -0.828   8.506  1.00  0.00     0.148 A 
ATOM     64  C   UNL     1      14.194  -2.956   8.826  1.00  0.00     0.002 A 
ATOM     65  C   UNL     1      12.799  -1.215   9.776  1.00  0.00     0.091 A 
ATOM     66  F   UNL     1      11.486   0.152   8.325  1.00  0.00    -0.205 F 
ATOM     67  C   UNL     1      13.692  -2.287   9.938  1.00  0.00     0.022 A 
BRANCH  65  68
ATOM     68  S   UNL     1      12.271  -0.362  11.266  1.00  0.00     0.127 S 
ATOM     69  O   UNL     1      11.312  -1.313  11.826  1.00  0.00    -0.237 OA
ATOM     70  O   UNL     1      13.522  -0.245  12.016  1.00  0.00    -0.237 OA
ATOM     71  O   UNL     1      11.712   0.907  10.821  1.00  0.00    -0.744 OA
ENDBRANCH  65  68
ENDBRANCH  47  61
BRANCH  48  72
ATOM     72  C   UNL     1       9.630   0.982  -1.752  1.00  0.00     0.023 A 
ATOM     73  C   UNL     1      10.534   1.057  -2.830  1.00  0.00     0.012 A 
ATOM     74  C   UNL     1       8.262   1.223  -1.985  1.00  0.00     0.148 A 
ATOM     75  C   UNL     1      10.091   1.391  -4.110  1.00  0.00     0.002 A 
ATOM     76  C   UNL     1       7.819   1.505  -3.273  1.00  0.00     0.091 A 
ATOM     77  F   UNL     1       7.419   1.155  -0.946  1.00  0.00    -0.205 F 
ATOM     78  C   UNL     1       8.734   1.604  -4.334  1.00  0.00     0.022 A 
BRANCH  76  79
ATOM     79  S   UNL     1       6.077   1.668  -3.682  1.00  0.00     0.127 S 
ATOM     80  O   UNL     1       5.971   3.094  -3.976  1.00  0.00    -0.237 OA
ATOM     81  O   UNL     1       5.956   0.788  -4.845  1.00  0.00    -0.237 OA
ATOM     82  O   UNL     1       5.352   1.208  -2.505  1.00  0.00    -0.744 OA
ENDBRANCH  76  79
ENDBRANCH  48  72
BRANCH  60  83
ATOM     83  C   UNL     1      13.912   4.034   2.848  1.00  0.00     0.023 A 
ATOM     84  C   UNL     1      13.215   5.244   3.033  1.00  0.00     0.012 A 
ATOM     85  C   UNL     1      15.316   4.053   2.736  1.00  0.00     0.148 A 
ATOM     86  C   UNL     1      13.901   6.457   3.078  1.00  0.00     0.002 A 
ATOM     87  C   UNL     1      15.997   5.261   2.830  1.00  0.00     0.091 A 
ATOM     88  F   UNL     1      15.959   2.893   2.541  1.00  0.00    -0.205 F 
ATOM     89  C   UNL     1      15.291   6.464   2.990  1.00  0.00     0.022 A 
BRANCH  87  90
ATOM     90  S   UNL     1      17.791   5.354   2.824  1.00  0.00     0.127 S 
ATOM     91  O   UNL     1      18.057   5.892   1.491  1.00  0.00    -0.237 OA
ATOM     92  O   UNL     1      18.059   6.284   3.921  1.00  0.00    -0.237 OA
ATOM     93  O   UNL     1      18.263   3.996   3.058  1.00  0.00    -0.744 OA
ENDBRANCH  87  90
ENDBRANCH  60  83
ENDBRANCH  34  35
ENDBRANCH  26  29
ENDBRANCH  24  25
ENDBRANCH   1  24
TORSDOF 15
