REMARK SMILES Cc1ccc(C(F)(F)F)cc1-c1ccc(/C=C/C(=O)NCCCNC(=O)c2ccc(-c3c4nc(c(-c5cccc(S(=O)(=O)[O-])c5F)c5ccc([nH]5)c(-c5cccc(S(=O)(=O)[O-])c5F)c5nc(c(-c6cccc(S(=O)(=O)[O-])c6F)c6ccc3[nH]6)C=C5)C=C4)cc2)s1
REMARK SMILES IDX 22 1 21 2 20 3 18 4 19 5 17 7 16 8 15 9 12 10 13 11 90 12
REMARK SMILES IDX 14 13 11 14 1 15 2 16 3 17 4 18 10 19 5 20 6 21 7 22 8 23
REMARK SMILES IDX 9 24 23 25 24 26 25 27 26 29 27 30 28 31 89 32 29 33 88 34
REMARK SMILES IDX 30 35 31 36 32 37 82 38 33 39 87 40 81 41 83 42 34 43 86 44
REMARK SMILES IDX 80 45 79 46 35 48 67 49 47 50 66 51 48 52 51 53 65 54 84 55
REMARK SMILES IDX 49 56 50 57 64 59 85 60 52 61 36 62 37 63 45 64 38 65 40 66
REMARK SMILES IDX 46 67 39 68 41 69 42 70 43 71 44 72 68 73 69 74 77 75 70 76
REMARK SMILES IDX 72 77 78 78 71 79 73 80 74 81 75 82 76 83 53 84 54 85 62 86
REMARK SMILES IDX 55 87 57 88 63 89 56 90 58 91 59 92 60 93 61 94
REMARK H PARENT 20 6 24 28 83 47 51 58
REMARK Flexibility Score: inf
ROOT
ATOM      1  C   UNL     1       3.918   8.314  -0.294  1.00  0.00     0.042 C 
ENDROOT
BRANCH   1   2
ATOM      2  C   UNL     1       4.390   7.946   1.109  1.00  0.00     0.118 C 
BRANCH   2   3
ATOM      3  N   UNL     1       3.409   8.305   2.124  1.00  0.00    -0.352 N 
ATOM      4  C   UNL     1       2.414   7.561   2.688  1.00  0.00     0.244 C 
ATOM      5  O   UNL     1       1.766   8.000   3.634  1.00  0.00    -0.270 OA
ATOM      6  H   UNL     1       3.474   9.230   2.456  1.00  0.00     0.163 HD
BRANCH   4   7
ATOM      7  C   UNL     1       2.160   6.174   2.227  1.00  0.00     0.072 C 
ATOM      8  C   UNL     1       1.962   5.874   0.937  1.00  0.00     0.024 C 
BRANCH   8   9
ATOM      9  C   UNL     1       1.748   4.567   0.427  1.00  0.00     0.028 A 
ATOM     10  C   UNL     1       0.940   2.276  -0.065  1.00  0.00     0.035 A 
ATOM     11  C   UNL     1       1.726   2.775  -1.081  1.00  0.00     0.021 A 
ATOM     12  S   UNL     1       0.818   3.378   1.239  1.00  0.00    -0.136 S 
ATOM     13  C   UNL     1       2.185   4.090  -0.799  1.00  0.00     0.020 A 
BRANCH  10  14
ATOM     14  C   UNL     1       0.241   0.994   0.001  1.00  0.00    -0.005 A 
ATOM     15  C   UNL     1       2.430  -0.335   0.089  1.00  0.00     0.045 C 
ATOM     16  C   UNL     1       0.928  -0.234   0.064  1.00  0.00    -0.042 A 
ATOM     17  C   UNL     1       0.186  -1.427   0.068  1.00  0.00     0.005 A 
ATOM     18  C   UNL     1      -1.210  -1.405   0.037  1.00  0.00     0.013 A 
ATOM     19  C   UNL     1      -1.165   1.001  -0.033  1.00  0.00     0.023 A 
ATOM     20  C   UNL     1      -1.903  -0.190  -0.008  1.00  0.00     0.056 A 
BRANCH  20  21
ATOM     21  C   UNL     1      -3.409  -0.173  -0.038  1.00  0.00     0.416 C 
ATOM     22  F   UNL     1      -3.913  -0.800  -1.139  1.00  0.00    -0.166 F 
ATOM     23  F   UNL     1      -3.958  -0.811   1.034  1.00  0.00    -0.166 F 
ATOM     24  F   UNL     1      -3.948   1.077  -0.044  1.00  0.00    -0.166 F 
ENDBRANCH  20  21
ENDBRANCH  10  14
ENDBRANCH   8   9
ENDBRANCH   4   7
ENDBRANCH   2   3
ENDBRANCH   1   2
BRANCH   1  25
ATOM     25  C   UNL     1       4.389   9.675  -0.777  1.00  0.00     0.118 C 
BRANCH  25  26
ATOM     26  N   UNL     1       5.394   9.575  -1.831  1.00  0.00    -0.352 N 
ATOM     27  C   UNL     1       5.852  10.558  -2.690  1.00  0.00     0.251 C 
ATOM     28  H   UNL     1       5.801   8.687  -1.946  1.00  0.00     0.163 HD
ATOM     29  O   UNL     1       6.624  10.267  -3.598  1.00  0.00    -0.269 OA
BRANCH  27  30
ATOM     30  C   UNL     1       5.505  11.964  -2.391  1.00  0.00     0.039 A 
ATOM     31  C   UNL     1       6.564  12.811  -2.050  1.00  0.00     0.014 A 
ATOM     32  C   UNL     1       4.188  12.310  -2.103  1.00  0.00     0.014 A 
ATOM     33  C   UNL     1       6.337  13.855  -1.163  1.00  0.00     0.010 A 
ATOM     34  C   UNL     1       3.972  13.288  -1.157  1.00  0.00     0.010 A 
ATOM     35  C   UNL     1       5.062  13.994  -0.627  1.00  0.00    -0.014 A 
BRANCH  35  36
ATOM     36  C   UNL     1       4.759  14.791   0.547  1.00  0.00     0.031 A 
ATOM     37  C   UNL     1       4.239  16.157   0.389  1.00  0.00     0.074 A 
ATOM     38  C   UNL     1       4.790  14.190   1.758  1.00  0.00     0.049 A 
ATOM     39  N   UNL     1       4.092  16.986   1.364  1.00  0.00    -0.248 NA
ATOM     40  C   UNL     1       3.903  16.723  -0.914  1.00  0.00     0.031 C 
ATOM     41  C   UNL     1       4.115  14.618   2.978  1.00  0.00     0.029 A 
ATOM     42  N   UNL     1       5.658  13.176   2.184  1.00  0.00    -0.354 N 
ATOM     43  C   UNL     1       3.352  18.039   0.882  1.00  0.00     0.074 A 
ATOM     44  C   UNL     1       3.405  17.908  -0.550  1.00  0.00     0.031 C 
ATOM     45  C   UNL     1       4.760  14.098   4.032  1.00  0.00     0.029 A 
ATOM     46  C   UNL     1       5.972  13.483   3.521  1.00  0.00     0.049 A 
ATOM     47  H   UNL     1       5.980  12.409   1.658  1.00  0.00     0.167 HD
ATOM     48  C   UNL     1       2.643  18.788   1.769  1.00  0.00     0.034 A 
ATOM     49  C   UNL     1       7.235  13.758   3.961  1.00  0.00     0.034 A 
ATOM     50  C   UNL     1       3.117  18.552   3.141  1.00  0.00     0.049 A 
ATOM     51  C   UNL     1       7.361  15.117   4.628  1.00  0.00     0.074 A 
ATOM     52  C   UNL     1       2.615  17.854   4.226  1.00  0.00     0.029 A 
ATOM     53  N   UNL     1       4.438  18.863   3.456  1.00  0.00    -0.354 N 
ATOM     54  N   UNL     1       6.422  16.023   4.644  1.00  0.00    -0.248 NA
ATOM     55  C   UNL     1       8.572  15.571   5.307  1.00  0.00     0.031 C 
ATOM     56  C   UNL     1       3.687  17.641   5.140  1.00  0.00     0.029 A 
ATOM     57  C   UNL     1       4.825  18.251   4.637  1.00  0.00     0.049 A 
ATOM     58  H   UNL     1       5.019  19.442   2.911  1.00  0.00     0.167 HD
ATOM     59  C   UNL     1       6.907  17.192   5.176  1.00  0.00     0.074 A 
ATOM     60  C   UNL     1       8.228  16.823   5.659  1.00  0.00     0.031 C 
ATOM     61  C   UNL     1       6.207  18.370   5.106  1.00  0.00     0.034 A 
BRANCH  48  62
ATOM     62  C   UNL     1       1.383  19.579   1.443  1.00  0.00     0.023 A 
ATOM     63  C   UNL     1       0.735  20.227   2.519  1.00  0.00     0.012 A 
ATOM     64  C   UNL     1       0.707  19.637   0.196  1.00  0.00     0.148 A 
ATOM     65  C   UNL     1      -0.504  20.868   2.378  1.00  0.00     0.002 A 
ATOM     66  C   UNL     1      -0.498  20.329   0.040  1.00  0.00     0.091 A 
ATOM     67  F   UNL     1       1.159  18.950  -0.852  1.00  0.00    -0.205 F 
ATOM     68  C   UNL     1      -1.117  20.931   1.135  1.00  0.00     0.022 A 
BRANCH  66  69
ATOM     69  S   UNL     1      -1.324  20.477  -1.558  1.00  0.00     0.127 S 
ATOM     70  O   UNL     1      -2.506  19.636  -1.373  1.00  0.00    -0.237 OA
ATOM     71  O   UNL     1      -1.603  21.912  -1.635  1.00  0.00    -0.237 OA
ATOM     72  O   UNL     1      -0.374  19.999  -2.557  1.00  0.00    -0.744 OA
ENDBRANCH  66  69
ENDBRANCH  48  62
BRANCH  49  73
ATOM     73  C   UNL     1       8.306  13.072   3.180  1.00  0.00     0.023 A 
ATOM     74  C   UNL     1       8.326  11.657   3.231  1.00  0.00     0.012 A 
ATOM     75  C   UNL     1       8.993  13.723   2.141  1.00  0.00     0.148 A 
ATOM     76  C   UNL     1       8.898  10.909   2.202  1.00  0.00     0.002 A 
ATOM     77  C   UNL     1       9.562  12.967   1.115  1.00  0.00     0.091 A 
ATOM     78  F   UNL     1       9.007  15.061   2.122  1.00  0.00    -0.205 F 
ATOM     79  C   UNL     1       9.484  11.565   1.126  1.00  0.00     0.022 A 
BRANCH  77  80
ATOM     80  S   UNL     1      10.290  13.740  -0.337  1.00  0.00     0.127 S 
ATOM     81  O   UNL     1      11.709  13.725   0.004  1.00  0.00    -0.237 OA
ATOM     82  O   UNL     1       9.903  12.819  -1.406  1.00  0.00    -0.237 OA
ATOM     83  O   UNL     1       9.656  15.047  -0.420  1.00  0.00    -0.744 OA
ENDBRANCH  77  80
ENDBRANCH  49  73
BRANCH  61  84
ATOM     84  C   UNL     1       6.761  19.753   5.436  1.00  0.00     0.023 A 
ATOM     85  C   UNL     1       8.142  20.023   5.504  1.00  0.00     0.012 A 
ATOM     86  C   UNL     1       5.899  20.877   5.552  1.00  0.00     0.148 A 
ATOM     87  C   UNL     1       8.645  21.309   5.740  1.00  0.00     0.002 A 
ATOM     88  C   UNL     1       6.407  22.172   5.671  1.00  0.00     0.091 A 
ATOM     89  F   UNL     1       4.570  20.704   5.568  1.00  0.00    -0.205 F 
ATOM     90  C   UNL     1       7.778  22.389   5.800  1.00  0.00     0.022 A 
BRANCH  88  91
ATOM     91  S   UNL     1       5.332  23.605   5.495  1.00  0.00     0.127 S 
ATOM     92  O   UNL     1       4.938  23.864   6.877  1.00  0.00    -0.237 OA
ATOM     93  O   UNL     1       6.231  24.609   4.921  1.00  0.00    -0.237 OA
ATOM     94  O   UNL     1       4.276  23.169   4.591  1.00  0.00    -0.744 OA
ENDBRANCH  88  91
ENDBRANCH  61  84
ENDBRANCH  35  36
ENDBRANCH  27  30
ENDBRANCH  25  26
ENDBRANCH   1  25
TORSDOF 16
