REMARK SMILES Cc1cccc(OC2(C(=O)NCCCNC(=O)c3ccc(-c4c5nc(c(-c6cccc(S(=O)(=O)[O-])c6F)c6ccc([nH]6)c(-c6cccc(S(=O)(=O)[O-])c6F)c6nc(c(-c7cccc(S(=O)(=O)[O-])c7F)c7ccc4[nH]7)C=C6)C=C5)cc3)CCN(C(=O)c3cnc[nH]c3=O)CC2)c1
REMARK SMILES IDX 13 1 12 2 11 3 9 4 10 5 8 7 81 8 94 9 82 10 93 11 83 12
REMARK SMILES IDX 84 13 85 14 7 15 6 16 1 17 2 18 3 19 95 20 4 21 5 22 86 23
REMARK SMILES IDX 87 24 91 25 88 26 90 27 92 28 89 29 14 31 15 32 16 33 17 35
REMARK SMILES IDX 18 36 19 37 80 38 20 39 79 40 21 41 22 42 23 43 73 44 24 45
REMARK SMILES IDX 78 46 72 47 74 48 25 49 77 50 71 51 70 52 26 54 58 55 38 56
REMARK SMILES IDX 57 57 39 58 42 59 56 60 75 61 40 62 41 63 55 65 76 66 43 67
REMARK SMILES IDX 27 68 28 69 36 70 29 71 31 72 37 73 30 74 32 75 33 76 34 77
REMARK SMILES IDX 35 78 59 79 60 80 68 81 61 82 63 83 69 84 62 85 64 86 65 87
REMARK SMILES IDX 66 88 67 89 44 90 45 91 53 92 46 93 48 94 54 95 47 96 49 97
REMARK SMILES IDX 50 98 51 99 52 100
REMARK H PARENT 11 6 90 30 15 34 74 53 42 64
REMARK Flexibility Score: inf
ROOT
ATOM      1  C   UNL     1       1.066   6.601  -1.526  1.00  0.00     0.042 C 
ENDROOT
BRANCH   1   2
ATOM      2  C   UNL     1      -0.454   6.599  -1.329  1.00  0.00     0.118 C 
BRANCH   2   3
ATOM      3  N   UNL     1      -1.156   5.396  -1.782  1.00  0.00    -0.353 N 
ATOM      4  C   UNL     1      -1.537   4.228  -1.171  1.00  0.00     0.264 C 
ATOM      5  O   UNL     1      -2.478   3.641  -1.724  1.00  0.00    -0.270 OA
ATOM      6  H   UNL     1      -1.410   5.433  -2.732  1.00  0.00     0.163 HD
BRANCH   4   7
ATOM      7  C   UNL     1      -0.880   3.629   0.133  1.00  0.00     0.190 C 
ATOM      8  C   UNL     1       0.616   3.928   0.145  1.00  0.00     0.080 C 
ATOM      9  C   UNL     1      -1.541   4.251   1.395  1.00  0.00     0.080 C 
ATOM     10  C   UNL     1       1.351   3.682   1.442  1.00  0.00     0.124 C 
ATOM     11  C   UNL     1      -0.740   3.921   2.670  1.00  0.00     0.124 C 
ATOM     12  N   UNL     1       0.638   4.367   2.497  1.00  0.00    -0.338 N 
ATOM     13  C   UNL     1       1.089   5.607   2.915  1.00  0.00     0.261 C 
ATOM     14  O   UNL     1       1.770   6.356   2.220  1.00  0.00    -0.269 OA
BRANCH   7  15
ATOM     15  O   UNL     1      -1.317   2.252   0.180  1.00  0.00    -0.477 OA
BRANCH  15  16
ATOM     16  C   UNL     1      -0.665   1.079   0.031  1.00  0.00     0.121 A 
ATOM     17  C   UNL     1       2.723  -0.640  -0.095  1.00  0.00     0.044 C 
ATOM     18  C   UNL     1       1.234  -0.447  -0.070  1.00  0.00    -0.047 A 
ATOM     19  C   UNL     1       0.376  -1.544   0.003  1.00  0.00     0.003 A 
ATOM     20  C   UNL     1       0.696   0.851  -0.106  1.00  0.00     0.049 A 
ATOM     21  C   UNL     1      -0.999  -1.341   0.058  1.00  0.00     0.004 A 
ATOM     22  C   UNL     1      -1.508  -0.039   0.086  1.00  0.00     0.046 A 
ENDBRANCH  15  16
ENDBRANCH   7  15
BRANCH  13  23
ATOM     23  C   UNL     1       0.748   5.972   4.297  1.00  0.00     0.123 A 
ATOM     24  C   UNL     1       0.161   7.146   4.567  1.00  0.00     0.132 A 
ATOM     25  C   UNL     1       1.098   5.107   5.438  1.00  0.00     0.263 A 
ATOM     26  N   UNL     1      -0.195   7.577   5.824  1.00  0.00    -0.246 NA
ATOM     27  N   UNL     1       0.739   5.596   6.661  1.00  0.00    -0.312 N 
ATOM     28  O   UNL     1       1.677   4.032   5.332  1.00  0.00    -0.269 OA
ATOM     29  C   UNL     1       0.112   6.797   6.805  1.00  0.00     0.199 A 
ATOM     30  H   UNL     1       0.939   5.064   7.465  1.00  0.00     0.171 HD
ENDBRANCH  13  23
ENDBRANCH   4   7
ENDBRANCH   2   3
ENDBRANCH   1   2
BRANCH   1  31
ATOM     31  C   UNL     1       1.595   7.336  -2.748  1.00  0.00     0.118 C 
BRANCH  31  32
ATOM     32  N   UNL     1       2.388   8.495  -2.320  1.00  0.00    -0.352 N 
ATOM     33  C   UNL     1       3.660   8.895  -2.676  1.00  0.00     0.251 C 
ATOM     34  H   UNL     1       1.938   9.083  -1.672  1.00  0.00     0.163 HD
ATOM     35  O   UNL     1       4.245   9.790  -2.066  1.00  0.00    -0.269 OA
BRANCH  33  36
ATOM     36  C   UNL     1       4.245   8.297  -3.884  1.00  0.00     0.039 A 
ATOM     37  C   UNL     1       4.096   9.055  -5.050  1.00  0.00     0.014 A 
ATOM     38  C   UNL     1       4.431   6.918  -3.916  1.00  0.00     0.014 A 
ATOM     39  C   UNL     1       3.807   8.403  -6.236  1.00  0.00     0.010 A 
ATOM     40  C   UNL     1       4.098   6.270  -5.087  1.00  0.00     0.010 A 
ATOM     41  C   UNL     1       3.688   7.019  -6.202  1.00  0.00    -0.014 A 
BRANCH  41  42
ATOM     42  C   UNL     1       3.116   6.247  -7.286  1.00  0.00     0.031 A 
ATOM     43  C   UNL     1       4.013   5.733  -8.327  1.00  0.00     0.074 A 
ATOM     44  C   UNL     1       1.810   5.897  -7.253  1.00  0.00     0.049 A 
ATOM     45  N   UNL     1       3.612   5.324  -9.477  1.00  0.00    -0.248 NA
ATOM     46  C   UNL     1       5.458   5.679  -8.151  1.00  0.00     0.031 C 
ATOM     47  C   UNL     1       1.176   4.822  -8.005  1.00  0.00     0.029 A 
ATOM     48  N   UNL     1       0.741   6.580  -6.660  1.00  0.00    -0.354 N 
ATOM     49  C   UNL     1       4.680   4.698 -10.077  1.00  0.00     0.074 A 
ATOM     50  C   UNL     1       5.822   5.018  -9.253  1.00  0.00     0.031 C 
ATOM     51  C   UNL     1      -0.144   5.046  -8.052  1.00  0.00     0.029 A 
ATOM     52  C   UNL     1      -0.379   6.363  -7.489  1.00  0.00     0.049 A 
ATOM     53  H   UNL     1       0.766   7.107  -5.830  1.00  0.00     0.167 HD
ATOM     54  C   UNL     1       4.441   3.850 -11.114  1.00  0.00     0.034 A 
ATOM     55  C   UNL     1      -1.087   7.363  -8.089  1.00  0.00     0.034 A 
ATOM     56  C   UNL     1       3.008   3.817 -11.446  1.00  0.00     0.049 A 
ATOM     57  C   UNL     1      -1.061   7.288  -9.612  1.00  0.00     0.074 A 
ATOM     58  C   UNL     1       1.962   2.962 -11.135  1.00  0.00     0.029 A 
ATOM     59  N   UNL     1       2.421   4.961 -11.957  1.00  0.00    -0.354 N 
ATOM     60  N   UNL     1      -0.551   6.308 -10.309  1.00  0.00    -0.248 NA
ATOM     61  C   UNL     1      -1.518   8.384 -10.465  1.00  0.00     0.031 C 
ATOM     62  C   UNL     1       0.738   3.609 -11.478  1.00  0.00     0.029 A 
ATOM     63  C   UNL     1       1.040   4.845 -12.018  1.00  0.00     0.049 A 
ATOM     64  H   UNL     1       2.922   5.759 -12.243  1.00  0.00     0.167 HD
ATOM     65  C   UNL     1      -0.428   6.692 -11.626  1.00  0.00     0.074 A 
ATOM     66  C   UNL     1      -1.091   7.986 -11.674  1.00  0.00     0.031 C 
ATOM     67  C   UNL     1       0.281   5.969 -12.554  1.00  0.00     0.034 A 
BRANCH  54  68
ATOM     68  C   UNL     1       5.441   2.835 -11.628  1.00  0.00     0.023 A 
ATOM     69  C   UNL     1       4.921   1.659 -12.212  1.00  0.00     0.012 A 
ATOM     70  C   UNL     1       6.851   2.914 -11.539  1.00  0.00     0.148 A 
ATOM     71  C   UNL     1       5.729   0.581 -12.582  1.00  0.00     0.002 A 
ATOM     72  C   UNL     1       7.656   1.810 -11.839  1.00  0.00     0.091 A 
ATOM     73  F   UNL     1       7.432   4.081 -11.239  1.00  0.00    -0.205 F 
ATOM     74  C   UNL     1       7.095   0.640 -12.359  1.00  0.00     0.022 A 
BRANCH  72  75
ATOM     75  S   UNL     1       9.423   1.769 -11.490  1.00  0.00     0.127 S 
ATOM     76  O   UNL     1       9.562   0.508 -10.756  1.00  0.00    -0.237 OA
ATOM     77  O   UNL     1      10.011   1.757 -12.827  1.00  0.00    -0.237 OA
ATOM     78  O   UNL     1       9.703   2.953 -10.686  1.00  0.00    -0.744 OA
ENDBRANCH  72  75
ENDBRANCH  54  68
BRANCH  55  79
ATOM     79  C   UNL     1      -1.119   8.620  -7.284  1.00  0.00     0.023 A 
ATOM     80  C   UNL     1      -1.804   8.573  -6.045  1.00  0.00     0.012 A 
ATOM     81  C   UNL     1      -0.195   9.652  -7.511  1.00  0.00     0.148 A 
ATOM     82  C   UNL     1      -1.474   9.450  -5.011  1.00  0.00     0.002 A 
ATOM     83  C   UNL     1       0.138  10.515  -6.471  1.00  0.00     0.091 A 
ATOM     84  F   UNL     1       0.414   9.717  -8.701  1.00  0.00    -0.205 F 
ATOM     85  C   UNL     1      -0.473  10.394  -5.213  1.00  0.00     0.022 A 
BRANCH  83  86
ATOM     86  S   UNL     1       1.472  11.707  -6.634  1.00  0.00     0.127 S 
ATOM     87  O   UNL     1       0.734  12.932  -6.920  1.00  0.00    -0.237 OA
ATOM     88  O   UNL     1       2.092  11.653  -5.312  1.00  0.00    -0.237 OA
ATOM     89  O   UNL     1       2.306  11.188  -7.708  1.00  0.00    -0.744 OA
ENDBRANCH  83  86
ENDBRANCH  55  79
BRANCH  67  90
ATOM     90  C   UNL     1       0.408   6.315 -14.038  1.00  0.00     0.023 A 
ATOM     91  C   UNL     1      -0.550   7.106 -14.699  1.00  0.00     0.012 A 
ATOM     92  C   UNL     1       1.444   5.786 -14.860  1.00  0.00     0.148 A 
ATOM     93  C   UNL     1      -0.410   7.482 -16.042  1.00  0.00     0.002 A 
ATOM     94  C   UNL     1       1.577   6.146 -16.198  1.00  0.00     0.091 A 
ATOM     95  F   UNL     1       2.287   4.871 -14.376  1.00  0.00    -0.205 F 
ATOM     96  C   UNL     1       0.668   7.023 -16.786  1.00  0.00     0.022 A 
BRANCH  94  97
ATOM     97  S   UNL     1       2.891   5.497 -17.243  1.00  0.00     0.127 S 
ATOM     98  O   UNL     1       2.146   4.601 -18.127  1.00  0.00    -0.237 OA
ATOM     99  O   UNL     1       3.392   6.711 -17.888  1.00  0.00    -0.237 OA
ATOM    100  O   UNL     1       3.840   4.850 -16.349  1.00  0.00    -0.744 OA
ENDBRANCH  94  97
ENDBRANCH  67  90
ENDBRANCH  41  42
ENDBRANCH  33  36
ENDBRANCH  31  32
ENDBRANCH   1  31
TORSDOF 16
