REMARK SMILES Cc1ccc(C)c(N2C(=O)C[C@@H](SCC(=O)NCCCNC(=O)c3ccc(-c4c5nc(c(-c6cccc(S(=O)(=O)[O-])c6F)c6ccc([nH]6)c(-c6cccc(S(=O)(=O)[O-])c6F)c6nc(c(-c7cccc(S(=O)(=O)[O-])c7F)c7ccc4[nH]7)C=C6)C=C5)cc3)C2=O)c1
REMARK SMILES IDX 19 1 18 2 17 3 15 4 16 5 14 7 13 8 12 9 8 10 9 11 87 12
REMARK SMILES IDX 10 13 11 14 88 15 7 16 1 17 2 18 3 19 89 20 4 21 5 22 6 23
REMARK SMILES IDX 20 24 21 25 22 26 23 28 24 29 25 30 86 31 26 32 85 33 27 34
REMARK SMILES IDX 28 35 29 36 79 37 30 38 84 39 78 40 80 41 31 42 83 43 77 44
REMARK SMILES IDX 76 45 32 47 64 48 44 49 63 50 45 51 48 52 62 53 81 54 46 55
REMARK SMILES IDX 47 56 61 58 82 59 49 60 33 61 34 62 42 63 35 64 37 65 43 66
REMARK SMILES IDX 36 67 38 68 39 69 40 70 41 71 65 72 66 73 74 74 67 75 69 76
REMARK SMILES IDX 75 77 68 78 70 79 71 80 72 81 73 82 50 83 51 84 59 85 52 86
REMARK SMILES IDX 54 87 60 88 53 89 55 90 56 91 57 92 58 93
REMARK H PARENT 17 6 21 27 80 46 48 57
REMARK Flexibility Score: inf
ROOT
ATOM      1  C   UNL     1      -6.447   4.103   3.082  1.00  0.00     0.042 C 
ENDROOT
BRANCH   1   2
ATOM      2  C   UNL     1      -6.953   5.132   2.062  1.00  0.00     0.117 C 
BRANCH   2   3
ATOM      3  N   UNL     1      -5.973   6.144   1.701  1.00  0.00    -0.355 N 
ATOM      4  C   UNL     1      -5.252   6.301   0.554  1.00  0.00     0.230 C 
ATOM      5  O   UNL     1      -4.515   7.282   0.458  1.00  0.00    -0.274 OA
ATOM      6  H   UNL     1      -5.802   6.823   2.394  1.00  0.00     0.163 HD
BRANCH   4   7
ATOM      7  C   UNL     1      -5.375   5.317  -0.588  1.00  0.00     0.170 C 
BRANCH   7   8
ATOM      8  S   UNL     1      -4.662   3.689  -0.221  1.00  0.00    -0.138 SA
BRANCH   8   9
ATOM      9  C   UNL     1      -2.982   4.164   0.399  1.00  0.00     0.146 C 
ATOM     10  N   UNL     1      -1.403   2.489  -0.032  1.00  0.00    -0.249 N 
ATOM     11  C   UNL     1      -1.205   3.433  -1.010  1.00  0.00     0.235 C 
ATOM     12  C   UNL     1      -2.335   2.887   0.897  1.00  0.00     0.247 C 
ATOM     13  O   UNL     1      -0.512   3.334  -2.015  1.00  0.00    -0.274 OA
ATOM     14  C   UNL     1      -2.039   4.641  -0.692  1.00  0.00     0.125 C 
ATOM     15  O   UNL     1      -2.660   2.313   1.931  1.00  0.00    -0.273 OA
BRANCH  10  16
ATOM     16  C   UNL     1      -0.735   1.244  -0.009  1.00  0.00     0.055 A 
ATOM     17  C   UNL     1       2.899   0.052  -0.053  1.00  0.00     0.044 C 
ATOM     18  C   UNL     1       1.400   0.045  -0.027  1.00  0.00    -0.049 A 
ATOM     19  C   UNL     1       0.711  -1.165   0.065  1.00  0.00     0.004 A 
ATOM     20  C   UNL     1       0.670   1.240  -0.085  1.00  0.00     0.030 A 
ATOM     21  C   UNL     1      -0.683  -1.179   0.108  1.00  0.00     0.006 A 
ATOM     22  C   UNL     1      -1.424   0.016   0.067  1.00  0.00    -0.027 A 
ATOM     23  C   UNL     1      -2.922  -0.116   0.031  1.00  0.00     0.046 C 
ENDBRANCH  10  16
ENDBRANCH   8   9
ENDBRANCH   7   8
ENDBRANCH   4   7
ENDBRANCH   2   3
ENDBRANCH   1   2
BRANCH   1  24
ATOM     24  C   UNL     1      -6.168   4.677   4.464  1.00  0.00     0.118 C 
BRANCH  24  25
ATOM     25  N   UNL     1      -7.368   5.202   5.142  1.00  0.00    -0.352 N 
ATOM     26  C   UNL     1      -7.520   6.135   6.156  1.00  0.00     0.251 C 
ATOM     27  H   UNL     1      -8.215   4.821   4.815  1.00  0.00     0.163 HD
ATOM     28  O   UNL     1      -8.590   6.184   6.776  1.00  0.00    -0.269 OA
BRANCH  26  29
ATOM     29  C   UNL     1      -6.443   7.084   6.489  1.00  0.00     0.039 A 
ATOM     30  C   UNL     1      -6.475   7.989   7.551  1.00  0.00     0.014 A 
ATOM     31  C   UNL     1      -5.404   7.185   5.592  1.00  0.00     0.014 A 
ATOM     32  C   UNL     1      -5.517   9.011   7.575  1.00  0.00     0.010 A 
ATOM     33  C   UNL     1      -4.269   7.839   5.920  1.00  0.00     0.010 A 
ATOM     34  C   UNL     1      -4.444   8.957   6.680  1.00  0.00    -0.014 A 
BRANCH  34  35
ATOM     35  C   UNL     1      -3.371   9.916   6.601  1.00  0.00     0.031 A 
ATOM     36  C   UNL     1      -2.499   9.877   7.781  1.00  0.00     0.074 A 
ATOM     37  C   UNL     1      -3.034  10.576   5.472  1.00  0.00     0.049 A 
ATOM     38  N   UNL     1      -2.600  10.626   8.824  1.00  0.00    -0.248 NA
ATOM     39  C   UNL     1      -1.593   8.730   7.940  1.00  0.00     0.031 C 
ATOM     40  C   UNL     1      -3.539  10.403   4.103  1.00  0.00     0.029 A 
ATOM     41  N   UNL     1      -2.049  11.497   5.311  1.00  0.00    -0.354 N 
ATOM     42  C   UNL     1      -1.556  10.222   9.640  1.00  0.00     0.074 A 
ATOM     43  C   UNL     1      -1.209   8.896   9.207  1.00  0.00     0.031 C 
ATOM     44  C   UNL     1      -2.718  11.045   3.236  1.00  0.00     0.029 A 
ATOM     45  C   UNL     1      -1.722  11.784   3.991  1.00  0.00     0.049 A 
ATOM     46  H   UNL     1      -1.599  11.930   6.072  1.00  0.00     0.167 HD
ATOM     47  C   UNL     1      -0.848  11.136  10.356  1.00  0.00     0.034 A 
ATOM     48  C   UNL     1      -0.668  12.533   3.579  1.00  0.00     0.034 A 
ATOM     49  C   UNL     1      -1.505  12.426  10.341  1.00  0.00     0.049 A 
ATOM     50  C   UNL     1      -0.249  13.365   4.736  1.00  0.00     0.074 A 
ATOM     51  C   UNL     1      -2.770  12.879  10.665  1.00  0.00     0.029 A 
ATOM     52  N   UNL     1      -0.960  13.387   9.521  1.00  0.00    -0.354 N 
ATOM     53  N   UNL     1      -0.984  14.317   5.241  1.00  0.00    -0.248 NA
ATOM     54  C   UNL     1       0.786  12.843   5.614  1.00  0.00     0.031 C 
ATOM     55  C   UNL     1      -3.090  13.833   9.653  1.00  0.00     0.029 A 
ATOM     56  C   UNL     1      -1.980  13.972   8.817  1.00  0.00     0.049 A 
ATOM     57  H   UNL     1      -0.005  13.615   9.451  1.00  0.00     0.167 HD
ATOM     58  C   UNL     1      -0.826  14.182   6.615  1.00  0.00     0.074 A 
ATOM     59  C   UNL     1       0.360  13.342   6.779  1.00  0.00     0.031 C 
ATOM     60  C   UNL     1      -1.837  14.504   7.477  1.00  0.00     0.034 A 
BRANCH  47  61
ATOM     61  C   UNL     1       0.610  11.002  10.729  1.00  0.00     0.023 A 
ATOM     62  C   UNL     1       1.127  11.982  11.604  1.00  0.00     0.012 A 
ATOM     63  C   UNL     1       1.549  10.151  10.100  1.00  0.00     0.148 A 
ATOM     64  C   UNL     1       2.502  12.150  11.790  1.00  0.00     0.002 A 
ATOM     65  C   UNL     1       2.910  10.265  10.355  1.00  0.00     0.091 A 
ATOM     66  F   UNL     1       1.167   9.309   9.139  1.00  0.00    -0.205 F 
ATOM     67  C   UNL     1       3.395  11.286  11.171  1.00  0.00     0.022 A 
BRANCH  65  68
ATOM     68  S   UNL     1       4.099   9.135   9.619  1.00  0.00     0.127 S 
ATOM     69  O   UNL     1       4.721   9.985   8.609  1.00  0.00    -0.237 OA
ATOM     70  O   UNL     1       4.947   8.807  10.765  1.00  0.00    -0.237 OA
ATOM     71  O   UNL     1       3.316   8.011   9.119  1.00  0.00    -0.744 OA
ENDBRANCH  65  68
ENDBRANCH  47  61
BRANCH  48  72
ATOM     72  C   UNL     1       0.165  12.431   2.357  1.00  0.00     0.023 A 
ATOM     73  C   UNL     1       0.961  13.527   1.964  1.00  0.00     0.012 A 
ATOM     74  C   UNL     1       0.411  11.179   1.754  1.00  0.00     0.148 A 
ATOM     75  C   UNL     1       1.997  13.372   1.034  1.00  0.00     0.002 A 
ATOM     76  C   UNL     1       1.441  11.028   0.828  1.00  0.00     0.091 A 
ATOM     77  F   UNL     1      -0.297  10.117   2.159  1.00  0.00    -0.205 F 
ATOM     78  C   UNL     1       2.244  12.121   0.476  1.00  0.00     0.022 A 
BRANCH  76  79
ATOM     79  S   UNL     1       1.848   9.437   0.095  1.00  0.00     0.127 S 
ATOM     80  O   UNL     1       1.913   9.768  -1.329  1.00  0.00    -0.237 OA
ATOM     81  O   UNL     1       3.137   9.141   0.714  1.00  0.00    -0.237 OA
ATOM     82  O   UNL     1       0.758   8.537   0.452  1.00  0.00    -0.744 OA
ENDBRANCH  76  79
ENDBRANCH  48  72
BRANCH  60  83
ATOM     83  C   UNL     1      -3.024  15.263   6.929  1.00  0.00     0.023 A 
ATOM     84  C   UNL     1      -3.864  14.740   5.923  1.00  0.00     0.012 A 
ATOM     85  C   UNL     1      -3.398  16.459   7.565  1.00  0.00     0.148 A 
ATOM     86  C   UNL     1      -5.033  15.406   5.544  1.00  0.00     0.002 A 
ATOM     87  C   UNL     1      -4.586  17.093   7.220  1.00  0.00     0.091 A 
ATOM     88  F   UNL     1      -2.593  16.948   8.520  1.00  0.00    -0.205 F 
ATOM     89  C   UNL     1      -5.402  16.576   6.203  1.00  0.00     0.022 A 
BRANCH  87  90
ATOM     90  S   UNL     1      -5.176  18.528   8.122  1.00  0.00     0.127 S 
ATOM     91  O   UNL     1      -4.875  19.616   7.195  1.00  0.00    -0.237 OA
ATOM     92  O   UNL     1      -6.602  18.237   8.282  1.00  0.00    -0.237 OA
ATOM     93  O   UNL     1      -4.431  18.545   9.375  1.00  0.00    -0.744 OA
ENDBRANCH  87  90
ENDBRANCH  60  83
ENDBRANCH  34  35
ENDBRANCH  26  29
ENDBRANCH  24  25
ENDBRANCH   1  24
TORSDOF 16
