REMARK SMILES CC[C@@]1(C(=O)NCCCNC(=O)c2ccc(-c3c4nc(c(-c5cccc(S(=O)(=O)[O-])c5F)c5ccc([nH]5)c(-c5cccc(S(=O)(=O)[O-])c5F)c5nc(c(-c6cccc(S(=O)(=O)[O-])c6F)c6ccc3[nH]6)C=C5)C=C4)cc2)CCN(C(=O)N(C)CCc2cccs2)C1
REMARK SMILES IDX 7 1 6 2 4 3 5 4 3 6 76 7 90 8 77 9 78 10 2 11 1 12 79 13
REMARK SMILES IDX 80 14 81 15 82 16 83 17 84 18 85 19 86 20 89 21 87 22 88 23
REMARK SMILES IDX 8 24 9 25 10 26 11 27 12 29 13 30 14 31 75 32 15 33 74 34
REMARK SMILES IDX 16 35 17 36 18 37 68 38 19 39 73 40 67 41 69 42 20 43 72 44
REMARK SMILES IDX 66 45 65 46 21 48 53 49 33 50 52 51 34 52 37 53 51 54 70 55
REMARK SMILES IDX 35 56 36 57 50 59 71 60 38 61 22 62 23 63 31 64 24 65 26 66
REMARK SMILES IDX 32 67 25 68 27 69 28 70 29 71 30 72 54 73 55 74 63 75 56 76
REMARK SMILES IDX 58 77 64 78 57 79 59 80 60 81 61 82 62 83 39 84 40 85 48 86
REMARK SMILES IDX 41 87 43 88 49 89 42 90 44 91 45 92 46 93 47 94
REMARK H PARENT 6 5 10 28 69 47 37 58
REMARK Flexibility Score: inf
ROOT
ATOM      1  C   UNL     1      -2.001  -1.055   1.665  1.00  0.00     0.117 C 
ENDROOT
BRANCH   1   2
ATOM      2  N   UNL     1      -0.825  -1.112   0.820  1.00  0.00    -0.355 N 
ATOM      3  C   UNL     1       0.507  -1.077   1.100  1.00  0.00     0.228 C 
ATOM      4  O   UNL     1       1.250  -1.231   0.127  1.00  0.00    -0.274 OA
ATOM      5  H   UNL     1      -1.028  -1.191  -0.141  1.00  0.00     0.163 HD
BRANCH   3   6
ATOM      6  C   UNL     1       1.055  -0.815   2.524  1.00  0.00     0.068 C 
ATOM      7  C   UNL     1       0.876   0.675   2.873  1.00  0.00     0.040 C 
ATOM      8  C   UNL     1       2.599  -0.959   2.498  1.00  0.00     0.138 C 
ATOM      9  C   UNL     1       2.132   1.371   2.361  1.00  0.00     0.122 C 
ATOM     10  N   UNL     1       3.181   0.376   2.430  1.00  0.00    -0.324 N 
BRANCH   6  11
ATOM     11  C   UNL     1       0.476  -1.834   3.558  1.00  0.00     0.015 C 
ATOM     12  C   UNL     1      -0.211  -1.251   4.794  1.00  0.00     0.005 C 
ENDBRANCH   6  11
BRANCH  10  13
ATOM     13  C   UNL     1       4.552   0.459   2.481  1.00  0.00     0.319 C 
ATOM     14  O   UNL     1       5.224  -0.573   2.371  1.00  0.00    -0.248 OA
BRANCH  13  15
ATOM     15  N   UNL     1       5.181   1.655   2.763  1.00  0.00    -0.327 N 
ATOM     16  C   UNL     1       4.654   2.992   2.564  1.00  0.00     0.148 C 
BRANCH  15  17
ATOM     17  C   UNL     1       6.522   1.570   3.367  1.00  0.00     0.126 C 
BRANCH  17  18
ATOM     18  C   UNL     1       6.511   1.280   4.883  1.00  0.00     0.068 C 
BRANCH  18  19
ATOM     19  C   UNL     1       6.281  -0.170   5.215  1.00  0.00     0.006 A 
ATOM     20  C   UNL     1       7.123  -1.242   4.980  1.00  0.00     0.015 A 
ATOM     21  S   UNL     1       4.821  -0.677   5.957  1.00  0.00    -0.149 S 
ATOM     22  C   UNL     1       6.517  -2.489   5.304  1.00  0.00     0.012 A 
ATOM     23  C   UNL     1       5.251  -2.327   5.819  1.00  0.00     0.065 A 
ENDBRANCH  18  19
ENDBRANCH  17  18
ENDBRANCH  15  17
ENDBRANCH  13  15
ENDBRANCH  10  13
ENDBRANCH   3   6
ENDBRANCH   1   2
BRANCH   1  24
ATOM     24  C   UNL     1      -2.889   0.144   1.380  1.00  0.00     0.042 C 
BRANCH  24  25
ATOM     25  C   UNL     1      -3.584   0.102   0.027  1.00  0.00     0.118 C 
BRANCH  25  26
ATOM     26  N   UNL     1      -4.481  -1.038  -0.111  1.00  0.00    -0.352 N 
ATOM     27  C   UNL     1      -5.842  -1.098  -0.280  1.00  0.00     0.251 C 
ATOM     28  H   UNL     1      -4.035  -1.915  -0.077  1.00  0.00     0.163 HD
ATOM     29  O   UNL     1      -6.404  -2.186  -0.175  1.00  0.00    -0.269 OA
BRANCH  27  30
ATOM     30  C   UNL     1      -6.638   0.117  -0.573  1.00  0.00     0.039 A 
ATOM     31  C   UNL     1      -7.921   0.224  -0.027  1.00  0.00     0.014 A 
ATOM     32  C   UNL     1      -6.159   1.127  -1.411  1.00  0.00     0.014 A 
ATOM     33  C   UNL     1      -8.691   1.363  -0.275  1.00  0.00     0.010 A 
ATOM     34  C   UNL     1      -6.888   2.302  -1.579  1.00  0.00     0.010 A 
ATOM     35  C   UNL     1      -8.168   2.429  -1.025  1.00  0.00    -0.014 A 
BRANCH  35  36
ATOM     36  C   UNL     1      -8.946   3.681  -1.213  1.00  0.00     0.031 A 
ATOM     37  C   UNL     1      -9.357   4.141  -2.587  1.00  0.00     0.074 A 
ATOM     38  C   UNL     1      -9.226   4.446  -0.139  1.00  0.00     0.049 A 
ATOM     39  N   UNL     1     -10.064   5.189  -2.925  1.00  0.00    -0.248 NA
ATOM     40  C   UNL     1      -8.892   3.341  -3.732  1.00  0.00     0.031 C 
ATOM     41  C   UNL     1      -8.783   4.173   1.230  1.00  0.00     0.029 A 
ATOM     42  N   UNL     1      -9.933   5.617  -0.030  1.00  0.00    -0.354 N 
ATOM     43  C   UNL     1     -10.099   5.194  -4.315  1.00  0.00     0.074 A 
ATOM     44  C   UNL     1      -9.309   4.067  -4.759  1.00  0.00     0.031 C 
ATOM     45  C   UNL     1      -9.243   5.137   2.043  1.00  0.00     0.029 A 
ATOM     46  C   UNL     1      -9.998   6.105   1.254  1.00  0.00     0.049 A 
ATOM     47  H   UNL     1     -10.354   6.065  -0.799  1.00  0.00     0.167 HD
ATOM     48  C   UNL     1     -10.755   6.039  -5.147  1.00  0.00     0.034 A 
ATOM     49  C   UNL     1     -10.607   7.201   1.745  1.00  0.00     0.034 A 
ATOM     50  C   UNL     1     -11.580   7.130  -4.699  1.00  0.00     0.049 A 
ATOM     51  C   UNL     1     -11.411   8.066   0.813  1.00  0.00     0.074 A 
ATOM     52  C   UNL     1     -12.372   7.977  -5.454  1.00  0.00     0.029 A 
ATOM     53  N   UNL     1     -11.714   7.529  -3.378  1.00  0.00    -0.354 N 
ATOM     54  N   UNL     1     -11.591   7.941  -0.479  1.00  0.00    -0.248 NA
ATOM     55  C   UNL     1     -12.136   9.193   1.415  1.00  0.00     0.031 C 
ATOM     56  C   UNL     1     -12.972   8.901  -4.589  1.00  0.00     0.029 A 
ATOM     57  C   UNL     1     -12.570   8.615  -3.295  1.00  0.00     0.049 A 
ATOM     58  H   UNL     1     -11.267   7.104  -2.612  1.00  0.00     0.167 HD
ATOM     59  C   UNL     1     -12.468   8.956  -0.842  1.00  0.00     0.074 A 
ATOM     60  C   UNL     1     -12.811   9.663   0.375  1.00  0.00     0.031 C 
ATOM     61  C   UNL     1     -12.933   9.286  -2.073  1.00  0.00     0.034 A 
BRANCH  48  62
ATOM     62  C   UNL     1     -10.657   5.779  -6.629  1.00  0.00     0.023 A 
ATOM     63  C   UNL     1     -11.314   4.660  -7.182  1.00  0.00     0.012 A 
ATOM     64  C   UNL     1      -9.967   6.664  -7.481  1.00  0.00     0.148 A 
ATOM     65  C   UNL     1     -11.255   4.405  -8.552  1.00  0.00     0.002 A 
ATOM     66  C   UNL     1      -9.951   6.427  -8.851  1.00  0.00     0.091 A 
ATOM     67  F   UNL     1      -9.328   7.709  -6.937  1.00  0.00    -0.205 F 
ATOM     68  C   UNL     1     -10.584   5.293  -9.387  1.00  0.00     0.022 A 
BRANCH  66  69
ATOM     69  S   UNL     1      -9.181   7.554 -10.019  1.00  0.00     0.127 S 
ATOM     70  O   UNL     1      -7.989   6.804 -10.412  1.00  0.00    -0.237 OA
ATOM     71  O   UNL     1     -10.202   7.666 -11.061  1.00  0.00    -0.237 OA
ATOM     72  O   UNL     1      -8.932   8.786  -9.281  1.00  0.00    -0.744 OA
ENDBRANCH  66  69
ENDBRANCH  48  62
BRANCH  49  73
ATOM     73  C   UNL     1     -10.554   7.483   3.207  1.00  0.00     0.023 A 
ATOM     74  C   UNL     1     -11.713   7.311   3.988  1.00  0.00     0.012 A 
ATOM     75  C   UNL     1      -9.354   7.871   3.834  1.00  0.00     0.148 A 
ATOM     76  C   UNL     1     -11.687   7.549   5.362  1.00  0.00     0.002 A 
ATOM     77  C   UNL     1      -9.320   8.050   5.212  1.00  0.00     0.091 A 
ATOM     78  F   UNL     1      -8.265   8.040   3.071  1.00  0.00    -0.205 F 
ATOM     79  C   UNL     1     -10.489   7.907   5.976  1.00  0.00     0.022 A 
BRANCH  77  80
ATOM     80  S   UNL     1      -7.791   8.367   6.100  1.00  0.00     0.127 S 
ATOM     81  O   UNL     1      -7.942   9.773   6.464  1.00  0.00    -0.237 OA
ATOM     82  O   UNL     1      -7.888   7.427   7.217  1.00  0.00    -0.237 OA
ATOM     83  O   UNL     1      -6.722   8.065   5.157  1.00  0.00    -0.744 OA
ENDBRANCH  77  80
ENDBRANCH  49  73
BRANCH  61  84
ATOM     84  C   UNL     1     -13.876  10.458  -2.162  1.00  0.00     0.023 A 
ATOM     85  C   UNL     1     -13.386  11.764  -1.958  1.00  0.00     0.012 A 
ATOM     86  C   UNL     1     -15.234  10.273  -2.483  1.00  0.00     0.148 A 
ATOM     87  C   UNL     1     -14.242  12.862  -2.026  1.00  0.00     0.002 A 
ATOM     88  C   UNL     1     -16.072  11.377  -2.598  1.00  0.00     0.091 A 
ATOM     89  F   UNL     1     -15.690   9.023  -2.654  1.00  0.00    -0.205 F 
ATOM     90  C   UNL     1     -15.582  12.670  -2.355  1.00  0.00     0.022 A 
BRANCH  88  91
ATOM     91  S   UNL     1     -17.786  11.219  -3.111  1.00  0.00     0.127 S 
ATOM     92  O   UNL     1     -18.489  11.290  -1.832  1.00  0.00    -0.237 OA
ATOM     93  O   UNL     1     -17.967  12.389  -3.972  1.00  0.00    -0.237 OA
ATOM     94  O   UNL     1     -17.870   9.944  -3.811  1.00  0.00    -0.744 OA
ENDBRANCH  88  91
ENDBRANCH  61  84
ENDBRANCH  35  36
ENDBRANCH  27  30
ENDBRANCH  25  26
ENDBRANCH  24  25
ENDBRANCH   1  24
TORSDOF 19
