REMARK SMILES Cc1cccc(CS(=O)(=O)c2ccc(C(=O)NCCCNC(=O)c3ccc(-c4c5nc(c(-c6cccc(S(=O)(=O)[O-])c6F)c6ccc([nH]6)c(-c6cccc(S(=O)(=O)[O-])c6F)c6nc(c(-c7cccc(S(=O)(=O)[O-])c7F)c7ccc4[nH]7)C=C6)C=C5)cc3)cc2F)n1
REMARK SMILES IDX 19 1 18 2 17 3 15 4 16 5 14 7 11 8 12 9 88 10 13 11 87 12
REMARK SMILES IDX 89 13 8 14 9 15 10 16 7 17 6 18 1 19 2 20 3 21 90 22 4 23
REMARK SMILES IDX 5 24 20 25 21 26 22 27 23 29 24 30 25 31 86 32 26 33 85 34
REMARK SMILES IDX 27 35 28 36 29 37 79 38 30 39 84 40 78 41 80 42 31 43 83 44
REMARK SMILES IDX 77 45 76 46 32 48 64 49 44 50 63 51 45 52 48 53 62 54 81 55
REMARK SMILES IDX 46 56 47 57 61 59 82 60 49 61 33 62 34 63 42 64 35 65 37 66
REMARK SMILES IDX 43 67 36 68 38 69 39 70 40 71 41 72 65 73 66 74 74 75 67 76
REMARK SMILES IDX 69 77 75 78 68 79 70 80 71 81 72 82 73 83 50 84 51 85 59 86
REMARK SMILES IDX 52 87 54 88 60 89 53 90 55 91 56 92 57 93 58 94
REMARK H PARENT 17 6 21 28 80 47 48 58
REMARK Flexibility Score: inf
ROOT
ATOM      1  C   UNL     1      -3.955   2.918   8.284  1.00  0.00     0.042 C 
ENDROOT
BRANCH   1   2
ATOM      2  C   UNL     1      -2.540   2.402   8.029  1.00  0.00     0.118 C 
BRANCH   2   3
ATOM      3  N   UNL     1      -2.562   1.016   7.599  1.00  0.00    -0.352 N 
ATOM      4  C   UNL     1      -2.396   0.437   6.370  1.00  0.00     0.251 C 
ATOM      5  O   UNL     1      -2.406  -0.792   6.297  1.00  0.00    -0.269 OA
ATOM      6  H   UNL     1      -2.726   0.372   8.326  1.00  0.00     0.163 HD
BRANCH   4   7
ATOM      7  C   UNL     1      -2.130   1.222   5.138  1.00  0.00     0.042 A 
ATOM      8  C   UNL     1      -1.474   2.576   2.761  1.00  0.00     0.103 A 
ATOM      9  C   UNL     1      -0.904   1.331   3.042  1.00  0.00     0.024 A 
ATOM     10  C   UNL     1      -2.363   3.136   3.672  1.00  0.00     0.142 A 
ATOM     11  C   UNL     1      -1.254   0.647   4.207  1.00  0.00     0.015 A 
ATOM     12  C   UNL     1      -2.704   2.459   4.847  1.00  0.00     0.054 A 
ATOM     13  F   UNL     1      -2.909   4.341   3.480  1.00  0.00    -0.206 F 
BRANCH   8  14
ATOM     14  S   UNL     1      -0.969   3.468   1.311  1.00  0.00     0.186 S 
ATOM     15  O   UNL     1       0.486   3.505   1.349  1.00  0.00    -0.223 OA
ATOM     16  O   UNL     1      -1.687   4.727   1.286  1.00  0.00    -0.223 OA
BRANCH  14  17
ATOM     17  C   UNL     1      -1.562   2.554  -0.103  1.00  0.00     0.198 C 
BRANCH  17  18
ATOM     18  C   UNL     1      -0.988   1.172  -0.160  1.00  0.00     0.056 A 
ATOM     19  C   UNL     1       2.417  -0.217  -0.151  1.00  0.00     0.067 C 
ATOM     20  C   UNL     1       0.920  -0.174  -0.205  1.00  0.00     0.038 A 
ATOM     21  C   UNL     1       0.158  -1.332  -0.166  1.00  0.00     0.023 A 
ATOM     22  N   UNL     1       0.358   1.056  -0.228  1.00  0.00    -0.257 NA
ATOM     23  C   UNL     1      -1.228  -1.213  -0.155  1.00  0.00     0.004 A 
ATOM     24  C   UNL     1      -1.813   0.051  -0.152  1.00  0.00     0.025 A 
ENDBRANCH  17  18
ENDBRANCH  14  17
ENDBRANCH   8  14
ENDBRANCH   4   7
ENDBRANCH   2   3
ENDBRANCH   1   2
BRANCH   1  25
ATOM     25  C   UNL     1      -4.590   2.343   9.547  1.00  0.00     0.118 C 
BRANCH  25  26
ATOM     26  N   UNL     1      -3.931   2.824  10.755  1.00  0.00    -0.352 N 
ATOM     27  C   UNL     1      -4.445   3.530  11.813  1.00  0.00     0.251 C 
ATOM     28  H   UNL     1      -2.973   2.609  10.821  1.00  0.00     0.163 HD
ATOM     29  O   UNL     1      -3.677   4.048  12.620  1.00  0.00    -0.269 OA
BRANCH  27  30
ATOM     30  C   UNL     1      -5.907   3.672  11.985  1.00  0.00     0.039 A 
ATOM     31  C   UNL     1      -6.422   4.902  12.405  1.00  0.00     0.014 A 
ATOM     32  C   UNL     1      -6.765   2.588  11.780  1.00  0.00     0.014 A 
ATOM     33  C   UNL     1      -7.800   5.056  12.573  1.00  0.00     0.010 A 
ATOM     34  C   UNL     1      -8.143   2.764  11.878  1.00  0.00     0.010 A 
ATOM     35  C   UNL     1      -8.675   3.996  12.286  1.00  0.00    -0.014 A 
BRANCH  35  36
ATOM     36  C   UNL     1     -10.147   4.157  12.396  1.00  0.00     0.031 A 
ATOM     37  C   UNL     1     -10.930   3.336  13.383  1.00  0.00     0.074 A 
ATOM     38  C   UNL     1     -10.787   4.985  11.546  1.00  0.00     0.049 A 
ATOM     39  N   UNL     1     -12.223   3.292  13.575  1.00  0.00    -0.248 NA
ATOM     40  C   UNL     1     -10.167   2.425  14.254  1.00  0.00     0.031 C 
ATOM     41  C   UNL     1     -10.144   5.780  10.499  1.00  0.00     0.029 A 
ATOM     42  N   UNL     1     -12.122   5.277  11.412  1.00  0.00    -0.354 N 
ATOM     43  C   UNL     1     -12.431   2.330  14.556  1.00  0.00     0.074 A 
ATOM     44  C   UNL     1     -11.135   1.791  14.901  1.00  0.00     0.031 C 
ATOM     45  C   UNL     1     -11.081   6.475   9.836  1.00  0.00     0.029 A 
ATOM     46  C   UNL     1     -12.394   6.152  10.386  1.00  0.00     0.049 A 
ATOM     47  H   UNL     1     -12.818   4.896  11.994  1.00  0.00     0.167 HD
ATOM     48  C   UNL     1     -13.594   1.952  15.137  1.00  0.00     0.034 A 
ATOM     49  C   UNL     1     -13.568   6.636   9.933  1.00  0.00     0.034 A 
ATOM     50  C   UNL     1     -14.873   2.531  14.826  1.00  0.00     0.049 A 
ATOM     51  C   UNL     1     -14.841   6.231  10.624  1.00  0.00     0.074 A 
ATOM     52  C   UNL     1     -16.094   2.279  15.425  1.00  0.00     0.029 A 
ATOM     53  N   UNL     1     -15.098   3.473  13.835  1.00  0.00    -0.354 N 
ATOM     54  N   UNL     1     -15.001   5.427  11.647  1.00  0.00    -0.248 NA
ATOM     55  C   UNL     1     -16.091   6.822  10.125  1.00  0.00     0.031 C 
ATOM     56  C   UNL     1     -17.064   3.051  14.778  1.00  0.00     0.029 A 
ATOM     57  C   UNL     1     -16.441   3.806  13.798  1.00  0.00     0.049 A 
ATOM     58  H   UNL     1     -14.406   3.849  13.245  1.00  0.00     0.167 HD
ATOM     59  C   UNL     1     -16.361   5.439  11.934  1.00  0.00     0.074 A 
ATOM     60  C   UNL     1     -16.979   6.345  10.989  1.00  0.00     0.031 C 
ATOM     61  C   UNL     1     -17.036   4.750  12.886  1.00  0.00     0.034 A 
BRANCH  48  62
ATOM     62  C   UNL     1     -13.541   0.906  16.220  1.00  0.00     0.023 A 
ATOM     63  C   UNL     1     -13.007   1.240  17.481  1.00  0.00     0.012 A 
ATOM     64  C   UNL     1     -14.111  -0.368  16.026  1.00  0.00     0.148 A 
ATOM     65  C   UNL     1     -13.021   0.318  18.526  1.00  0.00     0.002 A 
ATOM     66  C   UNL     1     -14.164  -1.266  17.086  1.00  0.00     0.091 A 
ATOM     67  F   UNL     1     -14.598  -0.673  14.815  1.00  0.00    -0.205 F 
ATOM     68  C   UNL     1     -13.611  -0.929  18.333  1.00  0.00     0.022 A 
BRANCH  66  69
ATOM     69  S   UNL     1     -14.978  -2.863  16.969  1.00  0.00     0.127 S 
ATOM     70  O   UNL     1     -13.844  -3.781  17.075  1.00  0.00    -0.237 OA
ATOM     71  O   UNL     1     -15.858  -2.845  18.137  1.00  0.00    -0.237 OA
ATOM     72  O   UNL     1     -15.666  -2.872  15.685  1.00  0.00    -0.744 OA
ENDBRANCH  66  69
ENDBRANCH  48  62
BRANCH  49  73
ATOM     73  C   UNL     1     -13.574   7.620   8.813  1.00  0.00     0.023 A 
ATOM     74  C   UNL     1     -13.890   8.966   9.081  1.00  0.00     0.012 A 
ATOM     75  C   UNL     1     -13.204   7.247   7.506  1.00  0.00     0.148 A 
ATOM     76  C   UNL     1     -13.857   9.920   8.064  1.00  0.00     0.002 A 
ATOM     77  C   UNL     1     -13.117   8.213   6.510  1.00  0.00     0.091 A 
ATOM     78  F   UNL     1     -12.918   5.959   7.270  1.00  0.00    -0.205 F 
ATOM     79  C   UNL     1     -13.458   9.547   6.783  1.00  0.00     0.022 A 
BRANCH  77  80
ATOM     80  S   UNL     1     -12.476   7.854   4.870  1.00  0.00     0.127 S 
ATOM     81  O   UNL     1     -13.670   8.006   4.043  1.00  0.00    -0.237 OA
ATOM     82  O   UNL     1     -11.472   8.904   4.704  1.00  0.00    -0.237 OA
ATOM     83  O   UNL     1     -11.930   6.506   4.947  1.00  0.00    -0.744 OA
ENDBRANCH  77  80
ENDBRANCH  49  73
BRANCH  61  84
ATOM     84  C   UNL     1     -18.525   4.953  12.988  1.00  0.00     0.023 A 
ATOM     85  C   UNL     1     -19.374   4.384  12.019  1.00  0.00     0.012 A 
ATOM     86  C   UNL     1     -19.086   5.595  14.111  1.00  0.00     0.148 A 
ATOM     87  C   UNL     1     -20.759   4.467  12.157  1.00  0.00     0.002 A 
ATOM     88  C   UNL     1     -20.466   5.629  14.267  1.00  0.00     0.091 A 
ATOM     89  F   UNL     1     -18.258   6.143  15.013  1.00  0.00    -0.205 F 
ATOM     90  C   UNL     1     -21.304   5.074  13.286  1.00  0.00     0.022 A 
BRANCH  88  91
ATOM     91  S   UNL     1     -21.256   6.292  15.738  1.00  0.00     0.127 S 
ATOM     92  O   UNL     1     -21.884   7.505  15.217  1.00  0.00    -0.237 OA
ATOM     93  O   UNL     1     -22.191   5.225  16.095  1.00  0.00    -0.237 OA
ATOM     94  O   UNL     1     -20.188   6.511  16.705  1.00  0.00    -0.744 OA
ENDBRANCH  88  91
ENDBRANCH  61  84
ENDBRANCH  35  36
ENDBRANCH  27  30
ENDBRANCH  25  26
ENDBRANCH   1  25
TORSDOF 16
