REMARK SMILES C[C@H](NC(=O)[C@@H](C)Oc1ccc(Cl)cc1Br)C(=O)NCCCNC(=O)c1ccc(-c2c3nc(c(-c4cccc(S(=O)(=O)[O-])c4F)c4ccc([nH]4)c(-c4cccc(S(=O)(=O)[O-])c4F)c4nc(c(-c5cccc(S(=O)(=O)[O-])c5F)c5ccc2[nH]5)C=C4)C=C3)cc1
REMARK SMILES IDX 20 1 19 2 17 3 18 4 2 6 1 7 3 8 4 9 5 11 6 12 7 13 8 14 9 15
REMARK SMILES IDX 10 16 15 17 11 18 14 19 16 20 12 21 13 22 21 23 22 24 23 25
REMARK SMILES IDX 24 26 25 28 26 29 27 30 88 31 28 32 87 33 29 34 30 35 31 36
REMARK SMILES IDX 81 37 32 38 86 39 80 40 82 41 33 42 85 43 79 44 78 45 34 47
REMARK SMILES IDX 66 48 46 49 65 50 47 51 50 52 64 53 83 54 48 55 49 56 63 58
REMARK SMILES IDX 84 59 51 60 35 61 36 62 44 63 37 64 39 65 45 66 38 67 40 68
REMARK SMILES IDX 41 69 42 70 43 71 67 72 68 73 76 74 69 75 71 76 77 77 70 78
REMARK SMILES IDX 72 79 73 80 74 81 75 82 52 83 53 84 61 85 54 86 56 87 62 88
REMARK SMILES IDX 55 89 57 90 58 91 59 92 60 93
REMARK H PARENT 19 5 3 10 23 27 82 46 50 57
REMARK Flexibility Score: inf
ROOT
ATOM      1  C   UNL     1      -1.241  -1.931   1.745  1.00  0.00     0.117 C 
ENDROOT
BRANCH   1   2
ATOM      2  N   UNL     1      -1.977  -1.598   0.537  1.00  0.00    -0.354 N 
ATOM      3  C   UNL     1      -1.495  -1.227  -0.683  1.00  0.00     0.242 C 
ATOM      4  O   UNL     1      -2.290  -0.903  -1.564  1.00  0.00    -0.273 OA
ATOM      5  H   UNL     1      -2.958  -1.648   0.610  1.00  0.00     0.163 HD
BRANCH   3   6
ATOM      6  C   UNL     1       0.010  -1.377  -0.963  1.00  0.00     0.168 C 
ATOM      7  C   UNL     1       0.288  -2.871  -1.007  1.00  0.00     0.041 C 
BRANCH   6   8
ATOM      8  N   UNL     1       0.758  -0.537  -0.016  1.00  0.00    -0.341 N 
ATOM      9  C   UNL     1       2.024  -0.373   0.421  1.00  0.00     0.261 C 
ATOM     10  H   UNL     1       0.154   0.096   0.434  1.00  0.00     0.164 HD
ATOM     11  O   UNL     1       2.204   0.680   1.053  1.00  0.00    -0.271 OA
BRANCH   9  12
ATOM     12  C   UNL     1       3.211  -1.376   0.297  1.00  0.00     0.258 C 
ATOM     13  C   UNL     1       2.986  -2.605   1.185  1.00  0.00     0.064 C 
BRANCH  12  14
ATOM     14  O   UNL     1       3.963  -1.754  -0.844  1.00  0.00    -0.480 OA
BRANCH  14  15
ATOM     15  C   UNL     1       3.362  -1.764  -2.061  1.00  0.00     0.134 A 
ATOM     16  C   UNL     1       2.767  -0.623  -2.596  1.00  0.00     0.049 A 
ATOM     17  C   UNL     1       3.415  -2.938  -2.828  1.00  0.00     0.061 A 
ATOM     18  C   UNL     1       2.092  -0.698  -3.818  1.00  0.00     0.024 A 
ATOM     19  C   UNL     1       2.749  -3.014  -4.053  1.00  0.00     0.040 A 
ATOM     20  Br  UNL     1       4.316  -4.489  -2.205  1.00  0.00    -0.047 Br
ATOM     21  C   UNL     1       2.062  -1.899  -4.525  1.00  0.00     0.042 A 
ATOM     22  Cl  UNL     1       1.148  -2.013  -5.977  1.00  0.00    -0.084 Cl
ENDBRANCH  14  15
ENDBRANCH  12  14
ENDBRANCH   9  12
ENDBRANCH   6   8
ENDBRANCH   3   6
ENDBRANCH   1   2
BRANCH   1  23
ATOM     23  C   UNL     1      -1.373  -0.825   2.778  1.00  0.00     0.042 C 
BRANCH  23  24
ATOM     24  C   UNL     1      -2.821  -0.569   3.166  1.00  0.00     0.118 C 
BRANCH  24  25
ATOM     25  N   UNL     1      -3.496  -1.791   3.587  1.00  0.00    -0.352 N 
ATOM     26  C   UNL     1      -4.200  -2.030   4.733  1.00  0.00     0.251 C 
ATOM     27  H   UNL     1      -3.436  -2.547   2.960  1.00  0.00     0.163 HD
ATOM     28  O   UNL     1      -4.486  -3.185   5.049  1.00  0.00    -0.269 OA
BRANCH  26  29
ATOM     29  C   UNL     1      -4.607  -0.894   5.573  1.00  0.00     0.039 A 
ATOM     30  C   UNL     1      -4.490  -0.997   6.957  1.00  0.00     0.014 A 
ATOM     31  C   UNL     1      -5.090   0.278   4.980  1.00  0.00     0.014 A 
ATOM     32  C   UNL     1      -4.827   0.097   7.748  1.00  0.00     0.010 A 
ATOM     33  C   UNL     1      -5.322   1.398   5.762  1.00  0.00     0.010 A 
ATOM     34  C   UNL     1      -5.220   1.311   7.155  1.00  0.00    -0.014 A 
BRANCH  34  35
ATOM     35  C   UNL     1      -5.522   2.493   7.993  1.00  0.00     0.031 A 
ATOM     36  C   UNL     1      -6.897   3.102   7.984  1.00  0.00     0.074 A 
ATOM     37  C   UNL     1      -4.535   3.038   8.729  1.00  0.00     0.049 A 
ATOM     38  N   UNL     1      -7.357   4.095   8.698  1.00  0.00    -0.248 NA
ATOM     39  C   UNL     1      -7.877   2.546   7.035  1.00  0.00     0.031 C 
ATOM     40  C   UNL     1      -3.138   2.598   8.729  1.00  0.00     0.029 A 
ATOM     41  N   UNL     1      -4.554   4.083   9.615  1.00  0.00    -0.354 N 
ATOM     42  C   UNL     1      -8.662   4.300   8.267  1.00  0.00     0.074 A 
ATOM     43  C   UNL     1      -8.907   3.362   7.196  1.00  0.00     0.031 C 
ATOM     44  C   UNL     1      -2.441   3.344   9.600  1.00  0.00     0.029 A 
ATOM     45  C   UNL     1      -3.334   4.330  10.198  1.00  0.00     0.049 A 
ATOM     46  H   UNL     1      -5.363   4.606   9.814  1.00  0.00     0.167 HD
ATOM     47  C   UNL     1      -9.585   5.167   8.746  1.00  0.00     0.034 A 
ATOM     48  C   UNL     1      -2.981   5.243  11.121  1.00  0.00     0.034 A 
ATOM     49  C   UNL     1      -9.339   6.073   9.834  1.00  0.00     0.049 A 
ATOM     50  C   UNL     1      -4.042   6.147  11.683  1.00  0.00     0.074 A 
ATOM     51  C   UNL     1     -10.226   6.935  10.454  1.00  0.00     0.029 A 
ATOM     52  N   UNL     1      -8.113   6.243  10.458  1.00  0.00    -0.354 N 
ATOM     53  N   UNL     1      -5.317   6.211  11.383  1.00  0.00    -0.248 NA
ATOM     54  C   UNL     1      -3.626   7.072  12.745  1.00  0.00     0.031 C 
ATOM     55  C   UNL     1      -9.526   7.649  11.434  1.00  0.00     0.029 A 
ATOM     56  C   UNL     1      -8.214   7.201  11.452  1.00  0.00     0.049 A 
ATOM     57  H   UNL     1      -7.290   5.754  10.228  1.00  0.00     0.167 HD
ATOM     58  C   UNL     1      -5.863   7.156  12.242  1.00  0.00     0.074 A 
ATOM     59  C   UNL     1      -4.783   7.614  13.095  1.00  0.00     0.031 C 
ATOM     60  C   UNL     1      -7.137   7.616  12.314  1.00  0.00     0.034 A 
BRANCH  47  61
ATOM     61  C   UNL     1     -10.959   5.139   8.125  1.00  0.00     0.023 A 
ATOM     62  C   UNL     1     -11.799   4.025   8.333  1.00  0.00     0.012 A 
ATOM     63  C   UNL     1     -11.439   6.233   7.379  1.00  0.00     0.148 A 
ATOM     64  C   UNL     1     -13.078   3.983   7.779  1.00  0.00     0.002 A 
ATOM     65  C   UNL     1     -12.733   6.206   6.873  1.00  0.00     0.091 A 
ATOM     66  F   UNL     1     -10.620   7.274   7.170  1.00  0.00    -0.205 F 
ATOM     67  C   UNL     1     -13.548   5.077   7.059  1.00  0.00     0.022 A 
BRANCH  65  68
ATOM     68  S   UNL     1     -13.465   7.598   6.004  1.00  0.00     0.127 S 
ATOM     69  O   UNL     1     -13.572   7.072   4.644  1.00  0.00    -0.237 OA
ATOM     70  O   UNL     1     -14.742   7.755   6.699  1.00  0.00    -0.237 OA
ATOM     71  O   UNL     1     -12.539   8.709   6.172  1.00  0.00    -0.744 OA
ENDBRANCH  65  68
ENDBRANCH  47  61
BRANCH  48  72
ATOM     72  C   UNL     1      -1.580   5.289  11.626  1.00  0.00     0.023 A 
ATOM     73  C   UNL     1      -1.302   4.890  12.948  1.00  0.00     0.012 A 
ATOM     74  C   UNL     1      -0.520   5.697  10.794  1.00  0.00     0.148 A 
ATOM     75  C   UNL     1       0.001   4.935  13.445  1.00  0.00     0.002 A 
ATOM     76  C   UNL     1       0.782   5.684  11.277  1.00  0.00     0.091 A 
ATOM     77  F   UNL     1      -0.808   6.078   9.541  1.00  0.00    -0.205 F 
ATOM     78  C   UNL     1       1.044   5.323  12.607  1.00  0.00     0.022 A 
BRANCH  76  79
ATOM     79  S   UNL     1       2.199   6.035  10.230  1.00  0.00     0.127 S 
ATOM     80  O   UNL     1       2.650   7.319  10.758  1.00  0.00    -0.237 OA
ATOM     81  O   UNL     1       3.078   4.903  10.525  1.00  0.00    -0.237 OA
ATOM     82  O   UNL     1       1.685   6.056   8.867  1.00  0.00    -0.744 OA
ENDBRANCH  76  79
ENDBRANCH  48  72
BRANCH  60  83
ATOM     83  C   UNL     1      -7.440   8.640  13.377  1.00  0.00     0.023 A 
ATOM     84  C   UNL     1      -6.913   9.943  13.274  1.00  0.00     0.012 A 
ATOM     85  C   UNL     1      -8.273   8.316  14.465  1.00  0.00     0.148 A 
ATOM     86  C   UNL     1      -7.163  10.889  14.267  1.00  0.00     0.002 A 
ATOM     87  C   UNL     1      -8.566   9.281  15.420  1.00  0.00     0.091 A 
ATOM     88  F   UNL     1      -8.752   7.066  14.557  1.00  0.00    -0.205 F 
ATOM     89  C   UNL     1      -7.997  10.562  15.334  1.00  0.00     0.022 A 
BRANCH  87  90
ATOM     90  S   UNL     1      -9.710   8.975  16.769  1.00  0.00     0.127 S 
ATOM     91  O   UNL     1      -8.800   8.806  17.900  1.00  0.00    -0.237 OA
ATOM     92  O   UNL     1     -10.496  10.209  16.797  1.00  0.00    -0.237 OA
ATOM     93  O   UNL     1     -10.467   7.790  16.388  1.00  0.00    -0.744 OA
ENDBRANCH  87  90
ENDBRANCH  60  83
ENDBRANCH  34  35
ENDBRANCH  26  29
ENDBRANCH  24  25
ENDBRANCH  23  24
ENDBRANCH   1  23
TORSDOF 17
