REMARK SMILES Nc1nc2ccccc2nc1N1CCC(C(=O)NCCCNC(=O)c2ccc(-c3c4nc(c(-c5cccc(S(=O)(=O)[O-])c5F)c5ccc([nH]5)c(-c5cccc(S(=O)(=O)[O-])c5F)c5nc(c(-c6cccc(S(=O)(=O)[O-])c6F)c6ccc3[nH]6)C=C5)C=C4)cc2)CC1
REMARK SMILES IDX 20 1 19 2 18 3 16 4 17 5 15 7 12 8 13 9 89 10 14 11 88 12
REMARK SMILES IDX 11 13 2 14 3 15 4 16 10 17 5 18 9 19 6 20 8 21 7 22 1 23
REMARK SMILES IDX 21 26 22 27 23 28 24 30 25 31 26 32 87 33 27 34 86 35 28 36
REMARK SMILES IDX 29 37 30 38 80 39 31 40 85 41 79 42 81 43 32 44 84 45 78 46
REMARK SMILES IDX 77 47 33 49 65 50 45 51 64 52 46 53 49 54 63 55 82 56 47 57
REMARK SMILES IDX 48 58 62 60 83 61 50 62 34 63 35 64 43 65 36 66 38 67 44 68
REMARK SMILES IDX 37 69 39 70 40 71 41 72 42 73 66 74 67 75 75 76 68 77 70 78
REMARK SMILES IDX 76 79 69 80 71 81 72 82 73 83 74 84 51 85 52 86 60 87 53 88
REMARK SMILES IDX 55 89 61 90 54 91 56 92 57 93 58 94 59 95
REMARK H PARENT 18 6 1 24 1 25 22 29 81 48 49 59
REMARK Flexibility Score: inf
ROOT
ATOM      1  C   UNL     1       0.872   7.208  -0.174  1.00  0.00     0.042 C 
ENDROOT
BRANCH   1   2
ATOM      2  C   UNL     1       0.837   6.319  -1.410  1.00  0.00     0.117 C 
BRANCH   2   3
ATOM      3  N   UNL     1       2.005   6.489  -2.265  1.00  0.00    -0.356 N 
ATOM      4  C   UNL     1       3.032   5.644  -2.557  1.00  0.00     0.223 C 
ATOM      5  O   UNL     1       3.890   6.035  -3.353  1.00  0.00    -0.275 OA
ATOM      6  H   UNL     1       2.062   7.367  -2.707  1.00  0.00     0.163 HD
BRANCH   4   7
ATOM      7  C   UNL     1       3.128   4.252  -1.949  1.00  0.00     0.082 C 
ATOM      8  N   UNL     1       1.914   2.336  -0.245  1.00  0.00    -0.353 N 
ATOM      9  C   UNL     1       3.094   2.996   0.269  1.00  0.00     0.119 C 
ATOM     10  C   UNL     1       1.833   2.061  -1.667  1.00  0.00     0.119 C 
ATOM     11  C   UNL     1       3.303   4.327  -0.427  1.00  0.00     0.035 C 
ATOM     12  C   UNL     1       1.992   3.352  -2.461  1.00  0.00     0.035 C 
BRANCH   8  13
ATOM     13  C   UNL     1       0.816   2.144   0.577  1.00  0.00     0.172 A 
ATOM     14  C   UNL     1       0.214   0.864   0.706  1.00  0.00     0.167 A 
ATOM     15  N   UNL     1      -0.843   0.631   1.505  1.00  0.00    -0.226 NA
ATOM     16  C   UNL     1      -1.295   1.676   2.216  1.00  0.00     0.091 A 
ATOM     17  N   UNL     1       0.359   3.187   1.309  1.00  0.00    -0.225 NA
ATOM     18  C   UNL     1      -2.372   1.483   3.074  1.00  0.00     0.031 A 
ATOM     19  C   UNL     1      -0.700   2.958   2.119  1.00  0.00     0.091 A 
ATOM     20  C   UNL     1      -2.890   2.529   3.836  1.00  0.00     0.002 A 
ATOM     21  C   UNL     1      -1.232   3.994   2.882  1.00  0.00     0.031 A 
ATOM     22  C   UNL     1      -2.321   3.791   3.736  1.00  0.00     0.002 A 
BRANCH  14  23
ATOM     23  N   UNL     1       0.699  -0.248   0.019  1.00  0.00    -0.381 N 
ATOM     24  H   UNL     1       0.261  -1.123   0.127  1.00  0.00     0.158 HD
ATOM     25  H   UNL     1       1.479  -0.158  -0.575  1.00  0.00     0.158 HD
ENDBRANCH  14  23
ENDBRANCH   8  13
ENDBRANCH   4   7
ENDBRANCH   2   3
ENDBRANCH   1   2
BRANCH   1  26
ATOM     26  C   UNL     1       0.823   8.697  -0.471  1.00  0.00     0.118 C 
BRANCH  26  27
ATOM     27  N   UNL     1      -0.446   9.132  -1.038  1.00  0.00    -0.352 N 
ATOM     28  C   UNL     1      -1.327  10.093  -0.595  1.00  0.00     0.251 C 
ATOM     29  H   UNL     1      -0.715   8.669  -1.864  1.00  0.00     0.163 HD
ATOM     30  O   UNL     1      -2.417  10.213  -1.149  1.00  0.00    -0.269 OA
BRANCH  28  31
ATOM     31  C   UNL     1      -0.982  10.944   0.568  1.00  0.00     0.039 A 
ATOM     32  C   UNL     1       0.302  11.465   0.717  1.00  0.00     0.014 A 
ATOM     33  C   UNL     1      -1.953  11.201   1.541  1.00  0.00     0.014 A 
ATOM     34  C   UNL     1       0.672  12.052   1.922  1.00  0.00     0.010 A 
ATOM     35  C   UNL     1      -1.605  11.889   2.709  1.00  0.00     0.010 A 
ATOM     36  C   UNL     1      -0.273  12.265   2.940  1.00  0.00    -0.014 A 
BRANCH  36  37
ATOM     37  C   UNL     1       0.175  12.865   4.227  1.00  0.00     0.031 A 
ATOM     38  C   UNL     1       0.074  12.096   5.522  1.00  0.00     0.074 A 
ATOM     39  C   UNL     1       0.759  14.082   4.215  1.00  0.00     0.049 A 
ATOM     40  N   UNL     1       0.507  12.434   6.710  1.00  0.00    -0.248 NA
ATOM     41  C   UNL     1      -0.594  10.783   5.489  1.00  0.00     0.031 C 
ATOM     42  C   UNL     1       0.905  14.934   3.032  1.00  0.00     0.029 A 
ATOM     43  N   UNL     1       1.377  14.795   5.212  1.00  0.00    -0.354 N 
ATOM     44  C   UNL     1       0.134  11.404   7.565  1.00  0.00     0.074 A 
ATOM     45  C   UNL     1      -0.570  10.426   6.767  1.00  0.00     0.031 C 
ATOM     46  C   UNL     1       1.638  16.011   3.352  1.00  0.00     0.029 A 
ATOM     47  C   UNL     1       1.969  15.957   4.772  1.00  0.00     0.049 A 
ATOM     48  H   UNL     1       1.395  14.503   6.152  1.00  0.00     0.167 HD
ATOM     49  C   UNL     1       0.379  11.270   8.889  1.00  0.00     0.034 A 
ATOM     50  C   UNL     1       2.707  16.872   5.429  1.00  0.00     0.034 A 
ATOM     51  C   UNL     1       1.143  12.202   9.672  1.00  0.00     0.049 A 
ATOM     52  C   UNL     1       2.972  16.688   6.895  1.00  0.00     0.074 A 
ATOM     53  C   UNL     1       1.477  12.118  11.013  1.00  0.00     0.029 A 
ATOM     54  N   UNL     1       1.702  13.372   9.189  1.00  0.00    -0.354 N 
ATOM     55  N   UNL     1       2.666  15.671   7.662  1.00  0.00    -0.248 NA
ATOM     56  C   UNL     1       3.685  17.773   7.585  1.00  0.00     0.031 C 
ATOM     57  C   UNL     1       2.244  13.238  11.341  1.00  0.00     0.029 A 
ATOM     58  C   UNL     1       2.382  14.018  10.204  1.00  0.00     0.049 A 
ATOM     59  H   UNL     1       1.628  13.695   8.262  1.00  0.00     0.167 HD
ATOM     60  C   UNL     1       3.161  15.986   8.921  1.00  0.00     0.074 A 
ATOM     61  C   UNL     1       3.804  17.279   8.812  1.00  0.00     0.031 C 
ATOM     62  C   UNL     1       3.067  15.275  10.069  1.00  0.00     0.034 A 
BRANCH  49  63
ATOM     63  C   UNL     1      -0.114  10.035   9.591  1.00  0.00     0.023 A 
ATOM     64  C   UNL     1       0.654   8.857   9.515  1.00  0.00     0.012 A 
ATOM     65  C   UNL     1      -1.238  10.082  10.439  1.00  0.00     0.148 A 
ATOM     66  C   UNL     1       0.312   7.741  10.276  1.00  0.00     0.002 A 
ATOM     67  C   UNL     1      -1.558   8.973  11.213  1.00  0.00     0.091 A 
ATOM     68  F   UNL     1      -1.950  11.217  10.491  1.00  0.00    -0.205 F 
ATOM     69  C   UNL     1      -0.785   7.802  11.132  1.00  0.00     0.022 A 
BRANCH  67  70
ATOM     70  S   UNL     1      -2.917   8.959  12.387  1.00  0.00     0.127 S 
ATOM     71  O   UNL     1      -3.749   7.876  11.861  1.00  0.00    -0.237 OA
ATOM     72  O   UNL     1      -2.234   8.649  13.642  1.00  0.00    -0.237 OA
ATOM     73  O   UNL     1      -3.522  10.282  12.322  1.00  0.00    -0.744 OA
ENDBRANCH  67  70
ENDBRANCH  49  63
BRANCH  50  74
ATOM     74  C   UNL     1       3.308  18.011   4.684  1.00  0.00     0.023 A 
ATOM     75  C   UNL     1       4.696  18.017   4.449  1.00  0.00     0.012 A 
ATOM     76  C   UNL     1       2.517  19.056   4.170  1.00  0.00     0.148 A 
ATOM     77  C   UNL     1       5.289  19.049   3.723  1.00  0.00     0.002 A 
ATOM     78  C   UNL     1       3.107  20.059   3.411  1.00  0.00     0.091 A 
ATOM     79  F   UNL     1       1.200  19.036   4.420  1.00  0.00    -0.205 F 
ATOM     80  C   UNL     1       4.495  20.064   3.195  1.00  0.00     0.022 A 
BRANCH  78  81
ATOM     81  S   UNL     1       2.149  21.346   2.604  1.00  0.00     0.127 S 
ATOM     82  O   UNL     1       2.505  22.522   3.393  1.00  0.00    -0.237 OA
ATOM     83  O   UNL     1       2.696  21.324   1.247  1.00  0.00    -0.237 OA
ATOM     84  O   UNL     1       0.760  20.917   2.697  1.00  0.00    -0.744 OA
ENDBRANCH  78  81
ENDBRANCH  50  74
BRANCH  62  85
ATOM     85  C   UNL     1       3.671  15.854  11.316  1.00  0.00     0.023 A 
ATOM     86  C   UNL     1       2.942  16.814  12.043  1.00  0.00     0.012 A 
ATOM     87  C   UNL     1       4.871  15.339  11.841  1.00  0.00     0.148 A 
ATOM     88  C   UNL     1       3.401  17.255  13.283  1.00  0.00     0.002 A 
ATOM     89  C   UNL     1       5.306  15.760  13.092  1.00  0.00     0.091 A 
ATOM     90  F   UNL     1       5.542  14.427  11.123  1.00  0.00    -0.205 F 
ATOM     91  C   UNL     1       4.574  16.719  13.812  1.00  0.00     0.022 A 
BRANCH  89  92
ATOM     92  S   UNL     1       6.760  15.077  13.895  1.00  0.00     0.127 S 
ATOM     93  O   UNL     1       7.622  16.254  14.002  1.00  0.00    -0.237 OA
ATOM     94  O   UNL     1       6.214  14.602  15.166  1.00  0.00    -0.237 OA
ATOM     95  O   UNL     1       7.257  14.030  13.013  1.00  0.00    -0.744 OA
ENDBRANCH  89  92
ENDBRANCH  62  85
ENDBRANCH  36  37
ENDBRANCH  28  31
ENDBRANCH  26  27
ENDBRANCH   1  26
TORSDOF 15
