REMARK SMILES Cc1ncc(CC(=O)N2CCc3c(c(C(=O)NCCCNC(=O)c4ccc(-c5c6nc(c(-c7cccc(S(=O)(=O)[O-])c7F)c7ccc([nH]7)c(-c7cccc(S(=O)(=O)[O-])c7F)c7nc(c(-c8cccc(S(=O)(=O)[O-])c8F)c8ccc5[nH]8)C=C7)C=C6)cc4)nn3CC3CC3)C2)c(=O)[nH]1
REMARK SMILES IDX 19 1 18 2 17 3 15 4 16 5 14 7 9 8 10 9 93 10 11 11 13 12
REMARK SMILES IDX 12 13 88 14 87 15 7 16 8 17 6 18 5 19 1 20 2 21 3 22 96 23
REMARK SMILES IDX 4 24 94 25 95 27 89 28 90 29 91 30 92 31 20 32 21 33 22 34
REMARK SMILES IDX 23 36 24 37 25 38 86 39 26 40 85 41 27 42 28 43 29 44 79 45
REMARK SMILES IDX 30 46 84 47 78 48 80 49 31 50 83 51 77 52 76 53 32 55 64 56
REMARK SMILES IDX 44 57 63 58 45 59 48 60 62 61 81 62 46 63 47 64 61 66 82 67
REMARK SMILES IDX 49 68 33 69 34 70 42 71 35 72 37 73 43 74 36 75 38 76 39 77
REMARK SMILES IDX 40 78 41 79 65 80 66 81 74 82 67 83 69 84 75 85 68 86 70 87
REMARK SMILES IDX 71 88 72 89 73 90 50 91 51 92 59 93 52 94 54 95 60 96 53 97
REMARK SMILES IDX 55 98 56 99 57 100 58 101
REMARK H PARENT 17 6 96 26 21 35 80 54 48 65
REMARK Flexibility Score: inf
ROOT
ATOM      1  C   UNL     1       0.946   6.923   8.518  1.00  0.00     0.042 C 
ENDROOT
BRANCH   1   2
ATOM      2  C   UNL     1       1.649   7.236   7.192  1.00  0.00     0.118 C 
BRANCH   2   3
ATOM      3  N   UNL     1       2.792   6.379   6.915  1.00  0.00    -0.351 N 
ATOM      4  C   UNL     1       2.926   5.316   6.041  1.00  0.00     0.272 C 
ATOM      5  O   UNL     1       4.049   4.866   5.845  1.00  0.00    -0.267 OA
ATOM      6  H   UNL     1       3.602   6.591   7.433  1.00  0.00     0.163 HD
BRANCH   4   7
ATOM      7  C   UNL     1       1.753   4.733   5.365  1.00  0.00     0.155 A 
ATOM      8  N   UNL     1       2.322   2.008   2.781  1.00  0.00    -0.338 N 
ATOM      9  C   UNL     1       1.063   1.314   3.099  1.00  0.00     0.126 C 
ATOM     10  C   UNL     1       2.891   2.801   3.903  1.00  0.00     0.159 C 
ATOM     11  C   UNL     1      -0.085   2.317   3.302  1.00  0.00     0.078 C 
ATOM     12  C   UNL     1       1.761   3.630   4.459  1.00  0.00     0.026 A 
ATOM     13  C   UNL     1       0.426   3.398   4.178  1.00  0.00     0.046 A 
ATOM     14  N   UNL     1      -0.286   4.343   4.837  1.00  0.00    -0.268 N 
ATOM     15  N   UNL     1       0.493   5.176   5.539  1.00  0.00    -0.167 NA
BRANCH   8  16
ATOM     16  C   UNL     1       3.018   1.963   1.587  1.00  0.00     0.227 C 
ATOM     17  O   UNL     1       4.243   2.126   1.559  1.00  0.00    -0.275 OA
BRANCH  16  18
ATOM     18  C   UNL     1       2.264   2.017   0.243  1.00  0.00     0.143 C 
BRANCH  18  19
ATOM     19  C   UNL     1       1.061   1.170   0.015  1.00  0.00     0.045 A 
ATOM     20  C   UNL     1      -2.358  -1.309  -0.098  1.00  0.00     0.087 C 
ATOM     21  C   UNL     1      -1.171  -0.393  -0.123  1.00  0.00     0.105 A 
ATOM     22  N   UNL     1      -1.323   0.889  -0.200  1.00  0.00    -0.243 NA
ATOM     23  N   UNL     1       0.049  -1.002  -0.047  1.00  0.00    -0.311 N 
ATOM     24  C   UNL     1      -0.184   1.646  -0.138  1.00  0.00     0.123 A 
ATOM     25  C   UNL     1       1.218  -0.297  -0.032  1.00  0.00     0.254 A 
ATOM     26  H   UNL     1       0.087  -1.984  -0.002  1.00  0.00     0.171 HD
ATOM     27  O   UNL     1       2.310  -0.849  -0.036  1.00  0.00    -0.269 OA
ENDBRANCH  18  19
ENDBRANCH  16  18
ENDBRANCH   8  16
BRANCH  14  28
ATOM     28  C   UNL     1      -1.724   4.566   4.823  1.00  0.00     0.148 C 
BRANCH  28  29
ATOM     29  C   UNL     1      -2.450   4.116   6.063  1.00  0.00     0.011 C 
ATOM     30  C   UNL     1      -1.776   3.609   7.321  1.00  0.00     0.006 C 
ATOM     31  C   UNL     1      -2.395   4.976   7.305  1.00  0.00     0.006 C 
ENDBRANCH  28  29
ENDBRANCH  14  28
ENDBRANCH   4   7
ENDBRANCH   2   3
ENDBRANCH   1   2
BRANCH   1  32
ATOM     32  C   UNL     1       1.616   7.647   9.675  1.00  0.00     0.118 C 
BRANCH  32  33
ATOM     33  N   UNL     1       1.457   9.113   9.595  1.00  0.00    -0.352 N 
ATOM     34  C   UNL     1       1.955  10.111  10.421  1.00  0.00     0.251 C 
ATOM     35  H   UNL     1       0.913   9.432   8.838  1.00  0.00     0.163 HD
ATOM     36  O   UNL     1       1.508  11.243  10.373  1.00  0.00    -0.269 OA
BRANCH  34  37
ATOM     37  C   UNL     1       3.040   9.771  11.360  1.00  0.00     0.039 A 
ATOM     38  C   UNL     1       3.157  10.348  12.631  1.00  0.00     0.014 A 
ATOM     39  C   UNL     1       3.952   8.820  10.935  1.00  0.00     0.014 A 
ATOM     40  C   UNL     1       4.170   9.899  13.478  1.00  0.00     0.010 A 
ATOM     41  C   UNL     1       4.734   8.188  11.846  1.00  0.00     0.010 A 
ATOM     42  C   UNL     1       4.948   8.813  13.065  1.00  0.00    -0.014 A 
BRANCH  42  43
ATOM     43  C   UNL     1       6.026   8.245  13.852  1.00  0.00     0.031 A 
ATOM     44  C   UNL     1       5.584   7.477  15.039  1.00  0.00     0.074 A 
ATOM     45  C   UNL     1       7.252   8.107  13.296  1.00  0.00     0.049 A 
ATOM     46  N   UNL     1       5.792   7.758  16.282  1.00  0.00    -0.248 NA
ATOM     47  C   UNL     1       4.658   6.351  14.832  1.00  0.00     0.031 C 
ATOM     48  C   UNL     1       7.666   8.469  11.929  1.00  0.00     0.029 A 
ATOM     49  N   UNL     1       8.316   7.396  13.748  1.00  0.00    -0.354 N 
ATOM     50  C   UNL     1       5.238   6.697  16.996  1.00  0.00     0.074 A 
ATOM     51  C   UNL     1       4.328   6.054  16.090  1.00  0.00     0.031 C 
ATOM     52  C   UNL     1       8.738   7.728  11.579  1.00  0.00     0.029 A 
ATOM     53  C   UNL     1       9.171   6.968  12.735  1.00  0.00     0.049 A 
ATOM     54  H   UNL     1       8.469   7.201  14.701  1.00  0.00     0.167 HD
ATOM     55  C   UNL     1       5.806   6.251  18.154  1.00  0.00     0.034 A 
ATOM     56  C   UNL     1      10.088   5.972  12.826  1.00  0.00     0.034 A 
ATOM     57  C   UNL     1       6.819   7.177  18.615  1.00  0.00     0.049 A 
ATOM     58  C   UNL     1      10.357   5.763  14.271  1.00  0.00     0.074 A 
ATOM     59  C   UNL     1       6.854   8.530  18.894  1.00  0.00     0.029 A 
ATOM     60  N   UNL     1       8.133   6.801  18.441  1.00  0.00    -0.354 N 
ATOM     61  N   UNL     1      10.890   6.673  15.042  1.00  0.00    -0.248 NA
ATOM     62  C   UNL     1       9.592   4.734  14.958  1.00  0.00     0.031 C 
ATOM     63  C   UNL     1       8.104   8.977  18.372  1.00  0.00     0.029 A 
ATOM     64  C   UNL     1       8.794   7.864  17.887  1.00  0.00     0.049 A 
ATOM     65  H   UNL     1       8.525   5.928  18.672  1.00  0.00     0.167 HD
ATOM     66  C   UNL     1      10.143   6.611  16.213  1.00  0.00     0.074 A 
ATOM     67  C   UNL     1       9.442   5.327  16.146  1.00  0.00     0.031 C 
ATOM     68  C   UNL     1       9.905   7.727  16.968  1.00  0.00     0.034 A 
BRANCH  55  69
ATOM     69  C   UNL     1       5.776   4.821  18.674  1.00  0.00     0.023 A 
ATOM     70  C   UNL     1       6.405   4.597  19.922  1.00  0.00     0.012 A 
ATOM     71  C   UNL     1       5.434   3.669  17.928  1.00  0.00     0.148 A 
ATOM     72  C   UNL     1       6.778   3.317  20.346  1.00  0.00     0.002 A 
ATOM     73  C   UNL     1       5.745   2.392  18.386  1.00  0.00     0.091 A 
ATOM     74  F   UNL     1       4.909   3.776  16.709  1.00  0.00    -0.205 F 
ATOM     75  C   UNL     1       6.453   2.213  19.574  1.00  0.00     0.022 A 
BRANCH  73  76
ATOM     76  S   UNL     1       5.306   0.922  17.445  1.00  0.00     0.127 S 
ATOM     77  O   UNL     1       6.604   0.523  16.909  1.00  0.00    -0.237 OA
ATOM     78  O   UNL     1       4.770   0.048  18.490  1.00  0.00    -0.237 OA
ATOM     79  O   UNL     1       4.316   1.358  16.469  1.00  0.00    -0.744 OA
ENDBRANCH  73  76
ENDBRANCH  55  69
BRANCH  56  80
ATOM     80  C   UNL     1      10.488   5.004  11.775  1.00  0.00     0.023 A 
ATOM     81  C   UNL     1      11.684   4.271  11.899  1.00  0.00     0.012 A 
ATOM     82  C   UNL     1       9.586   4.621  10.755  1.00  0.00     0.148 A 
ATOM     83  C   UNL     1      11.966   3.196  11.042  1.00  0.00     0.002 A 
ATOM     84  C   UNL     1       9.885   3.577   9.887  1.00  0.00     0.091 A 
ATOM     85  F   UNL     1       8.383   5.209  10.696  1.00  0.00    -0.205 F 
ATOM     86  C   UNL     1      11.071   2.852  10.032  1.00  0.00     0.022 A 
BRANCH  84  87
ATOM     87  S   UNL     1       8.764   3.124   8.557  1.00  0.00     0.127 S 
ATOM     88  O   UNL     1       9.689   2.820   7.465  1.00  0.00    -0.237 OA
ATOM     89  O   UNL     1       8.075   1.968   9.122  1.00  0.00    -0.237 OA
ATOM     90  O   UNL     1       7.947   4.312   8.333  1.00  0.00    -0.744 OA
ENDBRANCH  84  87
ENDBRANCH  56  80
BRANCH  68  91
ATOM     91  C   UNL     1      10.643   9.005  16.641  1.00  0.00     0.023 A 
ATOM     92  C   UNL     1      10.498   9.662  15.401  1.00  0.00     0.012 A 
ATOM     93  C   UNL     1      11.313   9.673  17.680  1.00  0.00     0.148 A 
ATOM     94  C   UNL     1      11.015  10.945  15.197  1.00  0.00     0.002 A 
ATOM     95  C   UNL     1      11.784  10.967  17.490  1.00  0.00     0.091 A 
ATOM     96  F   UNL     1      11.443   9.043  18.858  1.00  0.00    -0.205 F 
ATOM     97  C   UNL     1      11.644  11.605  16.247  1.00  0.00     0.022 A 
BRANCH  95  98
ATOM     98  S   UNL     1      12.480  11.919  18.843  1.00  0.00     0.127 S 
ATOM     99  O   UNL     1      13.910  11.869  18.547  1.00  0.00    -0.237 OA
ATOM    100  O   UNL     1      11.862  13.233  18.657  1.00  0.00    -0.237 OA
ATOM    101  O   UNL     1      12.067  11.238  20.064  1.00  0.00    -0.744 OA
ENDBRANCH  95  98
ENDBRANCH  68  91
ENDBRANCH  42  43
ENDBRANCH  34  37
ENDBRANCH  32  33
ENDBRANCH   1  32
TORSDOF 18
