REMARK SMILES Cc1cc(C)n(C)c(=O)c1C(=O)N1CCC2(CC1)C[NH2+][C@@H](C(=O)NCCCNC(=O)c1ccc(-c3c4nc(c(-c5cccc(S(=O)(=O)[O-])c5F)c5ccc([nH]5)c(-c5cccc(S(=O)(=O)[O-])c5F)c5nc(c(-c6cccc(S(=O)(=O)[O-])c6F)c6ccc3[nH]6)C=C5)C=C4)cc1)C2
REMARK SMILES IDX 27 1 26 2 25 3 24 4 22 5 23 6 21 8 11 9 12 10 13 11 14 12
REMARK SMILES IDX 18 13 15 14 17 15 16 16 19 17 94 18 20 19 10 22 1 23 2 24
REMARK SMILES IDX 3 25 4 26 8 27 5 28 6 29 9 30 7 31 28 32 29 33 30 35 31 36
REMARK SMILES IDX 32 37 93 38 33 39 92 40 34 41 35 42 36 43 86 44 37 45 91 46
REMARK SMILES IDX 85 47 87 48 38 49 90 50 84 51 83 52 39 54 71 55 51 56 70 57
REMARK SMILES IDX 52 58 55 59 69 60 88 61 53 62 54 63 68 65 89 66 56 67 40 68
REMARK SMILES IDX 41 69 49 70 42 71 44 72 50 73 43 74 45 75 46 76 47 77 48 78
REMARK SMILES IDX 72 79 73 80 81 81 74 82 76 83 82 84 75 85 77 86 78 87 79 88
REMARK SMILES IDX 80 89 57 90 58 91 66 92 59 93 61 94 67 95 60 96 62 97 63 98
REMARK SMILES IDX 64 99 65 100
REMARK H PARENT 24 7 20 20 20 21 28 34 87 53 55 64
REMARK Flexibility Score: inf
ROOT
ATOM      1  C   UNL     1      -1.325   1.274  -7.436  1.00  0.00     0.118 C 
ENDROOT
BRANCH   1   2
ATOM      2  C   UNL     1      -0.637   0.906  -6.133  1.00  0.00     0.042 C 
BRANCH   2   3
ATOM      3  C   UNL     1       0.626   0.079  -6.322  1.00  0.00     0.118 C 
BRANCH   3   4
ATOM      4  N   UNL     1       1.661   0.800  -7.044  1.00  0.00    -0.351 N 
ATOM      5  C   UNL     1       2.889   1.226  -6.628  1.00  0.00     0.278 C 
ATOM      6  O   UNL     1       3.619   1.778  -7.458  1.00  0.00    -0.268 OA
ATOM      7  H   UNL     1       1.442   1.015  -7.980  1.00  0.00     0.163 HD
BRANCH   5   8
ATOM      8  C   UNL     1       3.354   1.052  -5.178  1.00  0.00     0.273 C 
ATOM      9  C   UNL     1       1.378   2.498   0.920  1.00  0.00     0.259 C 
ATOM     10  O   UNL     1       2.123   3.294   1.504  1.00  0.00    -0.269 OA
ATOM     11  N   UNL     1       1.491   2.348  -0.460  1.00  0.00    -0.338 N 
ATOM     12  C   UNL     1       2.705   2.852  -1.083  1.00  0.00     0.120 C 
ATOM     13  C   UNL     1       0.484   1.896  -1.417  1.00  0.00     0.120 C 
ATOM     14  C   UNL     1       3.394   1.690  -1.775  1.00  0.00     0.034 C 
ATOM     15  C   UNL     1       1.040   0.868  -2.431  1.00  0.00     0.034 C 
ATOM     16  C   UNL     1       2.522   1.061  -2.881  1.00  0.00     0.029 C 
ATOM     17  C   UNL     1       3.179  -0.287  -3.277  1.00  0.00     0.268 C 
ATOM     18  C   UNL     1       2.589   1.906  -4.174  1.00  0.00     0.088 C 
ATOM     19  N   UNL     1       3.182  -0.338  -4.728  1.00  0.00    -0.336 N 
ATOM     20  H   UNL     1       2.300  -0.716  -5.072  1.00  0.00     0.346 HD
ATOM     21  H   UNL     1       3.925  -0.942  -5.081  1.00  0.00     0.346 HD
BRANCH   9  22
ATOM     22  C   UNL     1       0.515   1.601   1.772  1.00  0.00     0.108 A 
ATOM     23  C   UNL     1       1.035  -0.582   0.537  1.00  0.00     0.045 C 
ATOM     24  C   UNL     1       0.431   0.259   1.616  1.00  0.00    -0.031 A 
ATOM     25  C   UNL     1      -0.201  -0.569   2.623  1.00  0.00     0.026 A 
ATOM     26  C   UNL     1      -0.553  -0.091   3.821  1.00  0.00     0.018 A 
ATOM     27  C   UNL     1      -0.008   2.178   3.080  1.00  0.00     0.263 A 
ATOM     28  C   UNL     1      -1.064  -1.057   4.856  1.00  0.00     0.064 C 
ATOM     29  N   UNL     1      -0.436   1.269   4.069  1.00  0.00    -0.315 N 
ATOM     30  O   UNL     1      -0.017   3.394   3.269  1.00  0.00    -0.268 OA
ATOM     31  C   UNL     1      -0.808   1.815   5.369  1.00  0.00     0.153 C 
ENDBRANCH   9  22
ENDBRANCH   5   8
ENDBRANCH   3   4
ENDBRANCH   2   3
ENDBRANCH   1   2
BRANCH   1  32
ATOM     32  N   UNL     1      -1.790   0.104  -8.170  1.00  0.00    -0.352 N 
ATOM     33  C   UNL     1      -3.064  -0.259  -8.522  1.00  0.00     0.251 C 
ATOM     34  H   UNL     1      -1.083  -0.519  -8.455  1.00  0.00     0.163 HD
ATOM     35  O   UNL     1      -3.274  -1.388  -8.967  1.00  0.00    -0.269 OA
BRANCH  33  36
ATOM     36  C   UNL     1      -4.181   0.692  -8.351  1.00  0.00     0.039 A 
ATOM     37  C   UNL     1      -5.394   0.226  -7.839  1.00  0.00     0.014 A 
ATOM     38  C   UNL     1      -4.036   2.038  -8.699  1.00  0.00     0.014 A 
ATOM     39  C   UNL     1      -6.441   1.123  -7.622  1.00  0.00     0.010 A 
ATOM     40  C   UNL     1      -5.046   2.944  -8.397  1.00  0.00     0.010 A 
ATOM     41  C   UNL     1      -6.264   2.494  -7.869  1.00  0.00    -0.014 A 
BRANCH  41  42
ATOM     42  C   UNL     1      -7.345   3.471  -7.589  1.00  0.00     0.031 A 
ATOM     43  C   UNL     1      -7.958   4.263  -8.711  1.00  0.00     0.074 A 
ATOM     44  C   UNL     1      -7.733   3.688  -6.317  1.00  0.00     0.049 A 
ATOM     45  N   UNL     1      -8.894   5.174  -8.659  1.00  0.00    -0.248 NA
ATOM     46  C   UNL     1      -7.437   4.016 -10.067  1.00  0.00     0.031 C 
ATOM     47  C   UNL     1      -7.167   3.027  -5.139  1.00  0.00     0.029 A 
ATOM     48  N   UNL     1      -8.683   4.532  -5.800  1.00  0.00    -0.354 N 
ATOM     49  C   UNL     1      -9.059   5.623  -9.963  1.00  0.00     0.074 A 
ATOM     50  C   UNL     1      -8.093   4.921 -10.778  1.00  0.00     0.031 C 
ATOM     51  C   UNL     1      -7.795   3.474  -4.041  1.00  0.00     0.029 A 
ATOM     52  C   UNL     1      -8.783   4.477  -4.429  1.00  0.00     0.049 A 
ATOM     53  H   UNL     1      -9.240   5.122  -6.358  1.00  0.00     0.167 HD
ATOM     54  C   UNL     1      -9.960   6.510 -10.446  1.00  0.00     0.034 A 
ATOM     55  C   UNL     1      -9.580   5.157  -3.581  1.00  0.00     0.034 A 
ATOM     56  C   UNL     1     -10.940   7.179  -9.634  1.00  0.00     0.049 A 
ATOM     57  C   UNL     1     -10.575   6.136  -4.141  1.00  0.00     0.074 A 
ATOM     58  C   UNL     1     -11.940   8.044 -10.038  1.00  0.00     0.029 A 
ATOM     59  N   UNL     1     -11.041   7.065  -8.256  1.00  0.00    -0.354 N 
ATOM     60  N   UNL     1     -10.815   6.443  -5.394  1.00  0.00    -0.248 NA
ATOM     61  C   UNL     1     -11.432   6.842  -3.177  1.00  0.00     0.031 C 
ATOM     62  C   UNL     1     -12.625   8.480  -8.900  1.00  0.00     0.029 A 
ATOM     63  C   UNL     1     -12.076   7.857  -7.790  1.00  0.00     0.049 A 
ATOM     64  H   UNL     1     -10.461   6.504  -7.692  1.00  0.00     0.167 HD
ATOM     65  C   UNL     1     -11.867   7.351  -5.372  1.00  0.00     0.074 A 
ATOM     66  C   UNL     1     -12.234   7.529  -3.981  1.00  0.00     0.031 C 
ATOM     67  C   UNL     1     -12.463   7.991  -6.408  1.00  0.00     0.034 A 
BRANCH  54  68
ATOM     68  C   UNL     1      -9.970   6.765 -11.932  1.00  0.00     0.023 A 
ATOM     69  C   UNL     1     -10.414   5.751 -12.806  1.00  0.00     0.012 A 
ATOM     70  C   UNL     1      -9.616   8.023 -12.458  1.00  0.00     0.148 A 
ATOM     71  C   UNL     1     -10.474   5.971 -14.181  1.00  0.00     0.002 A 
ATOM     72  C   UNL     1      -9.727   8.252 -13.825  1.00  0.00     0.091 A 
ATOM     73  F   UNL     1      -9.177   8.969 -11.616  1.00  0.00    -0.205 F 
ATOM     74  C   UNL     1     -10.143   7.224 -14.688  1.00  0.00     0.022 A 
BRANCH  72  75
ATOM     75  S   UNL     1      -9.413   9.855 -14.571  1.00  0.00     0.127 S 
ATOM     76  O   UNL     1      -8.200   9.589 -15.343  1.00  0.00    -0.237 OA
ATOM     77  O   UNL     1     -10.617  10.058 -15.378  1.00  0.00    -0.237 OA
ATOM     78  O   UNL     1      -9.255  10.790 -13.466  1.00  0.00    -0.744 OA
ENDBRANCH  72  75
ENDBRANCH  54  68
BRANCH  55  79
ATOM     79  C   UNL     1      -9.520   4.862  -2.121  1.00  0.00     0.023 A 
ATOM     80  C   UNL     1     -10.597   4.192  -1.509  1.00  0.00     0.012 A 
ATOM     81  C   UNL     1      -8.379   5.170  -1.355  1.00  0.00     0.148 A 
ATOM     82  C   UNL     1     -10.548   3.851  -0.157  1.00  0.00     0.002 A 
ATOM     83  C   UNL     1      -8.311   4.771  -0.025  1.00  0.00     0.091 A 
ATOM     84  F   UNL     1      -7.368   5.815  -1.954  1.00  0.00    -0.205 F 
ATOM     85  C   UNL     1      -9.401   4.128   0.581  1.00  0.00     0.022 A 
BRANCH  83  86
ATOM     86  S   UNL     1      -6.819   4.943   0.962  1.00  0.00     0.127 S 
ATOM     87  O   UNL     1      -7.253   5.881   1.995  1.00  0.00    -0.237 OA
ATOM     88  O   UNL     1      -6.610   3.570   1.421  1.00  0.00    -0.237 OA
ATOM     89  O   UNL     1      -5.799   5.438   0.049  1.00  0.00    -0.744 OA
ENDBRANCH  83  86
ENDBRANCH  55  79
BRANCH  67  90
ATOM     90  C   UNL     1     -13.592   8.941  -6.101  1.00  0.00     0.023 A 
ATOM     91  C   UNL     1     -13.315  10.182  -5.494  1.00  0.00     0.012 A 
ATOM     92  C   UNL     1     -14.907   8.657  -6.524  1.00  0.00     0.148 A 
ATOM     93  C   UNL     1     -14.330  11.117  -5.295  1.00  0.00     0.002 A 
ATOM     94  C   UNL     1     -15.902   9.615  -6.372  1.00  0.00     0.091 A 
ATOM     95  F   UNL     1     -15.153   7.465  -7.086  1.00  0.00    -0.205 F 
ATOM     96  C   UNL     1     -15.618  10.840  -5.747  1.00  0.00     0.022 A 
BRANCH  94  97
ATOM     97  S   UNL     1     -17.563   9.397  -7.021  1.00  0.00     0.127 S 
ATOM     98  O   UNL     1     -18.351   9.292  -5.794  1.00  0.00    -0.237 OA
ATOM     99  O   UNL     1     -17.766  10.636  -7.772  1.00  0.00    -0.237 OA
ATOM    100  O   UNL     1     -17.523   8.192  -7.838  1.00  0.00    -0.744 OA
ENDBRANCH  94  97
ENDBRANCH  67  90
ENDBRANCH  41  42
ENDBRANCH  33  36
ENDBRANCH   1  32
TORSDOF 14
