REMARK SMILES C[C@H](CNC(=O)N1C[C@H]2CCCC[N@@H+]2C[C@@H]1C)C(=O)NCCCNC(=O)c1ccc(-c2c3nc(c(-c4cccc(S(=O)(=O)[O-])c4F)c4ccc([nH]4)c(-c4cccc(S(=O)(=O)[O-])c4F)c4nc(c(-c5cccc(S(=O)(=O)[O-])c5F)c5ccc2[nH]5)C=C4)C=C3)cc1
REMARK SMILES IDX 22 1 21 2 20 3 18 4 19 5 2 7 1 8 3 9 4 10 5 11 6 13 7 14
REMARK SMILES IDX 8 15 16 16 9 17 15 18 17 19 10 20 14 21 11 22 13 23 12 25
REMARK SMILES IDX 23 26 24 27 25 28 26 30 27 31 28 32 89 33 29 34 88 35 30 36
REMARK SMILES IDX 31 37 32 38 82 39 33 40 87 41 81 42 83 43 34 44 86 45 80 46
REMARK SMILES IDX 79 47 35 49 67 50 47 51 66 52 48 53 51 54 65 55 84 56 49 57
REMARK SMILES IDX 50 58 64 60 85 61 52 62 36 63 37 64 45 65 38 66 40 67 46 68
REMARK SMILES IDX 39 69 41 70 42 71 43 72 44 73 68 74 69 75 77 76 70 77 72 78
REMARK SMILES IDX 78 79 71 80 73 81 74 82 75 83 76 84 53 85 54 86 62 87 55 88
REMARK SMILES IDX 57 89 63 90 56 91 58 92 59 93 60 94 61 95
REMARK H PARENT 20 6 4 12 14 24 24 29 83 48 51 59
REMARK Flexibility Score: inf
ROOT
ATOM      1  C   UNL     1      -1.779  -2.777   0.064  1.00  0.00     0.042 C 
ENDROOT
BRANCH   1   2
ATOM      2  C   UNL     1      -1.373  -2.224  -1.296  1.00  0.00     0.117 C 
BRANCH   2   3
ATOM      3  N   UNL     1      -1.797  -0.845  -1.456  1.00  0.00    -0.356 N 
ATOM      4  C   UNL     1      -1.089   0.310  -1.475  1.00  0.00     0.224 C 
ATOM      5  O   UNL     1      -1.732   1.363  -1.553  1.00  0.00    -0.275 OA
ATOM      6  H   UNL     1      -2.768  -0.729  -1.571  1.00  0.00     0.163 HD
BRANCH   4   7
ATOM      7  C   UNL     1       0.431   0.357  -1.404  1.00  0.00     0.094 C 
ATOM      8  C   UNL     1       1.139  -0.453  -2.486  1.00  0.00     0.020 C 
BRANCH   7   9
ATOM      9  C   UNL     1       0.976   0.227   0.025  1.00  0.00     0.130 C 
BRANCH   9  10
ATOM     10  N   UNL     1       1.107  -1.125   0.550  1.00  0.00    -0.337 N 
ATOM     11  C   UNL     1       2.129  -2.019   0.485  1.00  0.00     0.318 C 
ATOM     12  H   UNL     1       0.315  -1.449   1.037  1.00  0.00     0.165 HD
ATOM     13  O   UNL     1       1.854  -3.214   0.541  1.00  0.00    -0.249 OA
BRANCH  11  14
ATOM     14  N   UNL     1       3.393  -1.524   0.331  1.00  0.00    -0.311 N 
ATOM     15  C   UNL     1       3.835  -0.480   1.250  1.00  0.00     0.186 C 
ATOM     16  C   UNL     1       4.506  -2.339  -0.187  1.00  0.00     0.139 C 
ATOM     17  C   UNL     1       4.712   0.493   0.472  1.00  0.00     0.203 C 
ATOM     18  C   UNL     1       5.746  -1.452  -0.595  1.00  0.00     0.287 C 
ATOM     19  C   UNL     1       4.133  -3.179  -1.420  1.00  0.00     0.037 C 
ATOM     20  C   UNL     1       4.957   1.766   1.282  1.00  0.00     0.067 C 
ATOM     21  N   UNL     1       5.984  -0.166   0.114  1.00  0.00    -0.329 N 
ATOM     22  C   UNL     1       5.795   2.742   0.468  1.00  0.00     0.012 C 
ATOM     23  C   UNL     1       6.800   0.734  -0.716  1.00  0.00     0.262 C 
ATOM     24  H   UNL     1       6.489  -0.376   0.975  1.00  0.00     0.348 HD
ATOM     25  C   UNL     1       7.076   2.068  -0.016  1.00  0.00     0.062 C 
ENDBRANCH  11  14
ENDBRANCH   9  10
ENDBRANCH   7   9
ENDBRANCH   4   7
ENDBRANCH   2   3
ENDBRANCH   1   2
BRANCH   1  26
ATOM     26  C   UNL     1      -3.273  -2.981   0.240  1.00  0.00     0.118 C 
BRANCH  26  27
ATOM     27  N   UNL     1      -3.797  -4.055  -0.583  1.00  0.00    -0.352 N 
ATOM     28  C   UNL     1      -4.322  -5.271  -0.223  1.00  0.00     0.251 C 
ATOM     29  H   UNL     1      -3.772  -3.884  -1.552  1.00  0.00     0.163 HD
ATOM     30  O   UNL     1      -4.537  -6.106  -1.100  1.00  0.00    -0.269 OA
BRANCH  28  31
ATOM     31  C   UNL     1      -4.618  -5.593   1.193  1.00  0.00     0.039 A 
ATOM     32  C   UNL     1      -4.404  -6.901   1.640  1.00  0.00     0.014 A 
ATOM     33  C   UNL     1      -5.146  -4.644   2.072  1.00  0.00     0.014 A 
ATOM     34  C   UNL     1      -4.683  -7.240   2.967  1.00  0.00     0.010 A 
ATOM     35  C   UNL     1      -5.319  -4.955   3.419  1.00  0.00     0.010 A 
ATOM     36  C   UNL     1      -5.122  -6.264   3.876  1.00  0.00    -0.014 A 
BRANCH  36  37
ATOM     37  C   UNL     1      -5.418  -6.605   5.293  1.00  0.00     0.031 A 
ATOM     38  C   UNL     1      -6.809  -6.414   5.844  1.00  0.00     0.074 A 
ATOM     39  C   UNL     1      -4.427  -7.027   6.102  1.00  0.00     0.049 A 
ATOM     40  N   UNL     1      -7.254  -6.632   7.055  1.00  0.00    -0.248 NA
ATOM     41  C   UNL     1      -7.828  -5.878   4.925  1.00  0.00     0.031 C 
ATOM     42  C   UNL     1      -3.021  -7.168   5.716  1.00  0.00     0.029 A 
ATOM     43  N   UNL     1      -4.446  -7.396   7.424  1.00  0.00    -0.354 N 
ATOM     44  C   UNL     1      -8.583  -6.224   7.053  1.00  0.00     0.074 A 
ATOM     45  C   UNL     1      -8.863  -5.705   5.733  1.00  0.00     0.031 C 
ATOM     46  C   UNL     1      -2.316  -7.606   6.772  1.00  0.00     0.029 A 
ATOM     47  C   UNL     1      -3.212  -7.756   7.915  1.00  0.00     0.049 A 
ATOM     48  H   UNL     1      -5.265  -7.404   7.969  1.00  0.00     0.167 HD
ATOM     49  C   UNL     1      -9.502  -6.308   8.045  1.00  0.00     0.034 A 
ATOM     50  C   UNL     1      -2.845  -8.164   9.145  1.00  0.00     0.034 A 
ATOM     51  C   UNL     1      -9.239  -6.881   9.336  1.00  0.00     0.049 A 
ATOM     52  C   UNL     1      -3.900  -8.318  10.208  1.00  0.00     0.074 A 
ATOM     53  C   UNL     1     -10.122  -7.097  10.379  1.00  0.00     0.029 A 
ATOM     54  N   UNL     1      -7.999  -7.331   9.762  1.00  0.00    -0.354 N 
ATOM     55  N   UNL     1      -5.187  -8.078  10.135  1.00  0.00    -0.248 NA
ATOM     56  C   UNL     1      -3.459  -8.840  11.509  1.00  0.00     0.031 C 
ATOM     57  C   UNL     1      -9.412  -7.664  11.443  1.00  0.00     0.029 A 
ATOM     58  C   UNL     1      -8.091  -7.823  11.053  1.00  0.00     0.049 A 
ATOM     59  H   UNL     1      -7.174  -7.305   9.226  1.00  0.00     0.167 HD
ATOM     60  C   UNL     1      -5.715  -8.455  11.364  1.00  0.00     0.074 A 
ATOM     61  C   UNL     1      -4.612  -8.961  12.154  1.00  0.00     0.031 C 
ATOM     62  C   UNL     1      -6.995  -8.375  11.806  1.00  0.00     0.034 A 
BRANCH  49  63
ATOM     63  C   UNL     1     -10.899  -5.824   7.747  1.00  0.00     0.023 A 
ATOM     64  C   UNL     1     -11.717  -6.563   6.867  1.00  0.00     0.012 A 
ATOM     65  C   UNL     1     -11.422  -4.676   8.373  1.00  0.00     0.148 A 
ATOM     66  C   UNL     1     -13.017  -6.146   6.584  1.00  0.00     0.002 A 
ATOM     67  C   UNL     1     -12.735  -4.293   8.122  1.00  0.00     0.091 A 
ATOM     68  F   UNL     1     -10.624  -3.973   9.190  1.00  0.00    -0.205 F 
ATOM     69  C   UNL     1     -13.529  -5.019   7.219  1.00  0.00     0.022 A 
BRANCH  67  70
ATOM     70  S   UNL     1     -13.514  -2.902   8.950  1.00  0.00     0.127 S 
ATOM     71  O   UNL     1     -13.609  -1.927   7.865  1.00  0.00    -0.237 OA
ATOM     72  O   UNL     1     -14.795  -3.472   9.371  1.00  0.00    -0.237 OA
ATOM     73  O   UNL     1     -12.625  -2.536  10.044  1.00  0.00    -0.744 OA
ENDBRANCH  67  70
ENDBRANCH  49  63
BRANCH  50  74
ATOM     74  C   UNL     1      -1.428  -8.541   9.412  1.00  0.00     0.023 A 
ATOM     75  C   UNL     1      -1.100  -9.896   9.611  1.00  0.00     0.012 A 
ATOM     76  C   UNL     1      -0.404  -7.575   9.443  1.00  0.00     0.148 A 
ATOM     77  C   UNL     1       0.217 -10.280   9.870  1.00  0.00     0.002 A 
ATOM     78  C   UNL     1       0.913  -7.970   9.648  1.00  0.00     0.091 A 
ATOM     79  F   UNL     1      -0.738  -6.290   9.263  1.00  0.00    -0.205 F 
ATOM     80  C   UNL     1       1.224  -9.319   9.878  1.00  0.00     0.022 A 
BRANCH  78  81
ATOM     81  S   UNL     1       2.288  -6.818   9.548  1.00  0.00     0.127 S 
ATOM     82  O   UNL     1       2.686  -6.706  10.951  1.00  0.00    -0.237 OA
ATOM     83  O   UNL     1       3.233  -7.546   8.698  1.00  0.00    -0.237 OA
ATOM     84  O   UNL     1       1.746  -5.611   8.945  1.00  0.00    -0.744 OA
ENDBRANCH  78  81
ENDBRANCH  50  74
BRANCH  62  85
ATOM     85  C   UNL     1      -7.285  -8.880  13.195  1.00  0.00     0.023 A 
ATOM     86  C   UNL     1      -6.843  -8.148  14.314  1.00  0.00     0.012 A 
ATOM     87  C   UNL     1      -8.049 -10.048  13.390  1.00  0.00     0.148 A 
ATOM     88  C   UNL     1      -7.123  -8.591  15.606  1.00  0.00     0.002 A 
ATOM     89  C   UNL     1      -8.367 -10.456  14.680  1.00  0.00     0.091 A 
ATOM     90  F   UNL     1      -8.444 -10.743  12.313  1.00  0.00    -0.205 F 
ATOM     91  C   UNL     1      -7.894  -9.736  15.789  1.00  0.00     0.022 A 
BRANCH  89  92
ATOM     92  S   UNL     1      -9.435 -11.863  15.002  1.00  0.00     0.127 S 
ATOM     93  O   UNL     1      -8.471 -12.885  15.405  1.00  0.00    -0.237 OA
ATOM     94  O   UNL     1     -10.287 -11.369  16.084  1.00  0.00    -0.237 OA
ATOM     95  O   UNL     1     -10.140 -12.120  13.753  1.00  0.00    -0.744 OA
ENDBRANCH  89  92
ENDBRANCH  62  85
ENDBRANCH  36  37
ENDBRANCH  28  31
ENDBRANCH  26  27
ENDBRANCH   1  26
TORSDOF 16
