REMARK SMILES O=C(NCCCNC(=O)c1ccc(-c2c3nc(c(-c4cccc(S(=O)(=O)[O-])c4F)c4ccc([nH]4)c(-c4cccc(S(=O)(=O)[O-])c4F)c4nc(c(-c5cccc(S(=O)(=O)[O-])c5F)c5ccc2[nH]5)C=C4)C=C3)cc1)C1=Cc2cc(C(F)(F)F)ccc2O[C@@H]1C(F)(F)F
REMARK SMILES IDX 6 1 5 2 4 3 3 4 1 5 2 6 73 8 74 9 86 10 75 11 85 12 76 13
REMARK SMILES IDX 84 14 77 15 83 16 82 17 87 18 88 19 89 20 90 21 78 22 79 23
REMARK SMILES IDX 80 24 81 25 7 26 8 27 9 29 10 30 11 31 72 32 12 33 71 34
REMARK SMILES IDX 13 35 14 36 15 37 65 38 16 39 70 40 64 41 66 42 17 43 69 44
REMARK SMILES IDX 63 45 62 46 18 48 50 49 30 50 49 51 31 52 34 53 48 54 67 55
REMARK SMILES IDX 32 56 33 57 47 59 68 60 35 61 19 62 20 63 28 64 21 65 23 66
REMARK SMILES IDX 29 67 22 68 24 69 25 70 26 71 27 72 51 73 52 74 60 75 53 76
REMARK SMILES IDX 55 77 61 78 54 79 56 80 57 81 58 82 59 83 36 84 37 85 45 86
REMARK SMILES IDX 38 87 40 88 46 89 39 90 41 91 42 92 43 93 44 94
REMARK H PARENT 3 7 7 28 66 47 34 58
REMARK Flexibility Score: inf
ROOT
ATOM      1  C   UNL     1       3.973   3.206  -2.528  1.00  0.00     0.118 C 
ENDROOT
BRANCH   1   2
ATOM      2  C   UNL     1       4.057   1.710  -2.242  1.00  0.00     0.042 C 
BRANCH   2   3
ATOM      3  C   UNL     1       3.314   1.313  -0.972  1.00  0.00     0.118 C 
BRANCH   3   4
ATOM      4  N   UNL     1       2.342   0.235  -1.177  1.00  0.00    -0.352 N 
ATOM      5  O   UNL     1       1.193  -1.649  -0.643  1.00  0.00    -0.270 OA
ATOM      6  C   UNL     1       2.206  -0.972  -0.533  1.00  0.00     0.251 C 
ATOM      7  H   UNL     1       1.682   0.402  -1.889  1.00  0.00     0.163 HD
BRANCH   6   8
ATOM      8  C   UNL     1       3.302  -1.382   0.361  1.00  0.00     0.067 C 
ATOM      9  C   UNL     1       4.482  -1.643  -0.214  1.00  0.00     0.025 C 
ATOM     10  C   UNL     1       3.144  -1.087   1.820  1.00  0.00     0.314 C 
ATOM     11  C   UNL     1       5.596  -0.952   0.442  1.00  0.00     0.018 A 
ATOM     12  O   UNL     1       4.215  -0.265   2.350  1.00  0.00    -0.475 OA
ATOM     13  C   UNL     1       6.721  -0.686  -0.346  1.00  0.00     0.025 A 
ATOM     14  C   UNL     1       5.368  -0.198   1.608  1.00  0.00     0.128 A 
ATOM     15  C   UNL     1       7.543   0.412  -0.053  1.00  0.00     0.056 A 
ATOM     16  C   UNL     1       6.234   0.837   1.951  1.00  0.00     0.048 A 
ATOM     17  C   UNL     1       7.298   1.162   1.107  1.00  0.00     0.017 A 
BRANCH  10  18
ATOM     18  C   UNL     1       3.008  -2.378   2.639  1.00  0.00     0.429 C 
ATOM     19  F   UNL     1       2.707  -2.100   3.933  1.00  0.00    -0.167 F 
ATOM     20  F   UNL     1       2.017  -3.175   2.177  1.00  0.00    -0.167 F 
ATOM     21  F   UNL     1       4.146  -3.111   2.645  1.00  0.00    -0.167 F 
ENDBRANCH  10  18
BRANCH  15  22
ATOM     22  C   UNL     1       8.620   0.818  -1.033  1.00  0.00     0.416 C 
ATOM     23  F   UNL     1       9.756   0.090  -0.879  1.00  0.00    -0.166 F 
ATOM     24  F   UNL     1       8.229   0.660  -2.326  1.00  0.00    -0.166 F 
ATOM     25  F   UNL     1       8.983   2.125  -0.912  1.00  0.00    -0.166 F 
ENDBRANCH  15  22
ENDBRANCH   6   8
ENDBRANCH   3   4
ENDBRANCH   2   3
ENDBRANCH   1   2
BRANCH   1  26
ATOM     26  N   UNL     1       4.647   4.046  -1.542  1.00  0.00    -0.352 N 
ATOM     27  C   UNL     1       5.566   5.066  -1.709  1.00  0.00     0.251 C 
ATOM     28  H   UNL     1       4.408   3.856  -0.606  1.00  0.00     0.163 HD
ATOM     29  O   UNL     1       6.054   5.603  -0.727  1.00  0.00    -0.269 OA
BRANCH  27  30
ATOM     30  C   UNL     1       5.991   5.474  -3.072  1.00  0.00     0.039 A 
ATOM     31  C   UNL     1       7.342   5.743  -3.316  1.00  0.00     0.014 A 
ATOM     32  C   UNL     1       5.074   5.551  -4.117  1.00  0.00     0.014 A 
ATOM     33  C   UNL     1       7.781   5.973  -4.625  1.00  0.00     0.010 A 
ATOM     34  C   UNL     1       5.528   5.647  -5.426  1.00  0.00     0.010 A 
ATOM     35  C   UNL     1       6.887   5.862  -5.702  1.00  0.00    -0.014 A 
BRANCH  35  36
ATOM     36  C   UNL     1       7.326   5.952  -7.123  1.00  0.00     0.031 A 
ATOM     37  C   UNL     1       6.660   6.936  -8.054  1.00  0.00     0.074 A 
ATOM     38  C   UNL     1       8.211   5.059  -7.614  1.00  0.00     0.049 A 
ATOM     39  N   UNL     1       6.764   7.047  -9.352  1.00  0.00    -0.248 NA
ATOM     40  C   UNL     1       5.707   7.885  -7.450  1.00  0.00     0.031 C 
ATOM     41  C   UNL     1       8.854   3.987  -6.849  1.00  0.00     0.029 A 
ATOM     42  N   UNL     1       8.698   4.889  -8.888  1.00  0.00    -0.354 N 
ATOM     43  C   UNL     1       5.842   8.020  -9.724  1.00  0.00     0.074 A 
ATOM     44  C   UNL     1       5.158   8.437  -8.521  1.00  0.00     0.031 C 
ATOM     45  C   UNL     1       9.660   3.284  -7.662  1.00  0.00     0.029 A 
ATOM     46  C   UNL     1       9.565   3.826  -9.012  1.00  0.00     0.049 A 
ATOM     47  H   UNL     1       8.451   5.472  -9.641  1.00  0.00     0.167 HD
ATOM     48  C   UNL     1       5.610   8.551 -10.949  1.00  0.00     0.034 A 
ATOM     49  C   UNL     1      10.206   3.339 -10.093  1.00  0.00     0.034 A 
ATOM     50  C   UNL     1       6.364   8.209 -12.123  1.00  0.00     0.049 A 
ATOM     51  C   UNL     1      10.014   4.018 -11.422  1.00  0.00     0.074 A 
ATOM     52  C   UNL     1       6.298   8.775 -13.383  1.00  0.00     0.029 A 
ATOM     53  N   UNL     1       7.335   7.222 -12.176  1.00  0.00    -0.354 N 
ATOM     54  N   UNL     1       9.250   5.041 -11.722  1.00  0.00    -0.248 NA
ATOM     55  C   UNL     1      10.796   3.502 -12.555  1.00  0.00     0.031 C 
ATOM     56  C   UNL     1       7.229   8.126 -14.201  1.00  0.00     0.029 A 
ATOM     57  C   UNL     1       7.882   7.165 -13.445  1.00  0.00     0.049 A 
ATOM     58  H   UNL     1       7.598   6.646 -11.421  1.00  0.00     0.167 HD
ATOM     59  C   UNL     1       9.486   5.313 -13.064  1.00  0.00     0.074 A 
ATOM     60  C   UNL     1      10.479   4.360 -13.515  1.00  0.00     0.031 C 
ATOM     61  C   UNL     1       8.918   6.254 -13.858  1.00  0.00     0.034 A 
BRANCH  48  62
ATOM     62  C   UNL     1       4.551   9.618 -11.061  1.00  0.00     0.023 A 
ATOM     63  C   UNL     1       4.784  10.889 -10.496  1.00  0.00     0.012 A 
ATOM     64  C   UNL     1       3.350   9.384 -11.759  1.00  0.00     0.148 A 
ATOM     65  C   UNL     1       3.823  11.894 -10.582  1.00  0.00     0.002 A 
ATOM     66  C   UNL     1       2.417  10.407 -11.883  1.00  0.00     0.091 A 
ATOM     67  F   UNL     1       3.135   8.165 -12.274  1.00  0.00    -0.205 F 
ATOM     68  C   UNL     1       2.645  11.657 -11.284  1.00  0.00     0.022 A 
BRANCH  66  69
ATOM     69  S   UNL     1       0.904  10.229 -12.836  1.00  0.00     0.127 S 
ATOM     70  O   UNL     1      -0.104  10.158 -11.779  1.00  0.00    -0.237 OA
ATOM     71  O   UNL     1       0.882  11.467 -13.616  1.00  0.00    -0.237 OA
ATOM     72  O   UNL     1       1.069   9.017 -13.627  1.00  0.00    -0.744 OA
ENDBRANCH  66  69
ENDBRANCH  48  62
BRANCH  49  73
ATOM     73  C   UNL     1      11.161   2.203  -9.945  1.00  0.00     0.023 A 
ATOM     74  C   UNL     1      12.543   2.452 -10.062  1.00  0.00     0.012 A 
ATOM     75  C   UNL     1      10.723   0.896  -9.658  1.00  0.00     0.148 A 
ATOM     76  C   UNL     1      13.469   1.417  -9.927  1.00  0.00     0.002 A 
ATOM     77  C   UNL     1      11.654  -0.122  -9.473  1.00  0.00     0.091 A 
ATOM     78  F   UNL     1       9.405   0.674  -9.561  1.00  0.00    -0.205 F 
ATOM     79  C   UNL     1      13.026   0.133  -9.623  1.00  0.00     0.022 A 
BRANCH  77  80
ATOM     80  S   UNL     1      11.181  -1.776  -8.953  1.00  0.00     0.127 S 
ATOM     81  O   UNL     1      11.373  -2.542 -10.181  1.00  0.00    -0.237 OA
ATOM     82  O   UNL     1      12.155  -2.053  -7.896  1.00  0.00    -0.237 OA
ATOM     83  O   UNL     1       9.807  -1.659  -8.483  1.00  0.00    -0.744 OA
ENDBRANCH  77  80
ENDBRANCH  49  73
BRANCH  61  84
ATOM     84  C   UNL     1       9.377   6.333 -15.288  1.00  0.00     0.023 A 
ATOM     85  C   UNL     1       8.961   5.354 -16.211  1.00  0.00     0.012 A 
ATOM     86  C   UNL     1      10.144   7.427 -15.736  1.00  0.00     0.148 A 
ATOM     87  C   UNL     1       9.322   5.449 -17.554  1.00  0.00     0.002 A 
ATOM     88  C   UNL     1      10.461   7.540 -17.084  1.00  0.00     0.091 A 
ATOM     89  F   UNL     1      10.546   8.338 -14.837  1.00  0.00    -0.205 F 
ATOM     90  C   UNL     1      10.059   6.547 -17.992  1.00  0.00     0.022 A 
BRANCH  88  91
ATOM     91  S   UNL     1      11.322   8.968 -17.752  1.00  0.00     0.127 S 
ATOM     92  O   UNL     1      12.654   8.421 -18.003  1.00  0.00    -0.237 OA
ATOM     93  O   UNL     1      10.546   9.265 -18.956  1.00  0.00    -0.237 OA
ATOM     94  O   UNL     1      11.250   9.995 -16.721  1.00  0.00    -0.744 OA
ENDBRANCH  88  91
ENDBRANCH  61  84
ENDBRANCH  35  36
ENDBRANCH  27  30
ENDBRANCH   1  26
TORSDOF 15
