REMARK SMILES [NH3+][C@H](CCC(=O)NCCCNC(=O)c1ccc(-c2c3nc(c(-c4cccc(S(=O)(=O)[O-])c4F)c4ccc([nH]4)c(-c4cccc(S(=O)(=O)[O-])c4F)c4nc(c(-c5cccc(S(=O)(=O)[O-])c5F)c5ccc2[nH]5)C=C4)C=C3)cc1)Cc1c[nH]c2ccccc12
REMARK SMILES IDX 8 1 7 2 5 3 6 4 4 6 3 7 2 8 1 9 77 13 78 14 79 15 86 16
REMARK SMILES IDX 80 17 81 18 85 19 82 21 84 22 83 23 9 24 10 25 11 26 12 27
REMARK SMILES IDX 13 29 14 30 15 31 76 32 16 33 75 34 17 35 18 36 19 37 69 38
REMARK SMILES IDX 20 39 74 40 68 41 70 42 21 43 73 44 67 45 66 46 22 48 54 49
REMARK SMILES IDX 34 50 53 51 35 52 38 53 52 54 71 55 36 56 37 57 51 59 72 60
REMARK SMILES IDX 39 61 23 62 24 63 32 64 25 65 27 66 33 67 26 68 28 69 29 70
REMARK SMILES IDX 30 71 31 72 55 73 56 74 64 75 57 76 59 77 65 78 58 79 60 80
REMARK SMILES IDX 61 81 62 82 63 83 40 84 41 85 49 86 42 87 44 88 50 89 43 90
REMARK SMILES IDX 45 91 46 92 47 93 48 94
REMARK H PARENT 7 5 1 10 1 11 1 12 80 20 11 28 70 47 38 58
REMARK Flexibility Score: inf
ROOT
ATOM      1  C   UNL     1       0.593  -3.427  -0.681  1.00  0.00     0.117 C 
ENDROOT
BRANCH   1   2
ATOM      2  N   UNL     1       1.431  -2.645  -1.581  1.00  0.00    -0.356 N 
ATOM      3  C   UNL     1       2.208  -1.551  -1.335  1.00  0.00     0.220 C 
ATOM      4  O   UNL     1       2.697  -0.963  -2.304  1.00  0.00    -0.275 OA
ATOM      5  H   UNL     1       1.437  -2.955  -2.515  1.00  0.00     0.163 HD
BRANCH   3   6
ATOM      6  C   UNL     1       2.485  -1.085   0.088  1.00  0.00     0.106 C 
BRANCH   6   7
ATOM      7  C   UNL     1       1.625   0.113   0.540  1.00  0.00     0.075 C 
BRANCH   7   8
ATOM      8  C   UNL     1       0.140  -0.253   0.784  1.00  0.00     0.185 C 
BRANCH   8   9
ATOM      9  N   UNL     1       0.002  -0.852   2.121  1.00  0.00    -0.355 N 
ATOM     10  H   UNL     1      -0.975  -1.095   2.285  1.00  0.00     0.344 HD
ATOM     11  H   UNL     1       0.309  -0.183   2.827  1.00  0.00     0.344 HD
ATOM     12  H   UNL     1       0.575  -1.694   2.178  1.00  0.00     0.344 HD
ENDBRANCH   8   9
BRANCH   8  13
ATOM     13  C   UNL     1      -0.936   0.852   0.500  1.00  0.00     0.102 C 
BRANCH  13  14
ATOM     14  C   UNL     1      -0.882   1.319  -0.936  1.00  0.00    -0.017 A 
ATOM     15  C   UNL     1      -0.717   0.578  -2.093  1.00  0.00     0.087 A 
ATOM     16  C   UNL     1      -0.560   2.620  -1.386  1.00  0.00     0.003 A 
ATOM     17  N   UNL     1       0.475   1.083  -2.574  1.00  0.00    -0.361 N 
ATOM     18  C   UNL     1       0.562   2.399  -2.180  1.00  0.00     0.046 A 
ATOM     19  C   UNL     1      -0.947   3.934  -1.096  1.00  0.00     0.010 A 
ATOM     20  H   UNL     1       1.143   0.590  -3.103  1.00  0.00     0.166 HD
ATOM     21  C   UNL     1       1.496   3.392  -2.454  1.00  0.00     0.026 A 
ATOM     22  C   UNL     1      -0.132   4.971  -1.557  1.00  0.00     0.001 A 
ATOM     23  C   UNL     1       1.107   4.698  -2.143  1.00  0.00     0.002 A 
ENDBRANCH  13  14
ENDBRANCH   8  13
ENDBRANCH   7   8
ENDBRANCH   6   7
ENDBRANCH   3   6
ENDBRANCH   1   2
BRANCH   1  24
ATOM     24  C   UNL     1      -0.893  -3.178  -0.940  1.00  0.00     0.042 C 
BRANCH  24  25
ATOM     25  C   UNL     1      -1.453  -3.935  -2.129  1.00  0.00     0.118 C 
BRANCH  25  26
ATOM     26  N   UNL     1      -1.710  -5.329  -1.806  1.00  0.00    -0.352 N 
ATOM     27  C   UNL     1      -2.910  -5.977  -1.672  1.00  0.00     0.251 C 
ATOM     28  H   UNL     1      -0.910  -5.885  -1.663  1.00  0.00     0.163 HD
ATOM     29  O   UNL     1      -2.934  -7.097  -1.141  1.00  0.00    -0.269 OA
BRANCH  27  30
ATOM     30  C   UNL     1      -4.169  -5.357  -2.142  1.00  0.00     0.039 A 
ATOM     31  C   UNL     1      -5.335  -5.510  -1.385  1.00  0.00     0.014 A 
ATOM     32  C   UNL     1      -4.214  -4.648  -3.345  1.00  0.00     0.014 A 
ATOM     33  C   UNL     1      -6.526  -4.909  -1.806  1.00  0.00     0.010 A 
ATOM     34  C   UNL     1      -5.373  -3.972  -3.712  1.00  0.00     0.010 A 
ATOM     35  C   UNL     1      -6.548  -4.109  -2.959  1.00  0.00    -0.014 A 
BRANCH  35  36
ATOM     36  C   UNL     1      -7.782  -3.421  -3.423  1.00  0.00     0.031 A 
ATOM     37  C   UNL     1      -8.341  -3.732  -4.788  1.00  0.00     0.074 A 
ATOM     38  C   UNL     1      -8.330  -2.441  -2.677  1.00  0.00     0.049 A 
ATOM     39  N   UNL     1      -9.307  -3.142  -5.441  1.00  0.00    -0.248 NA
ATOM     40  C   UNL     1      -7.705  -4.835  -5.530  1.00  0.00     0.031 C 
ATOM     41  C   UNL     1      -7.847  -2.004  -1.366  1.00  0.00     0.029 A 
ATOM     42  N   UNL     1      -9.390  -1.606  -2.934  1.00  0.00    -0.354 N 
ATOM     43  C   UNL     1      -9.360  -3.761  -6.685  1.00  0.00     0.074 A 
ATOM     44  C   UNL     1      -8.310  -4.755  -6.706  1.00  0.00     0.031 C 
ATOM     45  C   UNL     1      -8.602  -0.980  -0.937  1.00  0.00     0.029 A 
ATOM     46  C   UNL     1      -9.593  -0.657  -1.958  1.00  0.00     0.049 A 
ATOM     47  H   UNL     1      -9.951  -1.680  -3.740  1.00  0.00     0.167 HD
ATOM     48  C   UNL     1     -10.218  -3.540  -7.709  1.00  0.00     0.034 A 
ATOM     49  C   UNL     1     -10.462   0.372  -1.903  1.00  0.00     0.034 A 
ATOM     50  C   UNL     1     -11.288  -2.582  -7.663  1.00  0.00     0.049 A 
ATOM     51  C   UNL     1     -11.424   0.579  -3.042  1.00  0.00     0.074 A 
ATOM     52  C   UNL     1     -12.265  -2.340  -8.612  1.00  0.00     0.029 A 
ATOM     53  N   UNL     1     -11.520  -1.704  -6.615  1.00  0.00    -0.354 N 
ATOM     54  N   UNL     1     -11.543  -0.103  -4.155  1.00  0.00    -0.248 NA
ATOM     55  C   UNL     1     -12.395   1.676  -2.905  1.00  0.00     0.031 C 
ATOM     56  C   UNL     1     -13.068  -1.292  -8.152  1.00  0.00     0.029 A 
ATOM     57  C   UNL     1     -12.619  -0.914  -6.897  1.00  0.00     0.049 A 
ATOM     58  H   UNL     1     -10.981  -1.652  -5.793  1.00  0.00     0.167 HD
ATOM     59  C   UNL     1     -12.629   0.448  -4.826  1.00  0.00     0.074 A 
ATOM     60  C   UNL     1     -13.138   1.517  -3.992  1.00  0.00     0.031 C 
ATOM     61  C   UNL     1     -13.155   0.101  -6.027  1.00  0.00     0.034 A 
BRANCH  48  62
ATOM     62  C   UNL     1     -10.061  -4.375  -8.954  1.00  0.00     0.023 A 
ATOM     63  C   UNL     1     -10.375  -5.749  -8.921  1.00  0.00     0.012 A 
ATOM     64  C   UNL     1      -9.661  -3.789 -10.171  1.00  0.00     0.148 A 
ATOM     65  C   UNL     1     -10.255  -6.535 -10.066  1.00  0.00     0.002 A 
ATOM     66  C   UNL     1      -9.593  -4.567 -11.321  1.00  0.00     0.091 A 
ATOM     67  F   UNL     1      -9.350  -2.485 -10.182  1.00  0.00    -0.205 F 
ATOM     68  C   UNL     1      -9.875  -5.942 -11.267  1.00  0.00     0.022 A 
BRANCH  66  69
ATOM     69  S   UNL     1      -9.197  -3.883 -12.934  1.00  0.00     0.127 S 
ATOM     70  O   UNL     1      -7.877  -4.462 -13.184  1.00  0.00    -0.237 OA
ATOM     71  O   UNL     1     -10.269  -4.428 -13.769  1.00  0.00    -0.237 OA
ATOM     72  O   UNL     1      -9.225  -2.437 -12.777  1.00  0.00    -0.744 OA
ENDBRANCH  66  69
ENDBRANCH  48  62
BRANCH  49  73
ATOM     73  C   UNL     1     -10.498   1.256  -0.702  1.00  0.00     0.023 A 
ATOM     74  C   UNL     1     -11.607   1.197   0.165  1.00  0.00     0.012 A 
ATOM     75  C   UNL     1      -9.438   2.133  -0.402  1.00  0.00     0.148 A 
ATOM     76  C   UNL     1     -11.677   2.022   1.288  1.00  0.00     0.002 A 
ATOM     77  C   UNL     1      -9.489   2.912   0.749  1.00  0.00     0.091 A 
ATOM     78  F   UNL     1      -8.395   2.179  -1.242  1.00  0.00    -0.205 F 
ATOM     79  C   UNL     1     -10.615   2.871   1.585  1.00  0.00     0.022 A 
BRANCH  77  80
ATOM     80  S   UNL     1      -8.117   3.943   1.280  1.00  0.00     0.127 S 
ATOM     81  O   UNL     1      -8.670   5.286   1.109  1.00  0.00    -0.237 OA
ATOM     82  O   UNL     1      -7.947   3.522   2.672  1.00  0.00    -0.237 OA
ATOM     83  O   UNL     1      -7.004   3.603   0.408  1.00  0.00    -0.744 OA
ENDBRANCH  77  80
ENDBRANCH  49  73
BRANCH  61  84
ATOM     84  C   UNL     1     -14.390   0.823  -6.495  1.00  0.00     0.023 A 
ATOM     85  C   UNL     1     -14.306   2.150  -6.958  1.00  0.00     0.012 A 
ATOM     86  C   UNL     1     -15.619   0.137  -6.575  1.00  0.00     0.148 A 
ATOM     87  C   UNL     1     -15.433   2.790  -7.473  1.00  0.00     0.002 A 
ATOM     88  C   UNL     1     -16.723   0.762  -7.138  1.00  0.00     0.091 A 
ATOM     89  F   UNL     1     -15.679  -1.121  -6.112  1.00  0.00    -0.205 F 
ATOM     90  C   UNL     1     -16.635   2.093  -7.577  1.00  0.00     0.022 A 
BRANCH  88  91
ATOM     91  S   UNL     1     -18.280  -0.090  -7.410  1.00  0.00     0.127 S 
ATOM     92  O   UNL     1     -19.161   0.589  -6.460  1.00  0.00    -0.237 OA
ATOM     93  O   UNL     1     -18.553   0.208  -8.816  1.00  0.00    -0.237 OA
ATOM     94  O   UNL     1     -18.028  -1.496  -7.125  1.00  0.00    -0.744 OA
ENDBRANCH  88  91
ENDBRANCH  61  84
ENDBRANCH  35  36
ENDBRANCH  27  30
ENDBRANCH  25  26
ENDBRANCH  24  25
ENDBRANCH   1  24
TORSDOF 18
