REMARK SMILES O=C(NCCCNC(=O)[C@@H]1CCCC[C@H]1C(=O)N[C@@H]1CONC1=O)c1ccc(-c2c3nc(c(-c4cccc(S(=O)(=O)[O-])c4F)c4ccc([nH]4)c(-c4cccc(S(=O)(=O)[O-])c4F)c4nc(c(-c5cccc(S(=O)(=O)[O-])c5F)c5ccc2[nH]5)C=C4)C=C3)cc1
REMARK SMILES IDX 4 1 3 2 1 3 2 4 25 6 26 7 87 8 27 9 86 10 28 11 29 12 30 13
REMARK SMILES IDX 80 14 31 15 85 16 79 17 81 18 32 19 84 20 78 21 77 22 33 24
REMARK SMILES IDX 65 25 45 26 64 27 46 28 49 29 63 30 82 31 47 32 48 33 62 35
REMARK SMILES IDX 83 36 50 37 34 38 35 39 43 40 36 41 38 42 44 43 37 44 39 45
REMARK SMILES IDX 40 46 41 47 42 48 66 49 67 50 75 51 68 52 70 53 76 54 69 55
REMARK SMILES IDX 71 56 72 57 73 58 74 59 51 60 52 61 60 62 53 63 55 64 61 65
REMARK SMILES IDX 54 66 56 67 57 68 58 69 59 70 5 71 6 72 7 73 8 74 9 76 10 77
REMARK SMILES IDX 11 78 15 79 12 80 14 81 13 82 16 83 17 84 18 85 19 87 20 88
REMARK SMILES IDX 23 89 21 90 22 91 24 92
REMARK H PARENT 3 5 81 23 49 34 7 75 18 86 22 93
REMARK Flexibility Score: inf
ROOT
ATOM      1  C   UNL     1       4.251  -1.192  -0.731  1.00  0.00     0.118 C 
ENDROOT
BRANCH   1   2
ATOM      2  N   UNL     1       2.838  -0.834  -0.836  1.00  0.00    -0.352 N 
ATOM      3  O   UNL     1       0.931   0.223  -0.297  1.00  0.00    -0.269 OA
ATOM      4  C   UNL     1       2.157   0.249  -0.337  1.00  0.00     0.251 C 
ATOM      5  H   UNL     1       2.286  -1.470  -1.346  1.00  0.00     0.163 HD
BRANCH   4   6
ATOM      6  C   UNL     1       2.900   1.431   0.142  1.00  0.00     0.039 A 
ATOM      7  C   UNL     1       4.048   1.856  -0.528  1.00  0.00     0.014 A 
ATOM      8  C   UNL     1       2.427   2.145   1.247  1.00  0.00     0.014 A 
ATOM      9  C   UNL     1       4.816   2.881  -0.001  1.00  0.00     0.010 A 
ATOM     10  C   UNL     1       3.137   3.257   1.704  1.00  0.00     0.010 A 
ATOM     11  C   UNL     1       4.353   3.614   1.101  1.00  0.00    -0.014 A 
BRANCH  11  12
ATOM     12  C   UNL     1       5.124   4.801   1.541  1.00  0.00     0.031 A 
ATOM     13  C   UNL     1       5.718   4.877   2.917  1.00  0.00     0.074 A 
ATOM     14  C   UNL     1       5.288   5.812   0.665  1.00  0.00     0.049 A 
ATOM     15  N   UNL     1       6.440   5.830   3.445  1.00  0.00    -0.248 NA
ATOM     16  C   UNL     1       5.462   3.746   3.823  1.00  0.00     0.031 C 
ATOM     17  C   UNL     1       4.721   5.853  -0.687  1.00  0.00     0.029 A 
ATOM     18  N   UNL     1       5.979   6.989   0.767  1.00  0.00    -0.354 N 
ATOM     19  C   UNL     1       6.682   5.443   4.758  1.00  0.00     0.074 A 
ATOM     20  C   UNL     1       6.024   4.168   4.947  1.00  0.00     0.031 C 
ATOM     21  C   UNL     1       5.125   6.971  -1.302  1.00  0.00     0.029 A 
ATOM     22  C   UNL     1       5.916   7.761  -0.369  1.00  0.00     0.049 A 
ATOM     23  H   UNL     1       6.474   7.257   1.576  1.00  0.00     0.167 HD
ATOM     24  C   UNL     1       7.393   6.091   5.711  1.00  0.00     0.034 A 
ATOM     25  C   UNL     1       6.424   8.979  -0.627  1.00  0.00     0.034 A 
ATOM     26  C   UNL     1       8.064   7.346   5.495  1.00  0.00     0.049 A 
ATOM     27  C   UNL     1       7.221   9.664   0.442  1.00  0.00     0.074 A 
ATOM     28  C   UNL     1       8.865   8.057   6.371  1.00  0.00     0.029 A 
ATOM     29  N   UNL     1       8.001   8.087   4.323  1.00  0.00    -0.354 N 
ATOM     30  N   UNL     1       7.534   9.231   1.639  1.00  0.00    -0.248 NA
ATOM     31  C   UNL     1       7.755  10.992   0.119  1.00  0.00     0.031 C 
ATOM     32  C   UNL     1       9.257   9.243   5.741  1.00  0.00     0.029 A 
ATOM     33  C   UNL     1       8.735   9.254   4.457  1.00  0.00     0.049 A 
ATOM     34  H   UNL     1       7.506   7.822   3.514  1.00  0.00     0.167 HD
ATOM     35  C   UNL     1       8.331  10.218   2.203  1.00  0.00     0.074 A 
ATOM     36  C   UNL     1       8.465  11.263   1.206  1.00  0.00     0.031 C 
ATOM     37  C   UNL     1       8.891  10.262   3.437  1.00  0.00     0.034 A 
BRANCH  24  38
ATOM     38  C   UNL     1       7.486   5.448   7.073  1.00  0.00     0.023 A 
ATOM     39  C   UNL     1       8.244   4.271   7.248  1.00  0.00     0.012 A 
ATOM     40  C   UNL     1       6.849   6.028   8.188  1.00  0.00     0.148 A 
ATOM     41  C   UNL     1       8.328   3.658   8.498  1.00  0.00     0.002 A 
ATOM     42  C   UNL     1       6.978   5.438   9.441  1.00  0.00     0.091 A 
ATOM     43  F   UNL     1       6.115   7.134   8.003  1.00  0.00    -0.205 F 
ATOM     44  C   UNL     1       7.703   4.246   9.595  1.00  0.00     0.022 A 
BRANCH  42  45
ATOM     45  S   UNL     1       6.279   6.166  10.927  1.00  0.00     0.127 S 
ATOM     46  O   UNL     1       5.148   5.277  11.189  1.00  0.00    -0.237 OA
ATOM     47  O   UNL     1       7.383   6.043  11.880  1.00  0.00    -0.237 OA
ATOM     48  O   UNL     1       5.934   7.537  10.576  1.00  0.00    -0.744 OA
ENDBRANCH  42  45
ENDBRANCH  24  38
BRANCH  25  49
ATOM     49  C   UNL     1       6.228   9.589  -1.972  1.00  0.00     0.023 A 
ATOM     50  C   UNL     1       7.329   9.718  -2.839  1.00  0.00     0.012 A 
ATOM     51  C   UNL     1       4.949   9.977  -2.419  1.00  0.00     0.148 A 
ATOM     52  C   UNL     1       7.165  10.242  -4.121  1.00  0.00     0.002 A 
ATOM     53  C   UNL     1       4.783  10.444  -3.717  1.00  0.00     0.091 A 
ATOM     54  F   UNL     1       3.916   9.850  -1.575  1.00  0.00    -0.205 F 
ATOM     55  C   UNL     1       5.892  10.593  -4.564  1.00  0.00     0.022 A 
BRANCH  53  56
ATOM     56  S   UNL     1       3.167  10.788  -4.420  1.00  0.00     0.127 S 
ATOM     57  O   UNL     1       3.221  12.237  -4.596  1.00  0.00    -0.237 OA
ATOM     58  O   UNL     1       3.209  10.013  -5.660  1.00  0.00    -0.237 OA
ATOM     59  O   UNL     1       2.200  10.308  -3.442  1.00  0.00    -0.744 OA
ENDBRANCH  53  56
ENDBRANCH  25  49
BRANCH  37  60
ATOM     60  C   UNL     1       9.743  11.459   3.764  1.00  0.00     0.023 A 
ATOM     61  C   UNL     1       9.143  12.715   3.980  1.00  0.00     0.012 A 
ATOM     62  C   UNL     1      11.137  11.322   3.913  1.00  0.00     0.148 A 
ATOM     63  C   UNL     1       9.922  13.825   4.304  1.00  0.00     0.002 A 
ATOM     64  C   UNL     1      11.900  12.420   4.288  1.00  0.00     0.091 A 
ATOM     65  F   UNL     1      11.690  10.123   3.680  1.00  0.00    -0.205 F 
ATOM     66  C   UNL     1      11.297  13.675   4.470  1.00  0.00     0.022 A 
BRANCH  64  67
ATOM     67  S   UNL     1      13.660  12.294   4.623  1.00  0.00     0.127 S 
ATOM     68  O   UNL     1      14.233  12.969   3.460  1.00  0.00    -0.237 OA
ATOM     69  O   UNL     1      13.790  13.031   5.881  1.00  0.00    -0.237 OA
ATOM     70  O   UNL     1      13.949  10.870   4.726  1.00  0.00    -0.744 OA
ENDBRANCH  64  67
ENDBRANCH  37  60
ENDBRANCH  11  12
ENDBRANCH   4   6
ENDBRANCH   1   2
BRANCH   1  71
ATOM     71  C   UNL     1       4.451  -2.432   0.127  1.00  0.00     0.042 C 
BRANCH  71  72
ATOM     72  C   UNL     1       3.837  -3.673  -0.504  1.00  0.00     0.117 C 
BRANCH  72  73
ATOM     73  N   UNL     1       4.774  -4.362  -1.369  1.00  0.00    -0.356 N 
ATOM     74  C   UNL     1       5.590  -5.427  -1.257  1.00  0.00     0.223 C 
ATOM     75  H   UNL     1       4.827  -3.948  -2.260  1.00  0.00     0.163 HD
ATOM     76  O   UNL     1       6.213  -5.689  -2.298  1.00  0.00    -0.275 OA
BRANCH  74  77
ATOM     77  C   UNL     1       5.878  -6.272   0.006  1.00  0.00     0.091 C 
ATOM     78  C   UNL     1       5.988  -7.729  -0.514  1.00  0.00     0.014 C 
ATOM     79  C   UNL     1       4.953  -6.168   1.223  1.00  0.00     0.091 C 
ATOM     80  C   UNL     1       6.091  -8.795   0.561  1.00  0.00     0.001 C 
ATOM     81  C   UNL     1       4.817  -7.376   2.170  1.00  0.00     0.014 C 
ATOM     82  C   UNL     1       4.899  -8.726   1.491  1.00  0.00     0.001 C 
BRANCH  79  83
ATOM     83  C   UNL     1       5.216  -4.971   2.134  1.00  0.00     0.224 C 
ATOM     84  O   UNL     1       4.245  -4.333   2.558  1.00  0.00    -0.275 OA
ATOM     85  N   UNL     1       6.412  -4.606   2.636  1.00  0.00    -0.342 N 
ATOM     86  H   UNL     1       6.300  -3.885   3.297  1.00  0.00     0.164 HD
BRANCH  85  87
ATOM     87  C   UNL     1       7.834  -4.956   2.497  1.00  0.00     0.202 C 
ATOM     88  C   UNL     1       8.266  -6.412   2.417  1.00  0.00     0.228 C 
ATOM     89  C   UNL     1       8.478  -4.555   3.811  1.00  0.00     0.268 C 
ATOM     90  O   UNL     1       9.391  -6.608   3.284  1.00  0.00    -0.271 OA
ATOM     91  N   UNL     1       9.359  -5.530   4.184  1.00  0.00    -0.233 N 
ATOM     92  O   UNL     1       8.238  -3.540   4.439  1.00  0.00    -0.270 OA
ATOM     93  H   UNL     1       9.912  -5.482   4.997  1.00  0.00     0.199 HD
ENDBRANCH  85  87
ENDBRANCH  79  83
ENDBRANCH  74  77
ENDBRANCH  72  73
ENDBRANCH  71  72
ENDBRANCH   1  71
TORSDOF 15
