REMARK SMILES O=C(NCCCNC(=O)c1nccnc1C(=O)Nc1ccc2c(c1)OCO2)c1ccc(-c2c3nc(c(-c4cccc(S(=O)(=O)[O-])c4F)c4ccc([nH]4)c(-c4cccc(S(=O)(=O)[O-])c4F)c4nc(c(-c5cccc(S(=O)(=O)[O-])c5F)c5ccc2[nH]5)C=C4)C=C3)cc1
REMARK SMILES IDX 4 1 3 2 1 3 2 4 28 6 29 7 90 8 30 9 89 10 31 11 32 12 33 13
REMARK SMILES IDX 83 14 34 15 88 16 82 17 84 18 35 19 87 20 81 21 80 22 36 24
REMARK SMILES IDX 68 25 48 26 67 27 49 28 52 29 66 30 85 31 50 32 51 33 65 35
REMARK SMILES IDX 86 36 53 37 37 38 38 39 46 40 39 41 41 42 47 43 40 44 42 45
REMARK SMILES IDX 43 46 44 47 45 48 69 49 70 50 78 51 71 52 73 53 79 54 72 55
REMARK SMILES IDX 74 56 75 57 76 58 77 59 54 60 55 61 63 62 56 63 58 64 64 65
REMARK SMILES IDX 57 66 59 67 60 68 61 69 62 70 5 71 6 72 7 73 8 74 9 76 10 77
REMARK SMILES IDX 11 78 15 79 12 80 14 81 13 82 16 83 17 84 18 85 19 87 20 88
REMARK SMILES IDX 24 89 21 90 23 91 22 92 25 93 27 94 26 95
REMARK H PARENT 3 5 84 23 52 34 7 75 18 86
REMARK Flexibility Score: inf
ROOT
ATOM      1  C   UNL     1       4.354  -0.071  -1.759  1.00  0.00     0.118 C 
ENDROOT
BRANCH   1   2
ATOM      2  N   UNL     1       3.002   0.215  -1.318  1.00  0.00    -0.352 N 
ATOM      3  O   UNL     1       1.209   0.012   0.045  1.00  0.00    -0.269 OA
ATOM      4  C   UNL     1       2.382  -0.244  -0.170  1.00  0.00     0.251 C 
ATOM      5  H   UNL     1       2.466   0.800  -1.900  1.00  0.00     0.163 HD
BRANCH   4   6
ATOM      6  C   UNL     1       3.164  -1.072   0.778  1.00  0.00     0.039 A 
ATOM      7  C   UNL     1       4.373  -0.596   1.289  1.00  0.00     0.014 A 
ATOM      8  C   UNL     1       2.700  -2.341   1.135  1.00  0.00     0.014 A 
ATOM      9  C   UNL     1       5.182  -1.440   2.044  1.00  0.00     0.010 A 
ATOM     10  C   UNL     1       3.487  -3.163   1.951  1.00  0.00     0.010 A 
ATOM     11  C   UNL     1       4.752  -2.735   2.384  1.00  0.00    -0.014 A 
BRANCH  11  12
ATOM     12  C   UNL     1       5.623  -3.586   3.240  1.00  0.00     0.031 A 
ATOM     13  C   UNL     1       6.238  -4.860   2.724  1.00  0.00     0.074 A 
ATOM     14  C   UNL     1       5.887  -3.180   4.498  1.00  0.00     0.049 A 
ATOM     15  N   UNL     1       7.081  -5.665   3.321  1.00  0.00    -0.248 NA
ATOM     16  C   UNL     1       5.859  -5.293   1.370  1.00  0.00     0.031 C 
ATOM     17  C   UNL     1       5.306  -1.996   5.136  1.00  0.00     0.029 A 
ATOM     18  N   UNL     1       6.707  -3.709   5.462  1.00  0.00    -0.354 N 
ATOM     19  C   UNL     1       7.319  -6.707   2.432  1.00  0.00     0.074 A 
ATOM     20  C   UNL     1       6.515  -6.442   1.257  1.00  0.00     0.031 C 
ATOM     21  C   UNL     1       5.802  -1.878   6.377  1.00  0.00     0.029 A 
ATOM     22  C   UNL     1       6.706  -2.994   6.636  1.00  0.00     0.049 A 
ATOM     23  H   UNL     1       7.244  -4.523   5.326  1.00  0.00     0.167 HD
ATOM     24  C   UNL     1       8.146  -7.772   2.569  1.00  0.00     0.034 A 
ATOM     25  C   UNL     1       7.351  -3.210   7.798  1.00  0.00     0.034 A 
ATOM     26  C   UNL     1       8.963  -8.024   3.730  1.00  0.00     0.049 A 
ATOM     27  C   UNL     1       8.290  -4.378   7.907  1.00  0.00     0.074 A 
ATOM     28  C   UNL     1       9.863  -9.056   3.941  1.00  0.00     0.029 A 
ATOM     29  N   UNL     1       8.980  -7.244   4.876  1.00  0.00    -0.354 N 
ATOM     30  N   UNL     1       8.600  -5.273   7.002  1.00  0.00    -0.248 NA
ATOM     31  C   UNL     1       8.997  -4.543   9.185  1.00  0.00     0.031 C 
ATOM     32  C   UNL     1      10.414  -8.906   5.218  1.00  0.00     0.029 A 
ATOM     33  C   UNL     1       9.873  -7.770   5.796  1.00  0.00     0.049 A 
ATOM     34  H   UNL     1       8.437  -6.435   5.015  1.00  0.00     0.167 HD
ATOM     35  C   UNL     1       9.547  -6.100   7.595  1.00  0.00     0.074 A 
ATOM     36  C   UNL     1       9.792  -5.571   8.921  1.00  0.00     0.031 C 
ATOM     37  C   UNL     1      10.139  -7.213   7.097  1.00  0.00     0.034 A 
BRANCH  24  38
ATOM     38  C   UNL     1       8.266  -8.728   1.409  1.00  0.00     0.023 A 
ATOM     39  C   UNL     1       8.996  -8.336   0.268  1.00  0.00     0.012 A 
ATOM     40  C   UNL     1       7.748 -10.037   1.480  1.00  0.00     0.148 A 
ATOM     41  C   UNL     1       9.191  -9.221  -0.792  1.00  0.00     0.002 A 
ATOM     42  C   UNL     1       7.979 -10.927   0.436  1.00  0.00     0.091 A 
ATOM     43  F   UNL     1       7.044 -10.388   2.566  1.00  0.00    -0.205 F 
ATOM     44  C   UNL     1       8.693 -10.518  -0.703  1.00  0.00     0.022 A 
BRANCH  42  45
ATOM     45  S   UNL     1       7.444 -12.642   0.481  1.00  0.00     0.127 S 
ATOM     46  O   UNL     1       6.386 -12.646  -0.528  1.00  0.00    -0.237 OA
ATOM     47  O   UNL     1       8.661 -13.354   0.090  1.00  0.00    -0.237 OA
ATOM     48  O   UNL     1       7.005 -12.890   1.847  1.00  0.00    -0.744 OA
ENDBRANCH  42  45
ENDBRANCH  24  38
BRANCH  25  49
ATOM     49  C   UNL     1       7.156  -2.269   8.937  1.00  0.00     0.023 A 
ATOM     50  C   UNL     1       8.213  -1.433   9.343  1.00  0.00     0.012 A 
ATOM     51  C   UNL     1       5.913  -2.173   9.591  1.00  0.00     0.148 A 
ATOM     52  C   UNL     1       8.043  -0.538  10.400  1.00  0.00     0.002 A 
ATOM     53  C   UNL     1       5.732  -1.236  10.600  1.00  0.00     0.091 A 
ATOM     54  F   UNL     1       4.925  -2.994   9.206  1.00  0.00    -0.205 F 
ATOM     55  C   UNL     1       6.800  -0.429  11.019  1.00  0.00     0.022 A 
BRANCH  53  56
ATOM     56  S   UNL     1       4.119  -0.934  11.330  1.00  0.00     0.127 S 
ATOM     57  O   UNL     1       4.220  -1.662  12.591  1.00  0.00    -0.237 OA
ATOM     58  O   UNL     1       4.106   0.524  11.459  1.00  0.00    -0.237 OA
ATOM     59  O   UNL     1       3.159  -1.453  10.365  1.00  0.00    -0.744 OA
ENDBRANCH  53  56
ENDBRANCH  25  49
BRANCH  37  60
ATOM     60  C   UNL     1      11.118  -7.930   7.991  1.00  0.00     0.023 A 
ATOM     61  C   UNL     1      10.642  -8.652   9.104  1.00  0.00     0.012 A 
ATOM     62  C   UNL     1      12.499  -7.918   7.716  1.00  0.00     0.148 A 
ATOM     63  C   UNL     1      11.527  -9.315   9.953  1.00  0.00     0.002 A 
ATOM     64  C   UNL     1      13.372  -8.619   8.540  1.00  0.00     0.091 A 
ATOM     65  F   UNL     1      12.938  -7.208   6.665  1.00  0.00    -0.205 F 
ATOM     66  C   UNL     1      12.890  -9.306   9.666  1.00  0.00     0.022 A 
BRANCH  64  67
ATOM     67  S   UNL     1      15.131  -8.731   8.196  1.00  0.00     0.127 S 
ATOM     68  O   UNL     1      15.685  -7.779   9.156  1.00  0.00    -0.237 OA
ATOM     69  O   UNL     1      15.421 -10.135   8.493  1.00  0.00    -0.237 OA
ATOM     70  O   UNL     1      15.284  -8.372   6.792  1.00  0.00    -0.744 OA
ENDBRANCH  64  67
ENDBRANCH  37  60
ENDBRANCH  11  12
ENDBRANCH   4   6
ENDBRANCH   1   2
BRANCH   1  71
ATOM     71  C   UNL     1       4.692   0.157  -3.235  1.00  0.00     0.042 C 
BRANCH  71  72
ATOM     72  C   UNL     1       3.863   1.153  -4.038  1.00  0.00     0.118 C 
BRANCH  72  73
ATOM     73  N   UNL     1       4.198   2.562  -3.863  1.00  0.00    -0.351 N 
ATOM     74  C   UNL     1       5.040   3.366  -4.620  1.00  0.00     0.272 C 
ATOM     75  H   UNL     1       3.764   3.006  -3.099  1.00  0.00     0.163 HD
ATOM     76  O   UNL     1       4.938   4.589  -4.570  1.00  0.00    -0.267 OA
BRANCH  74  77
ATOM     77  C   UNL     1       6.006   2.763  -5.560  1.00  0.00     0.159 A 
ATOM     78  N   UNL     1       5.360   2.016  -6.525  1.00  0.00    -0.247 NA
ATOM     79  C   UNL     1       7.376   3.008  -5.603  1.00  0.00     0.159 A 
ATOM     80  C   UNL     1       6.107   1.522  -7.527  1.00  0.00     0.132 A 
ATOM     81  N   UNL     1       8.108   2.427  -6.622  1.00  0.00    -0.247 NA
ATOM     82  C   UNL     1       7.462   1.717  -7.571  1.00  0.00     0.132 A 
BRANCH  79  83
ATOM     83  C   UNL     1       8.261   3.964  -4.826  1.00  0.00     0.276 C 
ATOM     84  O   UNL     1       9.368   4.239  -5.318  1.00  0.00    -0.267 OA
ATOM     85  N   UNL     1       7.963   4.702  -3.710  1.00  0.00    -0.320 N 
ATOM     86  H   UNL     1       8.511   5.516  -3.636  1.00  0.00     0.170 HD
BRANCH  85  87
ATOM     87  C   UNL     1       7.065   4.564  -2.660  1.00  0.00     0.045 A 
ATOM     88  C   UNL     1       6.815   3.337  -2.030  1.00  0.00     0.030 A 
ATOM     89  C   UNL     1       6.410   5.734  -2.249  1.00  0.00     0.076 A 
ATOM     90  C   UNL     1       5.825   3.262  -1.044  1.00  0.00     0.053 A 
ATOM     91  C   UNL     1       5.363   5.595  -1.371  1.00  0.00     0.167 A 
ATOM     92  C   UNL     1       5.066   4.385  -0.797  1.00  0.00     0.165 A 
ATOM     93  O   UNL     1       4.474   6.565  -1.027  1.00  0.00    -0.454 OA
ATOM     94  O   UNL     1       3.944   4.439  -0.032  1.00  0.00    -0.454 OA
ATOM     95  C   UNL     1       3.477   5.767  -0.356  1.00  0.00     0.468 C 
ENDBRANCH  85  87
ENDBRANCH  79  83
ENDBRANCH  74  77
ENDBRANCH  72  73
ENDBRANCH  71  72
ENDBRANCH   1  71
TORSDOF 15
