REMARK SMILES O=C(NCCCNC(=O)C1CC[NH+]([C@H]2CC(=O)N(c3ccc4c(c3)OCCO4)C2=O)CC1)c1ccc(-c2c3nc(c(-c4cccc(S(=O)(=O)[O-])c4F)c4ccc([nH]4)c(-c4cccc(S(=O)(=O)[O-])c4F)c4nc(c(-c5cccc(S(=O)(=O)[O-])c5F)c5ccc2[nH]5)C=C4)C=C3)cc1
REMARK SMILES IDX 4 1 3 2 1 3 2 4 33 6 34 7 95 8 35 9 94 10 36 11 37 12 38 13
REMARK SMILES IDX 88 14 39 15 93 16 87 17 89 18 40 19 92 20 86 21 85 22 41 24
REMARK SMILES IDX 73 25 53 26 72 27 54 28 57 29 71 30 90 31 55 32 56 33 70 35
REMARK SMILES IDX 91 36 58 37 42 38 43 39 51 40 44 41 46 42 52 43 45 44 47 45
REMARK SMILES IDX 48 46 49 47 50 48 74 49 75 50 83 51 76 52 78 53 84 54 77 55
REMARK SMILES IDX 79 56 80 57 81 58 82 59 59 60 60 61 68 62 61 63 63 64 69 65
REMARK SMILES IDX 62 66 64 67 65 68 66 69 67 70 5 71 6 72 7 73 8 74 9 76 10 77
REMARK SMILES IDX 11 78 32 79 12 80 31 81 13 82 14 84 15 85 29 86 16 87 18 88
REMARK SMILES IDX 30 89 17 90 19 91 20 92 24 93 21 94 23 95 22 96 25 97 28 98
REMARK SMILES IDX 26 99 27 100
REMARK H PARENT 3 5 89 23 57 34 7 75 13 83
REMARK Flexibility Score: inf
ROOT
ATOM      1  C   UNL     1       4.183   6.118   6.027  1.00  0.00     0.118 C 
ENDROOT
BRANCH   1   2
ATOM      2  N   UNL     1       2.820   6.282   6.510  1.00  0.00    -0.352 N 
ATOM      3  O   UNL     1       1.055   5.848   7.820  1.00  0.00    -0.269 OA
ATOM      4  C   UNL     1       2.274   5.963   7.728  1.00  0.00     0.251 C 
ATOM      5  H   UNL     1       2.194   6.683   5.864  1.00  0.00     0.163 HD
BRANCH   4   6
ATOM      6  C   UNL     1       3.140   5.762   8.911  1.00  0.00     0.039 A 
ATOM      7  C   UNL     1       4.283   6.542   9.102  1.00  0.00     0.014 A 
ATOM      8  C   UNL     1       2.762   4.833   9.885  1.00  0.00     0.014 A 
ATOM      9  C   UNL     1       5.118   6.307  10.186  1.00  0.00     0.010 A 
ATOM     10  C   UNL     1       3.544   4.675  11.031  1.00  0.00     0.010 A 
ATOM     11  C   UNL     1       4.736   5.401  11.183  1.00  0.00    -0.014 A 
BRANCH  11  12
ATOM     12  C   UNL     1       5.530   5.306  12.431  1.00  0.00     0.031 A 
ATOM     13  C   UNL     1       6.169   4.014  12.842  1.00  0.00     0.074 A 
ATOM     14  C   UNL     1       5.615   6.393  13.223  1.00  0.00     0.049 A 
ATOM     15  N   UNL     1       6.814   3.730  13.943  1.00  0.00    -0.248 NA
ATOM     16  C   UNL     1       6.058   2.888  11.902  1.00  0.00     0.031 C 
ATOM     17  C   UNL     1       4.997   7.691  12.937  1.00  0.00     0.029 A 
ATOM     18  N   UNL     1       6.220   6.574  14.440  1.00  0.00    -0.354 N 
ATOM     19  C   UNL     1       7.139   2.383  13.856  1.00  0.00     0.074 A 
ATOM     20  C   UNL     1       6.619   1.905  12.593  1.00  0.00     0.031 C 
ATOM     21  C   UNL     1       5.245   8.530  13.950  1.00  0.00     0.029 A 
ATOM     22  C   UNL     1       5.976   7.812  14.987  1.00  0.00     0.049 A 
ATOM     23  H   UNL     1       6.774   5.888  14.878  1.00  0.00     0.167 HD
ATOM     24  C   UNL     1       7.812   1.619  14.750  1.00  0.00     0.034 A 
ATOM     25  C   UNL     1       6.257   8.304  16.208  1.00  0.00     0.034 A 
ATOM     26  C   UNL     1       8.333   2.117  15.996  1.00  0.00     0.049 A 
ATOM     27  C   UNL     1       7.002   7.442  17.181  1.00  0.00     0.074 A 
ATOM     28  C   UNL     1       9.097   1.448  16.936  1.00  0.00     0.029 A 
ATOM     29  N   UNL     1       8.123   3.397  16.488  1.00  0.00    -0.354 N 
ATOM     30  N   UNL     1       7.412   6.205  17.034  1.00  0.00    -0.248 NA
ATOM     31  C   UNL     1       7.349   8.043  18.475  1.00  0.00     0.031 C 
ATOM     32  C   UNL     1       9.306   2.309  18.018  1.00  0.00     0.029 A 
ATOM     33  C   UNL     1       8.719   3.532  17.730  1.00  0.00     0.049 A 
ATOM     34  H   UNL     1       7.622   4.105  16.023  1.00  0.00     0.167 HD
ATOM     35  C   UNL     1       8.095   5.889  18.200  1.00  0.00     0.074 A 
ATOM     36  C   UNL     1       8.049   7.068  19.042  1.00  0.00     0.031 C 
ATOM     37  C   UNL     1       8.702   4.726  18.539  1.00  0.00     0.034 A 
BRANCH  24  38
ATOM     38  C   UNL     1       8.015   0.164  14.412  1.00  0.00     0.023 A 
ATOM     39  C   UNL     1       8.878  -0.205  13.359  1.00  0.00     0.012 A 
ATOM     40  C   UNL     1       7.370  -0.843  15.158  1.00  0.00     0.148 A 
ATOM     41  C   UNL     1       9.052  -1.547  13.020  1.00  0.00     0.002 A 
ATOM     42  C   UNL     1       7.587  -2.179  14.845  1.00  0.00     0.091 A 
ATOM     43  F   UNL     1       6.538  -0.477  16.144  1.00  0.00    -0.205 F 
ATOM     44  C   UNL     1       8.414  -2.533  13.767  1.00  0.00     0.022 A 
BRANCH  42  45
ATOM     45  S   UNL     1       6.873  -3.521  15.803  1.00  0.00     0.127 S 
ATOM     46  O   UNL     1       5.826  -4.001  14.902  1.00  0.00    -0.237 OA
ATOM     47  O   UNL     1       8.010  -4.431  15.954  1.00  0.00    -0.237 OA
ATOM     48  O   UNL     1       6.409  -2.923  17.046  1.00  0.00    -0.744 OA
ENDBRANCH  42  45
ENDBRANCH  24  38
BRANCH  25  49
ATOM     49  C   UNL     1       5.823   9.687  16.547  1.00  0.00     0.023 A 
ATOM     50  C   UNL     1       6.777  10.716  16.640  1.00  0.00     0.012 A 
ATOM     51  C   UNL     1       4.454   9.999  16.679  1.00  0.00     0.148 A 
ATOM     52  C   UNL     1       6.377  12.032  16.872  1.00  0.00     0.002 A 
ATOM     53  C   UNL     1       4.060  11.319  16.851  1.00  0.00     0.091 A 
ATOM     54  F   UNL     1       3.565   9.000  16.586  1.00  0.00    -0.205 F 
ATOM     55  C   UNL     1       5.020  12.335  16.964  1.00  0.00     0.022 A 
BRANCH  53  56
ATOM     56  S   UNL     1       2.336  11.823  16.834  1.00  0.00     0.127 S 
ATOM     57  O   UNL     1       2.156  12.317  18.196  1.00  0.00    -0.237 OA
ATOM     58  O   UNL     1       2.338  12.856  15.798  1.00  0.00    -0.237 OA
ATOM     59  O   UNL     1       1.575  10.628  16.493  1.00  0.00    -0.744 OA
ENDBRANCH  53  56
ENDBRANCH  25  49
BRANCH  37  60
ATOM     60  C   UNL     1       9.421   4.669  19.860  1.00  0.00     0.023 A 
ATOM     61  C   UNL     1       8.692   4.586  21.062  1.00  0.00     0.012 A 
ATOM     62  C   UNL     1      10.827   4.581  19.892  1.00  0.00     0.148 A 
ATOM     63  C   UNL     1       9.354   4.431  22.279  1.00  0.00     0.002 A 
ATOM     64  C   UNL     1      11.476   4.373  21.101  1.00  0.00     0.091 A 
ATOM     65  F   UNL     1      11.499   4.683  18.736  1.00  0.00    -0.205 F 
ATOM     66  C   UNL     1      10.743   4.308  22.297  1.00  0.00     0.022 A 
BRANCH  64  67
ATOM     67  S   UNL     1      13.248   4.098  21.210  1.00  0.00     0.127 S 
ATOM     68  O   UNL     1      13.689   5.286  21.940  1.00  0.00    -0.237 OA
ATOM     69  O   UNL     1      13.318   2.852  21.973  1.00  0.00    -0.237 OA
ATOM     70  O   UNL     1      13.729   4.000  19.839  1.00  0.00    -0.744 OA
ENDBRANCH  64  67
ENDBRANCH  37  60
ENDBRANCH  11  12
ENDBRANCH   4   6
ENDBRANCH   1   2
BRANCH   1  71
ATOM     71  C   UNL     1       4.313   4.884   5.151  1.00  0.00     0.042 C 
BRANCH  71  72
ATOM     72  C   UNL     1       3.571   5.014   3.825  1.00  0.00     0.117 C 
BRANCH  72  73
ATOM     73  N   UNL     1       4.322   5.808   2.873  1.00  0.00    -0.356 N 
ATOM     74  C   UNL     1       5.176   5.538   1.865  1.00  0.00     0.223 C 
ATOM     75  H   UNL     1       4.173   6.774   2.990  1.00  0.00     0.163 HD
ATOM     76  O   UNL     1       5.679   6.540   1.334  1.00  0.00    -0.275 OA
BRANCH  74  77
ATOM     77  C   UNL     1       5.537   4.158   1.301  1.00  0.00     0.089 C 
ATOM     78  C   UNL     1       4.927   2.864   1.816  1.00  0.00     0.075 C 
ATOM     79  C   UNL     1       7.065   3.997   1.262  1.00  0.00     0.075 C 
ATOM     80  C   UNL     1       5.555   2.332   3.108  1.00  0.00     0.263 C 
ATOM     81  C   UNL     1       7.610   3.619   2.636  1.00  0.00     0.263 C 
ATOM     82  N   UNL     1       7.010   2.416   3.202  1.00  0.00    -0.324 N 
ATOM     83  H   UNL     1       7.227   2.623   4.177  1.00  0.00     0.348 HD
BRANCH  82  84
ATOM     84  C   UNL     1       7.694   1.119   3.076  1.00  0.00     0.284 C 
ATOM     85  C   UNL     1       7.487   0.400   1.758  1.00  0.00     0.176 C 
ATOM     86  C   UNL     1       9.206   1.182   3.232  1.00  0.00     0.292 C 
ATOM     87  C   UNL     1       8.828   0.421   1.107  1.00  0.00     0.240 C 
ATOM     88  N   UNL     1       9.767   0.816   2.028  1.00  0.00    -0.245 N 
ATOM     89  O   UNL     1       9.784   1.566   4.242  1.00  0.00    -0.267 OA
ATOM     90  O   UNL     1       8.994   0.045  -0.045  1.00  0.00    -0.274 OA
BRANCH  88  91
ATOM     91  C   UNL     1      11.152   0.832   1.756  1.00  0.00     0.056 A 
ATOM     92  C   UNL     1      12.079   0.398   2.714  1.00  0.00     0.031 A 
ATOM     93  C   UNL     1      11.615   1.258   0.505  1.00  0.00     0.077 A 
ATOM     94  C   UNL     1      13.442   0.348   2.407  1.00  0.00     0.052 A 
ATOM     95  C   UNL     1      12.977   1.253   0.217  1.00  0.00     0.163 A 
ATOM     96  C   UNL     1      13.891   0.792   1.166  1.00  0.00     0.161 A 
ATOM     97  O   UNL     1      13.339   1.737  -1.013  1.00  0.00    -0.486 OA
ATOM     98  O   UNL     1      15.242   0.746   0.942  1.00  0.00    -0.486 OA
ATOM     99  C   UNL     1      14.690   1.398  -1.335  1.00  0.00     0.271 C 
ATOM    100  C   UNL     1      15.610   1.603  -0.143  1.00  0.00     0.271 C 
ENDBRANCH  88  91
ENDBRANCH  82  84
ENDBRANCH  74  77
ENDBRANCH  72  73
ENDBRANCH  71  72
ENDBRANCH   1  71
TORSDOF 15
