REMARK SMILES O=C(N/N=C/c1ccccc1O)C(=O)Nc1cccc(C(=O)NCCCNC(=O)c2ccc(-c3c4nc(c(-c5cccc(S(=O)(=O)[O-])c5F)c5ccc([nH]5)c(-c5cccc(S(=O)(=O)[O-])c5F)c5nc(c(-c6cccc(S(=O)(=O)[O-])c6F)c6ccc3[nH]6)C=C5)C=C4)cc2)c1
REMARK SMILES IDX 24 1 23 2 21 3 22 4 20 6 16 7 17 8 93 9 18 10 19 11 15 12
REMARK SMILES IDX 13 13 14 14 2 16 1 17 3 18 4 20 5 21 6 22 7 23 11 24 8 25
REMARK SMILES IDX 10 26 9 27 12 28 25 30 26 31 27 32 28 33 29 35 30 36 31 37
REMARK SMILES IDX 92 38 32 39 91 40 33 41 34 42 35 43 85 44 36 45 90 46 84 47
REMARK SMILES IDX 86 48 37 49 89 50 83 51 82 52 38 54 70 55 50 56 69 57 51 58
REMARK SMILES IDX 54 59 68 60 87 61 52 62 53 63 67 65 88 66 55 67 39 68 40 69
REMARK SMILES IDX 48 70 41 71 43 72 49 73 42 74 44 75 45 76 46 77 47 78 71 79
REMARK SMILES IDX 72 80 80 81 73 82 75 83 81 84 74 85 76 86 77 87 78 88 79 89
REMARK SMILES IDX 56 90 57 91 65 92 58 93 60 94 66 95 59 96 61 97 62 98 63 99
REMARK SMILES IDX 64 100
REMARK H PARENT 23 5 15 15 3 19 12 29 27 34 86 53 54 64
REMARK Flexibility Score: inf
ROOT
ATOM      1  C   UNL     1       3.126  -0.461  -3.515  1.00  0.00     0.118 C 
ENDROOT
BRANCH   1   2
ATOM      2  N   UNL     1       4.319  -1.196  -3.895  1.00  0.00    -0.352 N 
ATOM      3  C   UNL     1       5.389  -1.614  -3.148  1.00  0.00     0.251 C 
ATOM      4  O   UNL     1       6.203  -2.398  -3.642  1.00  0.00    -0.269 OA
ATOM      5  H   UNL     1       4.368  -1.433  -4.849  1.00  0.00     0.163 HD
BRANCH   3   6
ATOM      6  C   UNL     1       5.643  -1.170  -1.754  1.00  0.00     0.041 A 
ATOM      7  C   UNL     1       5.147   0.704   0.736  1.00  0.00     0.042 A 
ATOM      8  C   UNL     1       5.901  -0.541   1.850  1.00  0.00     0.026 A 
ATOM      9  C   UNL     1       5.094   0.438  -1.061  1.00  0.00     0.040 A 
ATOM     10  C   UNL     1       6.622  -2.059   1.123  1.00  0.00     0.003 A 
ATOM     11  C   UNL     1       6.446  -2.385  -0.653  1.00  0.00     0.014 A 
BRANCH   7  12
ATOM     12  N   UNL     1       4.118   1.444   1.317  1.00  0.00    -0.318 N 
ATOM     13  C   UNL     1       2.768   1.116   1.318  1.00  0.00     0.315 C 
ATOM     14  O   UNL     1       2.039   1.744   2.092  1.00  0.00    -0.263 OA
ATOM     15  H   UNL     1       4.373   2.280   1.770  1.00  0.00     0.170 HD
BRANCH  13  16
ATOM     16  C   UNL     1       2.096  -0.014   0.493  1.00  0.00     0.329 C 
ATOM     17  O   UNL     1       0.934   0.143   0.115  1.00  0.00    -0.262 OA
ATOM     18  N   UNL     1       2.698  -1.268   0.320  1.00  0.00    -0.239 N 
ATOM     19  H   UNL     1       2.340  -2.077   0.751  1.00  0.00     0.194 HD
BRANCH  18  20
ATOM     20  N   UNL     1       3.809  -1.310  -0.481  1.00  0.00    -0.180 NA
ATOM     21  C   UNL     1       5.014  -1.207   0.175  1.00  0.00     0.145 C 
BRANCH  21  22
ATOM     22  C   UNL     1       6.911  -0.305  -0.148  1.00  0.00     0.036 A 
ATOM     23  C   UNL     1       7.801   0.408   0.874  1.00  0.00     0.013 A 
ATOM     24  C   UNL     1       7.860  -0.195  -1.345  1.00  0.00     0.124 A 
ATOM     25  C   UNL     1       9.191   0.720   0.864  1.00  0.00     0.001 A 
ATOM     26  C   UNL     1       9.274   0.064  -1.360  1.00  0.00     0.047 A 
ATOM     27  C   UNL     1       9.953   0.457  -0.236  1.00  0.00     0.004 A 
BRANCH  24  28
ATOM     28  O   UNL     1       7.466  -0.087  -2.681  1.00  0.00    -0.507 OA
ATOM     29  H   UNL     1       6.568  -0.218  -2.917  1.00  0.00     0.293 HD
ENDBRANCH  24  28
ENDBRANCH  21  22
ENDBRANCH  18  20
ENDBRANCH  13  16
ENDBRANCH   7  12
ENDBRANCH   3   6
ENDBRANCH   1   2
BRANCH   1  30
ATOM     30  C   UNL     1       3.124   0.966  -4.040  1.00  0.00     0.042 C 
BRANCH  30  31
ATOM     31  C   UNL     1       2.734   1.052  -5.505  1.00  0.00     0.118 C 
BRANCH  31  32
ATOM     32  N   UNL     1       1.324   0.740  -5.721  1.00  0.00    -0.352 N 
ATOM     33  C   UNL     1       0.345   1.504  -6.309  1.00  0.00     0.251 C 
ATOM     34  H   UNL     1       1.033  -0.144  -5.399  1.00  0.00     0.163 HD
ATOM     35  O   UNL     1      -0.831   1.158  -6.247  1.00  0.00    -0.269 OA
BRANCH  33  36
ATOM     36  C   UNL     1       0.719   2.750  -7.007  1.00  0.00     0.039 A 
ATOM     37  C   UNL     1      -0.022   3.914  -6.785  1.00  0.00     0.014 A 
ATOM     38  C   UNL     1       1.815   2.764  -7.873  1.00  0.00     0.014 A 
ATOM     39  C   UNL     1       0.373   5.111  -7.389  1.00  0.00     0.010 A 
ATOM     40  C   UNL     1       2.256   3.968  -8.401  1.00  0.00     0.010 A 
ATOM     41  C   UNL     1       1.531   5.150  -8.179  1.00  0.00    -0.014 A 
BRANCH  41  42
ATOM     42  C   UNL     1       2.009   6.392  -8.835  1.00  0.00     0.031 A 
ATOM     43  C   UNL     1       2.103   6.429 -10.338  1.00  0.00     0.074 A 
ATOM     44  C   UNL     1       2.489   7.409  -8.093  1.00  0.00     0.049 A 
ATOM     45  N   UNL     1       2.687   7.307 -11.108  1.00  0.00    -0.248 NA
ATOM     46  C   UNL     1       1.501   5.298 -11.069  1.00  0.00     0.031 C 
ATOM     47  C   UNL     1       2.510   7.458  -6.629  1.00  0.00     0.029 A 
ATOM     48  N   UNL     1       3.096   8.581  -8.472  1.00  0.00    -0.354 N 
ATOM     49  C   UNL     1       2.587   6.802 -12.399  1.00  0.00     0.074 A 
ATOM     50  C   UNL     1       1.899   5.534 -12.310  1.00  0.00     0.031 C 
ATOM     51  C   UNL     1       3.112   8.593  -6.235  1.00  0.00     0.029 A 
ATOM     52  C   UNL     1       3.550   9.335  -7.413  1.00  0.00     0.049 A 
ATOM     53  H   UNL     1       3.197   8.857  -9.411  1.00  0.00     0.167 HD
ATOM     54  C   UNL     1       3.010   7.357 -13.558  1.00  0.00     0.034 A 
ATOM     55  C   UNL     1       4.254  10.484  -7.398  1.00  0.00     0.034 A 
ATOM     56  C   UNL     1       3.606   8.661 -13.644  1.00  0.00     0.049 A 
ATOM     57  C   UNL     1       4.628  11.123  -8.711  1.00  0.00     0.074 A 
ATOM     58  C   UNL     1       3.968   9.366 -14.777  1.00  0.00     0.029 A 
ATOM     59  N   UNL     1       3.912   9.460 -12.555  1.00  0.00    -0.354 N 
ATOM     60  N   UNL     1       4.396  10.699  -9.930  1.00  0.00    -0.248 NA
ATOM     61  C   UNL     1       5.330  12.414  -8.650  1.00  0.00     0.031 C 
ATOM     62  C   UNL     1       4.499  10.593 -14.373  1.00  0.00     0.029 A 
ATOM     63  C   UNL     1       4.452  10.656 -12.989  1.00  0.00     0.049 A 
ATOM     64  H   UNL     1       3.767   9.213 -11.613  1.00  0.00     0.167 HD
ATOM     65  C   UNL     1       4.872  11.693 -10.777  1.00  0.00     0.074 A 
ATOM     66  C   UNL     1       5.403  12.743  -9.933  1.00  0.00     0.031 C 
ATOM     67  C   UNL     1       4.884  11.727 -12.131  1.00  0.00     0.034 A 
BRANCH  54  68
ATOM     68  C   UNL     1       2.788   6.595 -14.836  1.00  0.00     0.023 A 
ATOM     69  C   UNL     1       1.487   6.494 -15.368  1.00  0.00     0.012 A 
ATOM     70  C   UNL     1       3.873   6.054 -15.553  1.00  0.00     0.148 A 
ATOM     71  C   UNL     1       1.265   5.845 -16.582  1.00  0.00     0.002 A 
ATOM     72  C   UNL     1       3.650   5.447 -16.783  1.00  0.00     0.091 A 
ATOM     73  F   UNL     1       5.100   6.143 -15.019  1.00  0.00    -0.205 F 
ATOM     74  C   UNL     1       2.347   5.333 -17.294  1.00  0.00     0.022 A 
BRANCH  72  75
ATOM     75  S   UNL     1       4.983   4.829 -17.817  1.00  0.00     0.127 S 
ATOM     76  O   UNL     1       4.761   3.385 -17.753  1.00  0.00    -0.237 OA
ATOM     77  O   UNL     1       4.674   5.436 -19.112  1.00  0.00    -0.237 OA
ATOM     78  O   UNL     1       6.219   5.296 -17.205  1.00  0.00    -0.744 OA
ENDBRANCH  72  75
ENDBRANCH  54  68
BRANCH  55  79
ATOM     79  C   UNL     1       4.587  11.148  -6.105  1.00  0.00     0.023 A 
ATOM     80  C   UNL     1       3.937  12.351  -5.768  1.00  0.00     0.012 A 
ATOM     81  C   UNL     1       5.525  10.603  -5.208  1.00  0.00     0.148 A 
ATOM     82  C   UNL     1       4.243  13.021  -4.582  1.00  0.00     0.002 A 
ATOM     83  C   UNL     1       5.789  11.248  -4.004  1.00  0.00     0.091 A 
ATOM     84  F   UNL     1       6.148   9.466  -5.549  1.00  0.00    -0.205 F 
ATOM     85  C   UNL     1       5.162  12.465  -3.696  1.00  0.00     0.022 A 
BRANCH  83  86
ATOM     86  S   UNL     1       6.866  10.533  -2.756  1.00  0.00     0.127 S 
ATOM     87  O   UNL     1       8.104  11.279  -2.964  1.00  0.00    -0.237 OA
ATOM     88  O   UNL     1       6.159  10.851  -1.514  1.00  0.00    -0.237 OA
ATOM     89  O   UNL     1       6.916   9.110  -3.063  1.00  0.00    -0.744 OA
ENDBRANCH  83  86
ENDBRANCH  55  79
BRANCH  67  90
ATOM     90  C   UNL     1       5.415  12.963 -12.804  1.00  0.00     0.023 A 
ATOM     91  C   UNL     1       6.803  13.183 -12.871  1.00  0.00     0.012 A 
ATOM     92  C   UNL     1       4.537  13.832 -13.482  1.00  0.00     0.148 A 
ATOM     93  C   UNL     1       7.311  14.263 -13.591  1.00  0.00     0.002 A 
ATOM     94  C   UNL     1       5.053  14.878 -14.236  1.00  0.00     0.091 A 
ATOM     95  F   UNL     1       3.218  13.609 -13.389  1.00  0.00    -0.205 F 
ATOM     96  C   UNL     1       6.439  15.100 -14.285  1.00  0.00     0.022 A 
BRANCH  94  97
ATOM     97  S   UNL     1       4.013  15.942 -15.242  1.00  0.00     0.127 S 
ATOM     98  O   UNL     1       4.056  17.197 -14.493  1.00  0.00    -0.237 OA
ATOM     99  O   UNL     1       4.734  15.967 -16.515  1.00  0.00    -0.237 OA
ATOM    100  O   UNL     1       2.710  15.294 -15.300  1.00  0.00    -0.744 OA
ENDBRANCH  94  97
ENDBRANCH  67  90
ENDBRANCH  41  42
ENDBRANCH  33  36
ENDBRANCH  31  32
ENDBRANCH  30  31
ENDBRANCH   1  30
TORSDOF 18
