REMARK SMILES C[C@@H](CCC(=O)NCCCNC(=O)c1ccc(-c2c3nc(c(-c4cccc(S(=O)(=O)[O-])c4F)c4ccc([nH]4)c(-c4cccc(S(=O)(=O)[O-])c4F)c4nc(c(-c5cccc(S(=O)(=O)[O-])c5F)c5ccc2[nH]5)C=C4)C=C3)cc1)NC(=O)Nc1ccc(Cl)c(Br)c1
REMARK SMILES IDX 8 1 7 2 5 3 6 4 4 6 3 7 2 8 1 9 77 10 78 11 79 13 80 14
REMARK SMILES IDX 81 16 82 17 88 18 83 19 86 20 84 21 87 22 85 23 9 24 10 25
REMARK SMILES IDX 11 26 12 27 13 29 14 30 15 31 76 32 16 33 75 34 17 35 18 36
REMARK SMILES IDX 19 37 69 38 20 39 74 40 68 41 70 42 21 43 73 44 67 45 66 46
REMARK SMILES IDX 22 48 54 49 34 50 53 51 35 52 38 53 52 54 71 55 36 56 37 57
REMARK SMILES IDX 51 59 72 60 39 61 23 62 24 63 32 64 25 65 27 66 33 67 26 68
REMARK SMILES IDX 28 69 29 70 30 71 31 72 55 73 56 74 64 75 57 76 59 77 65 78
REMARK SMILES IDX 58 79 60 80 61 81 62 82 63 83 40 84 41 85 49 86 42 87 44 88
REMARK SMILES IDX 50 89 43 90 45 91 46 92 47 93 48 94
REMARK H PARENT 7 5 77 12 80 15 11 28 70 47 38 58
REMARK Flexibility Score: inf
ROOT
ATOM      1  C   UNL     1      -1.804  -0.312  -1.383  1.00  0.00     0.117 C 
ENDROOT
BRANCH   1   2
ATOM      2  N   UNL     1      -2.061   1.108  -1.571  1.00  0.00    -0.356 N 
ATOM      3  C   UNL     1      -1.245   2.125  -1.953  1.00  0.00     0.220 C 
ATOM      4  O   UNL     1      -1.744   3.240  -2.119  1.00  0.00    -0.275 OA
ATOM      5  H   UNL     1      -2.990   1.379  -1.389  1.00  0.00     0.163 HD
BRANCH   3   6
ATOM      6  C   UNL     1       0.245   1.926  -2.097  1.00  0.00     0.102 C 
BRANCH   6   7
ATOM      7  C   UNL     1       1.030   2.656  -1.001  1.00  0.00     0.034 C 
BRANCH   7   8
ATOM      8  C   UNL     1       0.934   2.086   0.431  1.00  0.00     0.081 C 
ATOM      9  C   UNL     1       1.417   0.635   0.505  1.00  0.00     0.031 C 
BRANCH   8  10
ATOM     10  N   UNL     1      -0.392   2.327   1.016  1.00  0.00    -0.335 N 
ATOM     11  C   UNL     1      -0.959   2.154   2.227  1.00  0.00     0.319 C 
ATOM     12  H   UNL     1      -1.021   2.710   0.363  1.00  0.00     0.165 HD
ATOM     13  O   UNL     1      -2.192   2.203   2.272  1.00  0.00    -0.248 OA
ATOM     14  N   UNL     1      -0.280   1.795   3.333  1.00  0.00    -0.308 N 
ATOM     15  H   UNL     1      -0.832   1.347   4.014  1.00  0.00     0.171 HD
BRANCH  14  16
ATOM     16  C   UNL     1       1.062   1.939   3.695  1.00  0.00     0.044 A 
ATOM     17  C   UNL     1       1.634   0.943   4.486  1.00  0.00     0.028 A 
ATOM     18  C   UNL     1       1.834   3.025   3.290  1.00  0.00     0.043 A 
ATOM     19  C   UNL     1       3.014   0.935   4.701  1.00  0.00     0.024 A 
ATOM     20  C   UNL     1       3.218   3.013   3.487  1.00  0.00     0.038 A 
ATOM     21  C   UNL     1       3.815   1.946   4.164  1.00  0.00     0.055 A 
ATOM     22  Br  UNL     1       4.214   4.442   2.727  1.00  0.00    -0.049 Br
ATOM     23  Cl  UNL     1       5.527   1.791   4.328  1.00  0.00    -0.083 Cl
ENDBRANCH  14  16
ENDBRANCH   8  10
ENDBRANCH   7   8
ENDBRANCH   6   7
ENDBRANCH   3   6
ENDBRANCH   1   2
BRANCH   1  24
ATOM     24  C   UNL     1      -1.790  -0.749   0.081  1.00  0.00     0.042 C 
BRANCH  24  25
ATOM     25  C   UNL     1      -3.112  -0.583   0.822  1.00  0.00     0.118 C 
BRANCH  25  26
ATOM     26  N   UNL     1      -3.981  -1.724   0.598  1.00  0.00    -0.352 N 
ATOM     27  C   UNL     1      -4.533  -2.584   1.515  1.00  0.00     0.251 C 
ATOM     28  H   UNL     1      -4.205  -1.907  -0.343  1.00  0.00     0.163 HD
ATOM     29  O   UNL     1      -4.981  -3.658   1.118  1.00  0.00    -0.269 OA
BRANCH  27  30
ATOM     30  C   UNL     1      -4.609  -2.244   2.961  1.00  0.00     0.039 A 
ATOM     31  C   UNL     1      -4.498  -3.284   3.892  1.00  0.00     0.014 A 
ATOM     32  C   UNL     1      -4.901  -0.951   3.410  1.00  0.00     0.014 A 
ATOM     33  C   UNL     1      -4.689  -3.034   5.255  1.00  0.00     0.010 A 
ATOM     34  C   UNL     1      -5.041  -0.693   4.778  1.00  0.00     0.010 A 
ATOM     35  C   UNL     1      -4.972  -1.738   5.712  1.00  0.00    -0.014 A 
BRANCH  35  36
ATOM     36  C   UNL     1      -5.241  -1.486   7.154  1.00  0.00     0.031 A 
ATOM     37  C   UNL     1      -6.621  -1.095   7.619  1.00  0.00     0.074 A 
ATOM     38  C   UNL     1      -4.242  -1.586   8.052  1.00  0.00     0.049 A 
ATOM     39  N   UNL     1      -7.051  -0.880   8.837  1.00  0.00    -0.248 NA
ATOM     40  C   UNL     1      -7.649  -0.908   6.582  1.00  0.00     0.031 C 
ATOM     41  C   UNL     1      -2.848  -1.893   7.731  1.00  0.00     0.029 A 
ATOM     42  N   UNL     1      -4.242  -1.424   9.416  1.00  0.00    -0.354 N 
ATOM     43  C   UNL     1      -8.385  -0.509   8.713  1.00  0.00     0.074 A 
ATOM     44  C   UNL     1      -8.687  -0.499   7.298  1.00  0.00     0.031 C 
ATOM     45  C   UNL     1      -2.128  -1.897   8.865  1.00  0.00     0.029 A 
ATOM     46  C   UNL     1      -3.004  -1.583   9.992  1.00  0.00     0.049 A 
ATOM     47  H   UNL     1      -5.053  -1.214   9.933  1.00  0.00     0.167 HD
ATOM     48  C   UNL     1      -9.289  -0.234   9.685  1.00  0.00     0.034 A 
ATOM     49  C   UNL     1      -2.616  -1.492  11.280  1.00  0.00     0.034 A 
ATOM     50  C   UNL     1      -9.004  -0.285  11.094  1.00  0.00     0.049 A 
ATOM     51  C   UNL     1      -3.646  -1.227  12.345  1.00  0.00     0.074 A 
ATOM     52  C   UNL     1      -9.875  -0.107  12.155  1.00  0.00     0.029 A 
ATOM     53  N   UNL     1      -7.754  -0.526  11.642  1.00  0.00    -0.354 N 
ATOM     54  N   UNL     1      -4.939  -1.053  12.217  1.00  0.00    -0.248 NA
ATOM     55  C   UNL     1      -3.172  -1.189  13.737  1.00  0.00     0.031 C 
ATOM     56  C   UNL     1      -9.148  -0.226  13.345  1.00  0.00     0.029 A 
ATOM     57  C   UNL     1      -7.827  -0.494  13.024  1.00  0.00     0.049 A 
ATOM     58  H   UNL     1      -6.934  -0.696  11.124  1.00  0.00     0.167 HD
ATOM     59  C   UNL     1      -5.437  -0.920  13.508  1.00  0.00     0.074 A 
ATOM     60  C   UNL     1      -4.309  -1.057  14.407  1.00  0.00     0.031 C 
ATOM     61  C   UNL     1      -6.710  -0.688  13.913  1.00  0.00     0.034 A 
BRANCH  48  62
ATOM     62  C   UNL     1     -10.699   0.088   9.261  1.00  0.00     0.023 A 
ATOM     63  C   UNL     1     -11.527  -0.947   8.778  1.00  0.00     0.012 A 
ATOM     64  C   UNL     1     -11.228   1.386   9.402  1.00  0.00     0.148 A 
ATOM     65  C   UNL     1     -12.848  -0.690   8.414  1.00  0.00     0.002 A 
ATOM     66  C   UNL     1     -12.559   1.626   9.075  1.00  0.00     0.091 A 
ATOM     67  F   UNL     1     -10.421   2.361   9.844  1.00  0.00    -0.205 F 
ATOM     68  C   UNL     1     -13.366   0.593   8.572  1.00  0.00     0.022 A 
BRANCH  66  69
ATOM     69  S   UNL     1     -13.339   3.227   9.317  1.00  0.00     0.127 S 
ATOM     70  O   UNL     1     -13.451   3.710   7.939  1.00  0.00    -0.237 OA
ATOM     71  O   UNL     1     -14.615   2.858   9.936  1.00  0.00    -0.237 OA
ATOM     72  O   UNL     1     -12.445   3.982  10.177  1.00  0.00    -0.744 OA
ENDBRANCH  66  69
ENDBRANCH  48  62
BRANCH  49  73
ATOM     73  C   UNL     1      -1.190  -1.736  11.640  1.00  0.00     0.023 A 
ATOM     74  C   UNL     1      -0.843  -2.909  12.338  1.00  0.00     0.012 A 
ATOM     75  C   UNL     1      -0.175  -0.837  11.261  1.00  0.00     0.148 A 
ATOM     76  C   UNL     1       0.486  -3.168  12.676  1.00  0.00     0.002 A 
ATOM     77  C   UNL     1       1.153  -1.131  11.548  1.00  0.00     0.091 A 
ATOM     78  F   UNL     1      -0.526   0.284  10.613  1.00  0.00    -0.205 F 
ATOM     79  C   UNL     1       1.484  -2.286  12.271  1.00  0.00     0.022 A 
BRANCH  77  80
ATOM     80  S   UNL     1       2.506  -0.126  10.926  1.00  0.00     0.127 S 
ATOM     81  O   UNL     1       2.912   0.606  12.121  1.00  0.00    -0.237 OA
ATOM     82  O   UNL     1       3.456  -1.142  10.470  1.00  0.00    -0.237 OA
ATOM     83  O   UNL     1       1.933   0.671   9.849  1.00  0.00    -0.744 OA
ENDBRANCH  77  80
ENDBRANCH  49  73
BRANCH  61  84
ATOM     84  C   UNL     1      -6.969  -0.591  15.394  1.00  0.00     0.023 A 
ATOM     85  C   UNL     1      -6.550   0.554  16.101  1.00  0.00     0.012 A 
ATOM     86  C   UNL     1      -7.688  -1.595  16.071  1.00  0.00     0.148 A 
ATOM     87  C   UNL     1      -6.814   0.683  17.464  1.00  0.00     0.002 A 
ATOM     88  C   UNL     1      -7.987  -1.440  17.420  1.00  0.00     0.091 A 
ATOM     89  F   UNL     1      -8.060  -2.688  15.388  1.00  0.00    -0.205 F 
ATOM     90  C   UNL     1      -7.542  -0.306  18.120  1.00  0.00     0.022 A 
BRANCH  88  91
ATOM     91  S   UNL     1      -8.996  -2.622  18.321  1.00  0.00     0.127 S 
ATOM     92  O   UNL     1      -7.989  -3.345  19.097  1.00  0.00    -0.237 OA
ATOM     93  O   UNL     1      -9.867  -1.753  19.113  1.00  0.00    -0.237 OA
ATOM     94  O   UNL     1      -9.691  -3.405  17.308  1.00  0.00    -0.744 OA
ENDBRANCH  88  91
ENDBRANCH  61  84
ENDBRANCH  35  36
ENDBRANCH  27  30
ENDBRANCH  25  26
ENDBRANCH  24  25
ENDBRANCH   1  24
TORSDOF 17
