REMARK SMILES O=C(COc1ccc(-c2cc3cc(Br)ccc3oc2=O)cc1)NCCCNC(=O)c1ccc(-c2c3nc(c(-c4cccc(S(=O)(=O)[O-])c4F)c4ccc([nH]4)c(-c4cccc(S(=O)(=O)[O-])c4F)c4nc(c(-c5cccc(S(=O)(=O)[O-])c5F)c5ccc2[nH]5)C=C4)C=C3)cc1
REMARK SMILES IDX 25 1 24 2 23 3 1 4 2 5 3 7 4 8 5 9 6 10 22 11 7 12 21 13
REMARK SMILES IDX 8 14 9 15 10 16 19 17 11 18 18 19 20 20 12 21 17 22 13 23
REMARK SMILES IDX 16 24 14 25 15 26 26 27 27 28 28 29 29 31 30 32 31 33 92 34
REMARK SMILES IDX 32 35 91 36 33 37 34 38 35 39 85 40 36 41 90 42 84 43 86 44
REMARK SMILES IDX 37 45 89 46 83 47 82 48 38 50 70 51 50 52 69 53 51 54 54 55
REMARK SMILES IDX 68 56 87 57 52 58 53 59 67 61 88 62 55 63 39 64 40 65 48 66
REMARK SMILES IDX 41 67 43 68 49 69 42 70 44 71 45 72 46 73 47 74 71 75 72 76
REMARK SMILES IDX 80 77 73 78 75 79 81 80 74 81 76 82 77 83 78 84 79 85 56 86
REMARK SMILES IDX 57 87 65 88 58 89 60 90 66 91 59 92 61 93 62 94 63 95 64 96
REMARK H PARENT 23 6 27 30 86 49 54 60
REMARK Flexibility Score: inf
ROOT
ATOM      1  C   UNL     1       2.370   0.198   3.346  1.00  0.00     0.042 C 
ENDROOT
BRANCH   1   2
ATOM      2  C   UNL     1       2.129   0.986   2.064  1.00  0.00     0.117 C 
BRANCH   2   3
ATOM      3  N   UNL     1       2.799   0.447   0.898  1.00  0.00    -0.353 N 
ATOM      4  O   UNL     1       1.174  -1.097   0.409  1.00  0.00    -0.271 OA
ATOM      5  C   UNL     1       2.208  -0.510   0.101  1.00  0.00     0.257 C 
ATOM      6  H   UNL     1       3.700   0.772   0.669  1.00  0.00     0.163 HD
BRANCH   5   7
ATOM      7  C   UNL     1       2.915  -0.771  -1.237  1.00  0.00     0.329 C 
BRANCH   7   8
ATOM      8  O   UNL     1       3.639   0.294  -1.836  1.00  0.00    -0.484 OA
BRANCH   8   9
ATOM      9  C   UNL     1       2.938   1.343  -2.363  1.00  0.00     0.120 A 
ATOM     10  C   UNL     1       3.665   2.163  -3.227  1.00  0.00     0.047 A 
ATOM     11  C   UNL     1       1.629   1.694  -2.049  1.00  0.00     0.047 A 
ATOM     12  C   UNL     1       3.126   3.368  -3.691  1.00  0.00     0.013 A 
ATOM     13  C   UNL     1       1.090   2.901  -2.510  1.00  0.00     0.013 A 
ATOM     14  C   UNL     1       1.854   3.788  -3.281  1.00  0.00    -0.011 A 
BRANCH  14  15
ATOM     15  C   UNL     1       1.448   5.200  -3.562  1.00  0.00     0.068 A 
ATOM     16  C   UNL     1       0.198   5.690  -3.387  1.00  0.00     0.028 A 
ATOM     17  C   UNL     1       2.405   6.215  -2.984  1.00  0.00     0.344 A 
ATOM     18  C   UNL     1      -0.136   5.812  -1.949  1.00  0.00     0.019 A 
ATOM     19  O   UNL     1       2.185   6.454  -1.617  1.00  0.00    -0.422 OA
ATOM     20  O   UNL     1       3.321   6.709  -3.622  1.00  0.00    -0.246 OA
ATOM     21  C   UNL     1      -1.404   5.548  -1.441  1.00  0.00     0.027 A 
ATOM     22  C   UNL     1       0.923   6.112  -1.079  1.00  0.00     0.138 A 
ATOM     23  C   UNL     1      -1.576   5.521  -0.056  1.00  0.00     0.018 A 
ATOM     24  C   UNL     1       0.759   6.075   0.299  1.00  0.00     0.049 A 
ATOM     25  Br  UNL     1      -3.281   5.119   0.657  1.00  0.00    -0.051 Br
ATOM     26  C   UNL     1      -0.502   5.760   0.812  1.00  0.00     0.019 A 
ENDBRANCH  14  15
ENDBRANCH   8   9
ENDBRANCH   7   8
ENDBRANCH   5   7
ENDBRANCH   2   3
ENDBRANCH   1   2
BRANCH   1  27
ATOM     27  C   UNL     1       3.820   0.167   3.818  1.00  0.00     0.118 C 
BRANCH  27  28
ATOM     28  N   UNL     1       4.367   1.487   4.101  1.00  0.00    -0.352 N 
ATOM     29  C   UNL     1       5.119   1.936   5.159  1.00  0.00     0.251 C 
ATOM     30  H   UNL     1       4.165   2.170   3.421  1.00  0.00     0.163 HD
ATOM     31  O   UNL     1       5.382   3.135   5.228  1.00  0.00    -0.269 OA
BRANCH  29  32
ATOM     32  C   UNL     1       5.591   1.016   6.223  1.00  0.00     0.039 A 
ATOM     33  C   UNL     1       5.603   1.480   7.543  1.00  0.00     0.014 A 
ATOM     34  C   UNL     1       6.053  -0.273   5.944  1.00  0.00     0.014 A 
ATOM     35  C   UNL     1       6.017   0.638   8.579  1.00  0.00     0.010 A 
ATOM     36  C   UNL     1       6.396  -1.137   6.986  1.00  0.00     0.010 A 
ATOM     37  C   UNL     1       6.387  -0.691   8.315  1.00  0.00    -0.014 A 
BRANCH  37  38
ATOM     38  C   UNL     1       6.733  -1.618   9.425  1.00  0.00     0.031 A 
ATOM     39  C   UNL     1       8.113  -2.208   9.545  1.00  0.00     0.074 A 
ATOM     40  C   UNL     1       5.775  -1.984  10.301  1.00  0.00     0.049 A 
ATOM     41  N   UNL     1       8.590  -3.006  10.466  1.00  0.00    -0.248 NA
ATOM     42  C   UNL     1       9.077  -1.883   8.481  1.00  0.00     0.031 C 
ATOM     43  C   UNL     1       4.370  -1.571  10.237  1.00  0.00     0.029 A 
ATOM     44  N   UNL     1       5.831  -2.797  11.405  1.00  0.00    -0.354 N 
ATOM     45  C   UNL     1       9.892  -3.302  10.081  1.00  0.00     0.074 A 
ATOM     46  C   UNL     1      10.120  -2.626   8.822  1.00  0.00     0.031 C 
ATOM     47  C   UNL     1       3.704  -2.119  11.265  1.00  0.00     0.029 A 
ATOM     48  C   UNL     1       4.625  -2.930  12.055  1.00  0.00     0.049 A 
ATOM     49  H   UNL     1       6.656  -3.242  11.705  1.00  0.00     0.167 HD
ATOM     50  C   UNL     1      10.826  -4.038  10.731  1.00  0.00     0.034 A 
ATOM     51  C   UNL     1       4.300  -3.614  13.169  1.00  0.00     0.034 A 
ATOM     52  C   UNL     1      10.616  -4.668  12.008  1.00  0.00     0.049 A 
ATOM     53  C   UNL     1       5.379  -4.347  13.920  1.00  0.00     0.074 A 
ATOM     54  C   UNL     1      11.528  -5.357  12.789  1.00  0.00     0.029 A 
ATOM     55  N   UNL     1       9.411  -4.686  12.693  1.00  0.00    -0.354 N 
ATOM     56  N   UNL     1       6.653  -4.459  13.633  1.00  0.00    -0.248 NA
ATOM     57  C   UNL     1       4.984  -5.005  15.174  1.00  0.00     0.031 C 
ATOM     58  C   UNL     1      10.871  -5.797  13.945  1.00  0.00     0.029 A 
ATOM     59  C   UNL     1       9.554  -5.372  13.888  1.00  0.00     0.049 A 
ATOM     60  H   UNL     1       8.576  -4.272  12.376  1.00  0.00     0.167 HD
ATOM     61  C   UNL     1       7.218  -5.170  14.686  1.00  0.00     0.074 A 
ATOM     62  C   UNL     1       6.152  -5.437  15.630  1.00  0.00     0.031 C 
ATOM     63  C   UNL     1       8.500  -5.583  14.846  1.00  0.00     0.034 A 
BRANCH  50  64
ATOM     64  C   UNL     1      12.193  -4.141  10.104  1.00  0.00     0.023 A 
ATOM     65  C   UNL     1      13.042  -3.015  10.117  1.00  0.00     0.012 A 
ATOM     66  C   UNL     1      12.663  -5.353   9.562  1.00  0.00     0.148 A 
ATOM     67  C   UNL     1      14.323  -3.083   9.571  1.00  0.00     0.002 A 
ATOM     68  C   UNL     1      13.957  -5.424   9.056  1.00  0.00     0.091 A 
ATOM     69  F   UNL     1      11.836  -6.408   9.538  1.00  0.00    -0.205 F 
ATOM     70  C   UNL     1      14.784  -4.289   9.051  1.00  0.00     0.022 A 
BRANCH  68  71
ATOM     71  S   UNL     1      14.669  -6.952   8.433  1.00  0.00     0.127 S 
ATOM     72  O   UNL     1      14.655  -6.717   6.990  1.00  0.00    -0.237 OA
ATOM     73  O   UNL     1      16.002  -6.943   9.038  1.00  0.00    -0.237 OA
ATOM     74  O   UNL     1      13.799  -8.020   8.906  1.00  0.00    -0.744 OA
ENDBRANCH  68  71
ENDBRANCH  50  64
BRANCH  51  75
ATOM     75  C   UNL     1       2.910  -3.545  13.701  1.00  0.00     0.023 A 
ATOM     76  C   UNL     1       2.659  -2.808  14.874  1.00  0.00     0.012 A 
ATOM     77  C   UNL     1       1.835  -4.168  13.038  1.00  0.00     0.148 A 
ATOM     78  C   UNL     1       1.368  -2.717  15.396  1.00  0.00     0.002 A 
ATOM     79  C   UNL     1       0.544  -4.029  13.533  1.00  0.00     0.091 A 
ATOM     80  F   UNL     1       2.096  -4.877  11.930  1.00  0.00    -0.205 F 
ATOM     81  C   UNL     1       0.310  -3.318  14.720  1.00  0.00     0.022 A 
BRANCH  79  82
ATOM     82  S   UNL     1      -0.891  -4.654  12.652  1.00  0.00     0.127 S 
ATOM     83  O   UNL     1      -1.237  -5.834  13.440  1.00  0.00    -0.237 OA
ATOM     84  O   UNL     1      -1.832  -3.539  12.767  1.00  0.00    -0.237 OA
ATOM     85  O   UNL     1      -0.431  -4.908  11.293  1.00  0.00    -0.744 OA
ENDBRANCH  79  82
ENDBRANCH  51  75
BRANCH  63  86
ATOM     86  C   UNL     1       8.830  -6.349  16.101  1.00  0.00     0.023 A 
ATOM     87  C   UNL     1       8.375  -7.674  16.248  1.00  0.00     0.012 A 
ATOM     88  C   UNL     1       9.627  -5.777  17.111  1.00  0.00     0.148 A 
ATOM     89  C   UNL     1       8.674  -8.404  17.399  1.00  0.00     0.002 A 
ATOM     90  C   UNL     1       9.959  -6.526  18.235  1.00  0.00     0.091 A 
ATOM     91  F   UNL     1      10.034  -4.506  16.968  1.00  0.00    -0.205 F 
ATOM     92  C   UNL     1       9.474  -7.834  18.386  1.00  0.00     0.022 A 
BRANCH  90  93
ATOM     93  S   UNL     1      11.060  -5.889  19.505  1.00  0.00     0.127 S 
ATOM     94  O   UNL     1      10.113  -5.407  20.508  1.00  0.00    -0.237 OA
ATOM     95  O   UNL     1      11.812  -7.081  19.901  1.00  0.00    -0.237 OA
ATOM     96  O   UNL     1      11.864  -4.868  18.847  1.00  0.00    -0.744 OA
ENDBRANCH  90  93
ENDBRANCH  63  86
ENDBRANCH  37  38
ENDBRANCH  29  32
ENDBRANCH  27  28
ENDBRANCH   1  27
TORSDOF 16
