REMARK SMILES C[C@@]1(C(=O)NCCCNC(=O)c2ccc(-c3c4nc(c(-c5cccc(S(=O)(=O)[O-])c5F)c5ccc([nH]5)c(-c5cccc(S(=O)(=O)[O-])c5F)c5nc(c(-c6cccc(S(=O)(=O)[O-])c6F)c6ccc3[nH]6)C=C5)C=C4)cc2)CCCN1c1ncnc2c1CCCCC2
REMARK SMILES IDX 6 1 5 2 3 3 4 4 2 6 1 7 75 8 78 9 76 10 77 11 79 12 80 13
REMARK SMILES IDX 84 14 81 15 83 16 82 17 85 18 86 19 87 20 88 21 89 23 7 25
REMARK SMILES IDX 8 26 9 27 10 28 11 30 12 31 13 32 74 33 14 34 73 35 15 36
REMARK SMILES IDX 16 37 17 38 67 39 18 40 72 41 66 42 68 43 19 44 71 45 65 46
REMARK SMILES IDX 64 47 20 49 52 50 32 51 51 52 33 53 36 54 50 55 69 56 34 57
REMARK SMILES IDX 35 58 49 60 70 61 37 62 21 63 22 64 30 65 23 66 25 67 31 68
REMARK SMILES IDX 24 69 26 70 27 71 28 72 29 73 53 74 54 75 62 76 55 77 57 78
REMARK SMILES IDX 63 79 56 80 58 81 59 82 60 83 61 84 38 85 39 86 47 87 40 88
REMARK SMILES IDX 42 89 48 90 41 91 43 92 44 93 45 94 46 95
REMARK H PARENT 5 5 9 29 68 48 36 59
REMARK Flexibility Score: 80.00
ROOT
ATOM      1  C   UNL     1      -0.376  -3.727  -2.245  1.00  0.00     0.117 C 
ENDROOT
BRANCH   1   2
ATOM      2  N   UNL     1       0.181  -2.459  -2.661  1.00  0.00    -0.354 N 
ATOM      3  C   UNL     1       0.601  -1.384  -1.926  1.00  0.00     0.245 C 
ATOM      4  O   UNL     1       1.088  -0.454  -2.584  1.00  0.00    -0.272 OA
ATOM      5  H   UNL     1       0.273  -2.351  -3.635  1.00  0.00     0.163 HD
BRANCH   3   6
ATOM      6  C   UNL     1       0.519  -1.321  -0.362  1.00  0.00     0.117 C 
ATOM      7  C   UNL     1       1.019   0.068   0.098  1.00  0.00     0.045 C 
ATOM      8  C   UNL     1       1.463  -2.381   0.263  1.00  0.00     0.040 C 
ATOM      9  N   UNL     1      -0.840  -1.637   0.177  1.00  0.00    -0.342 N 
ATOM     10  C   UNL     1       0.601  -3.373   1.026  1.00  0.00     0.024 C 
ATOM     11  C   UNL     1      -0.760  -2.712   1.184  1.00  0.00     0.119 C 
BRANCH   9  12
ATOM     12  C   UNL     1      -1.736  -0.613   0.511  1.00  0.00     0.136 A 
ATOM     13  N   UNL     1      -1.890  -0.382   1.833  1.00  0.00    -0.219 NA
ATOM     14  C   UNL     1      -2.438   0.161  -0.421  1.00  0.00     0.016 A 
ATOM     15  C   UNL     1      -2.706   0.600   2.222  1.00  0.00     0.224 A 
ATOM     16  C   UNL     1      -3.235   1.190   0.098  1.00  0.00     0.049 A 
ATOM     17  N   UNL     1      -3.370   1.423   1.418  1.00  0.00    -0.241 NA
BRANCH  14  18
ATOM     18  C   UNL     1      -2.416  -0.069  -1.906  1.00  0.00     0.041 C 
BRANCH  18  19
ATOM     19  C   UNL     1      -3.767  -0.476  -2.499  1.00  0.00     0.005 C 
BRANCH  19  20
ATOM     20  C   UNL     1      -4.715   0.688  -2.768  1.00  0.00     0.001 C 
BRANCH  20  21
ATOM     21  C   UNL     1      -5.170   1.429  -1.516  1.00  0.00     0.006 CG0
ATOM     22  G   UNL     1      -4.027   2.124  -0.783  1.00  0.00     0.000 G0
ENDBRANCH  20  21
ENDBRANCH  19  20
ENDBRANCH  18  19
ENDBRANCH  14  18
BRANCH  16  23
ATOM     23  C   UNL     1      -4.027   2.124  -0.783  1.00  0.00     0.057 CG0
ATOM     24  G   UNL     1      -5.170   1.429  -1.516  1.00  0.00     0.000 G0
ENDBRANCH  16  23
ENDBRANCH   9  12
ENDBRANCH   3   6
ENDBRANCH   1   2
BRANCH   1  25
ATOM     25  C   UNL     1      -1.837  -3.930  -2.607  1.00  0.00     0.042 C 
BRANCH  25  26
ATOM     26  C   UNL     1      -2.083  -4.106  -4.096  1.00  0.00     0.118 C 
BRANCH  26  27
ATOM     27  N   UNL     1      -1.396  -5.273  -4.641  1.00  0.00    -0.352 N 
ATOM     28  C   UNL     1      -1.888  -6.466  -5.113  1.00  0.00     0.251 C 
ATOM     29  H   UNL     1      -0.416  -5.191  -4.676  1.00  0.00     0.163 HD
ATOM     30  O   UNL     1      -1.114  -7.396  -5.314  1.00  0.00    -0.269 OA
BRANCH  28  31
ATOM     31  C   UNL     1      -3.336  -6.637  -5.368  1.00  0.00     0.039 A 
ATOM     32  C   UNL     1      -3.940  -7.864  -5.077  1.00  0.00     0.014 A 
ATOM     33  C   UNL     1      -4.095  -5.602  -5.915  1.00  0.00     0.014 A 
ATOM     34  C   UNL     1      -5.316  -8.021  -5.267  1.00  0.00     0.010 A 
ATOM     35  C   UNL     1      -5.477  -5.722  -5.996  1.00  0.00     0.010 A 
ATOM     36  C   UNL     1      -6.104  -6.938  -5.688  1.00  0.00    -0.014 A 
BRANCH  36  37
ATOM     37  C   UNL     1      -7.580  -7.048  -5.821  1.00  0.00     0.031 A 
ATOM     38  C   UNL     1      -8.240  -6.786  -7.151  1.00  0.00     0.074 A 
ATOM     39  C   UNL     1      -8.333  -7.287  -4.728  1.00  0.00     0.049 A 
ATOM     40  N   UNL     1      -9.514  -6.751  -7.446  1.00  0.00    -0.248 NA
ATOM     41  C   UNL     1      -7.357  -6.491  -8.293  1.00  0.00     0.031 C 
ATOM     42  C   UNL     1      -7.819  -7.475  -3.369  1.00  0.00     0.029 A 
ATOM     43  N   UNL     1      -9.694  -7.385  -4.581  1.00  0.00    -0.354 N 
ATOM     44  C   UNL     1      -9.585  -6.388  -8.786  1.00  0.00     0.074 A 
ATOM     45  C   UNL     1      -8.229  -6.177  -9.240  1.00  0.00     0.031 C 
ATOM     46  C   UNL     1      -8.849  -7.676  -2.531  1.00  0.00     0.029 A 
ATOM     47  C   UNL     1     -10.097  -7.592  -3.282  1.00  0.00     0.049 A 
ATOM     48  H   UNL     1     -10.323  -7.314  -5.335  1.00  0.00     0.167 HD
ATOM     49  C   UNL     1     -10.677  -6.270  -9.577  1.00  0.00     0.034 A 
ATOM     50  C   UNL     1     -11.332  -7.691  -2.752  1.00  0.00     0.034 A 
ATOM     51  C   UNL     1     -12.019  -6.534  -9.136  1.00  0.00     0.049 A 
ATOM     52  C   UNL     1     -12.525  -7.598  -3.666  1.00  0.00     0.074 A 
ATOM     53  C   UNL     1     -13.182  -6.540  -9.884  1.00  0.00     0.029 A 
ATOM     54  N   UNL     1     -12.379  -6.830  -7.831  1.00  0.00    -0.354 N 
ATOM     55  N   UNL     1     -12.560  -7.414  -4.963  1.00  0.00    -0.248 NA
ATOM     56  C   UNL     1     -13.849  -7.762  -3.048  1.00  0.00     0.031 C 
ATOM     57  C   UNL     1     -14.252  -6.808  -9.024  1.00  0.00     0.029 A 
ATOM     58  C   UNL     1     -13.748  -7.008  -7.748  1.00  0.00     0.049 A 
ATOM     59  H   UNL     1     -11.753  -6.903  -7.075  1.00  0.00     0.167 HD
ATOM     60  C   UNL     1     -13.901  -7.482  -5.322  1.00  0.00     0.074 A 
ATOM     61  C   UNL     1     -14.645  -7.745  -4.108  1.00  0.00     0.031 C 
ATOM     62  C   UNL     1     -14.468  -7.327  -6.543  1.00  0.00     0.034 A 
BRANCH  49  63
ATOM     63  C   UNL     1     -10.467  -5.885 -11.019  1.00  0.00     0.023 A 
ATOM     64  C   UNL     1      -9.879  -6.806 -11.910  1.00  0.00     0.012 A 
ATOM     65  C   UNL     1     -10.921  -4.644 -11.507  1.00  0.00     0.148 A 
ATOM     66  C   UNL     1      -9.717  -6.487 -13.257  1.00  0.00     0.002 A 
ATOM     67  C   UNL     1     -10.801  -4.353 -12.861  1.00  0.00     0.091 A 
ATOM     68  F   UNL     1     -11.460  -3.775 -10.641  1.00  0.00    -0.205 F 
ATOM     69  C   UNL     1     -10.189  -5.267 -13.734  1.00  0.00     0.022 A 
BRANCH  67  70
ATOM     70  S   UNL     1     -11.451  -2.847 -13.592  1.00  0.00     0.127 S 
ATOM     71  O   UNL     1     -10.223  -2.158 -13.989  1.00  0.00    -0.237 OA
ATOM     72  O   UNL     1     -12.246  -3.366 -14.705  1.00  0.00    -0.237 OA
ATOM     73  O   UNL     1     -12.221  -2.189 -12.546  1.00  0.00    -0.744 OA
ENDBRANCH  67  70
ENDBRANCH  49  63
BRANCH  50  74
ATOM     74  C   UNL     1     -11.509  -7.946  -1.294  1.00  0.00     0.023 A 
ATOM     75  C   UNL     1     -12.027  -9.184  -0.864  1.00  0.00     0.012 A 
ATOM     76  C   UNL     1     -11.169  -6.975  -0.333  1.00  0.00     0.148 A 
ATOM     77  C   UNL     1     -12.245  -9.433   0.491  1.00  0.00     0.002 A 
ATOM     78  C   UNL     1     -11.334  -7.252   1.020  1.00  0.00     0.091 A 
ATOM     79  F   UNL     1     -10.687  -5.799  -0.760  1.00  0.00    -0.205 F 
ATOM     80  C   UNL     1     -11.891  -8.471   1.433  1.00  0.00     0.022 A 
BRANCH  78  81
ATOM     81  S   UNL     1     -10.785  -6.125   2.306  1.00  0.00     0.127 S 
ATOM     82  O   UNL     1     -12.054  -5.633   2.835  1.00  0.00    -0.237 OA
ATOM     83  O   UNL     1     -10.050  -7.022   3.199  1.00  0.00    -0.237 OA
ATOM     84  O   UNL     1      -9.953  -5.137   1.633  1.00  0.00    -0.744 OA
ENDBRANCH  78  81
ENDBRANCH  50  74
BRANCH  62  85
ATOM     85  C   UNL     1     -15.962  -7.490  -6.648  1.00  0.00     0.023 A 
ATOM     86  C   UNL     1     -16.818  -6.506  -6.116  1.00  0.00     0.012 A 
ATOM     87  C   UNL     1     -16.512  -8.585  -7.343  1.00  0.00     0.148 A 
ATOM     88  C   UNL     1     -18.201  -6.629  -6.243  1.00  0.00     0.002 A 
ATOM     89  C   UNL     1     -17.887  -8.673  -7.513  1.00  0.00     0.091 A 
ATOM     90  F   UNL     1     -15.680  -9.519  -7.827  1.00  0.00    -0.205 F 
ATOM     91  C   UNL     1     -18.735  -7.704  -6.951  1.00  0.00     0.022 A 
BRANCH  89  92
ATOM     92  S   UNL     1     -18.656  -9.964  -8.496  1.00  0.00     0.127 S 
ATOM     93  O   UNL     1     -19.311 -10.771  -7.467  1.00  0.00    -0.237 OA
ATOM     94  O   UNL     1     -19.570  -9.202  -9.347  1.00  0.00    -0.237 OA
ATOM     95  O   UNL     1     -17.573 -10.625  -9.211  1.00  0.00    -0.744 OA
ENDBRANCH  89  92
ENDBRANCH  62  85
ENDBRANCH  36  37
ENDBRANCH  28  31
ENDBRANCH  26  27
ENDBRANCH  25  26
ENDBRANCH   1  25
TORSDOF 14
