REMARK SMILES Nc1c(N2CCCC2)ncnc1N1CCC(C(=O)NCCCNC(=O)c2ccc(-c3c4nc(c(-c5cccc(S(=O)(=O)[O-])c5F)c5ccc([nH]5)c(-c5cccc(S(=O)(=O)[O-])c5F)c5nc(c(-c6cccc(S(=O)(=O)[O-])c6F)c6ccc3[nH]6)C=C5)C=C4)cc2)CC1
REMARK SMILES IDX 21 1 20 2 19 3 17 4 18 5 16 7 13 8 14 9 90 10 15 11 89 12
REMARK SMILES IDX 12 13 2 14 3 15 9 16 11 17 10 18 1 19 4 22 5 23 8 24 6 25
REMARK SMILES IDX 7 26 22 27 23 28 24 29 25 31 26 32 27 33 88 34 28 35 87 36
REMARK SMILES IDX 29 37 30 38 31 39 81 40 32 41 86 42 80 43 82 44 33 45 85 46
REMARK SMILES IDX 79 47 78 48 34 50 66 51 46 52 65 53 47 54 50 55 64 56 83 57
REMARK SMILES IDX 48 58 49 59 63 61 84 62 51 63 35 64 36 65 44 66 37 67 39 68
REMARK SMILES IDX 45 69 38 70 40 71 41 72 42 73 43 74 67 75 68 76 76 77 69 78
REMARK SMILES IDX 71 79 77 80 70 81 72 82 73 83 74 84 75 85 52 86 53 87 61 88
REMARK SMILES IDX 54 89 56 90 62 91 55 92 57 93 58 94 59 95 60 96
REMARK H PARENT 19 6 1 20 1 21 23 30 82 49 50 60
REMARK Flexibility Score: inf
ROOT
ATOM      1  C   UNL     1       0.425  -4.780   5.545  1.00  0.00     0.042 C 
ENDROOT
BRANCH   1   2
ATOM      2  C   UNL     1       0.573  -3.271   5.681  1.00  0.00     0.117 C 
BRANCH   2   3
ATOM      3  N   UNL     1       1.763  -2.894   6.436  1.00  0.00    -0.356 N 
ATOM      4  C   UNL     1       2.892  -2.237   6.048  1.00  0.00     0.223 C 
ATOM      5  O   UNL     1       3.762  -2.026   6.897  1.00  0.00    -0.275 OA
ATOM      6  H   UNL     1       1.748  -3.158   7.384  1.00  0.00     0.163 HD
BRANCH   4   7
ATOM      7  C   UNL     1       3.069  -1.739   4.624  1.00  0.00     0.082 C 
ATOM      8  N   UNL     1       1.784  -1.577   2.123  1.00  0.00    -0.355 N 
ATOM      9  C   UNL     1       2.892  -2.505   2.188  1.00  0.00     0.119 C 
ATOM     10  C   UNL     1       1.874  -0.333   2.857  1.00  0.00     0.119 C 
ATOM     11  C   UNL     1       3.128  -2.911   3.631  1.00  0.00     0.035 C 
ATOM     12  C   UNL     1       2.044  -0.630   4.336  1.00  0.00     0.035 C 
BRANCH   8  13
ATOM     13  C   UNL     1       0.754  -1.824   1.233  1.00  0.00     0.157 A 
ATOM     14  C   UNL     1       0.414  -0.894   0.243  1.00  0.00     0.118 A 
ATOM     15  C   UNL     1      -0.703  -1.197  -0.553  1.00  0.00     0.157 A 
ATOM     16  N   UNL     1      -1.421  -2.317  -0.383  1.00  0.00    -0.217 NA
ATOM     17  N   UNL     1       0.090  -2.986   1.362  1.00  0.00    -0.217 NA
ATOM     18  C   UNL     1      -0.967  -3.166   0.553  1.00  0.00     0.226 A 
BRANCH  14  19
ATOM     19  N   UNL     1       1.083   0.341   0.109  1.00  0.00    -0.393 N 
ATOM     20  H   UNL     1       0.817   0.971  -0.599  1.00  0.00     0.156 HD
ATOM     21  H   UNL     1       1.817   0.574   0.724  1.00  0.00     0.156 HD
ENDBRANCH  14  19
BRANCH  15  22
ATOM     22  N   UNL     1      -1.053  -0.311  -1.555  1.00  0.00    -0.355 N 
ATOM     23  C   UNL     1      -0.225  -0.187  -2.739  1.00  0.00     0.118 C 
ATOM     24  C   UNL     1      -2.437  -0.017  -1.870  1.00  0.00     0.118 C 
ATOM     25  C   UNL     1      -0.823   1.073  -3.347  1.00  0.00     0.023 C 
ATOM     26  C   UNL     1      -2.324   0.898  -3.104  1.00  0.00     0.023 C 
ENDBRANCH  15  22
ENDBRANCH   8  13
ENDBRANCH   4   7
ENDBRANCH   2   3
ENDBRANCH   1   2
BRANCH   1  27
ATOM     27  C   UNL     1       0.225  -5.496   6.871  1.00  0.00     0.118 C 
BRANCH  27  28
ATOM     28  N   UNL     1      -1.018  -5.116   7.529  1.00  0.00    -0.352 N 
ATOM     29  C   UNL     1      -2.139  -5.864   7.785  1.00  0.00     0.251 C 
ATOM     30  H   UNL     1      -1.060  -4.182   7.837  1.00  0.00     0.163 HD
ATOM     31  O   UNL     1      -3.167  -5.308   8.170  1.00  0.00    -0.269 OA
BRANCH  29  32
ATOM     32  C   UNL     1      -2.119  -7.328   7.587  1.00  0.00     0.039 A 
ATOM     33  C   UNL     1      -3.217  -7.948   6.985  1.00  0.00     0.014 A 
ATOM     34  C   UNL     1      -1.025  -8.092   8.004  1.00  0.00     0.014 A 
ATOM     35  C   UNL     1      -3.189  -9.323   6.746  1.00  0.00     0.010 A 
ATOM     36  C   UNL     1      -0.960  -9.442   7.682  1.00  0.00     0.010 A 
ATOM     37  C   UNL     1      -2.046 -10.076   7.064  1.00  0.00    -0.014 A 
BRANCH  37  38
ATOM     38  C   UNL     1      -1.972 -11.530   6.775  1.00  0.00     0.031 A 
ATOM     39  C   UNL     1      -1.822 -12.514   7.905  1.00  0.00     0.074 A 
ATOM     40  C   UNL     1      -1.969 -11.959   5.497  1.00  0.00     0.049 A 
ATOM     41  N   UNL     1      -1.681 -13.812   7.853  1.00  0.00    -0.248 NA
ATOM     42  C   UNL     1      -1.807 -11.966   9.273  1.00  0.00     0.031 C 
ATOM     43  C   UNL     1      -2.048 -11.096   4.316  1.00  0.00     0.029 A 
ATOM     44  N   UNL     1      -1.878 -13.226   4.976  1.00  0.00    -0.354 N 
ATOM     45  C   UNL     1      -1.536 -14.232   9.169  1.00  0.00     0.074 A 
ATOM     46  C   UNL     1      -1.560 -13.047   9.998  1.00  0.00     0.031 C 
ATOM     47  C   UNL     1      -2.018 -11.859   3.211  1.00  0.00     0.029 A 
ATOM     48  C   UNL     1      -1.880 -13.259   3.600  1.00  0.00     0.049 A 
ATOM     49  H   UNL     1      -1.816 -14.034   5.534  1.00  0.00     0.167 HD
ATOM     50  C   UNL     1      -1.429 -15.492   9.649  1.00  0.00     0.034 A 
ATOM     51  C   UNL     1      -1.778 -14.299   2.749  1.00  0.00     0.034 A 
ATOM     52  C   UNL     1      -1.448 -16.669   8.823  1.00  0.00     0.049 A 
ATOM     53  C   UNL     1      -1.670 -15.692   3.312  1.00  0.00     0.074 A 
ATOM     54  C   UNL     1      -1.409 -17.994   9.220  1.00  0.00     0.029 A 
ATOM     55  N   UNL     1      -1.511 -16.666   7.439  1.00  0.00    -0.354 N 
ATOM     56  N   UNL     1      -1.667 -16.078   4.565  1.00  0.00    -0.248 NA
ATOM     57  C   UNL     1      -1.585 -16.797   2.345  1.00  0.00     0.031 C 
ATOM     58  C   UNL     1      -1.421 -18.791   8.073  1.00  0.00     0.029 A 
ATOM     59  C   UNL     1      -1.503 -17.965   6.963  1.00  0.00     0.049 A 
ATOM     60  H   UNL     1      -1.554 -15.858   6.877  1.00  0.00     0.167 HD
ATOM     61  C   UNL     1      -1.615 -17.467   4.538  1.00  0.00     0.074 A 
ATOM     62  C   UNL     1      -1.612 -17.856   3.143  1.00  0.00     0.031 C 
ATOM     63  C   UNL     1      -1.556 -18.340   5.573  1.00  0.00     0.034 A 
BRANCH  50  64
ATOM     64  C   UNL     1      -1.353 -15.680  11.143  1.00  0.00     0.023 A 
ATOM     65  C   UNL     1      -2.501 -15.444  11.928  1.00  0.00     0.012 A 
ATOM     66  C   UNL     1      -0.189 -16.184  11.755  1.00  0.00     0.148 A 
ATOM     67  C   UNL     1      -2.486 -15.687  13.301  1.00  0.00     0.002 A 
ATOM     68  C   UNL     1      -0.198 -16.472  13.115  1.00  0.00     0.091 A 
ATOM     69  F   UNL     1       0.897 -16.384  10.995  1.00  0.00    -0.205 F 
ATOM     70  C   UNL     1      -1.340 -16.213  13.890  1.00  0.00     0.022 A 
BRANCH  68  71
ATOM     71  S   UNL     1       1.192 -17.237  13.957  1.00  0.00     0.127 S 
ATOM     72  O   UNL     1       1.604 -16.174  14.874  1.00  0.00    -0.237 OA
ATOM     73  O   UNL     1       0.561 -18.388  14.603  1.00  0.00    -0.237 OA
ATOM     74  O   UNL     1       2.160 -17.571  12.921  1.00  0.00    -0.744 OA
ENDBRANCH  68  71
ENDBRANCH  50  64
BRANCH  51  75
ATOM     75  C   UNL     1      -1.852 -14.068   1.277  1.00  0.00     0.023 A 
ATOM     76  C   UNL     1      -2.978 -14.523   0.564  1.00  0.00     0.012 A 
ATOM     77  C   UNL     1      -0.841 -13.369   0.587  1.00  0.00     0.148 A 
ATOM     78  C   UNL     1      -3.085 -14.314  -0.811  1.00  0.00     0.002 A 
ATOM     79  C   UNL     1      -0.982 -13.111  -0.772  1.00  0.00     0.091 A 
ATOM     80  F   UNL     1       0.229 -12.954   1.279  1.00  0.00    -0.205 F 
ATOM     81  C   UNL     1      -2.093 -13.598  -1.477  1.00  0.00     0.022 A 
BRANCH  79  82
ATOM     82  S   UNL     1       0.173 -12.080  -1.685  1.00  0.00     0.127 S 
ATOM     83  O   UNL     1       0.798 -13.050  -2.580  1.00  0.00    -0.237 OA
ATOM     84  O   UNL     1      -0.727 -11.129  -2.338  1.00  0.00    -0.237 OA
ATOM     85  O   UNL     1       1.050 -11.488  -0.684  1.00  0.00    -0.744 OA
ENDBRANCH  79  82
ENDBRANCH  51  75
BRANCH  63  86
ATOM     86  C   UNL     1      -1.509 -19.813   5.256  1.00  0.00     0.023 A 
ATOM     87  C   UNL     1      -0.339 -20.372   4.706  1.00  0.00     0.012 A 
ATOM     88  C   UNL     1      -2.581 -20.659   5.607  1.00  0.00     0.148 A 
ATOM     89  C   UNL     1      -0.245 -21.746   4.485  1.00  0.00     0.002 A 
ATOM     90  C   UNL     1      -2.459 -22.033   5.436  1.00  0.00     0.091 A 
ATOM     91  F   UNL     1      -3.692 -20.107   6.116  1.00  0.00    -0.205 F 
ATOM     92  C   UNL     1      -1.298 -22.576   4.863  1.00  0.00     0.022 A 
BRANCH  90  93
ATOM     93  S   UNL     1      -3.713 -23.192   5.995  1.00  0.00     0.127 S 
ATOM     94  O   UNL     1      -4.249 -23.684   4.726  1.00  0.00    -0.237 OA
ATOM     95  O   UNL     1      -2.921 -24.168   6.742  1.00  0.00    -0.237 OA
ATOM     96  O   UNL     1      -4.644 -22.419   6.805  1.00  0.00    -0.744 OA
ENDBRANCH  90  93
ENDBRANCH  63  86
ENDBRANCH  37  38
ENDBRANCH  29  32
ENDBRANCH  27  28
ENDBRANCH   1  27
TORSDOF 16
