REMARK SMILES CC(C)N(CC(=O)NCCCNC(=O)c1ccc(-c2c3nc(c(-c4cccc(S(=O)(=O)[O-])c4F)c4ccc([nH]4)c(-c4cccc(S(=O)(=O)[O-])c4F)c4nc(c(-c5cccc(S(=O)(=O)[O-])c5F)c5ccc2[nH]5)C=C4)C=C3)cc1)C(=O)NC1C(C)(C)C1(C)C
REMARK SMILES IDX 10 1 9 2 8 3 6 4 7 5 5 7 4 8 2 9 1 10 3 11 78 12 79 13 80 14
REMARK SMILES IDX 81 16 82 17 85 18 83 19 84 20 86 21 87 22 11 23 12 24 13 25
REMARK SMILES IDX 14 27 15 28 16 29 77 30 17 31 76 32 18 33 19 34 20 35 70 36
REMARK SMILES IDX 21 37 75 38 69 39 71 40 22 41 74 42 68 43 67 44 23 46 55 47
REMARK SMILES IDX 35 48 54 49 36 50 39 51 53 52 72 53 37 54 38 55 52 57 73 58
REMARK SMILES IDX 40 59 24 60 25 61 33 62 26 63 28 64 34 65 27 66 29 67 30 68
REMARK SMILES IDX 31 69 32 70 56 71 57 72 65 73 58 74 60 75 66 76 59 77 61 78
REMARK SMILES IDX 62 79 63 80 64 81 41 82 42 83 50 84 43 85 45 86 51 87 44 88
REMARK SMILES IDX 46 89 47 90 48 91 49 92
REMARK H PARENT 8 6 80 15 12 26 71 45 39 56
REMARK Flexibility Score: inf
ROOT
ATOM      1  C   UNL     1      -0.238   3.460   3.617  1.00  0.00     0.042 C 
ENDROOT
BRANCH   1   2
ATOM      2  C   UNL     1      -0.306   2.091   4.271  1.00  0.00     0.117 C 
BRANCH   2   3
ATOM      3  N   UNL     1      -1.648   1.564   4.336  1.00  0.00    -0.354 N 
ATOM      4  C   UNL     1      -2.138   0.441   3.749  1.00  0.00     0.239 C 
ATOM      5  O   UNL     1      -3.098  -0.093   4.317  1.00  0.00    -0.273 OA
ATOM      6  H   UNL     1      -2.289   2.084   4.872  1.00  0.00     0.163 HD
BRANCH   4   7
ATOM      7  C   UNL     1      -1.432  -0.250   2.569  1.00  0.00     0.221 C 
BRANCH   7   8
ATOM      8  N   UNL     1      -0.960   0.559   1.436  1.00  0.00    -0.313 N 
BRANCH   8   9
ATOM      9  C   UNL     1       0.493   0.449   1.114  1.00  0.00     0.081 C 
ATOM     10  C   UNL     1       0.746  -0.429  -0.117  1.00  0.00     0.031 C 
ATOM     11  C   UNL     1       1.249   1.778   0.986  1.00  0.00     0.031 C 
ENDBRANCH   8   9
BRANCH   8  12
ATOM     12  C   UNL     1      -1.778   1.132   0.484  1.00  0.00     0.318 C 
ATOM     13  O   UNL     1      -1.322   1.757  -0.479  1.00  0.00    -0.249 OA
ATOM     14  N   UNL     1      -3.131   1.043   0.494  1.00  0.00    -0.334 N 
ATOM     15  H   UNL     1      -3.542   1.557  -0.238  1.00  0.00     0.165 HD
BRANCH  14  16
ATOM     16  C   UNL     1      -4.103   0.390   1.302  1.00  0.00     0.096 C 
ATOM     17  C   UNL     1      -5.524   0.112   0.811  1.00  0.00    -0.007 C 
ATOM     18  C   UNL     1      -4.549  -1.046   1.056  1.00  0.00    -0.007 C 
ATOM     19  C   UNL     1      -6.647   0.364   1.801  1.00  0.00     0.014 C 
ATOM     20  C   UNL     1      -5.953   0.426  -0.606  1.00  0.00     0.014 C 
ATOM     21  C   UNL     1      -3.972  -1.803  -0.122  1.00  0.00     0.014 C 
ATOM     22  C   UNL     1      -4.763  -1.948   2.253  1.00  0.00     0.014 C 
ENDBRANCH  14  16
ENDBRANCH   8  12
ENDBRANCH   7   8
ENDBRANCH   4   7
ENDBRANCH   2   3
ENDBRANCH   1   2
BRANCH   1  23
ATOM     23  C   UNL     1      -1.009   4.541   4.359  1.00  0.00     0.118 C 
BRANCH  23  24
ATOM     24  N   UNL     1      -0.493   4.767   5.707  1.00  0.00    -0.352 N 
ATOM     25  C   UNL     1       0.256   5.804   6.204  1.00  0.00     0.251 C 
ATOM     26  H   UNL     1      -0.718   4.066   6.360  1.00  0.00     0.163 HD
ATOM     27  O   UNL     1       0.800   5.688   7.303  1.00  0.00    -0.269 OA
BRANCH  25  28
ATOM     28  C   UNL     1       0.417   7.048   5.425  1.00  0.00     0.039 A 
ATOM     29  C   UNL     1       1.662   7.681   5.382  1.00  0.00     0.014 A 
ATOM     30  C   UNL     1      -0.670   7.597   4.742  1.00  0.00     0.014 A 
ATOM     31  C   UNL     1       1.833   8.820   4.589  1.00  0.00     0.010 A 
ATOM     32  C   UNL     1      -0.473   8.662   3.874  1.00  0.00     0.010 A 
ATOM     33  C   UNL     1       0.776   9.295   3.796  1.00  0.00    -0.014 A 
BRANCH  33  34
ATOM     34  C   UNL     1       0.931  10.453   2.878  1.00  0.00     0.031 A 
ATOM     35  C   UNL     1       0.057  11.667   3.052  1.00  0.00     0.074 A 
ATOM     36  C   UNL     1       1.764  10.364   1.823  1.00  0.00     0.049 A 
ATOM     37  N   UNL     1      -0.062  12.717   2.283  1.00  0.00    -0.248 NA
ATOM     38  C   UNL     1      -0.828  11.684   4.230  1.00  0.00     0.031 C 
ATOM     39  C   UNL     1       2.613   9.213   1.506  1.00  0.00     0.029 A 
ATOM     40  N   UNL     1       2.008  11.246   0.800  1.00  0.00    -0.354 N 
ATOM     41  C   UNL     1      -1.064  13.493   2.854  1.00  0.00     0.074 A 
ATOM     42  C   UNL     1      -1.549  12.773   4.011  1.00  0.00     0.031 C 
ATOM     43  C   UNL     1       3.289   9.462   0.373  1.00  0.00     0.029 A 
ATOM     44  C   UNL     1       2.890  10.768  -0.141  1.00  0.00     0.049 A 
ATOM     45  H   UNL     1       1.591  12.136   0.745  1.00  0.00     0.167 HD
ATOM     46  C   UNL     1      -1.520  14.710   2.471  1.00  0.00     0.034 A 
ATOM     47  C   UNL     1       3.318  11.314  -1.297  1.00  0.00     0.034 A 
ATOM     48  C   UNL     1      -1.007  15.437   1.343  1.00  0.00     0.049 A 
ATOM     49  C   UNL     1       2.811  12.674  -1.692  1.00  0.00     0.074 A 
ATOM     50  C   UNL     1      -1.341  16.709   0.913  1.00  0.00     0.029 A 
ATOM     51  N   UNL     1      -0.054  14.954   0.459  1.00  0.00    -0.354 N 
ATOM     52  N   UNL     1       1.963  13.454  -1.066  1.00  0.00    -0.248 NA
ATOM     53  C   UNL     1       3.344  13.245  -2.938  1.00  0.00     0.031 C 
ATOM     54  C   UNL     1      -0.612  16.982  -0.249  1.00  0.00     0.029 A 
ATOM     55  C   UNL     1       0.206  15.897  -0.520  1.00  0.00     0.049 A 
ATOM     56  H   UNL     1       0.375  14.069   0.518  1.00  0.00     0.167 HD
ATOM     57  C   UNL     1       1.895  14.623  -1.814  1.00  0.00     0.074 A 
ATOM     58  C   UNL     1       2.798  14.453  -2.935  1.00  0.00     0.031 C 
ATOM     59  C   UNL     1       1.148  15.734  -1.598  1.00  0.00     0.034 A 
BRANCH  46  60
ATOM     60  C   UNL     1      -2.602  15.344   3.310  1.00  0.00     0.023 A 
ATOM     61  C   UNL     1      -2.307  15.776   4.620  1.00  0.00     0.012 A 
ATOM     62  C   UNL     1      -3.898  15.543   2.796  1.00  0.00     0.148 A 
ATOM     63  C   UNL     1      -3.294  16.347   5.422  1.00  0.00     0.002 A 
ATOM     64  C   UNL     1      -4.863  16.161   3.583  1.00  0.00     0.091 A 
ATOM     65  F   UNL     1      -4.169  15.110   1.556  1.00  0.00    -0.205 F 
ATOM     66  C   UNL     1      -4.568  16.548   4.900  1.00  0.00     0.022 A 
BRANCH  64  67
ATOM     67  S   UNL     1      -6.510  16.542   2.975  1.00  0.00     0.127 S 
ATOM     68  O   UNL     1      -7.327  15.579   3.713  1.00  0.00    -0.237 OA
ATOM     69  O   UNL     1      -6.679  17.933   3.396  1.00  0.00    -0.237 OA
ATOM     70  O   UNL     1      -6.461  16.346   1.533  1.00  0.00    -0.744 OA
ENDBRANCH  64  67
ENDBRANCH  46  60
BRANCH  47  71
ATOM     71  C   UNL     1       4.333  10.604  -2.126  1.00  0.00     0.023 A 
ATOM     72  C   UNL     1       5.641  11.123  -2.201  1.00  0.00     0.012 A 
ATOM     73  C   UNL     1       4.027   9.413  -2.811  1.00  0.00     0.148 A 
ATOM     74  C   UNL     1       6.617  10.488  -2.970  1.00  0.00     0.002 A 
ATOM     75  C   UNL     1       5.018   8.755  -3.531  1.00  0.00     0.091 A 
ATOM     76  F   UNL     1       2.777   8.938  -2.729  1.00  0.00    -0.205 F 
ATOM     77  C   UNL     1       6.308   9.301  -3.627  1.00  0.00     0.022 A 
BRANCH  75  78
ATOM     78  S   UNL     1       4.754   7.158  -4.308  1.00  0.00     0.127 S 
ATOM     79  O   UNL     1       4.874   7.492  -5.726  1.00  0.00    -0.237 OA
ATOM     80  O   UNL     1       5.864   6.374  -3.764  1.00  0.00    -0.237 OA
ATOM     81  O   UNL     1       3.436   6.720  -3.873  1.00  0.00    -0.744 OA
ENDBRANCH  75  78
ENDBRANCH  47  71
BRANCH  59  82
ATOM     82  C   UNL     1       1.312  16.886  -2.556  1.00  0.00     0.023 A 
ATOM     83  C   UNL     1       0.797  16.798  -3.864  1.00  0.00     0.012 A 
ATOM     84  C   UNL     1       1.908  18.088  -2.126  1.00  0.00     0.148 A 
ATOM     85  C   UNL     1       0.903  17.878  -4.740  1.00  0.00     0.002 A 
ATOM     86  C   UNL     1       1.962  19.177  -2.986  1.00  0.00     0.091 A 
ATOM     87  F   UNL     1       2.408  18.145  -0.883  1.00  0.00    -0.205 F 
ATOM     88  C   UNL     1       1.472  19.070  -4.298  1.00  0.00     0.022 A 
BRANCH  86  89
ATOM     89  S   UNL     1       2.583  20.782  -2.472  1.00  0.00     0.127 S 
ATOM     90  O   UNL     1       3.833  20.873  -3.224  1.00  0.00    -0.237 OA
ATOM     91  O   UNL     1       1.527  21.684  -2.933  1.00  0.00    -0.237 OA
ATOM     92  O   UNL     1       2.730  20.713  -1.024  1.00  0.00    -0.744 OA
ENDBRANCH  86  89
ENDBRANCH  59  82
ENDBRANCH  33  34
ENDBRANCH  25  28
ENDBRANCH  23  24
ENDBRANCH   1  23
TORSDOF 17
