REMARK SMILES COc1ccccc1N1C(=O)[C@@H]2[C@@H](C1=O)[C@@](Cc1ccccc1)(C(=O)NCCCNC(=O)c1ccc(-c3c4nc(c(-c5cccc(S(=O)(=O)[O-])c5F)c5ccc([nH]5)c(-c5cccc(S(=O)(=O)[O-])c5F)c5nc(c(-c6cccc(S(=O)(=O)[O-])c6F)c6ccc3[nH]6)C=C5)C=C4)cc1)[NH2+][C@H]2c1ccc(C)cc1
REMARK SMILES IDX 28 1 27 2 26 3 24 4 25 5 16 7 9 8 10 9 14 10 11 11 12 12
REMARK SMILES IDX 13 13 15 14 97 15 96 16 8 19 3 20 4 21 5 22 7 23 6 24 2 25
REMARK SMILES IDX 1 26 98 27 99 28 104 29 100 30 103 31 101 32 102 33 17 34
REMARK SMILES IDX 18 35 19 36 23 37 20 38 22 39 21 40 29 41 30 42 31 43 32 45
REMARK SMILES IDX 33 46 34 47 95 48 35 49 94 50 36 51 37 52 38 53 88 54 39 55
REMARK SMILES IDX 93 56 87 57 89 58 40 59 92 60 86 61 85 62 41 64 73 65 53 66
REMARK SMILES IDX 72 67 54 68 57 69 71 70 90 71 55 72 56 73 70 75 91 76 58 77
REMARK SMILES IDX 42 78 43 79 51 80 44 81 46 82 52 83 45 84 47 85 48 86 49 87
REMARK SMILES IDX 50 88 74 89 75 90 83 91 76 92 78 93 84 94 77 95 79 96 80 97
REMARK SMILES IDX 81 98 82 99 59 100 60 101 68 102 61 103 63 104 69 105 62 106
REMARK SMILES IDX 64 107 65 108 66 109 67 110
REMARK H PARENT 26 6 96 17 96 18 30 44 89 63 57 74
REMARK Flexibility Score: inf
ROOT
ATOM      1  C   UNL     1       6.843  -1.946   1.428  1.00  0.00     0.042 C 
ENDROOT
BRANCH   1   2
ATOM      2  C   UNL     1       6.059  -0.789   2.027  1.00  0.00     0.118 C 
BRANCH   2   3
ATOM      3  N   UNL     1       6.687   0.480   1.739  1.00  0.00    -0.351 N 
ATOM      4  C   UNL     1       6.399   1.542   0.959  1.00  0.00     0.282 C 
ATOM      5  O   UNL     1       7.279   2.422   0.981  1.00  0.00    -0.268 OA
ATOM      6  H   UNL     1       7.530   0.599   2.234  1.00  0.00     0.163 HD
BRANCH   4   7
ATOM      7  C   UNL     1       5.153   1.769   0.040  1.00  0.00     0.192 C 
ATOM      8  N   UNL     1       3.053  -1.262  -0.291  1.00  0.00    -0.246 N 
ATOM      9  C   UNL     1       3.884  -1.294  -1.413  1.00  0.00     0.244 C 
ATOM     10  C   UNL     1       3.289  -0.141   0.497  1.00  0.00     0.245 C 
ATOM     11  O   UNL     1       3.833  -2.038  -2.376  1.00  0.00    -0.273 OA
ATOM     12  C   UNL     1       4.945  -0.263  -1.144  1.00  0.00     0.162 C 
ATOM     13  C   UNL     1       4.137   0.739  -0.350  1.00  0.00     0.170 C 
ATOM     14  O   UNL     1       2.931   0.087   1.636  1.00  0.00    -0.273 OA
ATOM     15  C   UNL     1       5.691   0.633  -2.108  1.00  0.00     0.228 C 
ATOM     16  N   UNL     1       5.716   1.956  -1.382  1.00  0.00    -0.326 N 
ATOM     17  H   UNL     1       6.676   2.295  -1.327  1.00  0.00     0.347 HD
ATOM     18  H   UNL     1       5.146   2.633  -1.889  1.00  0.00     0.347 HD
BRANCH   8  19
ATOM     19  C   UNL     1       2.170  -2.292   0.113  1.00  0.00     0.094 A 
ATOM     20  C   UNL     1       0.925  -2.022   0.714  1.00  0.00     0.143 A 
ATOM     21  C   UNL     1       0.172  -3.057   1.282  1.00  0.00     0.048 A 
ATOM     22  C   UNL     1       0.637  -4.369   1.243  1.00  0.00     0.004 A 
ATOM     23  C   UNL     1       2.607  -3.625   0.047  1.00  0.00     0.031 A 
ATOM     24  C   UNL     1       1.853  -4.653   0.626  1.00  0.00     0.002 A 
BRANCH  20  25
ATOM     25  O   UNL     1       0.367  -0.774   0.842  1.00  0.00    -0.495 OA
ATOM     26  C   UNL     1       0.121  -0.128  -0.404  1.00  0.00     0.278 C 
ENDBRANCH  20  25
ENDBRANCH   8  19
BRANCH  15  27
ATOM     27  C   UNL     1       7.082   0.126  -2.471  1.00  0.00     0.010 A 
ATOM     28  C   UNL     1       8.147   0.113  -1.554  1.00  0.00     0.010 A 
ATOM     29  C   UNL     1       7.339  -0.394  -3.748  1.00  0.00     0.010 A 
ATOM     30  C   UNL     1       9.399  -0.415  -1.874  1.00  0.00     0.004 A 
ATOM     31  C   UNL     1       8.601  -0.917  -4.079  1.00  0.00     0.004 A 
ATOM     32  C   UNL     1       9.639  -0.934  -3.142  1.00  0.00    -0.051 A 
ATOM     33  C   UNL     1      10.975  -1.543  -3.456  1.00  0.00     0.044 C 
ENDBRANCH  15  27
BRANCH   7  34
ATOM     34  C   UNL     1       4.502   3.110   0.503  1.00  0.00     0.115 C 
BRANCH  34  35
ATOM     35  C   UNL     1       3.690   3.053   1.788  1.00  0.00    -0.041 A 
ATOM     36  C   UNL     1       2.362   3.502   1.791  1.00  0.00     0.004 A 
ATOM     37  C   UNL     1       4.222   2.568   2.993  1.00  0.00     0.004 A 
ATOM     38  C   UNL     1       1.573   3.398   2.941  1.00  0.00     0.000 A 
ATOM     39  C   UNL     1       3.425   2.431   4.131  1.00  0.00     0.000 A 
ATOM     40  C   UNL     1       2.097   2.840   4.103  1.00  0.00     0.000 A 
ENDBRANCH  34  35
ENDBRANCH   7  34
ENDBRANCH   4   7
ENDBRANCH   2   3
ENDBRANCH   1   2
BRANCH   1  41
ATOM     41  C   UNL     1       7.872  -2.465   2.404  1.00  0.00     0.118 C 
BRANCH  41  42
ATOM     42  N   UNL     1       7.237  -3.260   3.449  1.00  0.00    -0.352 N 
ATOM     43  C   UNL     1       7.395  -4.601   3.706  1.00  0.00     0.251 C 
ATOM     44  H   UNL     1       6.617  -2.777   4.043  1.00  0.00     0.163 HD
ATOM     45  O   UNL     1       6.602  -5.198   4.425  1.00  0.00    -0.269 OA
BRANCH  43  46
ATOM     46  C   UNL     1       8.532  -5.303   3.081  1.00  0.00     0.039 A 
ATOM     47  C   UNL     1       8.333  -6.542   2.471  1.00  0.00     0.014 A 
ATOM     48  C   UNL     1       9.781  -4.680   3.040  1.00  0.00     0.014 A 
ATOM     49  C   UNL     1       9.383  -7.128   1.761  1.00  0.00     0.010 A 
ATOM     50  C   UNL     1      10.774  -5.198   2.229  1.00  0.00     0.010 A 
ATOM     51  C   UNL     1      10.598  -6.441   1.604  1.00  0.00    -0.014 A 
BRANCH  51  52
ATOM     52  C   UNL     1      11.731  -7.002   0.831  1.00  0.00     0.031 A 
ATOM     53  C   UNL     1      13.056  -7.204   1.519  1.00  0.00     0.074 A 
ATOM     54  C   UNL     1      11.608  -7.213  -0.494  1.00  0.00     0.049 A 
ATOM     55  N   UNL     1      14.210  -7.534   1.006  1.00  0.00    -0.248 NA
ATOM     56  C   UNL     1      13.098  -6.954   2.972  1.00  0.00     0.031 C 
ATOM     57  C   UNL     1      10.396  -6.980  -1.283  1.00  0.00     0.029 A 
ATOM     58  N   UNL     1      12.528  -7.640  -1.418  1.00  0.00    -0.354 N 
ATOM     59  C   UNL     1      15.119  -7.477   2.056  1.00  0.00     0.074 A 
ATOM     60  C   UNL     1      14.394  -7.034   3.224  1.00  0.00     0.031 C 
ATOM     61  C   UNL     1      10.645  -7.273  -2.570  1.00  0.00     0.029 A 
ATOM     62  C   UNL     1      12.043  -7.670  -2.705  1.00  0.00     0.049 A 
ATOM     63  H   UNL     1      13.448  -7.899  -1.183  1.00  0.00     0.167 HD
ATOM     64  C   UNL     1      16.433  -7.798   2.057  1.00  0.00     0.034 A 
ATOM     65  C   UNL     1      12.662  -7.967  -3.864  1.00  0.00     0.034 A 
ATOM     66  C   UNL     1      17.130  -8.292   0.904  1.00  0.00     0.049 A 
ATOM     67  C   UNL     1      14.116  -8.358  -3.830  1.00  0.00     0.074 A 
ATOM     68  C   UNL     1      18.435  -8.739   0.816  1.00  0.00     0.029 A 
ATOM     69  N   UNL     1      16.578  -8.402  -0.362  1.00  0.00    -0.354 N 
ATOM     70  N   UNL     1      14.925  -8.437  -2.802  1.00  0.00    -0.248 NA
ATOM     71  C   UNL     1      14.735  -8.732  -5.110  1.00  0.00     0.031 C 
ATOM     72  C   UNL     1      18.684  -9.087  -0.514  1.00  0.00     0.029 A 
ATOM     73  C   UNL     1      17.520  -8.898  -1.244  1.00  0.00     0.049 A 
ATOM     74  H   UNL     1      15.653  -8.162  -0.599  1.00  0.00     0.167 HD
ATOM     75  C   UNL     1      16.133  -8.908  -3.301  1.00  0.00     0.074 A 
ATOM     76  C   UNL     1      15.946  -9.108  -4.723  1.00  0.00     0.031 C 
ATOM     77  C   UNL     1      17.295  -9.145  -2.645  1.00  0.00     0.034 A 
BRANCH  64  78
ATOM     78  C   UNL     1      17.186  -7.666   3.355  1.00  0.00     0.023 A 
ATOM     79  C   UNL     1      16.901  -8.542   4.424  1.00  0.00     0.012 A 
ATOM     80  C   UNL     1      18.205  -6.706   3.502  1.00  0.00     0.148 A 
ATOM     81  C   UNL     1      17.589  -8.437   5.632  1.00  0.00     0.002 A 
ATOM     82  C   UNL     1      18.923  -6.642   4.691  1.00  0.00     0.091 A 
ATOM     83  F   UNL     1      18.446  -5.868   2.485  1.00  0.00    -0.205 F 
ATOM     84  C   UNL     1      18.606  -7.495   5.761  1.00  0.00     0.022 A 
BRANCH  82  85
ATOM     85  S   UNL     1      20.307  -5.524   4.928  1.00  0.00     0.127 S 
ATOM     86  O   UNL     1      19.767  -4.591   5.915  1.00  0.00    -0.237 OA
ATOM     87  O   UNL     1      21.342  -6.423   5.440  1.00  0.00    -0.237 OA
ATOM     88  O   UNL     1      20.591  -4.951   3.619  1.00  0.00    -0.744 OA
ENDBRANCH  82  85
ENDBRANCH  64  78
BRANCH  65  89
ATOM     89  C   UNL     1      11.899  -7.955  -5.144  1.00  0.00     0.023 A 
ATOM     90  C   UNL     1      11.631  -9.173  -5.801  1.00  0.00     0.012 A 
ATOM     91  C   UNL     1      11.419  -6.755  -5.701  1.00  0.00     0.148 A 
ATOM     92  C   UNL     1      10.931  -9.191  -7.007  1.00  0.00     0.002 A 
ATOM     93  C   UNL     1      10.675  -6.785  -6.875  1.00  0.00     0.091 A 
ATOM     94  F   UNL     1      11.689  -5.606  -5.064  1.00  0.00    -0.205 F 
ATOM     95  C   UNL     1      10.445  -8.000  -7.539  1.00  0.00     0.022 A 
BRANCH  93  96
ATOM     96  S   UNL     1       9.907  -5.316  -7.568  1.00  0.00     0.127 S 
ATOM     97  O   UNL     1      10.672  -5.132  -8.798  1.00  0.00    -0.237 OA
ATOM     98  O   UNL     1       8.527  -5.762  -7.761  1.00  0.00    -0.237 OA
ATOM     99  O   UNL     1      10.067  -4.272  -6.564  1.00  0.00    -0.744 OA
ENDBRANCH  93  96
ENDBRANCH  65  89
BRANCH  77 100
ATOM    100  C   UNL     1      18.448  -9.704  -3.433  1.00  0.00     0.023 A 
ATOM    101  C   UNL     1      19.158  -8.880  -4.328  1.00  0.00     0.012 A 
ATOM    102  C   UNL     1      18.894 -11.020  -3.196  1.00  0.00     0.148 A 
ATOM    103  C   UNL     1      20.282  -9.367  -4.994  1.00  0.00     0.002 A 
ATOM    104  C   UNL     1      20.045 -11.479  -3.821  1.00  0.00     0.091 A 
ATOM    105  F   UNL     1      18.193 -11.789  -2.351  1.00  0.00    -0.205 F 
ATOM    106  C   UNL     1      20.734 -10.659  -4.730  1.00  0.00     0.022 A 
BRANCH 104 107
ATOM    107  S   UNL     1      20.761 -13.087  -3.464  1.00  0.00     0.127 S 
ATOM    108  O   UNL     1      20.559 -13.790  -4.730  1.00  0.00    -0.237 OA
ATOM    109  O   UNL     1      22.153 -12.745  -3.170  1.00  0.00    -0.237 OA
ATOM    110  O   UNL     1      20.015 -13.620  -2.333  1.00  0.00    -0.744 OA
ENDBRANCH 104 107
ENDBRANCH  77 100
ENDBRANCH  51  52
ENDBRANCH  43  46
ENDBRANCH  41  42
ENDBRANCH   1  41
TORSDOF 18
