REMARK SMILES O=C(NCCCNC(=O)c1ccc(-c2c3nc(c(-c4cccc(S(=O)(=O)[O-])c4F)c4ccc([nH]4)c(-c4cccc(S(=O)(=O)[O-])c4F)c4nc(c(-c5cccc(S(=O)(=O)[O-])c5F)c5ccc2[nH]5)C=C4)C=C3)cc1)C1=Cc2cc(S(F)(F)(F)(F)F)cc(Br)c2O[C@H]1C(F)(F)F
REMARK SMILES IDX 6 1 5 2 4 3 3 4 1 5 2 6 73 8 74 9 89 10 75 11 88 12 76 13
REMARK SMILES IDX 87 14 77 15 85 16 84 17 86 18 90 19 91 20 92 21 93 22 78 23
REMARK SMILES IDX 79 24 80 25 81 26 82 27 83 28 7 29 8 30 9 32 10 33 11 34
REMARK SMILES IDX 72 35 12 36 71 37 13 38 14 39 15 40 65 41 16 42 70 43 64 44
REMARK SMILES IDX 66 45 17 46 69 47 63 48 62 49 18 51 50 52 30 53 49 54 31 55
REMARK SMILES IDX 34 56 48 57 67 58 32 59 33 60 47 62 68 63 35 64 19 65 20 66
REMARK SMILES IDX 28 67 21 68 23 69 29 70 22 71 24 72 25 73 26 74 27 75 51 76
REMARK SMILES IDX 52 77 60 78 53 79 55 80 61 81 54 82 56 83 57 84 58 85 59 86
REMARK SMILES IDX 36 87 37 88 45 89 38 90 40 91 46 92 39 93 41 94 42 95 43 96
REMARK SMILES IDX 44 97
REMARK H PARENT 3 7 7 31 66 50 34 61
REMARK Flexibility Score: inf
ROOT
ATOM      1  C   UNL     1       4.458  -0.393   3.715  1.00  0.00     0.118 C 
ENDROOT
BRANCH   1   2
ATOM      2  C   UNL     1       4.965   0.244   2.431  1.00  0.00     0.042 C 
BRANCH   2   3
ATOM      3  C   UNL     1       4.458  -0.549   1.237  1.00  0.00     0.118 C 
BRANCH   3   4
ATOM      4  N   UNL     1       2.988  -0.549   1.237  1.00  0.00    -0.352 N 
ATOM      5  O   UNL     1       0.982   0.017   0.097  1.00  0.00    -0.270 OA
ATOM      6  C   UNL     1       2.253   0.017   0.097  1.00  0.00     0.251 C 
ATOM      7  H   UNL     1       2.496  -0.928   2.001  1.00  0.00     0.163 HD
BRANCH   6   8
ATOM      8  C   UNL     1       3.013   0.602  -1.082  1.00  0.00     0.067 C 
ATOM      9  C   UNL     1       4.373   0.602  -1.082  1.00  0.00     0.025 C 
ATOM     10  C   UNL     1       2.253   1.188  -2.261  1.00  0.00     0.314 C 
ATOM     11  C   UNL     1       5.133   0.017   0.097  1.00  0.00     0.020 A 
ATOM     12  O   UNL     1       3.519  -1.719   0.265  1.00  0.00    -0.474 OA
ATOM     13  C   UNL     1       6.269   0.678   0.535  1.00  0.00     0.036 A 
ATOM     14  C   UNL     1       4.769  -1.147   0.622  1.00  0.00     0.142 A 
ATOM     15  C   UNL     1       7.121  -0.116   1.339  1.00  0.00     0.109 A 
ATOM     16  C   UNL     1       5.590  -1.804   1.506  1.00  0.00     0.062 A 
ATOM     17  C   UNL     1       6.756  -1.235   1.937  1.00  0.00     0.044 A 
ATOM     18  Br  UNL     1       5.083  -3.581   2.159  1.00  0.00    -0.047 Br
BRANCH  10  19
ATOM     19  C   UNL     1       0.759   1.064  -2.013  1.00  0.00     0.429 C 
ATOM     20  F   UNL     1       0.447   1.616  -0.843  1.00  0.00    -0.167 F 
ATOM     21  F   UNL     1       0.109   1.694  -2.987  1.00  0.00    -0.167 F 
ATOM     22  F   UNL     1       0.408  -0.219  -2.004  1.00  0.00    -0.167 F 
ENDBRANCH  10  19
BRANCH  15  23
ATOM     23  S   UNL     1       8.828   0.442   1.562  1.00  0.00     0.310 S 
ATOM     24  F   UNL     1       8.686   0.442   3.142  1.00  0.00    -0.094 F 
ATOM     25  F   UNL     1       8.306   1.928   1.584  1.00  0.00    -0.094 F 
ATOM     26  F   UNL     1      10.294   0.924   1.755  1.00  0.00    -0.094 F 
ATOM     27  F   UNL     1       9.314  -1.057   1.678  1.00  0.00    -0.094 F 
ATOM     28  F   UNL     1       7.333  -0.065   1.480  1.00  0.00    -0.094 F 
ENDBRANCH  15  23
ENDBRANCH   6   8
ENDBRANCH   3   4
ENDBRANCH   2   3
ENDBRANCH   1   2
BRANCH   1  29
ATOM     29  N   UNL     1       4.948  -1.776   3.801  1.00  0.00    -0.352 N 
ATOM     30  C   UNL     1       5.793  -2.187   4.932  1.00  0.00     0.251 C 
ATOM     31  H   UNL     1       4.710  -2.428   3.103  1.00  0.00     0.163 HD
ATOM     32  O   UNL     1       6.217  -3.383   5.007  1.00  0.00    -0.269 OA
BRANCH  30  33
ATOM     33  C   UNL     1       6.160  -1.181   6.011  1.00  0.00     0.039 A 
ATOM     34  C   UNL     1       7.421  -1.226   6.583  1.00  0.00     0.014 A 
ATOM     35  C   UNL     1       5.211  -0.390   6.497  1.00  0.00     0.014 A 
ATOM     36  C   UNL     1       7.497  -0.607   7.853  1.00  0.00     0.010 A 
ATOM     37  C   UNL     1       5.404   0.292   7.674  1.00  0.00     0.010 A 
ATOM     38  C   UNL     1       6.606   0.246   8.325  1.00  0.00    -0.014 A 
BRANCH  38  39
ATOM     39  C   UNL     1       6.901   1.129   9.526  1.00  0.00     0.031 A 
ATOM     40  C   UNL     1       6.064   0.974  10.633  1.00  0.00     0.074 A 
ATOM     41  C   UNL     1       8.042   1.912   9.522  1.00  0.00     0.049 A 
ATOM     42  N   UNL     1       6.219   1.499  11.850  1.00  0.00    -0.248 NA
ATOM     43  C   UNL     1       4.832   0.171  10.629  1.00  0.00     0.031 C 
ATOM     44  C   UNL     1       8.896   2.067   8.412  1.00  0.00     0.029 A 
ATOM     45  N   UNL     1       8.554   2.665  10.556  1.00  0.00    -0.354 N 
ATOM     46  C   UNL     1       5.225   1.109  12.650  1.00  0.00     0.074 A 
ATOM     47  C   UNL     1       4.315   0.255  11.874  1.00  0.00     0.031 C 
ATOM     48  C   UNL     1       9.900   2.910   8.767  1.00  0.00     0.029 A 
ATOM     49  C   UNL     1       9.693   3.296  10.105  1.00  0.00     0.049 A 
ATOM     50  H   UNL     1       8.172   2.740  11.460  1.00  0.00     0.167 HD
ATOM     51  C   UNL     1       5.042   1.431  13.995  1.00  0.00     0.034 A 
ATOM     52  C   UNL     1      10.515   4.164  10.806  1.00  0.00     0.034 A 
ATOM     53  C   UNL     1       5.889   2.264  14.708  1.00  0.00     0.049 A 
ATOM     54  C   UNL     1      10.300   4.533  12.136  1.00  0.00     0.074 A 
ATOM     55  C   UNL     1       5.723   2.593  16.067  1.00  0.00     0.029 A 
ATOM     56  N   UNL     1       7.014   2.915  14.251  1.00  0.00    -0.354 N 
ATOM     57  N   UNL     1       9.328   4.112  12.946  1.00  0.00    -0.248 NA
ATOM     58  C   UNL     1      11.147   5.476  12.878  1.00  0.00     0.031 C 
ATOM     59  C   UNL     1       6.728   3.437  16.423  1.00  0.00     0.029 A 
ATOM     60  C   UNL     1       7.538   3.650  15.291  1.00  0.00     0.049 A 
ATOM     61  H   UNL     1       7.380   2.863  13.338  1.00  0.00     0.167 HD
ATOM     62  C   UNL     1       9.461   4.670  14.151  1.00  0.00     0.074 A 
ATOM     63  C   UNL     1      10.628   5.561  14.122  1.00  0.00     0.031 C 
ATOM     64  C   UNL     1       8.657   4.468  15.275  1.00  0.00     0.034 A 
BRANCH  51  65
ATOM     65  C   UNL     1       3.846   0.834  14.720  1.00  0.00     0.023 A 
ATOM     66  C   UNL     1       3.687  -0.540  14.796  1.00  0.00     0.012 A 
ATOM     67  C   UNL     1       2.949   1.662  15.243  1.00  0.00     0.148 A 
ATOM     68  C   UNL     1       2.391  -0.945  15.195  1.00  0.00     0.002 A 
ATOM     69  C   UNL     1       1.761   1.182  15.739  1.00  0.00     0.091 A 
ATOM     70  F   UNL     1       3.203   2.966  15.286  1.00  0.00    -0.205 F 
ATOM     71  C   UNL     1       1.511  -0.161  15.790  1.00  0.00     0.022 A 
BRANCH  69  72
ATOM     72  S   UNL     1       0.508   2.345  16.332  1.00  0.00     0.127 S 
ATOM     73  O   UNL     1      -0.777   2.170  15.520  1.00  0.00    -0.237 OA
ATOM     74  O   UNL     1       0.218   2.073  17.810  1.00  0.00    -0.237 OA
ATOM     75  O   UNL     1       1.083   3.945  16.150  1.00  0.00    -0.744 OA
ENDBRANCH  69  72
ENDBRANCH  51  65
BRANCH  52  76
ATOM     76  C   UNL     1      11.720   4.747  10.086  1.00  0.00     0.023 A 
ATOM     77  C   UNL     1      13.002   4.492  10.543  1.00  0.00     0.012 A 
ATOM     78  C   UNL     1      11.510   5.477   8.996  1.00  0.00     0.148 A 
ATOM     79  C   UNL     1      13.998   5.297   9.940  1.00  0.00     0.002 A 
ATOM     80  C   UNL     1      12.551   6.127   8.379  1.00  0.00     0.091 A 
ATOM     81  F   UNL     1      10.281   5.579   8.498  1.00  0.00    -0.205 F 
ATOM     82  C   UNL     1      13.838   5.968   8.814  1.00  0.00     0.022 A 
BRANCH  80  83
ATOM     83  S   UNL     1      12.215   7.212   6.969  1.00  0.00     0.127 S 
ATOM     84  O   UNL     1      12.681   8.632   7.295  1.00  0.00    -0.237 OA
ATOM     85  O   UNL     1      12.967   6.698   5.739  1.00  0.00    -0.237 OA
ATOM     86  O   UNL     1      10.536   7.223   6.646  1.00  0.00    -0.744 OA
ENDBRANCH  80  83
ENDBRANCH  52  76
BRANCH  64  87
ATOM     87  C   UNL     1       9.032   5.190  16.559  1.00  0.00     0.023 A 
ATOM     88  C   UNL     1       9.229   6.561  16.542  1.00  0.00     0.012 A 
ATOM     89  C   UNL     1       9.309   4.468  17.638  1.00  0.00     0.148 A 
ATOM     90  C   UNL     1      10.001   7.043  17.625  1.00  0.00     0.002 A 
ATOM     91  C   UNL     1       9.944   5.036  18.716  1.00  0.00     0.091 A 
ATOM     92  F   UNL     1       8.969   3.183  17.676  1.00  0.00    -0.205 F 
ATOM     93  C   UNL     1      10.223   6.374  18.743  1.00  0.00     0.022 A 
BRANCH  91  94
ATOM     94  S   UNL     1      10.417   3.998  20.122  1.00  0.00     0.127 S 
ATOM     95  O   UNL     1      11.933   4.063  20.316  1.00  0.00    -0.237 OA
ATOM     96  O   UNL     1       9.719   4.504  21.387  1.00  0.00    -0.237 OA
ATOM     97  O   UNL     1       9.948   2.382  19.820  1.00  0.00    -0.744 OA
ENDBRANCH  91  94
ENDBRANCH  64  87
ENDBRANCH  38  39
ENDBRANCH  30  33
ENDBRANCH   1  29
TORSDOF 15
