REMARK SMILES O=C(NCCCNC(=O)c1cn(C[C@@H]2CCS(=O)(=O)C2)c(=O)[nH]c1=O)c1ccc(-c2c3nc(c(-c4cccc(S(=O)(=O)[O-])c4F)c4ccc([nH]4)c(-c4cccc(S(=O)(=O)[O-])c4F)c4nc(c(-c5cccc(S(=O)(=O)[O-])c5F)c5ccc2[nH]5)C=C4)C=C3)cc1
REMARK SMILES IDX 4 1 3 2 1 3 2 4 26 6 27 7 88 8 28 9 87 10 29 11 30 12 31 13
REMARK SMILES IDX 81 14 32 15 86 16 80 17 82 18 33 19 85 20 79 21 78 22 34 24
REMARK SMILES IDX 66 25 46 26 65 27 47 28 50 29 64 30 83 31 48 32 49 33 63 35
REMARK SMILES IDX 84 36 51 37 35 38 36 39 44 40 37 41 39 42 45 43 38 44 40 45
REMARK SMILES IDX 41 46 42 47 43 48 67 49 68 50 76 51 69 52 71 53 77 54 70 55
REMARK SMILES IDX 72 56 73 57 74 58 75 59 52 60 53 61 61 62 54 63 56 64 62 65
REMARK SMILES IDX 55 66 57 67 58 68 59 69 60 70 5 71 6 72 7 73 8 74 9 76 10 77
REMARK SMILES IDX 11 78 24 79 12 80 23 81 25 82 21 83 22 85 13 86 14 87 15 88
REMARK SMILES IDX 20 89 16 90 17 91 18 92 19 93
REMARK H PARENT 3 5 82 23 50 34 7 75 23 84
REMARK Flexibility Score: inf
ROOT
ATOM      1  C   UNL     1       4.587   1.041  -0.982  1.00  0.00     0.118 C 
ENDROOT
BRANCH   1   2
ATOM      2  N   UNL     1       3.150   0.978  -0.738  1.00  0.00    -0.352 N 
ATOM      3  O   UNL     1       1.192   0.144  -0.032  1.00  0.00    -0.269 OA
ATOM      4  C   UNL     1       2.415   0.166   0.089  1.00  0.00     0.251 C 
ATOM      5  H   UNL     1       2.618   1.628  -1.252  1.00  0.00     0.163 HD
BRANCH   4   6
ATOM      6  C   UNL     1       3.080  -0.675   1.106  1.00  0.00     0.039 A 
ATOM      7  C   UNL     1       2.535  -1.923   1.418  1.00  0.00     0.014 A 
ATOM      8  C   UNL     1       4.214  -0.225   1.783  1.00  0.00     0.014 A 
ATOM      9  C   UNL     1       3.154  -2.725   2.380  1.00  0.00     0.010 A 
ATOM     10  C   UNL     1       4.902  -1.076   2.637  1.00  0.00     0.010 A 
ATOM     11  C   UNL     1       4.356  -2.317   2.982  1.00  0.00    -0.014 A 
BRANCH  11  12
ATOM     12  C   UNL     1       5.015  -3.140   4.027  1.00  0.00     0.031 A 
ATOM     13  C   UNL     1       5.232  -2.568   5.406  1.00  0.00     0.074 A 
ATOM     14  C   UNL     1       5.445  -4.383   3.732  1.00  0.00     0.049 A 
ATOM     15  N   UNL     1       5.811  -3.121   6.439  1.00  0.00    -0.248 NA
ATOM     16  C   UNL     1       4.769  -1.190   5.655  1.00  0.00     0.031 C 
ATOM     17  C   UNL     1       5.368  -5.017   2.414  1.00  0.00     0.029 A 
ATOM     18  N   UNL     1       6.041  -5.334   4.522  1.00  0.00    -0.354 N 
ATOM     19  C   UNL     1       5.804  -2.156   7.438  1.00  0.00     0.074 A 
ATOM     20  C   UNL     1       5.216  -0.963   6.881  1.00  0.00     0.031 C 
ATOM     21  C   UNL     1       5.867  -6.261   2.493  1.00  0.00     0.029 A 
ATOM     22  C   UNL     1       6.327  -6.503   3.857  1.00  0.00     0.049 A 
ATOM     23  H   UNL     1       6.244  -5.193   5.475  1.00  0.00     0.167 HD
ATOM     24  C   UNL     1       6.204  -2.268   8.724  1.00  0.00     0.034 A 
ATOM     25  C   UNL     1       6.896  -7.644   4.295  1.00  0.00     0.034 A 
ATOM     26  C   UNL     1       6.712  -3.477   9.302  1.00  0.00     0.049 A 
ATOM     27  C   UNL     1       7.288  -7.761   5.741  1.00  0.00     0.074 A 
ATOM     28  C   UNL     1       7.067  -3.708  10.617  1.00  0.00     0.029 A 
ATOM     29  N   UNL     1       6.923  -4.655   8.607  1.00  0.00    -0.354 N 
ATOM     30  N   UNL     1       7.168  -6.870   6.694  1.00  0.00    -0.248 NA
ATOM     31  C   UNL     1       7.867  -9.039   6.182  1.00  0.00     0.031 C 
ATOM     32  C   UNL     1       7.500  -5.030  10.719  1.00  0.00     0.029 A 
ATOM     33  C   UNL     1       7.401  -5.622   9.469  1.00  0.00     0.049 A 
ATOM     34  H   UNL     1       6.757  -4.784   7.646  1.00  0.00     0.167 HD
ATOM     35  C   UNL     1       7.634  -7.484   7.850  1.00  0.00     0.074 A 
ATOM     36  C   UNL     1       8.031  -8.827   7.483  1.00  0.00     0.031 C 
ATOM     37  C   UNL     1       7.735  -6.971   9.098  1.00  0.00     0.034 A 
BRANCH  24  38
ATOM     38  C   UNL     1       6.016  -1.089   9.635  1.00  0.00     0.023 A 
ATOM     39  C   UNL     1       4.728  -0.814  10.136  1.00  0.00     0.012 A 
ATOM     40  C   UNL     1       7.117  -0.343  10.093  1.00  0.00     0.148 A 
ATOM     41  C   UNL     1       4.537   0.190  11.083  1.00  0.00     0.002 A 
ATOM     42  C   UNL     1       6.924   0.636  11.060  1.00  0.00     0.091 A 
ATOM     43  F   UNL     1       8.329  -0.620   9.591  1.00  0.00    -0.205 F 
ATOM     44  C   UNL     1       5.636   0.904  11.554  1.00  0.00     0.022 A 
BRANCH  42  45
ATOM     45  S   UNL     1       8.274   1.580  11.775  1.00  0.00     0.127 S 
ATOM     46  O   UNL     1       7.916   2.945  11.389  1.00  0.00    -0.237 OA
ATOM     47  O   UNL     1       8.127   1.290  13.201  1.00  0.00    -0.237 OA
ATOM     48  O   UNL     1       9.493   1.070  11.164  1.00  0.00    -0.744 OA
ENDBRANCH  42  45
ENDBRANCH  24  38
BRANCH  25  49
ATOM     49  C   UNL     1       7.064  -8.782   3.350  1.00  0.00     0.023 A 
ATOM     50  C   UNL     1       6.195  -9.886   3.432  1.00  0.00     0.012 A 
ATOM     51  C   UNL     1       8.026  -8.733   2.324  1.00  0.00     0.148 A 
ATOM     52  C   UNL     1       6.287 -10.929   2.509  1.00  0.00     0.002 A 
ATOM     53  C   UNL     1       8.086  -9.756   1.385  1.00  0.00     0.091 A 
ATOM     54  F   UNL     1       8.840  -7.670   2.269  1.00  0.00    -0.205 F 
ATOM     55  C   UNL     1       7.224 -10.859   1.481  1.00  0.00     0.022 A 
BRANCH  53  56
ATOM     56  S   UNL     1       9.188  -9.705  -0.033  1.00  0.00     0.127 S 
ATOM     57  O   UNL     1      10.064 -10.844   0.229  1.00  0.00    -0.237 OA
ATOM     58  O   UNL     1       8.253  -9.889  -1.144  1.00  0.00    -0.237 OA
ATOM     59  O   UNL     1       9.829  -8.399   0.008  1.00  0.00    -0.744 OA
ENDBRANCH  53  56
ENDBRANCH  25  49
BRANCH  37  60
ATOM     60  C   UNL     1       8.271  -7.840  10.198  1.00  0.00     0.023 A 
ATOM     61  C   UNL     1       9.664  -7.967  10.353  1.00  0.00     0.012 A 
ATOM     62  C   UNL     1       7.406  -8.339  11.191  1.00  0.00     0.148 A 
ATOM     63  C   UNL     1      10.191  -8.569  11.494  1.00  0.00     0.002 A 
ATOM     64  C   UNL     1       7.939  -8.907  12.340  1.00  0.00     0.091 A 
ATOM     65  F   UNL     1       6.084  -8.194  11.015  1.00  0.00    -0.205 F 
ATOM     66  C   UNL     1       9.331  -9.023  12.492  1.00  0.00     0.022 A 
BRANCH  64  67
ATOM     67  S   UNL     1       6.920  -9.447  13.717  1.00  0.00     0.127 S 
ATOM     68  O   UNL     1       7.239 -10.873  13.781  1.00  0.00    -0.237 OA
ATOM     69  O   UNL     1       7.453  -8.651  14.822  1.00  0.00    -0.237 OA
ATOM     70  O   UNL     1       5.544  -9.143  13.349  1.00  0.00    -0.744 OA
ENDBRANCH  64  67
ENDBRANCH  37  60
ENDBRANCH  11  12
ENDBRANCH   4   6
ENDBRANCH   1   2
BRANCH   1  71
ATOM     71  C   UNL     1       4.952   0.649  -2.403  1.00  0.00     0.042 C 
BRANCH  71  72
ATOM     72  C   UNL     1       4.271   1.506  -3.454  1.00  0.00     0.118 C 
BRANCH  72  73
ATOM     73  N   UNL     1       4.723   2.895  -3.460  1.00  0.00    -0.352 N 
ATOM     74  C   UNL     1       5.598   3.542  -4.300  1.00  0.00     0.258 C 
ATOM     75  H   UNL     1       4.338   3.457  -2.750  1.00  0.00     0.163 HD
ATOM     76  O   UNL     1       5.834   4.733  -4.138  1.00  0.00    -0.269 OA
BRANCH  74  77
ATOM     77  C   UNL     1       6.226   2.746  -5.370  1.00  0.00     0.121 A 
ATOM     78  C   UNL     1       5.440   2.124  -6.258  1.00  0.00     0.110 A 
ATOM     79  C   UNL     1       7.679   2.513  -5.434  1.00  0.00     0.266 A 
ATOM     80  N   UNL     1       5.905   1.097  -7.059  1.00  0.00    -0.299 N 
ATOM     81  N   UNL     1       8.066   1.492  -6.260  1.00  0.00    -0.273 N 
ATOM     82  O   UNL     1       8.495   3.137  -4.768  1.00  0.00    -0.268 OA
ATOM     83  C   UNL     1       7.239   0.699  -7.008  1.00  0.00     0.328 A 
ATOM     84  H   UNL     1       9.032   1.311  -6.322  1.00  0.00     0.175 HD
ATOM     85  O   UNL     1       7.680  -0.283  -7.598  1.00  0.00    -0.248 OA
BRANCH  80  86
ATOM     86  C   UNL     1       4.940   0.275  -7.785  1.00  0.00     0.131 C 
BRANCH  86  87
ATOM     87  C   UNL     1       4.766   0.562  -9.287  1.00  0.00     0.025 C 
ATOM     88  C   UNL     1       5.998   0.289 -10.162  1.00  0.00     0.022 C 
ATOM     89  C   UNL     1       4.309   1.985  -9.613  1.00  0.00     0.142 C 
ATOM     90  C   UNL     1       6.878   1.534 -10.198  1.00  0.00     0.137 C 
ATOM     91  S   UNL     1       5.774   2.919 -10.018  1.00  0.00     0.150 S 
ATOM     92  O   UNL     1       6.169   3.692  -8.857  1.00  0.00    -0.229 OA
ATOM     93  O   UNL     1       5.578   3.531 -11.314  1.00  0.00    -0.229 OA
ENDBRANCH  86  87
ENDBRANCH  80  86
ENDBRANCH  74  77
ENDBRANCH  72  73
ENDBRANCH  71  72
ENDBRANCH   1  71
TORSDOF 15
