REMARK SMILES Cc1ccc(NC(=O)C[C@@H](C(=O)NCCCNC(=O)c2ccc(-c3c4nc(c(-c5cccc(S(=O)(=O)[O-])c5F)c5ccc([nH]5)c(-c5cccc(S(=O)(=O)[O-])c5F)c5nc(c(-c6cccc(S(=O)(=O)[O-])c6F)c6ccc3[nH]6)C=C5)C=C4)cc2)[NH+]2CCOCC2)cc1
REMARK SMILES IDX 15 1 14 2 13 3 11 4 12 5 10 7 9 8 7 9 6 10 8 12 5 13 1 14
REMARK SMILES IDX 2 15 3 16 90 17 4 18 89 19 83 20 84 21 88 22 85 24 87 25
REMARK SMILES IDX 86 26 16 27 17 28 18 29 19 31 20 32 21 33 82 34 22 35 81 36
REMARK SMILES IDX 23 37 24 38 25 39 75 40 26 41 80 42 74 43 76 44 27 45 79 46
REMARK SMILES IDX 73 47 72 48 28 50 60 51 40 52 59 53 41 54 44 55 58 56 77 57
REMARK SMILES IDX 42 58 43 59 57 61 78 62 45 63 29 64 30 65 38 66 31 67 33 68
REMARK SMILES IDX 39 69 32 70 34 71 35 72 36 73 37 74 61 75 62 76 70 77 63 78
REMARK SMILES IDX 65 79 71 80 64 81 66 82 67 83 68 84 69 85 46 86 47 87 55 88
REMARK SMILES IDX 48 89 50 90 56 91 49 92 51 93 52 94 53 95 54 96
REMARK H PARENT 13 6 6 11 83 23 17 30 76 49 44 60
REMARK Flexibility Score: inf
ROOT
ATOM      1  C   UNL     1      -4.767   0.828  -1.279  1.00  0.00     0.042 C 
ENDROOT
BRANCH   1   2
ATOM      2  C   UNL     1      -3.999  -0.079  -2.237  1.00  0.00     0.118 C 
BRANCH   2   3
ATOM      3  N   UNL     1      -2.592  -0.225  -1.941  1.00  0.00    -0.351 N 
ATOM      4  C   UNL     1      -1.802  -1.318  -1.769  1.00  0.00     0.278 C 
ATOM      5  O   UNL     1      -0.593  -1.102  -1.914  1.00  0.00    -0.268 OA
ATOM      6  H   UNL     1      -2.115   0.630  -1.847  1.00  0.00     0.163 HD
BRANCH   4   7
ATOM      7  C   UNL     1      -2.368  -2.754  -1.493  1.00  0.00     0.283 C 
BRANCH   7   8
ATOM      8  C   UNL     1      -2.937  -2.969  -0.072  1.00  0.00     0.175 C 
BRANCH   8   9
ATOM      9  C   UNL     1      -3.457  -1.810   0.740  1.00  0.00     0.230 C 
ATOM     10  N   UNL     1      -2.645  -0.860   1.284  1.00  0.00    -0.326 N 
ATOM     11  H   UNL     1      -3.118  -0.171   1.803  1.00  0.00     0.169 HD
ATOM     12  O   UNL     1      -4.676  -1.718   0.929  1.00  0.00    -0.274 OA
BRANCH  10  13
ATOM     13  C   UNL     1      -1.251  -0.693   1.233  1.00  0.00     0.041 A 
ATOM     14  C   UNL     1       2.835   0.111   0.163  1.00  0.00     0.044 C 
ATOM     15  C   UNL     1       1.447  -0.151   0.662  1.00  0.00    -0.051 A 
ATOM     16  C   UNL     1       1.014  -1.463   0.867  1.00  0.00     0.005 A 
ATOM     17  C   UNL     1       0.544   0.895   0.855  1.00  0.00     0.005 A 
ATOM     18  C   UNL     1      -0.325  -1.730   1.164  1.00  0.00     0.026 A 
ATOM     19  C   UNL     1      -0.791   0.624   1.162  1.00  0.00     0.026 A 
ENDBRANCH  10  13
ENDBRANCH   8   9
ENDBRANCH   7   8
BRANCH   7  20
ATOM     20  N   UNL     1      -1.295  -3.755  -1.809  1.00  0.00    -0.320 N 
ATOM     21  C   UNL     1      -0.843  -3.750  -3.216  1.00  0.00     0.291 C 
ATOM     22  C   UNL     1      -1.392  -5.136  -1.323  1.00  0.00     0.291 C 
ATOM     23  H   UNL     1      -0.586  -3.350  -1.198  1.00  0.00     0.348 HD
ATOM     24  C   UNL     1      -1.600  -4.743  -4.108  1.00  0.00     0.221 C 
ATOM     25  C   UNL     1      -2.091  -6.117  -2.272  1.00  0.00     0.221 C 
ATOM     26  O   UNL     1      -1.531  -6.075  -3.588  1.00  0.00    -0.370 OA
ENDBRANCH   7  20
ENDBRANCH   4   7
ENDBRANCH   2   3
ENDBRANCH   1   2
BRANCH   1  27
ATOM     27  C   UNL     1      -4.082   2.136  -0.878  1.00  0.00     0.118 C 
BRANCH  27  28
ATOM     28  N   UNL     1      -5.027   3.245  -0.958  1.00  0.00    -0.352 N 
ATOM     29  C   UNL     1      -5.154   4.415  -0.229  1.00  0.00     0.251 C 
ATOM     30  H   UNL     1      -5.703   3.142  -1.666  1.00  0.00     0.163 HD
ATOM     31  O   UNL     1      -6.173   5.073  -0.316  1.00  0.00    -0.269 OA
BRANCH  29  32
ATOM     32  C   UNL     1      -3.971   4.926   0.496  1.00  0.00     0.039 A 
ATOM     33  C   UNL     1      -3.497   6.185   0.105  1.00  0.00     0.014 A 
ATOM     34  C   UNL     1      -3.196   4.091   1.286  1.00  0.00     0.014 A 
ATOM     35  C   UNL     1      -2.147   6.479   0.243  1.00  0.00     0.010 A 
ATOM     36  C   UNL     1      -1.847   4.351   1.367  1.00  0.00     0.010 A 
ATOM     37  C   UNL     1      -1.316   5.496   0.761  1.00  0.00    -0.014 A 
BRANCH  37  38
ATOM     38  C   UNL     1       0.132   5.562   0.773  1.00  0.00     0.031 A 
ATOM     39  C   UNL     1       0.802   6.149   1.941  1.00  0.00     0.074 A 
ATOM     40  C   UNL     1       0.829   4.886  -0.165  1.00  0.00     0.049 A 
ATOM     41  N   UNL     1       2.054   6.434   1.991  1.00  0.00    -0.248 NA
ATOM     42  C   UNL     1       0.074   6.490   3.155  1.00  0.00     0.031 C 
ATOM     43  C   UNL     1       2.220   4.458  -0.088  1.00  0.00     0.029 A 
ATOM     44  N   UNL     1       0.458   4.603  -1.482  1.00  0.00    -0.354 N 
ATOM     45  C   UNL     1       2.359   6.709   3.305  1.00  0.00     0.074 A 
ATOM     46  C   UNL     1       1.079   6.846   3.956  1.00  0.00     0.031 C 
ATOM     47  C   UNL     1       2.670   4.233  -1.331  1.00  0.00     0.029 A 
ATOM     48  C   UNL     1       1.639   4.686  -2.246  1.00  0.00     0.049 A 
ATOM     49  H   UNL     1      -0.446   4.390  -1.810  1.00  0.00     0.167 HD
ATOM     50  C   UNL     1       3.664   6.636   3.694  1.00  0.00     0.034 A 
ATOM     51  C   UNL     1       1.818   5.606  -3.240  1.00  0.00     0.034 A 
ATOM     52  C   UNL     1       4.544   6.466   2.521  1.00  0.00     0.049 A 
ATOM     53  C   UNL     1       2.936   6.600  -2.942  1.00  0.00     0.074 A 
ATOM     54  C   UNL     1       5.189   5.395   1.924  1.00  0.00     0.029 A 
ATOM     55  N   UNL     1       4.610   7.501   1.605  1.00  0.00    -0.354 N 
ATOM     56  N   UNL     1       3.738   6.538  -1.913  1.00  0.00    -0.248 NA
ATOM     57  C   UNL     1       3.170   7.801  -3.746  1.00  0.00     0.031 C 
ATOM     58  C   UNL     1       5.565   5.788   0.601  1.00  0.00     0.029 A 
ATOM     59  C   UNL     1       5.182   7.106   0.408  1.00  0.00     0.049 A 
ATOM     60  H   UNL     1       4.286   8.413   1.783  1.00  0.00     0.167 HD
ATOM     61  C   UNL     1       4.431   7.717  -1.801  1.00  0.00     0.074 A 
ATOM     62  C   UNL     1       4.079   8.455  -3.003  1.00  0.00     0.031 C 
ATOM     63  C   UNL     1       5.189   8.048  -0.709  1.00  0.00     0.034 A 
BRANCH  50  64
ATOM     64  C   UNL     1       4.164   6.488   5.124  1.00  0.00     0.023 A 
ATOM     65  C   UNL     1       5.507   6.077   5.289  1.00  0.00     0.012 A 
ATOM     66  C   UNL     1       3.423   6.640   6.321  1.00  0.00     0.148 A 
ATOM     67  C   UNL     1       6.054   5.761   6.538  1.00  0.00     0.002 A 
ATOM     68  C   UNL     1       3.953   6.289   7.567  1.00  0.00     0.091 A 
ATOM     69  F   UNL     1       2.207   7.176   6.296  1.00  0.00    -0.205 F 
ATOM     70  C   UNL     1       5.269   5.843   7.677  1.00  0.00     0.022 A 
BRANCH  68  71
ATOM     71  S   UNL     1       2.979   6.333   9.085  1.00  0.00     0.127 S 
ATOM     72  O   UNL     1       3.089   4.951   9.556  1.00  0.00    -0.237 OA
ATOM     73  O   UNL     1       3.706   7.309   9.895  1.00  0.00    -0.237 OA
ATOM     74  O   UNL     1       1.629   6.729   8.703  1.00  0.00    -0.744 OA
ENDBRANCH  68  71
ENDBRANCH  50  64
BRANCH  51  75
ATOM     75  C   UNL     1       0.556   5.909  -3.979  1.00  0.00     0.023 A 
ATOM     76  C   UNL     1      -0.013   4.845  -4.720  1.00  0.00     0.012 A 
ATOM     77  C   UNL     1      -0.252   7.004  -3.629  1.00  0.00     0.148 A 
ATOM     78  C   UNL     1      -1.385   4.803  -4.974  1.00  0.00     0.002 A 
ATOM     79  C   UNL     1      -1.620   6.952  -3.883  1.00  0.00     0.091 A 
ATOM     80  F   UNL     1       0.304   8.025  -2.966  1.00  0.00    -0.205 F 
ATOM     81  C   UNL     1      -2.192   5.838  -4.519  1.00  0.00     0.022 A 
BRANCH  79  82
ATOM     82  S   UNL     1      -2.747   8.212  -3.274  1.00  0.00     0.127 S 
ATOM     83  O   UNL     1      -2.979   9.003  -4.478  1.00  0.00    -0.237 OA
ATOM     84  O   UNL     1      -3.888   7.411  -2.835  1.00  0.00    -0.237 OA
ATOM     85  O   UNL     1      -2.027   8.875  -2.197  1.00  0.00    -0.744 OA
ENDBRANCH  79  82
ENDBRANCH  51  75
BRANCH  63  86
ATOM     86  C   UNL     1       6.015   9.319  -0.629  1.00  0.00     0.023 A 
ATOM     87  C   UNL     1       6.737   9.765  -1.755  1.00  0.00     0.012 A 
ATOM     88  C   UNL     1       6.232  10.015   0.586  1.00  0.00     0.148 A 
ATOM     89  C   UNL     1       7.592  10.872  -1.691  1.00  0.00     0.002 A 
ATOM     90  C   UNL     1       7.171  11.039   0.671  1.00  0.00     0.091 A 
ATOM     91  F   UNL     1       5.489   9.730   1.661  1.00  0.00    -0.205 F 
ATOM     92  C   UNL     1       7.830  11.493  -0.472  1.00  0.00     0.022 A 
BRANCH  90  93
ATOM     93  S   UNL     1       7.694  11.729   2.250  1.00  0.00     0.127 S 
ATOM     94  O   UNL     1       9.153  11.664   2.135  1.00  0.00    -0.237 OA
ATOM     95  O   UNL     1       7.138  13.079   2.187  1.00  0.00    -0.237 OA
ATOM     96  O   UNL     1       7.135  10.856   3.271  1.00  0.00    -0.744 OA
ENDBRANCH  90  93
ENDBRANCH  63  86
ENDBRANCH  37  38
ENDBRANCH  29  32
ENDBRANCH  27  28
ENDBRANCH   1  27
TORSDOF 17
