REMARK SMILES CC1(C)[C@H](O)CC[C@@]2(C)[C@@H]1CC[C@@]1(C)Oc3oc(C(=O)NCCCNC(=O)c4ccc(-c5c6nc(c(-c7cccc(S(=O)(=O)[O-])c7F)c7ccc([nH]7)c(-c7cccc(S(=O)(=O)[O-])c7F)c7nc(c(-c8cccc(S(=O)(=O)[O-])c8F)c8ccc5[nH]8)C=C7)C=C6)cc4)cc(=O)c3C[C@@H]21
REMARK SMILES IDX 24 1 23 2 22 3 21 4 19 5 20 6 18 8 1 9 2 10 4 11 10 12 3 13
REMARK SMILES IDX 6 14 8 15 11 16 7 17 96 18 9 19 12 20 13 21 95 22 15 23
REMARK SMILES IDX 14 24 94 25 16 26 92 27 17 28 91 29 93 30 5 31 25 33 26 34
REMARK SMILES IDX 27 36 28 37 29 38 90 39 30 40 89 41 31 42 32 43 33 44 83 45
REMARK SMILES IDX 34 46 88 47 82 48 84 49 35 50 87 51 81 52 80 53 36 55 68 56
REMARK SMILES IDX 48 57 67 58 49 59 52 60 66 61 85 62 50 63 51 64 65 66 86 67
REMARK SMILES IDX 53 68 37 69 38 70 46 71 39 72 41 73 47 74 40 75 42 76 43 77
REMARK SMILES IDX 44 78 45 79 69 80 70 81 78 82 71 83 73 84 79 85 72 86 74 87
REMARK SMILES IDX 75 88 76 89 77 90 54 91 55 92 63 93 56 94 58 95 64 96 57 97
REMARK SMILES IDX 59 98 60 99 61 100 62 101
REMARK H PARENT 21 7 5 32 25 35 84 54 52 65
REMARK Flexibility Score: inf
ROOT
ATOM      1  C   UNL     1      -2.864  12.652   7.472  1.00  0.00     0.118 C 
ENDROOT
BRANCH   1   2
ATOM      2  C   UNL     1      -2.719  11.354   6.686  1.00  0.00     0.042 C 
BRANCH   2   3
ATOM      3  C   UNL     1      -1.401  11.197   5.935  1.00  0.00     0.118 C 
BRANCH   3   4
ATOM      4  N   UNL     1      -0.239  11.060   6.813  1.00  0.00    -0.349 N 
ATOM      5  C   UNL     1       0.789  10.152   6.830  1.00  0.00     0.287 C 
ATOM      6  O   UNL     1       1.615  10.212   7.739  1.00  0.00    -0.266 OA
ATOM      7  H   UNL     1      -0.186  11.742   7.520  1.00  0.00     0.163 HD
BRANCH   5   8
ATOM      8  C   UNL     1       0.908   9.105   5.771  1.00  0.00     0.199 A 
ATOM      9  C   UNL     1       1.391   0.094   1.476  1.00  0.00     0.014 C 
ATOM     10  C   UNL     1       0.921   1.554   1.257  1.00  0.00    -0.006 C 
ATOM     11  C   UNL     1      -0.564   1.505   0.791  1.00  0.00     0.120 C 
ATOM     12  C   UNL     1       1.032   2.376   2.636  1.00  0.00     0.004 C 
ATOM     13  C   UNL     1       1.807   2.131   0.124  1.00  0.00     0.014 C 
ATOM     14  C   UNL     1      -1.127   2.889   0.504  1.00  0.00     0.033 C 
ATOM     15  C   UNL     1      -0.119   3.445   2.838  1.00  0.00    -0.022 C 
ATOM     16  C   UNL     1       2.469   2.862   2.971  1.00  0.00     0.009 C 
ATOM     17  C   UNL     1      -0.607   3.956   1.454  1.00  0.00     0.010 C 
ATOM     18  C   UNL     1       0.285   4.665   3.751  1.00  0.00     0.044 C 
ATOM     19  C   UNL     1      -1.342   2.749   3.542  1.00  0.00     0.012 C 
ATOM     20  C   UNL     1       2.658   3.915   4.085  1.00  0.00     0.049 C 
ATOM     21  C   UNL     1       1.375   4.366   4.806  1.00  0.00     0.113 C 
ATOM     22  C   UNL     1       0.705   5.932   2.970  1.00  0.00     0.055 C 
ATOM     23  O   UNL     1       1.645   5.530   5.646  1.00  0.00    -0.458 OA
ATOM     24  C   UNL     1       0.974   3.293   5.833  1.00  0.00     0.057 C 
ATOM     25  C   UNL     1       0.977   7.032   3.928  1.00  0.00     0.081 A 
ATOM     26  C   UNL     1       1.328   6.804   5.200  1.00  0.00     0.292 A 
ATOM     27  C   UNL     1       0.720   8.412   3.477  1.00  0.00     0.192 A 
ATOM     28  O   UNL     1       1.339   7.832   6.145  1.00  0.00    -0.420 OA
ATOM     29  C   UNL     1       0.718   9.459   4.496  1.00  0.00     0.105 A 
ATOM     30  O   UNL     1       0.478   8.690   2.309  1.00  0.00    -0.289 OA
BRANCH  11  31
ATOM     31  O   UNL     1      -0.737   0.706  -0.379  1.00  0.00    -0.393 OA
ATOM     32  H   UNL     1      -0.253   1.106  -1.119  1.00  0.00     0.210 HD
ENDBRANCH  11  31
ENDBRANCH   5   8
ENDBRANCH   3   4
ENDBRANCH   2   3
ENDBRANCH   1   2
BRANCH   1  33
ATOM     33  N   UNL     1      -3.040  13.822   6.621  1.00  0.00    -0.352 N 
ATOM     34  C   UNL     1      -4.138  14.639   6.457  1.00  0.00     0.251 C 
ATOM     35  H   UNL     1      -2.255  14.066   6.081  1.00  0.00     0.163 HD
ATOM     36  O   UNL     1      -4.133  15.494   5.582  1.00  0.00    -0.269 OA
BRANCH  34  37
ATOM     37  C   UNL     1      -5.333  14.467   7.316  1.00  0.00     0.039 A 
ATOM     38  C   UNL     1      -6.597  14.435   6.719  1.00  0.00     0.014 A 
ATOM     39  C   UNL     1      -5.211  14.351   8.703  1.00  0.00     0.014 A 
ATOM     40  C   UNL     1      -7.731  14.211   7.505  1.00  0.00     0.010 A 
ATOM     41  C   UNL     1      -6.333  14.062   9.476  1.00  0.00     0.010 A 
ATOM     42  C   UNL     1      -7.604  13.993   8.886  1.00  0.00    -0.014 A 
BRANCH  42  43
ATOM     43  C   UNL     1      -8.787  13.715   9.737  1.00  0.00     0.031 A 
ATOM     44  C   UNL     1      -9.219  14.719  10.770  1.00  0.00     0.074 A 
ATOM     45  C   UNL     1      -9.434  12.537   9.627  1.00  0.00     0.049 A 
ATOM     46  N   UNL     1     -10.188  14.633  11.643  1.00  0.00    -0.248 NA
ATOM     47  C   UNL     1      -8.455  15.976  10.841  1.00  0.00     0.031 C 
ATOM     48  C   UNL     1      -9.086  11.463   8.695  1.00  0.00     0.029 A 
ATOM     49  N   UNL     1     -10.509  12.039  10.322  1.00  0.00    -0.354 N 
ATOM     50  C   UNL     1     -10.138  15.810  12.378  1.00  0.00     0.074 A 
ATOM     51  C   UNL     1      -9.027  16.584  11.871  1.00  0.00     0.031 C 
ATOM     52  C   UNL     1      -9.935  10.437   8.871  1.00  0.00     0.029 A 
ATOM     53  C   UNL     1     -10.871  10.768   9.943  1.00  0.00     0.049 A 
ATOM     54  H   UNL     1     -10.977  12.545  11.024  1.00  0.00     0.167 HD
ATOM     55  C   UNL     1     -10.965  16.226  13.365  1.00  0.00     0.034 A 
ATOM     56  C   UNL     1     -11.844   9.958  10.406  1.00  0.00     0.034 A 
ATOM     57  C   UNL     1     -12.093  15.478  13.843  1.00  0.00     0.049 A 
ATOM     58  C   UNL     1     -12.749  10.444  11.505  1.00  0.00     0.074 A 
ATOM     59  C   UNL     1     -13.021  15.849  14.801  1.00  0.00     0.029 A 
ATOM     60  N   UNL     1     -12.450  14.214  13.405  1.00  0.00    -0.354 N 
ATOM     61  N   UNL     1     -12.750  11.604  12.115  1.00  0.00    -0.248 NA
ATOM     62  C   UNL     1     -13.803   9.525  11.961  1.00  0.00     0.031 C 
ATOM     63  C   UNL     1     -13.933  14.802  14.951  1.00  0.00     0.029 A 
ATOM     64  C   UNL     1     -13.582  13.788  14.073  1.00  0.00     0.049 A 
ATOM     65  H   UNL     1     -11.969  13.696  12.719  1.00  0.00     0.167 HD
ATOM     66  C   UNL     1     -13.818  11.567  13.004  1.00  0.00     0.074 A 
ATOM     67  C   UNL     1     -14.448  10.272  12.849  1.00  0.00     0.031 C 
ATOM     68  C   UNL     1     -14.230  12.518  13.875  1.00  0.00     0.034 A 
BRANCH  55  69
ATOM     69  C   UNL     1     -10.730  17.587  13.956  1.00  0.00     0.023 A 
ATOM     70  C   UNL     1     -11.147  18.724  13.237  1.00  0.00     0.012 A 
ATOM     71  C   UNL     1     -10.204  17.735  15.253  1.00  0.00     0.148 A 
ATOM     72  C   UNL     1     -11.039  19.994  13.799  1.00  0.00     0.002 A 
ATOM     73  C   UNL     1     -10.128  19.001  15.819  1.00  0.00     0.091 A 
ATOM     74  F   UNL     1      -9.804  16.636  15.908  1.00  0.00    -0.205 F 
ATOM     75  C   UNL     1     -10.541  20.131  15.093  1.00  0.00     0.022 A 
BRANCH  73  76
ATOM     76  S   UNL     1      -9.551  19.286  17.495  1.00  0.00     0.127 S 
ATOM     77  O   UNL     1      -8.360  20.103  17.262  1.00  0.00    -0.237 OA
ATOM     78  O   UNL     1     -10.678  20.006  18.088  1.00  0.00    -0.237 OA
ATOM     79  O   UNL     1      -9.293  17.971  18.064  1.00  0.00    -0.744 OA
ENDBRANCH  73  76
ENDBRANCH  55  69
BRANCH  56  80
ATOM     80  C   UNL     1     -12.057   8.628   9.772  1.00  0.00     0.023 A 
ATOM     81  C   UNL     1     -13.148   8.454   8.900  1.00  0.00     0.012 A 
ATOM     82  C   UNL     1     -11.162   7.561   9.982  1.00  0.00     0.148 A 
ATOM     83  C   UNL     1     -13.353   7.235   8.254  1.00  0.00     0.002 A 
ATOM     84  C   UNL     1     -11.352   6.361   9.308  1.00  0.00     0.091 A 
ATOM     85  F   UNL     1     -10.132   7.754  10.817  1.00  0.00    -0.205 F 
ATOM     86  C   UNL     1     -12.452   6.192   8.451  1.00  0.00     0.022 A 
BRANCH  84  87
ATOM     87  S   UNL     1     -10.198   4.988   9.422  1.00  0.00     0.127 S 
ATOM     88  O   UNL     1     -11.035   3.942  10.006  1.00  0.00    -0.237 OA
ATOM     89  O   UNL     1      -9.842   4.781   8.019  1.00  0.00    -0.237 OA
ATOM     90  O   UNL     1      -9.106   5.455  10.264  1.00  0.00    -0.744 OA
ENDBRANCH  84  87
ENDBRANCH  56  80
BRANCH  68  91
ATOM     91  C   UNL     1     -15.434  12.231  14.729  1.00  0.00     0.023 A 
ATOM     92  C   UNL     1     -15.295  11.418  15.870  1.00  0.00     0.012 A 
ATOM     93  C   UNL     1     -16.658  12.884  14.482  1.00  0.00     0.148 A 
ATOM     94  C   UNL     1     -16.362  11.254  16.753  1.00  0.00     0.002 A 
ATOM     95  C   UNL     1     -17.705  12.744  15.384  1.00  0.00     0.091 A 
ATOM     96  F   UNL     1     -16.762  13.649  13.386  1.00  0.00    -0.205 F 
ATOM     97  C   UNL     1     -17.560  11.926  16.517  1.00  0.00     0.022 A 
BRANCH  95  98
ATOM     98  S   UNL     1     -19.260  13.626  15.210  1.00  0.00     0.127 S 
ATOM     99  O   UNL     1     -20.199  12.530  14.976  1.00  0.00    -0.237 OA
ATOM    100  O   UNL     1     -19.393  14.276  16.514  1.00  0.00    -0.237 OA
ATOM    101  O   UNL     1     -19.084  14.539  14.088  1.00  0.00    -0.744 OA
ENDBRANCH  95  98
ENDBRANCH  68  91
ENDBRANCH  42  43
ENDBRANCH  34  37
ENDBRANCH   1  33
TORSDOF 14
