REMARK SMILES CC[NH2+][C@@]1(C(=O)NCCCNC(=O)c2ccc(-c3c4nc(c(-c5cccc(S(=O)(=O)[O-])c5F)c5ccc([nH]5)c(-c5cccc(S(=O)(=O)[O-])c5F)c5nc(c(-c6cccc(S(=O)(=O)[O-])c6F)c6ccc3[nH]6)C=C5)C=C4)cc2)CC[C@H]([NH+]2CCS(=O)(=O)CC2)C1
REMARK SMILES IDX 9 1 8 2 7 3 5 4 6 5 4 7 77 8 88 9 78 10 79 11 3 12 2 15 1 16
REMARK SMILES IDX 80 17 81 18 87 19 82 21 86 22 83 23 84 24 85 25 10 26 11 27
REMARK SMILES IDX 12 28 13 30 14 31 15 32 76 33 16 34 75 35 17 36 18 37 19 38
REMARK SMILES IDX 69 39 20 40 74 41 68 42 70 43 21 44 73 45 67 46 66 47 22 49
REMARK SMILES IDX 54 50 34 51 53 52 35 53 38 54 52 55 71 56 36 57 37 58 51 60
REMARK SMILES IDX 72 61 39 62 23 63 24 64 32 65 25 66 27 67 33 68 26 69 28 70
REMARK SMILES IDX 29 71 30 72 31 73 55 74 56 75 64 76 57 77 59 78 65 79 58 80
REMARK SMILES IDX 60 81 61 82 62 83 63 84 40 85 41 86 49 87 42 88 44 89 50 90
REMARK SMILES IDX 43 91 45 92 46 93 47 94 48 95
REMARK H PARENT 7 6 3 13 3 14 80 20 11 29 70 48 38 59
REMARK Flexibility Score: inf
ROOT
ATOM      1  C   UNL     1       1.389  -4.719   6.572  1.00  0.00     0.042 C 
ENDROOT
BRANCH   1   2
ATOM      2  C   UNL     1       0.726  -3.375   6.220  1.00  0.00     0.118 C 
BRANCH   2   3
ATOM      3  N   UNL     1       1.229  -2.828   4.926  1.00  0.00    -0.351 N 
ATOM      4  C   UNL     1       0.388  -2.188   4.023  1.00  0.00     0.281 C 
ATOM      5  O   UNL     1      -0.378  -1.320   4.456  1.00  0.00    -0.268 OA
ATOM      6  H   UNL     1       2.184  -2.924   4.706  1.00  0.00     0.163 HD
BRANCH   4   7
ATOM      7  C   UNL     1       0.468  -2.524   2.422  1.00  0.00     0.181 C 
ATOM      8  C   UNL     1      -0.994  -2.682   1.894  1.00  0.00     0.085 C 
ATOM      9  C   UNL     1       1.120  -3.885   2.023  1.00  0.00     0.144 C 
ATOM     10  C   UNL     1      -1.129  -4.048   1.205  1.00  0.00     0.072 C 
ATOM     11  C   UNL     1      -0.006  -4.938   1.721  1.00  0.00     0.191 C 
BRANCH   7  12
ATOM     12  N   UNL     1       1.201  -1.362   1.828  1.00  0.00    -0.334 N 
ATOM     13  H   UNL     1       1.061  -0.566   2.450  1.00  0.00     0.347 HD
ATOM     14  H   UNL     1       2.163  -1.688   1.736  1.00  0.00     0.347 HD
BRANCH  12  15
ATOM     15  C   UNL     1       0.828  -0.933   0.479  1.00  0.00     0.257 C 
ATOM     16  C   UNL     1       1.601   0.309   0.057  1.00  0.00     0.071 C 
ENDBRANCH  12  15
ENDBRANCH   7  12
BRANCH  11  17
ATOM     17  N   UNL     1      -0.349  -5.871   2.799  1.00  0.00    -0.331 N 
ATOM     18  C   UNL     1      -1.105  -7.093   2.545  1.00  0.00     0.278 C 
ATOM     19  C   UNL     1      -0.653  -5.349   4.102  1.00  0.00     0.278 C 
ATOM     20  H   UNL     1       0.620  -6.188   2.804  1.00  0.00     0.348 HD
ATOM     21  C   UNL     1      -2.619  -7.053   2.755  1.00  0.00     0.198 C 
ATOM     22  C   UNL     1      -2.046  -4.820   4.284  1.00  0.00     0.198 C 
ATOM     23  S   UNL     1      -3.158  -6.168   4.202  1.00  0.00     0.161 S 
ATOM     24  O   UNL     1      -4.474  -5.606   3.918  1.00  0.00    -0.228 OA
ATOM     25  O   UNL     1      -2.941  -6.982   5.372  1.00  0.00    -0.228 OA
ENDBRANCH  11  17
ENDBRANCH   4   7
ENDBRANCH   2   3
ENDBRANCH   1   2
BRANCH   1  26
ATOM     26  C   UNL     1       0.894  -5.460   7.823  1.00  0.00     0.118 C 
BRANCH  26  27
ATOM     27  N   UNL     1      -0.506  -5.875   7.909  1.00  0.00    -0.352 N 
ATOM     28  C   UNL     1      -1.057  -6.991   8.536  1.00  0.00     0.251 C 
ATOM     29  H   UNL     1      -1.151  -5.282   7.459  1.00  0.00     0.163 HD
ATOM     30  O   UNL     1      -2.276  -7.083   8.665  1.00  0.00    -0.269 OA
BRANCH  28  31
ATOM     31  C   UNL     1      -0.196  -8.092   9.040  1.00  0.00     0.039 A 
ATOM     32  C   UNL     1      -0.561  -9.429   8.833  1.00  0.00     0.014 A 
ATOM     33  C   UNL     1       1.000  -7.807   9.686  1.00  0.00     0.014 A 
ATOM     34  C   UNL     1       0.328 -10.459   9.175  1.00  0.00     0.010 A 
ATOM     35  C   UNL     1       1.943  -8.807   9.864  1.00  0.00     0.010 A 
ATOM     36  C   UNL     1       1.616 -10.152   9.641  1.00  0.00    -0.014 A 
BRANCH  36  37
ATOM     37  C   UNL     1       2.641 -11.189   9.945  1.00  0.00     0.031 A 
ATOM     38  C   UNL     1       3.312 -11.195  11.299  1.00  0.00     0.074 A 
ATOM     39  C   UNL     1       3.066 -12.027   8.977  1.00  0.00     0.049 A 
ATOM     40  N   UNL     1       4.336 -11.894  11.715  1.00  0.00    -0.248 NA
ATOM     41  C   UNL     1       2.809 -10.234  12.298  1.00  0.00     0.031 C 
ATOM     42  C   UNL     1       2.581 -12.044   7.594  1.00  0.00     0.029 A 
ATOM     43  N   UNL     1       4.025 -13.009   8.998  1.00  0.00    -0.354 N 
ATOM     44  C   UNL     1       4.633 -11.409  12.985  1.00  0.00     0.074 A 
ATOM     45  C   UNL     1       3.738 -10.306  13.237  1.00  0.00     0.031 C 
ATOM     46  C   UNL     1       3.225 -13.002   6.910  1.00  0.00     0.029 A 
ATOM     47  C   UNL     1       4.197 -13.642   7.788  1.00  0.00     0.049 A 
ATOM     48  H   UNL     1       4.542 -13.239   9.804  1.00  0.00     0.167 HD
ATOM     49  C   UNL     1       5.531 -11.871  13.887  1.00  0.00     0.034 A 
ATOM     50  C   UNL     1       5.048 -14.623   7.428  1.00  0.00     0.034 A 
ATOM     51  C   UNL     1       6.357 -13.022  13.654  1.00  0.00     0.049 A 
ATOM     52  C   UNL     1       5.975 -15.187   8.469  1.00  0.00     0.074 A 
ATOM     53  C   UNL     1       7.221 -13.656  14.527  1.00  0.00     0.029 A 
ATOM     54  N   UNL     1       6.413 -13.717  12.455  1.00  0.00    -0.354 N 
ATOM     55  N   UNL     1       6.136 -14.814   9.717  1.00  0.00    -0.248 NA
ATOM     56  C   UNL     1       6.807 -16.330   8.071  1.00  0.00     0.031 C 
ATOM     57  C   UNL     1       7.821 -14.720  13.844  1.00  0.00     0.029 A 
ATOM     58  C   UNL     1       7.302 -14.770  12.559  1.00  0.00     0.049 A 
ATOM     59  H   UNL     1       5.895 -13.493  11.648  1.00  0.00     0.167 HD
ATOM     60  C   UNL     1       7.066 -15.690  10.261  1.00  0.00     0.074 A 
ATOM     61  C   UNL     1       7.412 -16.631   9.213  1.00  0.00     0.031 C 
ATOM     62  C   UNL     1       7.599 -15.711  11.509  1.00  0.00     0.034 A 
BRANCH  49  63
ATOM     63  C   UNL     1       5.611 -11.165  15.220  1.00  0.00     0.023 A 
ATOM     64  C   UNL     1       4.511 -11.209  16.105  1.00  0.00     0.012 A 
ATOM     65  C   UNL     1       6.771 -10.465  15.604  1.00  0.00     0.148 A 
ATOM     66  C   UNL     1       4.539 -10.518  17.316  1.00  0.00     0.002 A 
ATOM     67  C   UNL     1       6.814  -9.827  16.839  1.00  0.00     0.091 A 
ATOM     68  F   UNL     1       7.801 -10.415  14.748  1.00  0.00    -0.205 F 
ATOM     69  C   UNL     1       5.693  -9.835  17.686  1.00  0.00     0.022 A 
BRANCH  67  70
ATOM     70  S   UNL     1       8.282  -8.993  17.451  1.00  0.00     0.127 S 
ATOM     71  O   UNL     1       7.863  -7.592  17.412  1.00  0.00    -0.237 OA
ATOM     72  O   UNL     1       8.413  -9.553  18.796  1.00  0.00    -0.237 OA
ATOM     73  O   UNL     1       9.357  -9.348  16.537  1.00  0.00    -0.744 OA
ENDBRANCH  67  70
ENDBRANCH  49  63
BRANCH  50  74
ATOM     74  C   UNL     1       5.001 -15.176   6.043  1.00  0.00     0.023 A 
ATOM     75  C   UNL     1       4.484 -16.469   5.827  1.00  0.00     0.012 A 
ATOM     76  C   UNL     1       5.406 -14.408   4.934  1.00  0.00     0.148 A 
ATOM     77  C   UNL     1       4.396 -16.996   4.537  1.00  0.00     0.002 A 
ATOM     78  C   UNL     1       5.262 -14.916   3.647  1.00  0.00     0.091 A 
ATOM     79  F   UNL     1       5.901 -13.183   5.159  1.00  0.00    -0.205 F 
ATOM     80  C   UNL     1       4.773 -16.216   3.447  1.00  0.00     0.022 A 
BRANCH  78  81
ATOM     81  S   UNL     1       5.589 -13.934   2.178  1.00  0.00     0.127 S 
ATOM     82  O   UNL     1       6.753 -14.614   1.616  1.00  0.00    -0.237 OA
ATOM     83  O   UNL     1       4.349 -14.106   1.420  1.00  0.00    -0.237 OA
ATOM     84  O   UNL     1       5.820 -12.576   2.653  1.00  0.00    -0.744 OA
ENDBRANCH  78  81
ENDBRANCH  50  74
BRANCH  62  85
ATOM     85  C   UNL     1       8.588 -16.801  11.820  1.00  0.00     0.023 A 
ATOM     86  C   UNL     1       9.878 -16.762  11.254  1.00  0.00     0.012 A 
ATOM     87  C   UNL     1       8.260 -17.822  12.733  1.00  0.00     0.148 A 
ATOM     88  C   UNL     1      10.814 -17.747  11.564  1.00  0.00     0.002 A 
ATOM     89  C   UNL     1       9.216 -18.766  13.080  1.00  0.00     0.091 A 
ATOM     90  F   UNL     1       7.022 -17.846  13.247  1.00  0.00    -0.205 F 
ATOM     91  C   UNL     1      10.488 -18.740  12.485  1.00  0.00     0.022 A 
BRANCH  89  92
ATOM     92  S   UNL     1       8.921 -20.017  14.334  1.00  0.00     0.127 S 
ATOM     93  O   UNL     1       8.841 -21.233  13.527  1.00  0.00    -0.237 OA
ATOM     94  O   UNL     1      10.121 -19.912  15.163  1.00  0.00    -0.237 OA
ATOM     95  O   UNL     1       7.687 -19.631  15.005  1.00  0.00    -0.744 OA
ENDBRANCH  89  92
ENDBRANCH  62  85
ENDBRANCH  36  37
ENDBRANCH  28  31
ENDBRANCH  26  27
ENDBRANCH   1  26
TORSDOF 16
