REMARK SMILES COc1cccc(NC(=O)COc2csc(C(=O)NCCCNC(=O)c3ccc(-c4c5nc(c(-c6cccc(S(=O)(=O)[O-])c6F)c6ccc([nH]6)c(-c6cccc(S(=O)(=O)[O-])c6F)c6nc(c(-c7cccc(S(=O)(=O)[O-])c7F)c7ccc4[nH]7)C=C6)C=C5)cc3)c2)c1
REMARK SMILES IDX 20 1 19 2 17 3 18 4 16 6 13 7 14 8 89 9 15 10 12 11 11 12
REMARK SMILES IDX 9 13 8 14 10 16 7 17 3 18 4 19 90 20 5 21 6 22 2 23 1 24
REMARK SMILES IDX 21 25 22 26 23 27 24 28 25 30 26 31 27 32 88 33 28 34 87 35
REMARK SMILES IDX 29 36 30 37 31 38 81 39 32 40 86 41 80 42 82 43 33 44 85 45
REMARK SMILES IDX 79 46 78 47 34 49 66 50 46 51 65 52 47 53 50 54 64 55 83 56
REMARK SMILES IDX 48 57 49 58 63 60 84 61 51 62 35 63 36 64 44 65 37 66 39 67
REMARK SMILES IDX 45 68 38 69 40 70 41 71 42 72 43 73 67 74 68 75 76 76 69 77
REMARK SMILES IDX 71 78 77 79 70 80 72 81 73 82 74 83 75 84 52 85 53 86 61 87
REMARK SMILES IDX 54 88 56 89 62 90 55 91 57 92 58 93 59 94 60 95
REMARK H PARENT 19 5 8 15 23 29 82 48 50 59
REMARK Flexibility Score: inf
ROOT
ATOM      1  C   UNL     1       1.979  -0.867  10.520  1.00  0.00     0.118 C 
ENDROOT
BRANCH   1   2
ATOM      2  N   UNL     1       3.300  -0.322  10.765  1.00  0.00    -0.351 N 
ATOM      3  C   UNL     1       4.433  -0.296   9.982  1.00  0.00     0.261 C 
ATOM      4  O   UNL     1       5.365   0.378  10.427  1.00  0.00    -0.268 OA
ATOM      5  H   UNL     1       3.406   0.104  11.646  1.00  0.00     0.163 HD
BRANCH   3   6
ATOM      6  C   UNL     1       4.486  -1.001   8.708  1.00  0.00     0.096 A 
ATOM      7  C   UNL     1       4.085  -2.396   6.870  1.00  0.00     0.131 A 
ATOM      8  C   UNL     1       5.101  -1.616   6.376  1.00  0.00     0.112 A 
ATOM      9  C   UNL     1       3.767  -2.072   8.215  1.00  0.00     0.072 A 
ATOM     10  S   UNL     1       5.652  -0.489   7.543  1.00  0.00    -0.135 S 
BRANCH   7  11
ATOM     11  O   UNL     1       3.352  -3.302   6.185  1.00  0.00    -0.483 OA
BRANCH  11  12
ATOM     12  C   UNL     1       4.074  -4.187   5.354  1.00  0.00     0.329 C 
BRANCH  12  13
ATOM     13  C   UNL     1       4.535  -3.695   3.985  1.00  0.00     0.262 C 
ATOM     14  N   UNL     1       3.755  -2.974   3.132  1.00  0.00    -0.323 N 
ATOM     15  H   UNL     1       4.240  -2.695   2.322  1.00  0.00     0.170 HD
ATOM     16  O   UNL     1       5.688  -3.936   3.603  1.00  0.00    -0.271 OA
BRANCH  14  17
ATOM     17  C   UNL     1       2.420  -2.535   3.137  1.00  0.00     0.044 A 
ATOM     18  C   UNL     1       0.807  -1.016   2.111  1.00  0.00     0.120 A 
ATOM     19  C   UNL     1      -0.163  -1.438   3.014  1.00  0.00     0.046 A 
ATOM     20  C   UNL     1       2.094  -1.557   2.181  1.00  0.00     0.072 A 
ATOM     21  C   UNL     1       0.135  -2.439   3.936  1.00  0.00     0.006 A 
ATOM     22  C   UNL     1       1.417  -2.997   3.985  1.00  0.00     0.026 A 
BRANCH  18  23
ATOM     23  O   UNL     1       0.419  -0.038   1.236  1.00  0.00    -0.497 OA
ATOM     24  C   UNL     1       1.036  -0.098  -0.045  1.00  0.00     0.278 C 
ENDBRANCH  18  23
ENDBRANCH  14  17
ENDBRANCH  12  13
ENDBRANCH  11  12
ENDBRANCH   7  11
ENDBRANCH   3   6
ENDBRANCH   1   2
BRANCH   1  25
ATOM     25  C   UNL     1       1.787  -2.231  11.182  1.00  0.00     0.042 C 
BRANCH  25  26
ATOM     26  C   UNL     1       1.596  -2.159  12.694  1.00  0.00     0.118 C 
BRANCH  26  27
ATOM     27  N   UNL     1       0.356  -1.489  13.059  1.00  0.00    -0.352 N 
ATOM     28  C   UNL     1      -0.668  -1.897  13.873  1.00  0.00     0.251 C 
ATOM     29  H   UNL     1       0.233  -0.600  12.655  1.00  0.00     0.163 HD
ATOM     30  O   UNL     1      -1.715  -1.253  13.875  1.00  0.00    -0.269 OA
BRANCH  28  31
ATOM     31  C   UNL     1      -0.535  -3.091  14.739  1.00  0.00     0.039 A 
ATOM     32  C   UNL     1      -1.659  -3.898  14.938  1.00  0.00     0.014 A 
ATOM     33  C   UNL     1       0.658  -3.386  15.405  1.00  0.00     0.014 A 
ATOM     34  C   UNL     1      -1.579  -5.013  15.776  1.00  0.00     0.010 A 
ATOM     35  C   UNL     1       0.758  -4.542  16.178  1.00  0.00     0.010 A 
ATOM     36  C   UNL     1      -0.363  -5.355  16.389  1.00  0.00    -0.014 A 
BRANCH  36  37
ATOM     37  C   UNL     1      -0.259  -6.558  17.253  1.00  0.00     0.031 A 
ATOM     38  C   UNL     1       0.071  -6.428  18.715  1.00  0.00     0.074 A 
ATOM     39  C   UNL     1      -0.392  -7.780  16.701  1.00  0.00     0.049 A 
ATOM     40  N   UNL     1       0.199  -7.367  19.617  1.00  0.00    -0.248 NA
ATOM     41  C   UNL     1       0.321  -5.070  19.225  1.00  0.00     0.031 C 
ATOM     42  C   UNL     1      -0.608  -8.041  15.277  1.00  0.00     0.029 A 
ATOM     43  N   UNL     1      -0.340  -9.029  17.265  1.00  0.00    -0.354 N 
ATOM     44  C   UNL     1       0.576  -6.720  20.788  1.00  0.00     0.074 A 
ATOM     45  C   UNL     1       0.698  -5.314  20.471  1.00  0.00     0.031 C 
ATOM     46  C   UNL     1      -0.672  -9.367  15.079  1.00  0.00     0.029 A 
ATOM     47  C   UNL     1      -0.486 -10.050  16.355  1.00  0.00     0.049 A 
ATOM     48  H   UNL     1      -0.210  -9.181  18.229  1.00  0.00     0.167 HD
ATOM     49  C   UNL     1       0.768  -7.242  22.024  1.00  0.00     0.034 A 
ATOM     50  C   UNL     1      -0.474 -11.386  16.528  1.00  0.00     0.034 A 
ATOM     51  C   UNL     1       0.603  -8.634  22.342  1.00  0.00     0.049 A 
ATOM     52  C   UNL     1      -0.340 -11.941  17.919  1.00  0.00     0.074 A 
ATOM     53  C   UNL     1       0.672  -9.251  23.578  1.00  0.00     0.029 A 
ATOM     54  N   UNL     1       0.344  -9.631  21.413  1.00  0.00    -0.354 N 
ATOM     55  N   UNL     1      -0.168 -11.297  19.048  1.00  0.00    -0.248 NA
ATOM     56  C   UNL     1      -0.443 -13.399  18.068  1.00  0.00     0.031 C 
ATOM     57  C   UNL     1       0.472 -10.625  23.393  1.00  0.00     0.029 A 
ATOM     58  C   UNL     1       0.257 -10.860  22.044  1.00  0.00     0.049 A 
ATOM     59  H   UNL     1       0.237  -9.486  20.445  1.00  0.00     0.167 HD
ATOM     60  C   UNL     1      -0.171 -12.265  20.045  1.00  0.00     0.074 A 
ATOM     61  C   UNL     1      -0.384 -13.539  19.386  1.00  0.00     0.031 C 
ATOM     62  C   UNL     1       0.001 -12.115  21.382  1.00  0.00     0.034 A 
BRANCH  49  63
ATOM     63  C   UNL     1       1.121  -6.283  23.134  1.00  0.00     0.023 A 
ATOM     64  C   UNL     1       0.150  -5.368  23.595  1.00  0.00     0.012 A 
ATOM     65  C   UNL     1       2.392  -6.299  23.740  1.00  0.00     0.148 A 
ATOM     66  C   UNL     1       0.454  -4.452  24.601  1.00  0.00     0.002 A 
ATOM     67  C   UNL     1       2.672  -5.413  24.776  1.00  0.00     0.091 A 
ATOM     68  F   UNL     1       3.313  -7.158  23.279  1.00  0.00    -0.205 F 
ATOM     69  C   UNL     1       1.711  -4.481  25.197  1.00  0.00     0.022 A 
BRANCH  67  70
ATOM     70  S   UNL     1       4.237  -5.431  25.659  1.00  0.00     0.127 S 
ATOM     71  O   UNL     1       4.921  -4.280  25.072  1.00  0.00    -0.237 OA
ATOM     72  O   UNL     1       3.814  -5.245  27.048  1.00  0.00    -0.237 OA
ATOM     73  O   UNL     1       4.833  -6.730  25.381  1.00  0.00    -0.744 OA
ENDBRANCH  67  70
ENDBRANCH  49  63
BRANCH  50  74
ATOM     74  C   UNL     1      -0.685 -12.272  15.350  1.00  0.00     0.023 A 
ATOM     75  C   UNL     1      -1.916 -12.936  15.194  1.00  0.00     0.012 A 
ATOM     76  C   UNL     1       0.294 -12.389  14.343  1.00  0.00     0.148 A 
ATOM     77  C   UNL     1      -2.164 -13.716  14.063  1.00  0.00     0.002 A 
ATOM     78  C   UNL     1       0.019 -13.121  13.194  1.00  0.00     0.091 A 
ATOM     79  F   UNL     1       1.460 -11.752  14.516  1.00  0.00    -0.205 F 
ATOM     80  C   UNL     1      -1.203 -13.798  13.059  1.00  0.00     0.022 A 
BRANCH  78  81
ATOM     81  S   UNL     1       1.135 -13.163  11.786  1.00  0.00     0.127 S 
ATOM     82  O   UNL     1       1.578 -14.555  11.797  1.00  0.00    -0.237 OA
ATOM     83  O   UNL     1       0.240 -12.809  10.684  1.00  0.00    -0.237 OA
ATOM     84  O   UNL     1       2.163 -12.170  12.067  1.00  0.00    -0.744 OA
ENDBRANCH  78  81
ENDBRANCH  50  74
BRANCH  62  85
ATOM     85  C   UNL     1      -0.050 -13.354  22.236  1.00  0.00     0.023 A 
ATOM     86  C   UNL     1       1.024 -14.265  22.212  1.00  0.00     0.012 A 
ATOM     87  C   UNL     1      -1.125 -13.575  23.121  1.00  0.00     0.148 A 
ATOM     88  C   UNL     1       1.018 -15.391  23.034  1.00  0.00     0.002 A 
ATOM     89  C   UNL     1      -1.102 -14.674  23.971  1.00  0.00     0.091 A 
ATOM     90  F   UNL     1      -2.148 -12.708  23.114  1.00  0.00    -0.205 F 
ATOM     91  C   UNL     1      -0.038 -15.589  23.921  1.00  0.00     0.022 A 
BRANCH  89  92
ATOM     92  S   UNL     1      -2.372 -14.957  25.210  1.00  0.00     0.127 S 
ATOM     93  O   UNL     1      -3.120 -16.067  24.623  1.00  0.00    -0.237 OA
ATOM     94  O   UNL     1      -1.583 -15.310  26.391  1.00  0.00    -0.237 OA
ATOM     95  O   UNL     1      -3.102 -13.701  25.327  1.00  0.00    -0.744 OA
ENDBRANCH  89  92
ENDBRANCH  62  85
ENDBRANCH  36  37
ENDBRANCH  28  31
ENDBRANCH  26  27
ENDBRANCH  25  26
ENDBRANCH   1  25
TORSDOF 18
