REMARK SMILES CC[C@](C)([NH2+]CC(=O)N[C@H](C)c1cccs1)C(=O)NCCCNC(=O)c1ccc(-c2c3nc(c(-c4cccc(S(=O)(=O)[O-])c4F)c4ccc([nH]4)c(-c4cccc(S(=O)(=O)[O-])c4F)c4nc(c(-c5cccc(S(=O)(=O)[O-])c5F)c5ccc2[nH]5)C=C4)C=C3)cc1
REMARK SMILES IDX 20 1 19 2 17 3 18 4 3 6 4 7 2 8 1 9 5 10 6 13 7 14 8 15 9 16
REMARK SMILES IDX 10 18 11 19 12 20 13 21 16 22 14 23 15 24 21 25 22 26 23 27
REMARK SMILES IDX 24 28 25 30 26 31 27 32 88 33 28 34 87 35 29 36 30 37 31 38
REMARK SMILES IDX 81 39 32 40 86 41 80 42 82 43 33 44 85 45 79 46 78 47 34 49
REMARK SMILES IDX 66 50 46 51 65 52 47 53 50 54 64 55 83 56 48 57 49 58 63 60
REMARK SMILES IDX 84 61 51 62 35 63 36 64 44 65 37 66 39 67 45 68 38 69 40 70
REMARK SMILES IDX 41 71 42 72 43 73 67 74 68 75 76 76 69 77 71 78 77 79 70 80
REMARK SMILES IDX 72 81 73 82 74 83 75 84 52 85 53 86 61 87 54 88 56 89 62 90
REMARK SMILES IDX 55 91 57 92 58 93 59 94 60 95
REMARK H PARENT 19 5 5 11 5 12 9 17 23 29 82 48 50 59
REMARK Flexibility Score: inf
ROOT
ATOM      1  C   UNL     1       1.907   2.097  -0.462  1.00  0.00     0.118 C 
ENDROOT
BRANCH   1   2
ATOM      2  N   UNL     1       3.262   1.969  -1.009  1.00  0.00    -0.351 N 
ATOM      3  C   UNL     1       4.028   1.149  -1.789  1.00  0.00     0.281 C 
ATOM      4  O   UNL     1       5.035   1.762  -2.196  1.00  0.00    -0.268 OA
ATOM      5  H   UNL     1       3.805   2.735  -0.713  1.00  0.00     0.163 HD
BRANCH   3   6
ATOM      6  C   UNL     1       3.892  -0.443  -2.090  1.00  0.00     0.172 C 
ATOM      7  C   UNL     1       5.426  -0.826  -1.978  1.00  0.00     0.090 C 
BRANCH   6   8
ATOM      8  C   UNL     1       3.592  -1.145  -3.517  1.00  0.00     0.075 C 
ATOM      9  C   UNL     1       2.439  -2.085  -4.103  1.00  0.00     0.011 C 
ENDBRANCH   6   8
BRANCH   6  10
ATOM     10  N   UNL     1       3.102  -1.035  -1.039  1.00  0.00    -0.326 N 
ATOM     11  H   UNL     1       3.412  -0.616  -0.162  1.00  0.00     0.347 HD
ATOM     12  H   UNL     1       3.261  -2.036  -1.154  1.00  0.00     0.347 HD
BRANCH  10  13
ATOM     13  C   UNL     1       1.641  -0.912  -1.077  1.00  0.00     0.362 C 
BRANCH  13  14
ATOM     14  C   UNL     1       0.762  -0.515  -2.303  1.00  0.00     0.275 C 
ATOM     15  O   UNL     1      -0.276  -1.204  -2.426  1.00  0.00    -0.268 OA
ATOM     16  N   UNL     1       0.787   0.441  -3.265  1.00  0.00    -0.344 N 
ATOM     17  H   UNL     1       0.166   0.136  -3.966  1.00  0.00     0.164 HD
BRANCH  16  18
ATOM     18  C   UNL     1       1.337   1.759  -3.744  1.00  0.00     0.119 C 
ATOM     19  C   UNL     1       0.218   2.488  -4.504  1.00  0.00     0.037 C 
BRANCH  18  20
ATOM     20  C   UNL     1       2.571   1.761  -4.642  1.00  0.00     0.027 A 
ATOM     21  C   UNL     1       3.664   2.614  -4.535  1.00  0.00     0.017 A 
ATOM     22  S   UNL     1       2.735   0.838  -6.091  1.00  0.00    -0.147 S 
ATOM     23  C   UNL     1       4.755   2.232  -5.369  1.00  0.00     0.012 A 
ATOM     24  C   UNL     1       4.412   1.192  -6.199  1.00  0.00     0.065 A 
ENDBRANCH  18  20
ENDBRANCH  16  18
ENDBRANCH  13  14
ENDBRANCH  10  13
ENDBRANCH   6  10
ENDBRANCH   3   6
ENDBRANCH   1   2
BRANCH   1  25
ATOM     25  C   UNL     1       1.748   1.823   1.025  1.00  0.00     0.042 C 
BRANCH  25  26
ATOM     26  C   UNL     1       1.306   3.050   1.811  1.00  0.00     0.118 C 
BRANCH  26  27
ATOM     27  N   UNL     1      -0.043   3.516   1.474  1.00  0.00    -0.352 N 
ATOM     28  C   UNL     1      -1.125   3.758   2.293  1.00  0.00     0.251 C 
ATOM     29  H   UNL     1      -0.201   3.681   0.516  1.00  0.00     0.163 HD
ATOM     30  O   UNL     1      -2.212   4.059   1.797  1.00  0.00    -0.269 OA
BRANCH  28  31
ATOM     31  C   UNL     1      -0.988   3.632   3.759  1.00  0.00     0.039 A 
ATOM     32  C   UNL     1      -2.000   3.018   4.504  1.00  0.00     0.014 A 
ATOM     33  C   UNL     1       0.166   4.087   4.396  1.00  0.00     0.014 A 
ATOM     34  C   UNL     1      -1.811   2.793   5.871  1.00  0.00     0.010 A 
ATOM     35  C   UNL     1       0.410   3.733   5.713  1.00  0.00     0.010 A 
ATOM     36  C   UNL     1      -0.587   3.114   6.479  1.00  0.00    -0.014 A 
BRANCH  36  37
ATOM     37  C   UNL     1      -0.331   2.870   7.921  1.00  0.00     0.031 A 
ATOM     38  C   UNL     1       0.050   4.027   8.812  1.00  0.00     0.074 A 
ATOM     39  C   UNL     1      -0.343   1.613   8.408  1.00  0.00     0.049 A 
ATOM     40  N   UNL     1       0.402   4.019  10.071  1.00  0.00    -0.248 NA
ATOM     41  C   UNL     1       0.087   5.365   8.194  1.00  0.00     0.031 C 
ATOM     42  C   UNL     1      -0.602   0.400   7.627  1.00  0.00     0.029 A 
ATOM     43  N   UNL     1      -0.109   1.143   9.676  1.00  0.00    -0.354 N 
ATOM     44  C   UNL     1       0.750   5.331  10.374  1.00  0.00     0.074 A 
ATOM     45  C   UNL     1       0.627   6.096   9.156  1.00  0.00     0.031 C 
ATOM     46  C   UNL     1      -0.533  -0.669   8.437  1.00  0.00     0.029 A 
ATOM     47  C   UNL     1      -0.193  -0.226   9.784  1.00  0.00     0.049 A 
ATOM     48  H   UNL     1       0.099   1.732  10.438  1.00  0.00     0.167 HD
ATOM     49  C   UNL     1       1.097   5.865  11.568  1.00  0.00     0.034 A 
ATOM     50  C   UNL     1      -0.013  -1.030  10.851  1.00  0.00     0.034 A 
ATOM     51  C   UNL     1       1.147   5.112  12.788  1.00  0.00     0.049 A 
ATOM     52  C   UNL     1       0.309  -0.405  12.182  1.00  0.00     0.074 A 
ATOM     53  C   UNL     1       1.385   5.568  14.072  1.00  0.00     0.029 A 
ATOM     54  N   UNL     1       0.956   3.742  12.876  1.00  0.00    -0.354 N 
ATOM     55  N   UNL     1       0.479   0.861  12.480  1.00  0.00    -0.248 NA
ATOM     56  C   UNL     1       0.425  -1.313  13.332  1.00  0.00     0.031 C 
ATOM     57  C   UNL     1       1.365   4.467  14.933  1.00  0.00     0.029 A 
ATOM     58  C   UNL     1       1.077   3.332  14.190  1.00  0.00     0.049 A 
ATOM     59  H   UNL     1       0.762   3.149  12.114  1.00  0.00     0.167 HD
ATOM     60  C   UNL     1       0.682   0.905  13.855  1.00  0.00     0.074 A 
ATOM     61  C   UNL     1       0.594  -0.460  14.332  1.00  0.00     0.031 C 
ATOM     62  C   UNL     1       0.932   1.975  14.650  1.00  0.00     0.034 A 
BRANCH  49  63
ATOM     63  C   UNL     1       1.389   7.343  11.616  1.00  0.00     0.023 A 
ATOM     64  C   UNL     1       0.345   8.271  11.417  1.00  0.00     0.012 A 
ATOM     65  C   UNL     1       2.686   7.816  11.894  1.00  0.00     0.148 A 
ATOM     66  C   UNL     1       0.595   9.643  11.447  1.00  0.00     0.002 A 
ATOM     67  C   UNL     1       2.917   9.184  11.976  1.00  0.00     0.091 A 
ATOM     68  F   UNL     1       3.671   6.921  12.059  1.00  0.00    -0.205 F 
ATOM     69  C   UNL     1       1.877  10.098  11.737  1.00  0.00     0.022 A 
BRANCH  67  70
ATOM     70  S   UNL     1       4.513   9.873  12.426  1.00  0.00     0.127 S 
ATOM     71  O   UNL     1       4.930  10.496  11.170  1.00  0.00    -0.237 OA
ATOM     72  O   UNL     1       4.150  10.818  13.483  1.00  0.00    -0.237 OA
ATOM     73  O   UNL     1       5.328   8.750  12.866  1.00  0.00    -0.744 OA
ENDBRANCH  67  70
ENDBRANCH  49  63
BRANCH  50  74
ATOM     74  C   UNL     1      -0.205  -2.503  10.720  1.00  0.00     0.023 A 
ATOM     75  C   UNL     1      -1.315  -3.114  11.337  1.00  0.00     0.012 A 
ATOM     76  C   UNL     1       0.687  -3.298   9.975  1.00  0.00     0.148 A 
ATOM     77  C   UNL     1      -1.513  -4.492  11.246  1.00  0.00     0.002 A 
ATOM     78  C   UNL     1       0.454  -4.662   9.842  1.00  0.00     0.091 A 
ATOM     79  F   UNL     1       1.741  -2.701   9.402  1.00  0.00    -0.205 F 
ATOM     80  C   UNL     1      -0.635  -5.265  10.492  1.00  0.00     0.022 A 
BRANCH  78  81
ATOM     81  S   UNL     1       1.459  -5.715   8.789  1.00  0.00     0.127 S 
ATOM     82  O   UNL     1       2.152  -6.545   9.770  1.00  0.00    -0.237 OA
ATOM     83  O   UNL     1       0.441  -6.410   8.001  1.00  0.00    -0.237 OA
ATOM     84  O   UNL     1       2.301  -4.811   8.018  1.00  0.00    -0.744 OA
ENDBRANCH  78  81
ENDBRANCH  50  74
BRANCH  62  85
ATOM     85  C   UNL     1       1.081   1.728  16.127  1.00  0.00     0.023 A 
ATOM     86  C   UNL     1       2.234   1.088  16.622  1.00  0.00     0.012 A 
ATOM     87  C   UNL     1       0.112   2.209  17.030  1.00  0.00     0.148 A 
ATOM     88  C   UNL     1       2.404   0.899  17.993  1.00  0.00     0.002 A 
ATOM     89  C   UNL     1       0.314   2.066  18.396  1.00  0.00     0.091 A 
ATOM     90  F   UNL     1      -0.985   2.801  16.535  1.00  0.00    -0.205 F 
ATOM     91  C   UNL     1       1.452   1.399  18.879  1.00  0.00     0.022 A 
BRANCH  89  92
ATOM     92  S   UNL     1      -0.803   2.771  19.612  1.00  0.00     0.127 S 
ATOM     93  O   UNL     1      -1.443   1.574  20.157  1.00  0.00    -0.237 OA
ATOM     94  O   UNL     1       0.119   3.441  20.529  1.00  0.00    -0.237 OA
ATOM     95  O   UNL     1      -1.684   3.669  18.877  1.00  0.00    -0.744 OA
ENDBRANCH  89  92
ENDBRANCH  62  85
ENDBRANCH  36  37
ENDBRANCH  28  31
ENDBRANCH  26  27
ENDBRANCH  25  26
ENDBRANCH   1  25
TORSDOF 19
