REMARK SMILES C=Cc1cc(Cl)cc2c1O[C@H](C(F)(F)F)C(C(=O)NCCCNC(=O)c1ccc(-c3c4nc(c(-c5cccc(S(=O)(=O)[O-])c5F)c5ccc([nH]5)c(-c5cccc(S(=O)(=O)[O-])c5F)c5nc(c(-c6cccc(S(=O)(=O)[O-])c6F)c6ccc3[nH]6)C=C5)C=C4)cc1)=C2
REMARK SMILES IDX 22 1 21 2 20 3 19 4 17 5 18 6 16 8 3 9 4 10 9 11 5 12 8 13
REMARK SMILES IDX 10 14 6 15 7 16 89 17 11 18 2 19 1 20 12 21 13 22 14 23
REMARK SMILES IDX 15 24 23 25 24 26 25 28 26 29 27 30 88 31 28 32 87 33 29 34
REMARK SMILES IDX 30 35 31 36 81 37 32 38 86 39 80 40 82 41 33 42 85 43 79 44
REMARK SMILES IDX 78 45 34 47 66 48 46 49 65 50 47 51 50 52 64 53 83 54 48 55
REMARK SMILES IDX 49 56 63 58 84 59 51 60 35 61 36 62 44 63 37 64 39 65 45 66
REMARK SMILES IDX 38 67 40 68 41 69 42 70 43 71 67 72 68 73 76 74 69 75 71 76
REMARK SMILES IDX 77 77 70 78 72 79 73 80 74 81 75 82 52 83 53 84 61 85 54 86
REMARK SMILES IDX 56 87 62 88 55 89 57 90 58 91 59 92 60 93
REMARK H PARENT 19 7 23 27 82 46 50 57
REMARK Flexibility Score: inf
ROOT
ATOM      1  C   UNL     1      -2.150   0.855   9.235  1.00  0.00     0.118 C 
ENDROOT
BRANCH   1   2
ATOM      2  C   UNL     1      -1.606   0.486   7.861  1.00  0.00     0.042 C 
BRANCH   2   3
ATOM      3  C   UNL     1      -2.192  -0.814   7.332  1.00  0.00     0.118 C 
BRANCH   3   4
ATOM      4  N   UNL     1      -3.520  -0.628   6.767  1.00  0.00    -0.352 N 
ATOM      5  C   UNL     1      -4.074  -0.563   5.535  1.00  0.00     0.251 C 
ATOM      6  O   UNL     1      -5.300  -0.407   5.516  1.00  0.00    -0.270 OA
ATOM      7  H   UNL     1      -4.199  -0.520   7.472  1.00  0.00     0.163 HD
BRANCH   5   8
ATOM      8  C   UNL     1      -3.327  -0.671   4.248  1.00  0.00     0.067 C 
ATOM      9  C   UNL     1      -1.328  -0.689   0.541  1.00  0.00     0.018 A 
ATOM     10  C   UNL     1      -2.083  -0.799  -0.633  1.00  0.00     0.032 A 
ATOM     11  C   UNL     1      -2.000  -0.626   1.773  1.00  0.00     0.135 A 
ATOM     12  C   UNL     1      -3.478  -0.815  -0.571  1.00  0.00     0.042 A 
ATOM     13  C   UNL     1      -3.399  -0.634   1.834  1.00  0.00     0.019 A 
ATOM     14  O   UNL     1      -1.244  -0.498   2.909  1.00  0.00    -0.475 OA
ATOM     15  Cl  UNL     1      -4.392  -0.952  -2.023  1.00  0.00    -0.084 Cl
ATOM     16  C   UNL     1      -4.139  -0.726   0.653  1.00  0.00     0.032 A 
ATOM     17  C   UNL     1      -4.060  -0.516   3.129  1.00  0.00     0.025 C 
ATOM     18  C   UNL     1      -1.857  -0.958   4.142  1.00  0.00     0.314 C 
BRANCH   9  19
ATOM     19  C   UNL     1       0.142  -0.708   0.498  1.00  0.00     0.004 C 
ATOM     20  C   UNL     1       0.874   0.044  -0.334  1.00  0.00     0.009 C 
ENDBRANCH   9  19
BRANCH  18  21
ATOM     21  C   UNL     1      -1.526  -2.448   4.351  1.00  0.00     0.429 C 
ATOM     22  F   UNL     1      -0.204  -2.611   4.607  1.00  0.00    -0.167 F 
ATOM     23  F   UNL     1      -2.192  -2.989   5.399  1.00  0.00    -0.167 F 
ATOM     24  F   UNL     1      -1.824  -3.206   3.270  1.00  0.00    -0.167 F 
ENDBRANCH  18  21
ENDBRANCH   5   8
ENDBRANCH   3   4
ENDBRANCH   2   3
ENDBRANCH   1   2
BRANCH   1  25
ATOM     25  N   UNL     1      -1.720  -0.084  10.270  1.00  0.00    -0.352 N 
ATOM     26  C   UNL     1      -0.937   0.118  11.383  1.00  0.00     0.251 C 
ATOM     27  H   UNL     1      -2.043  -1.007  10.153  1.00  0.00     0.163 HD
ATOM     28  O   UNL     1      -0.521  -0.849  12.015  1.00  0.00    -0.269 OA
BRANCH  26  29
ATOM     29  C   UNL     1      -0.582   1.492  11.791  1.00  0.00     0.039 A 
ATOM     30  C   UNL     1      -1.538   2.506  11.742  1.00  0.00     0.014 A 
ATOM     31  C   UNL     1       0.722   1.777  12.206  1.00  0.00     0.014 A 
ATOM     32  C   UNL     1      -1.145   3.826  11.902  1.00  0.00     0.010 A 
ATOM     33  C   UNL     1       1.089   3.099  12.475  1.00  0.00     0.010 A 
ATOM     34  C   UNL     1       0.173   4.142  12.268  1.00  0.00    -0.014 A 
BRANCH  34  35
ATOM     35  C   UNL     1       0.552   5.570  12.426  1.00  0.00     0.031 A 
ATOM     36  C   UNL     1       1.604   6.196  11.550  1.00  0.00     0.074 A 
ATOM     37  C   UNL     1      -0.114   6.323  13.325  1.00  0.00     0.049 A 
ATOM     38  N   UNL     1       2.018   7.437  11.529  1.00  0.00    -0.248 NA
ATOM     39  C   UNL     1       2.284   5.327  10.574  1.00  0.00     0.031 C 
ATOM     40  C   UNL     1      -1.142   5.824  14.242  1.00  0.00     0.029 A 
ATOM     41  N   UNL     1      -0.053   7.666  13.595  1.00  0.00    -0.354 N 
ATOM     42  C   UNL     1       3.035   7.487  10.584  1.00  0.00     0.074 A 
ATOM     43  C   UNL     1       3.178   6.153  10.045  1.00  0.00     0.031 C 
ATOM     44  C   UNL     1      -1.662   6.855  14.923  1.00  0.00     0.029 A 
ATOM     45  C   UNL     1      -0.963   8.076  14.541  1.00  0.00     0.049 A 
ATOM     46  H   UNL     1       0.581   8.277  13.155  1.00  0.00     0.167 HD
ATOM     47  C   UNL     1       3.770   8.552  10.188  1.00  0.00     0.034 A 
ATOM     48  C   UNL     1      -1.209   9.297  15.052  1.00  0.00     0.034 A 
ATOM     49  C   UNL     1       3.580   9.891  10.673  1.00  0.00     0.049 A 
ATOM     50  C   UNL     1      -0.404  10.466  14.569  1.00  0.00     0.074 A 
ATOM     51  C   UNL     1       4.251  11.042  10.298  1.00  0.00     0.029 A 
ATOM     52  N   UNL     1       2.646  10.263  11.626  1.00  0.00    -0.354 N 
ATOM     53  N   UNL     1       0.514  10.497  13.635  1.00  0.00    -0.248 NA
ATOM     54  C   UNL     1      -0.668  11.765  15.202  1.00  0.00     0.031 C 
ATOM     55  C   UNL     1       3.720  12.112  11.024  1.00  0.00     0.029 A 
ATOM     56  C   UNL     1       2.718  11.627  11.848  1.00  0.00     0.049 A 
ATOM     57  H   UNL     1       2.023   9.649  12.078  1.00  0.00     0.167 HD
ATOM     58  C   UNL     1       0.937  11.817  13.563  1.00  0.00     0.074 A 
ATOM     59  C   UNL     1       0.155  12.561  14.530  1.00  0.00     0.031 C 
ATOM     60  C   UNL     1       1.902  12.357  12.782  1.00  0.00     0.034 A 
BRANCH  47  61
ATOM     61  C   UNL     1       4.822   8.336   9.136  1.00  0.00     0.023 A 
ATOM     62  C   UNL     1       4.439   8.275   7.782  1.00  0.00     0.012 A 
ATOM     63  C   UNL     1       6.189   8.299   9.475  1.00  0.00     0.148 A 
ATOM     64  C   UNL     1       5.402   8.173   6.778  1.00  0.00     0.002 A 
ATOM     65  C   UNL     1       7.144   8.224   8.468  1.00  0.00     0.091 A 
ATOM     66  F   UNL     1       6.525   8.344  10.772  1.00  0.00    -0.205 F 
ATOM     67  C   UNL     1       6.752   8.158   7.120  1.00  0.00     0.022 A 
BRANCH  65  68
ATOM     68  S   UNL     1       8.910   8.252   8.795  1.00  0.00     0.127 S 
ATOM     69  O   UNL     1       9.309   6.911   8.369  1.00  0.00    -0.237 OA
ATOM     70  O   UNL     1       9.367   9.331   7.920  1.00  0.00    -0.237 OA
ATOM     71  O   UNL     1       9.053   8.518  10.220  1.00  0.00    -0.744 OA
ENDBRANCH  65  68
ENDBRANCH  47  61
BRANCH  48  72
ATOM     72  C   UNL     1      -2.304   9.460  16.045  1.00  0.00     0.023 A 
ATOM     73  C   UNL     1      -3.512  10.061  15.645  1.00  0.00     0.012 A 
ATOM     74  C   UNL     1      -2.191   8.931  17.346  1.00  0.00     0.148 A 
ATOM     75  C   UNL     1      -4.592  10.132  16.526  1.00  0.00     0.002 A 
ATOM     76  C   UNL     1      -3.285   8.962  18.200  1.00  0.00     0.091 A 
ATOM     77  F   UNL     1      -1.026   8.371  17.701  1.00  0.00    -0.205 F 
ATOM     78  C   UNL     1      -4.484   9.572  17.796  1.00  0.00     0.022 A 
BRANCH  76  79
ATOM     79  S   UNL     1      -3.281   8.152  19.803  1.00  0.00     0.127 S 
ATOM     80  O   UNL     1      -3.377   9.291  20.713  1.00  0.00    -0.237 OA
ATOM     81  O   UNL     1      -4.485   7.324  19.722  1.00  0.00    -0.237 OA
ATOM     82  O   UNL     1      -2.035   7.401  19.864  1.00  0.00    -0.744 OA
ENDBRANCH  76  79
ENDBRANCH  48  72
BRANCH  60  83
ATOM     83  C   UNL     1       2.181  13.825  12.928  1.00  0.00     0.023 A 
ATOM     84  C   UNL     1       2.988  14.266  13.993  1.00  0.00     0.012 A 
ATOM     85  C   UNL     1       1.750  14.742  11.950  1.00  0.00     0.148 A 
ATOM     86  C   UNL     1       3.360  15.606  14.088  1.00  0.00     0.002 A 
ATOM     87  C   UNL     1       2.151  16.069  12.034  1.00  0.00     0.091 A 
ATOM     88  F   UNL     1       0.974  14.293  10.954  1.00  0.00    -0.205 F 
ATOM     89  C   UNL     1       2.952  16.503  13.103  1.00  0.00     0.022 A 
BRANCH  87  90
ATOM     90  S   UNL     1       1.738  17.284  10.777  1.00  0.00     0.127 S 
ATOM     91  O   UNL     1       0.825  18.165  11.503  1.00  0.00    -0.237 OA
ATOM     92  O   UNL     1       3.044  17.872  10.475  1.00  0.00    -0.237 OA
ATOM     93  O   UNL     1       1.139  16.540   9.677  1.00  0.00    -0.744 OA
ENDBRANCH  87  90
ENDBRANCH  60  83
ENDBRANCH  34  35
ENDBRANCH  26  29
ENDBRANCH   1  25
TORSDOF 15
