REMARK SMILES O=C(NCCCNC(=O)c1cc(-c2cccc(Cl)c2)ccc1Cl)c1ccc(-c2c3nc(c(-c4cccc(S(=O)(=O)[O-])c4F)c4ccc([nH]4)c(-c4cccc(S(=O)(=O)[O-])c4F)c4nc(c(-c5cccc(S(=O)(=O)[O-])c5F)c5ccc2[nH]5)C=C4)C=C3)cc1
REMARK SMILES IDX 4 1 3 2 1 3 2 4 24 6 25 7 86 8 26 9 85 10 27 11 28 12 29 13
REMARK SMILES IDX 79 14 30 15 84 16 78 17 80 18 31 19 83 20 77 21 76 22 32 24
REMARK SMILES IDX 64 25 44 26 63 27 45 28 48 29 62 30 81 31 46 32 47 33 61 35
REMARK SMILES IDX 82 36 49 37 33 38 34 39 42 40 35 41 37 42 43 43 36 44 38 45
REMARK SMILES IDX 39 46 40 47 41 48 65 49 66 50 74 51 67 52 69 53 75 54 68 55
REMARK SMILES IDX 70 56 71 57 72 58 73 59 50 60 51 61 59 62 52 63 54 64 60 65
REMARK SMILES IDX 53 66 55 67 56 68 57 69 58 70 5 71 6 72 7 73 8 74 9 76 10 77
REMARK SMILES IDX 11 78 22 79 12 80 21 81 23 82 20 83 13 84 14 85 19 86 15 87
REMARK SMILES IDX 17 88 16 89 18 90
REMARK H PARENT 3 5 80 23 48 34 7 75
REMARK Flexibility Score: inf
ROOT
ATOM      1  C   UNL     1       4.577  -0.458  -1.343  1.00  0.00     0.118 C 
ENDROOT
BRANCH   1   2
ATOM      2  N   UNL     1       3.144  -0.250  -1.170  1.00  0.00    -0.352 N 
ATOM      3  O   UNL     1       1.194   0.120  -0.119  1.00  0.00    -0.269 OA
ATOM      4  C   UNL     1       2.421   0.183  -0.083  1.00  0.00     0.251 C 
ATOM      5  H   UNL     1       2.602  -0.454  -1.966  1.00  0.00     0.163 HD
BRANCH   4   6
ATOM      6  C   UNL     1       3.103   0.686   1.132  1.00  0.00     0.039 A 
ATOM      7  C   UNL     1       4.234   1.496   1.041  1.00  0.00     0.014 A 
ATOM      8  C   UNL     1       2.590   0.356   2.391  1.00  0.00     0.014 A 
ATOM      9  C   UNL     1       4.962   1.801   2.184  1.00  0.00     0.010 A 
ATOM     10  C   UNL     1       3.262   0.765   3.549  1.00  0.00     0.010 A 
ATOM     11  C   UNL     1       4.483   1.448   3.456  1.00  0.00    -0.014 A 
BRANCH  11  12
ATOM     12  C   UNL     1       5.261   1.851   4.659  1.00  0.00     0.031 A 
ATOM     13  C   UNL     1       5.828   0.829   5.608  1.00  0.00     0.074 A 
ATOM     14  C   UNL     1       5.485   3.164   4.873  1.00  0.00     0.049 A 
ATOM     15  N   UNL     1       6.595   1.017   6.652  1.00  0.00    -0.248 NA
ATOM     16  C   UNL     1       5.486  -0.582   5.368  1.00  0.00     0.031 C 
ATOM     17  C   UNL     1       4.947   4.253   4.053  1.00  0.00     0.029 A 
ATOM     18  N   UNL     1       6.233   3.807   5.826  1.00  0.00    -0.354 N 
ATOM     19  C   UNL     1       6.788  -0.237   7.220  1.00  0.00     0.074 A 
ATOM     20  C   UNL     1       6.052  -1.181   6.408  1.00  0.00     0.031 C 
ATOM     21  C   UNL     1       5.426   5.421   4.501  1.00  0.00     0.029 A 
ATOM     22  C   UNL     1       6.260   5.174   5.672  1.00  0.00     0.049 A 
ATOM     23  H   UNL     1       6.705   3.336   6.550  1.00  0.00     0.167 HD
ATOM     24  C   UNL     1       7.524  -0.574   8.306  1.00  0.00     0.034 A 
ATOM     25  C   UNL     1       6.886   6.126   6.389  1.00  0.00     0.034 A 
ATOM     26  C   UNL     1       8.301   0.359   9.079  1.00  0.00     0.049 A 
ATOM     27  C   UNL     1       7.734   5.716   7.558  1.00  0.00     0.074 A 
ATOM     28  C   UNL     1       9.143   0.102  10.147  1.00  0.00     0.029 A 
ATOM     29  N   UNL     1       8.331   1.730   8.870  1.00  0.00    -0.354 N 
ATOM     30  N   UNL     1       8.011   4.511   7.991  1.00  0.00    -0.248 NA
ATOM     31  C   UNL     1       8.373   6.796   8.322  1.00  0.00     0.031 C 
ATOM     32  C   UNL     1       9.671   1.319  10.593  1.00  0.00     0.029 A 
ATOM     33  C   UNL     1       9.168   2.333   9.794  1.00  0.00     0.049 A 
ATOM     34  H   UNL     1       7.831   2.204   8.168  1.00  0.00     0.167 HD
ATOM     35  C   UNL     1       8.876   4.684   9.064  1.00  0.00     0.074 A 
ATOM     36  C   UNL     1       9.099   6.110   9.195  1.00  0.00     0.031 C 
ATOM     37  C   UNL     1       9.420   3.748   9.881  1.00  0.00     0.034 A 
BRANCH  24  38
ATOM     38  C   UNL     1       7.565  -2.027   8.705  1.00  0.00     0.023 A 
ATOM     39  C   UNL     1       8.326  -2.937   7.944  1.00  0.00     0.012 A 
ATOM     40  C   UNL     1       6.907  -2.480   9.866  1.00  0.00     0.148 A 
ATOM     41  C   UNL     1       8.410  -4.279   8.315  1.00  0.00     0.002 A 
ATOM     42  C   UNL     1       7.025  -3.812  10.250  1.00  0.00     0.091 A 
ATOM     43  F   UNL     1       6.167  -1.608  10.565  1.00  0.00    -0.205 F 
ATOM     44  C   UNL     1       7.769  -4.714   9.472  1.00  0.00     0.022 A 
BRANCH  42  45
ATOM     45  S   UNL     1       6.294  -4.443  11.766  1.00  0.00     0.127 S 
ATOM     46  O   UNL     1       5.118  -5.146  11.256  1.00  0.00    -0.237 OA
ATOM     47  O   UNL     1       7.348  -5.318  12.282  1.00  0.00    -0.237 OA
ATOM     48  O   UNL     1       6.024  -3.275  12.591  1.00  0.00    -0.744 OA
ENDBRANCH  42  45
ENDBRANCH  24  38
BRANCH  25  49
ATOM     49  C   UNL     1       6.785   7.552   5.968  1.00  0.00     0.023 A 
ATOM     50  C   UNL     1       7.918   8.195   5.435  1.00  0.00     0.012 A 
ATOM     51  C   UNL     1       5.566   8.253   6.038  1.00  0.00     0.148 A 
ATOM     52  C   UNL     1       7.843   9.517   4.994  1.00  0.00     0.002 A 
ATOM     53  C   UNL     1       5.484   9.550   5.543  1.00  0.00     0.091 A 
ATOM     54  F   UNL     1       4.503   7.631   6.568  1.00  0.00    -0.205 F 
ATOM     55  C   UNL     1       6.625  10.189   5.035  1.00  0.00     0.022 A 
BRANCH  53  56
ATOM     56  S   UNL     1       3.920  10.426   5.423  1.00  0.00     0.127 S 
ATOM     57  O   UNL     1       4.018  11.366   6.536  1.00  0.00    -0.237 OA
ATOM     58  O   UNL     1       4.010  11.033   4.094  1.00  0.00    -0.237 OA
ATOM     59  O   UNL     1       2.892   9.400   5.541  1.00  0.00    -0.744 OA
ENDBRANCH  53  56
ENDBRANCH  25  49
BRANCH  37  60
ATOM     60  C   UNL     1      10.324   4.235  10.981  1.00  0.00     0.023 A 
ATOM     61  C   UNL     1       9.768   4.874  12.107  1.00  0.00     0.012 A 
ATOM     62  C   UNL     1      11.713   4.011  10.928  1.00  0.00     0.148 A 
ATOM     63  C   UNL     1      10.584   5.313  13.148  1.00  0.00     0.002 A 
ATOM     64  C   UNL     1      12.516   4.412  11.990  1.00  0.00     0.091 A 
ATOM     65  F   UNL     1      12.228   3.424   9.838  1.00  0.00    -0.205 F 
ATOM     66  C   UNL     1      11.955   5.072  13.095  1.00  0.00     0.022 A 
BRANCH  64  67
ATOM     67  S   UNL     1      14.277   4.059  12.039  1.00  0.00     0.127 S 
ATOM     68  O   UNL     1      14.851   5.345  11.649  1.00  0.00    -0.237 OA
ATOM     69  O   UNL     1      14.488   3.697  13.441  1.00  0.00    -0.237 OA
ATOM     70  O   UNL     1      14.485   2.963  11.101  1.00  0.00    -0.744 OA
ENDBRANCH  64  67
ENDBRANCH  37  60
ENDBRANCH  11  12
ENDBRANCH   4   6
ENDBRANCH   1   2
BRANCH   1  71
ATOM     71  C   UNL     1       4.962  -1.928  -1.429  1.00  0.00     0.042 C 
BRANCH  71  72
ATOM     72  C   UNL     1       4.412  -2.646  -2.651  1.00  0.00     0.118 C 
BRANCH  72  73
ATOM     73  N   UNL     1       4.894  -2.077  -3.902  1.00  0.00    -0.352 N 
ATOM     74  C   UNL     1       5.618  -2.661  -4.909  1.00  0.00     0.252 C 
ATOM     75  H   UNL     1       4.664  -1.131  -4.047  1.00  0.00     0.163 HD
ATOM     76  O   UNL     1       6.002  -1.993  -5.865  1.00  0.00    -0.269 OA
BRANCH  74  77
ATOM     77  C   UNL     1       5.996  -4.083  -4.829  1.00  0.00     0.059 A 
ATOM     78  C   UNL     1       7.369  -4.381  -4.884  1.00  0.00     0.024 A 
ATOM     79  C   UNL     1       5.055  -5.115  -4.782  1.00  0.00     0.053 A 
ATOM     80  C   UNL     1       7.818  -5.709  -4.841  1.00  0.00    -0.017 A 
ATOM     81  C   UNL     1       5.492  -6.433  -4.662  1.00  0.00     0.022 A 
ATOM     82  Cl  UNL     1       3.353  -4.853  -4.930  1.00  0.00    -0.083 Cl
ATOM     83  C   UNL     1       6.859  -6.724  -4.682  1.00  0.00     0.010 A 
BRANCH  80  84
ATOM     84  C   UNL     1       9.238  -6.048  -5.030  1.00  0.00    -0.017 A 
ATOM     85  C   UNL     1       9.612  -6.963  -6.034  1.00  0.00     0.009 A 
ATOM     86  C   UNL     1      10.253  -5.475  -4.249  1.00  0.00     0.029 A 
ATOM     87  C   UNL     1      10.949  -7.303  -6.249  1.00  0.00     0.002 A 
ATOM     88  C   UNL     1      11.591  -5.817  -4.467  1.00  0.00     0.041 A 
ATOM     89  C   UNL     1      11.941  -6.729  -5.461  1.00  0.00     0.020 A 
ATOM     90  Cl  UNL     1      12.824  -5.108  -3.498  1.00  0.00    -0.084 Cl
ENDBRANCH  80  84
ENDBRANCH  74  77
ENDBRANCH  72  73
ENDBRANCH  71  72
ENDBRANCH   1  71
TORSDOF 14
