REMARK SMILES COc1ccc(-c2sc(N)nc2C(=O)NCCCNC(=O)c2ccc(-c3c4nc(c(-c5cccc(S(=O)(=O)[O-])c5F)c5ccc([nH]5)c(-c5cccc(S(=O)(=O)[O-])c5F)c5nc(c(-c6cccc(S(=O)(=O)[O-])c6F)c6ccc3[nH]6)C=C5)C=C4)cc2)cc1OC
REMARK SMILES IDX 17 1 16 2 15 3 13 4 14 5 12 7 7 8 8 9 9 10 11 11 6 12 3 13
REMARK SMILES IDX 4 14 86 15 5 16 85 17 2 18 1 19 87 20 88 21 10 22 18 25
REMARK SMILES IDX 19 26 20 27 21 29 22 30 23 31 84 32 24 33 83 34 25 35 26 36
REMARK SMILES IDX 27 37 77 38 28 39 82 40 76 41 78 42 29 43 81 44 75 45 74 46
REMARK SMILES IDX 30 48 62 49 42 50 61 51 43 52 46 53 60 54 79 55 44 56 45 57
REMARK SMILES IDX 59 59 80 60 47 61 31 62 32 63 40 64 33 65 35 66 41 67 34 68
REMARK SMILES IDX 36 69 37 70 38 71 39 72 63 73 64 74 72 75 65 76 67 77 73 78
REMARK SMILES IDX 66 79 68 80 69 81 70 82 71 83 48 84 49 85 57 86 50 87 52 88
REMARK SMILES IDX 58 89 51 90 53 91 54 92 55 93 56 94
REMARK H PARENT 15 6 10 23 10 24 19 28 78 47 46 58
REMARK Flexibility Score: inf
ROOT
ATOM      1  C   UNL     1       5.860  -9.444   0.121  1.00  0.00     0.042 C 
ENDROOT
BRANCH   1   2
ATOM      2  C   UNL     1       4.471  -9.308   0.733  1.00  0.00     0.118 C 
BRANCH   2   3
ATOM      3  N   UNL     1       4.192  -7.950   1.162  1.00  0.00    -0.351 N 
ATOM      4  C   UNL     1       3.343  -6.983   0.683  1.00  0.00     0.271 C 
ATOM      5  O   UNL     1       3.316  -5.935   1.338  1.00  0.00    -0.267 OA
ATOM      6  H   UNL     1       4.712  -7.667   1.949  1.00  0.00     0.163 HD
BRANCH   4   7
ATOM      7  C   UNL     1       2.508  -7.198  -0.512  1.00  0.00     0.149 A 
ATOM      8  C   UNL     1       1.642  -6.245  -1.055  1.00  0.00     0.069 A 
ATOM      9  S   UNL     1       0.796  -6.921  -2.393  1.00  0.00    -0.096 S 
ATOM     10  C   UNL     1       1.645  -8.389  -2.192  1.00  0.00     0.181 A 
ATOM     11  N   UNL     1       2.496  -8.409  -1.204  1.00  0.00    -0.215 NA
BRANCH   8  12
ATOM     12  C   UNL     1       1.397  -4.850  -0.674  1.00  0.00    -0.002 A 
ATOM     13  C   UNL     1       1.066  -2.223   0.281  1.00  0.00     0.160 A 
ATOM     14  C   UNL     1      -0.017  -3.115   0.256  1.00  0.00     0.051 A 
ATOM     15  C   UNL     1       2.319  -2.630  -0.190  1.00  0.00     0.161 A 
ATOM     16  C   UNL     1       0.146  -4.420  -0.222  1.00  0.00     0.014 A 
ATOM     17  C   UNL     1       2.458  -3.935  -0.683  1.00  0.00     0.060 A 
BRANCH  13  18
ATOM     18  O   UNL     1       0.874  -1.021   0.907  1.00  0.00    -0.493 OA
ATOM     19  C   UNL     1       0.289  -0.054   0.038  1.00  0.00     0.278 C 
ENDBRANCH  13  18
BRANCH  15  20
ATOM     20  O   UNL     1       3.500  -1.943  -0.218  1.00  0.00    -0.493 OA
ATOM     21  C   UNL     1       3.529  -0.589   0.192  1.00  0.00     0.278 C 
ENDBRANCH  15  20
ENDBRANCH   8  12
BRANCH  10  22
ATOM     22  N   UNL     1       1.450  -9.444  -2.988  1.00  0.00    -0.375 N 
ATOM     23  H   UNL     1       0.799  -9.391  -3.725  1.00  0.00     0.159 HD
ATOM     24  H   UNL     1       1.956 -10.274  -2.837  1.00  0.00     0.159 HD
ENDBRANCH  10  22
ENDBRANCH   4   7
ENDBRANCH   2   3
ENDBRANCH   1   2
BRANCH   1  25
ATOM     25  C   UNL     1       6.997  -9.176   1.105  1.00  0.00     0.118 C 
BRANCH  25  26
ATOM     26  N   UNL     1       6.969 -10.074   2.256  1.00  0.00    -0.352 N 
ATOM     27  C   UNL     1       7.887 -10.997   2.688  1.00  0.00     0.251 C 
ATOM     28  H   UNL     1       6.160 -10.005   2.813  1.00  0.00     0.163 HD
ATOM     29  O   UNL     1       7.572 -11.796   3.567  1.00  0.00    -0.269 OA
BRANCH  27  30
ATOM     30  C   UNL     1       9.242 -11.042   2.100  1.00  0.00     0.039 A 
ATOM     31  C   UNL     1       9.824 -12.285   1.836  1.00  0.00     0.014 A 
ATOM     32  C   UNL     1       9.949  -9.867   1.835  1.00  0.00     0.014 A 
ATOM     33  C   UNL     1      11.089 -12.346   1.248  1.00  0.00     0.010 A 
ATOM     34  C   UNL     1      11.170  -9.929   1.170  1.00  0.00     0.010 A 
ATOM     35  C   UNL     1      11.758 -11.168   0.877  1.00  0.00    -0.014 A 
BRANCH  35  36
ATOM     36  C   UNL     1      13.062 -11.213   0.167  1.00  0.00     0.031 A 
ATOM     37  C   UNL     1      14.288 -10.594   0.781  1.00  0.00     0.074 A 
ATOM     38  C   UNL     1      13.120 -11.727  -1.077  1.00  0.00     0.049 A 
ATOM     39  N   UNL     1      15.494 -10.491   0.286  1.00  0.00    -0.248 NA
ATOM     40  C   UNL     1      14.131  -9.982   2.110  1.00  0.00     0.031 C 
ATOM     41  C   UNL     1      11.982 -12.275  -1.817  1.00  0.00     0.029 A 
ATOM     42  N   UNL     1      14.172 -11.843  -1.951  1.00  0.00    -0.354 N 
ATOM     43  C   UNL     1      16.227  -9.768   1.220  1.00  0.00     0.074 A 
ATOM     44  C   UNL     1      15.321  -9.429   2.295  1.00  0.00     0.031 C 
ATOM     45  C   UNL     1      12.396 -12.670  -3.031  1.00  0.00     0.029 A 
ATOM     46  C   UNL     1      13.818 -12.370  -3.170  1.00  0.00     0.049 A 
ATOM     47  H   UNL     1      15.092 -11.574  -1.726  1.00  0.00     0.167 HD
ATOM     48  C   UNL     1      17.540  -9.435   1.196  1.00  0.00     0.034 A 
ATOM     49  C   UNL     1      14.548 -12.575  -4.284  1.00  0.00     0.034 A 
ATOM     50  C   UNL     1      18.443  -9.801   0.138  1.00  0.00     0.049 A 
ATOM     51  C   UNL     1      16.012 -12.239  -4.272  1.00  0.00     0.074 A 
ATOM     52  C   UNL     1      19.811  -9.607   0.070  1.00  0.00     0.029 A 
ATOM     53  N   UNL     1      18.067 -10.413  -1.048  1.00  0.00    -0.354 N 
ATOM     54  N   UNL     1      16.729 -11.712  -3.309  1.00  0.00    -0.248 NA
ATOM     55  C   UNL     1      16.778 -12.559  -5.484  1.00  0.00     0.031 C 
ATOM     56  C   UNL     1      20.255 -10.063  -1.177  1.00  0.00     0.029 A 
ATOM     57  C   UNL     1      19.172 -10.584  -1.866  1.00  0.00     0.049 A 
ATOM     58  H   UNL     1      17.149 -10.687  -1.276  1.00  0.00     0.167 HD
ATOM     59  C   UNL     1      18.034 -11.664  -3.785  1.00  0.00     0.074 A 
ATOM     60  C   UNL     1      18.011 -12.236  -5.116  1.00  0.00     0.031 C 
ATOM     61  C   UNL     1      19.147 -11.184  -3.177  1.00  0.00     0.034 A 
BRANCH  48  62
ATOM     62  C   UNL     1      18.082  -8.654   2.367  1.00  0.00     0.023 A 
ATOM     63  C   UNL     1      18.176  -9.262   3.637  1.00  0.00     0.012 A 
ATOM     64  C   UNL     1      18.526  -7.327   2.206  1.00  0.00     0.148 A 
ATOM     65  C   UNL     1      18.652  -8.547   4.736  1.00  0.00     0.002 A 
ATOM     66  C   UNL     1      19.049  -6.638   3.294  1.00  0.00     0.091 A 
ATOM     67  F   UNL     1      18.412  -6.756   0.998  1.00  0.00    -0.205 F 
ATOM     68  C   UNL     1      19.096  -7.239   4.562  1.00  0.00     0.022 A 
BRANCH  66  69
ATOM     69  S   UNL     1      19.727  -4.981   3.153  1.00  0.00     0.127 S 
ATOM     70  O   UNL     1      18.700  -4.183   3.821  1.00  0.00    -0.237 OA
ATOM     71  O   UNL     1      20.984  -5.099   3.893  1.00  0.00    -0.237 OA
ATOM     72  O   UNL     1      19.885  -4.733   1.727  1.00  0.00    -0.744 OA
ENDBRANCH  66  69
ENDBRANCH  48  62
BRANCH  49  73
ATOM     73  C   UNL     1      13.900 -13.177  -5.482  1.00  0.00     0.023 A 
ATOM     74  C   UNL     1      14.202 -14.504  -5.844  1.00  0.00     0.012 A 
ATOM     75  C   UNL     1      12.938 -12.463  -6.223  1.00  0.00     0.148 A 
ATOM     76  C   UNL     1      13.572 -15.102  -6.936  1.00  0.00     0.002 A 
ATOM     77  C   UNL     1      12.273 -13.083  -7.273  1.00  0.00     0.091 A 
ATOM     78  F   UNL     1      12.670 -11.200  -5.861  1.00  0.00    -0.205 F 
ATOM     79  C   UNL     1      12.601 -14.397  -7.642  1.00  0.00     0.022 A 
BRANCH  77  80
ATOM     80  S   UNL     1      10.912 -12.306  -8.150  1.00  0.00     0.127 S 
ATOM     81  O   UNL     1      11.461 -12.171  -9.496  1.00  0.00    -0.237 OA
ATOM     82  O   UNL     1       9.857 -13.311  -8.012  1.00  0.00    -0.237 OA
ATOM     83  O   UNL     1      10.649 -11.056  -7.450  1.00  0.00    -0.744 OA
ENDBRANCH  77  80
ENDBRANCH  49  73
BRANCH  61  84
ATOM     84  C   UNL     1      20.451 -11.280  -3.927  1.00  0.00     0.023 A 
ATOM     85  C   UNL     1      20.686 -10.455  -5.044  1.00  0.00     0.012 A 
ATOM     86  C   UNL     1      21.473 -12.139  -3.475  1.00  0.00     0.148 A 
ATOM     87  C   UNL     1      21.904 -10.508  -5.721  1.00  0.00     0.002 A 
ATOM     88  C   UNL     1      22.703 -12.148  -4.122  1.00  0.00     0.091 A 
ATOM     89  F   UNL     1      21.224 -12.929  -2.421  1.00  0.00    -0.205 F 
ATOM     90  C   UNL     1      22.916 -11.344  -5.253  1.00  0.00     0.022 A 
BRANCH  88  91
ATOM     91  S   UNL     1      24.095 -13.117  -3.531  1.00  0.00     0.127 S 
ATOM     92  O   UNL     1      24.201 -14.146  -4.563  1.00  0.00    -0.237 OA
ATOM     93  O   UNL     1      25.180 -12.134  -3.536  1.00  0.00    -0.237 OA
ATOM     94  O   UNL     1      23.720 -13.597  -2.208  1.00  0.00    -0.744 OA
ENDBRANCH  88  91
ENDBRANCH  61  84
ENDBRANCH  35  36
ENDBRANCH  27  30
ENDBRANCH  25  26
ENDBRANCH   1  25
TORSDOF 17
