REMARK SMILES C[NH2+]C[C@H](C)C(=O)N1CCc2cc(C(=O)NCCCNC(=O)c3ccc(-c4c5nc(c(-c6cccc(S(=O)(=O)[O-])c6F)c6ccc([nH]6)c(-c6cccc(S(=O)(=O)[O-])c6F)c6nc(c(-c7cccc(S(=O)(=O)[O-])c7F)c7ccc4[nH]7)C=C6)C=C5)cc3)ccc21
REMARK SMILES IDX 17 1 16 2 14 3 15 4 13 6 8 7 9 8 88 9 10 10 11 11 87 12
REMARK SMILES IDX 12 13 86 14 6 15 7 16 4 17 5 18 3 19 2 20 1 21 18 24 19 25
REMARK SMILES IDX 20 26 21 27 22 29 23 30 24 31 85 32 25 33 84 34 26 35 27 36
REMARK SMILES IDX 28 37 78 38 29 39 83 40 77 41 79 42 30 43 82 44 76 45 75 46
REMARK SMILES IDX 31 48 63 49 43 50 62 51 44 52 47 53 61 54 80 55 45 56 46 57
REMARK SMILES IDX 60 59 81 60 48 61 32 62 33 63 41 64 34 65 36 66 42 67 35 68
REMARK SMILES IDX 37 69 38 70 39 71 40 72 64 73 65 74 73 75 66 76 68 77 74 78
REMARK SMILES IDX 67 79 69 80 70 81 71 82 72 83 49 84 50 85 58 86 51 87 53 88
REMARK SMILES IDX 59 89 52 90 54 91 55 92 56 93 57 94
REMARK H PARENT 16 5 2 22 2 23 20 28 79 47 47 58
REMARK Flexibility Score: inf
ROOT
ATOM      1  C   UNL     1      -0.737  -1.898  -6.564  1.00  0.00     0.118 C 
ENDROOT
BRANCH   1   2
ATOM      2  N   UNL     1      -2.035  -1.737  -7.197  1.00  0.00    -0.352 N 
ATOM      3  C   UNL     1      -3.198  -1.154  -6.756  1.00  0.00     0.251 C 
ATOM      4  O   UNL     1      -4.124  -1.028  -7.558  1.00  0.00    -0.269 OA
ATOM      5  H   UNL     1      -2.092  -2.114  -8.105  1.00  0.00     0.163 HD
BRANCH   3   6
ATOM      6  C   UNL     1      -3.359  -0.622  -5.374  1.00  0.00     0.040 A 
ATOM      7  N   UNL     1      -3.905   1.268  -1.696  1.00  0.00    -0.311 N 
ATOM      8  C   UNL     1      -5.145   2.017  -1.937  1.00  0.00     0.130 C 
ATOM      9  C   UNL     1      -3.622   0.524  -2.842  1.00  0.00     0.047 A 
ATOM     10  C   UNL     1      -5.411   1.976  -3.449  1.00  0.00     0.059 C 
ATOM     11  C   UNL     1      -4.413   0.959  -3.904  1.00  0.00    -0.022 A 
ATOM     12  C   UNL     1      -2.827  -0.588  -2.989  1.00  0.00     0.027 A 
ATOM     13  C   UNL     1      -4.268   0.428  -5.179  1.00  0.00     0.019 A 
ATOM     14  C   UNL     1      -2.713  -1.168  -4.255  1.00  0.00     0.016 A 
BRANCH   7  15
ATOM     15  C   UNL     1      -3.307   1.278  -0.459  1.00  0.00     0.235 C 
ATOM     16  O   UNL     1      -4.003   1.364   0.562  1.00  0.00    -0.274 OA
BRANCH  15  17
ATOM     17  C   UNL     1      -1.785   1.475  -0.330  1.00  0.00     0.131 C 
ATOM     18  C   UNL     1      -0.908   0.247  -0.537  1.00  0.00     0.024 C 
BRANCH  17  19
ATOM     19  C   UNL     1      -1.245   2.670  -1.143  1.00  0.00     0.273 C 
BRANCH  19  20
ATOM     20  N   UNL     1      -1.996   3.932  -1.104  1.00  0.00    -0.348 N 
ATOM     21  C   UNL     1      -2.229   4.432   0.244  1.00  0.00     0.330 C 
ATOM     22  H   UNL     1      -1.471   4.635  -1.623  1.00  0.00     0.346 HD
ATOM     23  H   UNL     1      -2.911   3.747  -1.515  1.00  0.00     0.346 HD
ENDBRANCH  19  20
ENDBRANCH  17  19
ENDBRANCH  15  17
ENDBRANCH   7  15
ENDBRANCH   3   6
ENDBRANCH   1   2
BRANCH   1  24
ATOM     24  C   UNL     1      -0.538  -3.313  -6.022  1.00  0.00     0.042 C 
BRANCH  24  25
ATOM     25  C   UNL     1      -0.253  -4.352  -7.099  1.00  0.00     0.118 C 
BRANCH  25  26
ATOM     26  N   UNL     1       1.060  -4.171  -7.697  1.00  0.00    -0.352 N 
ATOM     27  C   UNL     1       2.114  -5.044  -7.795  1.00  0.00     0.251 C 
ATOM     28  H   UNL     1       1.216  -3.284  -8.093  1.00  0.00     0.163 HD
ATOM     29  O   UNL     1       3.208  -4.611  -8.149  1.00  0.00    -0.269 OA
BRANCH  27  30
ATOM     30  C   UNL     1       1.954  -6.483  -7.479  1.00  0.00     0.039 A 
ATOM     31  C   UNL     1       3.019  -7.154  -6.869  1.00  0.00     0.014 A 
ATOM     32  C   UNL     1       0.804  -7.192  -7.835  1.00  0.00     0.014 A 
ATOM     33  C   UNL     1       2.919  -8.521  -6.592  1.00  0.00     0.010 A 
ATOM     34  C   UNL     1       0.674  -8.536  -7.489  1.00  0.00     0.010 A 
ATOM     35  C   UNL     1       1.739  -9.221  -6.886  1.00  0.00    -0.014 A 
BRANCH  35  36
ATOM     36  C   UNL     1       1.614 -10.673  -6.597  1.00  0.00     0.031 A 
ATOM     37  C   UNL     1       1.431 -11.658  -7.723  1.00  0.00     0.074 A 
ATOM     38  C   UNL     1       1.596 -11.101  -5.319  1.00  0.00     0.049 A 
ATOM     39  N   UNL     1       1.266 -12.954  -7.667  1.00  0.00    -0.248 NA
ATOM     40  C   UNL     1       1.404 -11.112  -9.091  1.00  0.00     0.031 C 
ATOM     41  C   UNL     1       1.686 -10.239  -4.138  1.00  0.00     0.029 A 
ATOM     42  N   UNL     1       1.470 -12.364  -4.798  1.00  0.00    -0.354 N 
ATOM     43  C   UNL     1       1.074 -13.372  -8.979  1.00  0.00     0.074 A 
ATOM     44  C   UNL     1       1.114 -12.188  -9.809  1.00  0.00     0.031 C 
ATOM     45  C   UNL     1       1.617 -10.999  -3.033  1.00  0.00     0.029 A 
ATOM     46  C   UNL     1       1.454 -12.396  -3.423  1.00  0.00     0.049 A 
ATOM     47  H   UNL     1       1.399 -13.172  -5.357  1.00  0.00     0.167 HD
ATOM     48  C   UNL     1       0.911 -14.629  -9.455  1.00  0.00     0.034 A 
ATOM     49  C   UNL     1       1.320 -13.433  -2.573  1.00  0.00     0.034 A 
ATOM     50  C   UNL     1       0.934 -15.809  -8.634  1.00  0.00     0.049 A 
ATOM     51  C   UNL     1       1.201 -14.826  -3.133  1.00  0.00     0.074 A 
ATOM     52  C   UNL     1       0.879 -17.134  -9.031  1.00  0.00     0.029 A 
ATOM     53  N   UNL     1       1.017 -15.809  -7.251  1.00  0.00    -0.354 N 
ATOM     54  N   UNL     1       1.192 -15.214  -4.385  1.00  0.00    -0.248 NA
ATOM     55  C   UNL     1       1.112 -15.927  -2.163  1.00  0.00     0.031 C 
ATOM     56  C   UNL     1       0.913 -17.935  -7.884  1.00  0.00     0.029 A 
ATOM     57  C   UNL     1       1.008 -17.109  -6.776  1.00  0.00     0.049 A 
ATOM     58  H   UNL     1       1.075 -15.002  -6.689  1.00  0.00     0.167 HD
ATOM     59  C   UNL     1       1.135 -16.603  -4.354  1.00  0.00     0.074 A 
ATOM     60  C   UNL     1       1.135 -16.988  -2.958  1.00  0.00     0.031 C 
ATOM     61  C   UNL     1       1.070 -17.479  -5.386  1.00  0.00     0.034 A 
BRANCH  48  62
ATOM     62  C   UNL     1       0.757 -14.804 -10.944  1.00  0.00     0.023 A 
ATOM     63  C   UNL     1       1.875 -14.616 -11.784  1.00  0.00     0.012 A 
ATOM     64  C   UNL     1      -0.466 -15.220 -11.505  1.00  0.00     0.148 A 
ATOM     65  C   UNL     1       1.770 -14.809 -13.160  1.00  0.00     0.002 A 
ATOM     66  C   UNL     1      -0.551 -15.452 -12.873  1.00  0.00     0.091 A 
ATOM     67  F   UNL     1      -1.522 -15.375 -10.694  1.00  0.00    -0.205 F 
ATOM     68  C   UNL     1       0.562 -15.236 -13.703  1.00  0.00     0.022 A 
BRANCH  66  69
ATOM     69  S   UNL     1      -2.039 -16.079 -13.661  1.00  0.00     0.127 S 
ATOM     70  O   UNL     1      -2.488 -14.910 -14.416  1.00  0.00    -0.237 OA
ATOM     71  O   UNL     1      -1.516 -17.171 -14.483  1.00  0.00    -0.237 OA
ATOM     72  O   UNL     1      -2.920 -16.500 -12.580  1.00  0.00    -0.744 OA
ENDBRANCH  66  69
ENDBRANCH  48  62
BRANCH  49  73
ATOM     73  C   UNL     1       1.370 -13.204  -1.101  1.00  0.00     0.023 A 
ATOM     74  C   UNL     1       2.486 -13.656  -0.370  1.00  0.00     0.012 A 
ATOM     75  C   UNL     1       0.336 -12.529  -0.425  1.00  0.00     0.148 A 
ATOM     76  C   UNL     1       2.556 -13.472   1.011  1.00  0.00     0.002 A 
ATOM     77  C   UNL     1       0.437 -12.300   0.942  1.00  0.00     0.091 A 
ATOM     78  F   UNL     1      -0.726 -12.119  -1.134  1.00  0.00    -0.205 F 
ATOM     79  C   UNL     1       1.537 -12.786   1.665  1.00  0.00     0.022 A 
BRANCH  77  80
ATOM     80  S   UNL     1      -0.764 -11.309   1.838  1.00  0.00     0.127 S 
ATOM     81  O   UNL     1      -1.514 -12.330   2.564  1.00  0.00    -0.237 OA
ATOM     82  O   UNL     1       0.094 -10.466   2.670  1.00  0.00    -0.237 OA
ATOM     83  O   UNL     1      -1.505 -10.579   0.816  1.00  0.00    -0.744 OA
ENDBRANCH  77  80
ENDBRANCH  49  73
BRANCH  61  84
ATOM     84  C   UNL     1       1.028 -18.947  -5.054  1.00  0.00     0.023 A 
ATOM     85  C   UNL     1      -0.147 -19.508  -4.515  1.00  0.00     0.012 A 
ATOM     86  C   UNL     1       2.124 -19.783  -5.346  1.00  0.00     0.148 A 
ATOM     87  C   UNL     1      -0.219 -20.874  -4.242  1.00  0.00     0.002 A 
ATOM     88  C   UNL     1       2.027 -21.150  -5.116  1.00  0.00     0.091 A 
ATOM     89  F   UNL     1       3.240 -19.227  -5.840  1.00  0.00    -0.205 F 
ATOM     90  C   UNL     1       0.862 -21.695  -4.553  1.00  0.00     0.022 A 
BRANCH  88  91
ATOM     91  S   UNL     1       3.333 -22.295  -5.576  1.00  0.00     0.127 S 
ATOM     92  O   UNL     1       3.920 -22.616  -4.277  1.00  0.00    -0.237 OA
ATOM     93  O   UNL     1       2.585 -23.390  -6.195  1.00  0.00    -0.237 OA
ATOM     94  O   UNL     1       4.199 -21.565  -6.493  1.00  0.00    -0.744 OA
ENDBRANCH  88  91
ENDBRANCH  61  84
ENDBRANCH  35  36
ENDBRANCH  27  30
ENDBRANCH  25  26
ENDBRANCH  24  25
ENDBRANCH   1  24
TORSDOF 17
