REMARK SMILES COc1ccc(CCNc2ncnc3sc(C(=O)NCCCNC(=O)c4ccc(-c5c6nc(c(-c7cccc(S(=O)(=O)[O-])c7F)c7ccc([nH]7)c(-c7cccc(S(=O)(=O)[O-])c7F)c7nc(c(-c8cccc(S(=O)(=O)[O-])c8F)c8ccc5[nH]8)C=C7)C=C6)cc4)c(C)c23)cc1OC
REMARK SMILES IDX 20 1 19 2 17 3 18 4 16 6 10 7 11 8 91 9 12 10 14 11 89 12
REMARK SMILES IDX 13 13 15 14 90 15 9 16 8 18 7 19 6 20 3 21 4 22 93 23 5 24
REMARK SMILES IDX 92 25 2 26 1 27 94 28 95 29 21 30 22 31 23 32 24 33 25 35
REMARK SMILES IDX 26 36 27 37 88 38 28 39 87 40 29 41 30 42 31 43 81 44 32 45
REMARK SMILES IDX 86 46 80 47 82 48 33 49 85 50 79 51 78 52 34 54 66 55 46 56
REMARK SMILES IDX 65 57 47 58 50 59 64 60 83 61 48 62 49 63 63 65 84 66 51 67
REMARK SMILES IDX 35 68 36 69 44 70 37 71 39 72 45 73 38 74 40 75 41 76 42 77
REMARK SMILES IDX 43 78 67 79 68 80 76 81 69 82 71 83 77 84 70 85 72 86 73 87
REMARK SMILES IDX 74 88 75 89 52 90 53 91 61 92 54 93 56 94 62 95 55 96 57 97
REMARK SMILES IDX 58 98 59 99 60 100
REMARK H PARENT 19 5 9 17 23 34 82 53 50 64
REMARK Flexibility Score: inf
ROOT
ATOM      1  C   UNL     1      -5.446   8.549  -5.686  1.00  0.00     0.118 C 
ENDROOT
BRANCH   1   2
ATOM      2  N   UNL     1      -5.215   7.438  -4.789  1.00  0.00    -0.351 N 
ATOM      3  C   UNL     1      -4.342   6.383  -4.807  1.00  0.00     0.261 C 
ATOM      4  O   UNL     1      -4.489   5.622  -3.847  1.00  0.00    -0.268 OA
ATOM      5  H   UNL     1      -5.808   7.441  -4.003  1.00  0.00     0.163 HD
BRANCH   3   6
ATOM      6  C   UNL     1      -3.283   6.199  -5.806  1.00  0.00     0.098 A 
ATOM      7  C   UNL     1       0.095   5.080  -7.044  1.00  0.00     0.138 A 
ATOM      8  N   UNL     1       0.761   5.561  -8.116  1.00  0.00    -0.219 NA
ATOM      9  C   UNL     1      -1.212   5.559  -6.781  1.00  0.00     0.057 A 
ATOM     10  C   UNL     1       0.121   6.394  -8.948  1.00  0.00     0.225 A 
ATOM     11  C   UNL     1      -1.732   6.420  -7.726  1.00  0.00     0.129 A 
ATOM     12  C   UNL     1      -2.147   5.394  -5.671  1.00  0.00    -0.014 A 
ATOM     13  N   UNL     1      -1.125   6.858  -8.841  1.00  0.00    -0.225 NA
ATOM     14  S   UNL     1      -3.308   6.903  -7.364  1.00  0.00    -0.110 S 
ATOM     15  C   UNL     1      -1.853   4.527  -4.492  1.00  0.00     0.047 C 
BRANCH   7  16
ATOM     16  N   UNL     1       0.693   4.126  -6.257  1.00  0.00    -0.369 N 
ATOM     17  H   UNL     1       0.126   3.416  -5.879  1.00  0.00     0.162 HD
BRANCH  16  18
ATOM     18  C   UNL     1       2.109   4.102  -5.950  1.00  0.00     0.119 C 
BRANCH  18  19
ATOM     19  C   UNL     1       2.344   4.190  -4.425  1.00  0.00     0.057 C 
BRANCH  19  20
ATOM     20  C   UNL     1       2.044   2.946  -3.607  1.00  0.00    -0.042 A 
ATOM     21  C   UNL     1       1.440   0.740  -1.937  1.00  0.00     0.160 A 
ATOM     22  C   UNL     1       0.457   1.304  -2.743  1.00  0.00     0.051 A 
ATOM     23  C   UNL     1       2.747   1.240  -1.986  1.00  0.00     0.160 A 
ATOM     24  C   UNL     1       0.765   2.390  -3.558  1.00  0.00     0.008 A 
ATOM     25  C   UNL     1       3.028   2.352  -2.807  1.00  0.00     0.054 A 
BRANCH  21  26
ATOM     26  O   UNL     1       1.100  -0.344  -1.176  1.00  0.00    -0.493 OA
ATOM     27  C   UNL     1       0.204  -0.001  -0.115  1.00  0.00     0.278 C 
ENDBRANCH  21  26
BRANCH  23  28
ATOM     28  O   UNL     1       3.849   0.788  -1.308  1.00  0.00    -0.493 OA
ATOM     29  C   UNL     1       3.680  -0.318  -0.434  1.00  0.00     0.278 C 
ENDBRANCH  23  28
ENDBRANCH  19  20
ENDBRANCH  18  19
ENDBRANCH  16  18
ENDBRANCH   7  16
ENDBRANCH   3   6
ENDBRANCH   1   2
BRANCH   1  30
ATOM     30  C   UNL     1      -6.458   8.180  -6.774  1.00  0.00     0.042 C 
BRANCH  30  31
ATOM     31  C   UNL     1      -7.885   8.204  -6.245  1.00  0.00     0.118 C 
BRANCH  31  32
ATOM     32  N   UNL     1      -8.291   9.561  -5.891  1.00  0.00    -0.352 N 
ATOM     33  C   UNL     1      -9.430   9.993  -5.250  1.00  0.00     0.251 C 
ATOM     34  H   UNL     1      -7.658  10.270  -6.148  1.00  0.00     0.163 HD
ATOM     35  O   UNL     1      -9.748  11.168  -5.291  1.00  0.00    -0.269 OA
BRANCH  33  36
ATOM     36  C   UNL     1     -10.274   9.010  -4.547  1.00  0.00     0.039 A 
ATOM     37  C   UNL     1     -11.657   9.052  -4.729  1.00  0.00     0.014 A 
ATOM     38  C   UNL     1      -9.685   8.033  -3.745  1.00  0.00     0.014 A 
ATOM     39  C   UNL     1     -12.436   8.046  -4.173  1.00  0.00     0.010 A 
ATOM     40  C   UNL     1     -10.444   6.976  -3.288  1.00  0.00     0.010 A 
ATOM     41  C   UNL     1     -11.823   6.984  -3.487  1.00  0.00    -0.014 A 
BRANCH  41  42
ATOM     42  C   UNL     1     -12.618   5.793  -3.177  1.00  0.00     0.031 A 
ATOM     43  C   UNL     1     -13.346   5.253  -4.357  1.00  0.00     0.074 A 
ATOM     44  C   UNL     1     -12.565   5.111  -2.012  1.00  0.00     0.049 A 
ATOM     45  N   UNL     1     -14.620   5.289  -4.577  1.00  0.00    -0.248 NA
ATOM     46  C   UNL     1     -12.558   4.785  -5.511  1.00  0.00     0.031 C 
ATOM     47  C   UNL     1     -11.644   5.351  -0.896  1.00  0.00     0.029 A 
ATOM     48  N   UNL     1     -13.215   3.969  -1.632  1.00  0.00    -0.354 N 
ATOM     49  C   UNL     1     -14.803   4.572  -5.759  1.00  0.00     0.074 A 
ATOM     50  C   UNL     1     -13.518   4.521  -6.400  1.00  0.00     0.031 C 
ATOM     51  C   UNL     1     -11.599   4.254  -0.111  1.00  0.00     0.029 A 
ATOM     52  C   UNL     1     -12.609   3.316  -0.561  1.00  0.00     0.049 A 
ATOM     53  H   UNL     1     -14.032   3.640  -2.073  1.00  0.00     0.167 HD
ATOM     54  C   UNL     1     -15.900   3.781  -5.913  1.00  0.00     0.034 A 
ATOM     55  C   UNL     1     -12.886   2.078  -0.089  1.00  0.00     0.034 A 
ATOM     56  C   UNL     1     -16.890   4.082  -4.908  1.00  0.00     0.049 A 
ATOM     57  C   UNL     1     -14.266   1.744  -0.496  1.00  0.00     0.074 A 
ATOM     58  C   UNL     1     -17.738   5.119  -4.593  1.00  0.00     0.029 A 
ATOM     59  N   UNL     1     -16.779   3.288  -3.799  1.00  0.00    -0.354 N 
ATOM     60  N   UNL     1     -15.318   2.359  -0.033  1.00  0.00    -0.248 NA
ATOM     61  C   UNL     1     -14.495   0.898  -1.661  1.00  0.00     0.031 C 
ATOM     62  C   UNL     1     -17.991   5.008  -3.192  1.00  0.00     0.029 A 
ATOM     63  C   UNL     1     -17.324   3.886  -2.700  1.00  0.00     0.049 A 
ATOM     64  H   UNL     1     -16.360   2.398  -3.794  1.00  0.00     0.167 HD
ATOM     65  C   UNL     1     -16.192   2.362  -1.103  1.00  0.00     0.074 A 
ATOM     66  C   UNL     1     -15.734   1.287  -1.972  1.00  0.00     0.031 C 
ATOM     67  C   UNL     1     -16.969   3.453  -1.364  1.00  0.00     0.034 A 
BRANCH  54  68
ATOM     68  C   UNL     1     -15.904   2.402  -6.567  1.00  0.00     0.023 A 
ATOM     69  C   UNL     1     -17.154   1.738  -6.639  1.00  0.00     0.012 A 
ATOM     70  C   UNL     1     -14.758   1.608  -6.800  1.00  0.00     0.148 A 
ATOM     71  C   UNL     1     -17.250   0.358  -6.856  1.00  0.00     0.002 A 
ATOM     72  C   UNL     1     -14.862   0.250  -7.089  1.00  0.00     0.091 A 
ATOM     73  F   UNL     1     -13.538   2.112  -6.612  1.00  0.00    -0.205 F 
ATOM     74  C   UNL     1     -16.102  -0.388  -7.084  1.00  0.00     0.022 A 
BRANCH  72  75
ATOM     75  S   UNL     1     -13.407  -0.755  -7.421  1.00  0.00     0.127 S 
ATOM     76  O   UNL     1     -13.335  -1.569  -6.211  1.00  0.00    -0.237 OA
ATOM     77  O   UNL     1     -13.813  -1.471  -8.631  1.00  0.00    -0.237 OA
ATOM     78  O   UNL     1     -12.315   0.189  -7.624  1.00  0.00    -0.744 OA
ENDBRANCH  72  75
ENDBRANCH  54  68
BRANCH  55  79
ATOM     79  C   UNL     1     -12.020   1.090   0.596  1.00  0.00     0.023 A 
ATOM     80  C   UNL     1     -12.611   0.054   1.348  1.00  0.00     0.012 A 
ATOM     81  C   UNL     1     -10.646   0.989   0.285  1.00  0.00     0.148 A 
ATOM     82  C   UNL     1     -11.873  -1.073   1.728  1.00  0.00     0.002 A 
ATOM     83  C   UNL     1      -9.915  -0.131   0.672  1.00  0.00     0.091 A 
ATOM     84  F   UNL     1     -10.082   1.943  -0.467  1.00  0.00    -0.205 F 
ATOM     85  C   UNL     1     -10.530  -1.172   1.380  1.00  0.00     0.022 A 
BRANCH  83  86
ATOM     86  S   UNL     1      -8.180  -0.338   0.246  1.00  0.00     0.127 S 
ATOM     87  O   UNL     1      -7.601  -0.760   1.522  1.00  0.00    -0.237 OA
ATOM     88  O   UNL     1      -8.241  -1.382  -0.773  1.00  0.00    -0.237 OA
ATOM     89  O   UNL     1      -7.726   0.970  -0.211  1.00  0.00    -0.744 OA
ENDBRANCH  83  86
ENDBRANCH  55  79
BRANCH  67  90
ATOM     90  C   UNL     1     -17.314   4.357  -0.216  1.00  0.00     0.023 A 
ATOM     91  C   UNL     1     -16.353   5.079   0.517  1.00  0.00     0.012 A 
ATOM     92  C   UNL     1     -18.676   4.536   0.082  1.00  0.00     0.148 A 
ATOM     93  C   UNL     1     -16.744   5.937   1.549  1.00  0.00     0.002 A 
ATOM     94  C   UNL     1     -19.063   5.426   1.073  1.00  0.00     0.091 A 
ATOM     95  F   UNL     1     -19.579   3.830  -0.616  1.00  0.00    -0.205 F 
ATOM     96  C   UNL     1     -18.099   6.120   1.820  1.00  0.00     0.022 A 
BRANCH  94  97
ATOM     97  S   UNL     1     -20.795   5.777   1.376  1.00  0.00     0.127 S 
ATOM     98  O   UNL     1     -21.075   4.952   2.549  1.00  0.00    -0.237 OA
ATOM     99  O   UNL     1     -20.788   7.219   1.628  1.00  0.00    -0.237 OA
ATOM    100  O   UNL     1     -21.493   5.395   0.153  1.00  0.00    -0.744 OA
ENDBRANCH  94  97
ENDBRANCH  67  90
ENDBRANCH  41  42
ENDBRANCH  33  36
ENDBRANCH  31  32
ENDBRANCH  30  31
ENDBRANCH   1  30
TORSDOF 19
