REMARK SMILES O=C(NCCCNC(=O)c1cc([C@@H]2C=NN=C2c2ccc(F)cc2)c2c(ccc3ccccc32)n1)c1ccc(-c2c3nc(c(-c4cccc(S(=O)(=O)[O-])c4F)c4ccc([nH]4)c(-c4cccc(S(=O)(=O)[O-])c4F)c4nc(c(-c5cccc(S(=O)(=O)[O-])c5F)c5ccc2[nH]5)C=C4)C=C3)cc1
REMARK SMILES IDX 4 1 3 2 1 3 2 4 36 6 37 7 98 8 38 9 97 10 39 11 40 12 41 13
REMARK SMILES IDX 91 14 42 15 96 16 90 17 92 18 43 19 95 20 89 21 88 22 44 24
REMARK SMILES IDX 76 25 56 26 75 27 57 28 60 29 74 30 93 31 58 32 59 33 73 35
REMARK SMILES IDX 94 36 61 37 45 38 46 39 54 40 47 41 49 42 55 43 48 44 50 45
REMARK SMILES IDX 51 46 52 47 53 48 77 49 78 50 86 51 79 52 81 53 87 54 80 55
REMARK SMILES IDX 82 56 83 57 84 58 85 59 62 60 63 61 71 62 64 63 66 64 72 65
REMARK SMILES IDX 65 66 67 67 68 68 69 69 70 70 5 71 6 72 7 73 8 74 9 76 10 77
REMARK SMILES IDX 11 78 35 79 12 80 26 81 25 82 27 83 34 84 28 85 29 86 33 87
REMARK SMILES IDX 30 88 32 89 31 90 13 91 14 92 17 93 15 94 16 95 18 96 19 97
REMARK SMILES IDX 24 98 20 99 23 100 21 101 22 102
REMARK H PARENT 3 5 92 23 60 34 7 75
REMARK Flexibility Score: inf
ROOT
ATOM      1  C   UNL     1       4.742  -0.434  -0.870  1.00  0.00     0.118 C 
ENDROOT
BRANCH   1   2
ATOM      2  N   UNL     1       3.336  -0.177  -1.112  1.00  0.00    -0.352 N 
ATOM      3  O   UNL     1       1.236   0.445  -0.927  1.00  0.00    -0.269 OA
ATOM      4  C   UNL     1       2.252   0.094  -0.323  1.00  0.00     0.251 C 
ATOM      5  H   UNL     1       3.108  -0.202  -2.069  1.00  0.00     0.163 HD
BRANCH   4   6
ATOM      6  C   UNL     1       2.193  -0.079   1.155  1.00  0.00     0.039 A 
ATOM      7  C   UNL     1       3.264  -0.430   1.978  1.00  0.00     0.014 A 
ATOM      8  C   UNL     1       0.921   0.073   1.740  1.00  0.00     0.014 A 
ATOM      9  C   UNL     1       3.055  -0.734   3.321  1.00  0.00     0.010 A 
ATOM     10  C   UNL     1       0.711  -0.200   3.087  1.00  0.00     0.010 A 
ATOM     11  C   UNL     1       1.774  -0.645   3.866  1.00  0.00    -0.014 A 
BRANCH  11  12
ATOM     12  C   UNL     1       1.615  -0.884   5.298  1.00  0.00     0.031 A 
ATOM     13  C   UNL     1       2.250   0.138   6.182  1.00  0.00     0.074 A 
ATOM     14  C   UNL     1       0.820  -1.848   5.804  1.00  0.00     0.049 A 
ATOM     15  N   UNL     1       3.146  -0.036   7.100  1.00  0.00    -0.248 NA
ATOM     16  C   UNL     1       1.900   1.547   5.941  1.00  0.00     0.031 C 
ATOM     17  C   UNL     1      -0.111  -2.708   5.069  1.00  0.00     0.029 A 
ATOM     18  N   UNL     1       0.565  -2.157   7.110  1.00  0.00    -0.354 N 
ATOM     19  C   UNL     1       3.323   1.216   7.691  1.00  0.00     0.074 A 
ATOM     20  C   UNL     1       2.652   2.170   6.847  1.00  0.00     0.031 C 
ATOM     21  C   UNL     1      -0.996  -3.244   5.939  1.00  0.00     0.029 A 
ATOM     22  C   UNL     1      -0.616  -2.871   7.290  1.00  0.00     0.049 A 
ATOM     23  H   UNL     1       1.159  -1.899   7.851  1.00  0.00     0.167 HD
ATOM     24  C   UNL     1       3.831   1.373   8.943  1.00  0.00     0.034 A 
ATOM     25  C   UNL     1      -1.280  -3.052   8.457  1.00  0.00     0.034 A 
ATOM     26  C   UNL     1       4.508   0.199   9.413  1.00  0.00     0.049 A 
ATOM     27  C   UNL     1      -0.331  -2.791   9.560  1.00  0.00     0.074 A 
ATOM     28  C   UNL     1       5.596  -0.538   8.993  1.00  0.00     0.029 A 
ATOM     29  N   UNL     1       3.844  -0.587  10.319  1.00  0.00    -0.354 N 
ATOM     30  N   UNL     1       0.696  -3.543   9.835  1.00  0.00    -0.248 NA
ATOM     31  C   UNL     1      -0.317  -1.466  10.157  1.00  0.00     0.031 C 
ATOM     32  C   UNL     1       5.264  -1.888   9.303  1.00  0.00     0.029 A 
ATOM     33  C   UNL     1       4.014  -1.887   9.925  1.00  0.00     0.049 A 
ATOM     34  H   UNL     1       3.339  -0.275  11.105  1.00  0.00     0.167 HD
ATOM     35  C   UNL     1       1.673  -2.652  10.256  1.00  0.00     0.074 A 
ATOM     36  C   UNL     1       0.955  -1.417  10.556  1.00  0.00     0.031 C 
ATOM     37  C   UNL     1       2.997  -2.909  10.047  1.00  0.00     0.034 A 
BRANCH  24  38
ATOM     38  C   UNL     1       3.457   2.498   9.873  1.00  0.00     0.023 A 
ATOM     39  C   UNL     1       4.259   2.725  11.012  1.00  0.00     0.012 A 
ATOM     40  C   UNL     1       2.222   3.184   9.809  1.00  0.00     0.148 A 
ATOM     41  C   UNL     1       3.850   3.588  12.036  1.00  0.00     0.002 A 
ATOM     42  C   UNL     1       1.865   4.112  10.781  1.00  0.00     0.091 A 
ATOM     43  F   UNL     1       1.324   2.848   8.877  1.00  0.00    -0.205 F 
ATOM     44  C   UNL     1       2.662   4.298  11.911  1.00  0.00     0.022 A 
BRANCH  42  45
ATOM     45  S   UNL     1       0.384   5.114  10.608  1.00  0.00     0.127 S 
ATOM     46  O   UNL     1      -0.519   4.468  11.563  1.00  0.00    -0.237 OA
ATOM     47  O   UNL     1       0.869   6.435  11.019  1.00  0.00    -0.237 OA
ATOM     48  O   UNL     1       0.020   5.023   9.208  1.00  0.00    -0.744 OA
ENDBRANCH  42  45
ENDBRANCH  24  38
BRANCH  25  49
ATOM     49  C   UNL     1      -2.739  -3.150   8.710  1.00  0.00     0.023 A 
ATOM     50  C   UNL     1      -3.194  -3.687   9.932  1.00  0.00     0.012 A 
ATOM     51  C   UNL     1      -3.664  -2.450   7.905  1.00  0.00     0.148 A 
ATOM     52  C   UNL     1      -4.514  -3.495  10.358  1.00  0.00     0.002 A 
ATOM     53  C   UNL     1      -4.976  -2.266   8.331  1.00  0.00     0.091 A 
ATOM     54  F   UNL     1      -3.235  -1.881   6.771  1.00  0.00    -0.205 F 
ATOM     55  C   UNL     1      -5.401  -2.775   9.564  1.00  0.00     0.022 A 
BRANCH  53  56
ATOM     56  S   UNL     1      -6.167  -1.317   7.374  1.00  0.00     0.127 S 
ATOM     57  O   UNL     1      -7.335  -2.198   7.385  1.00  0.00    -0.237 OA
ATOM     58  O   UNL     1      -6.303  -0.107   8.180  1.00  0.00    -0.237 OA
ATOM     59  O   UNL     1      -5.566  -1.138   6.058  1.00  0.00    -0.744 OA
ENDBRANCH  53  56
ENDBRANCH  25  49
BRANCH  37  60
ATOM     60  C   UNL     1       3.399  -4.296   9.608  1.00  0.00     0.023 A 
ATOM     61  C   UNL     1       2.962  -4.853   8.388  1.00  0.00     0.012 A 
ATOM     62  C   UNL     1       4.398  -4.962  10.339  1.00  0.00     0.148 A 
ATOM     63  C   UNL     1       3.498  -6.054   7.916  1.00  0.00     0.002 A 
ATOM     64  C   UNL     1       4.970  -6.125   9.838  1.00  0.00     0.091 A 
ATOM     65  F   UNL     1       4.803  -4.420  11.498  1.00  0.00    -0.205 F 
ATOM     66  C   UNL     1       4.515  -6.680   8.632  1.00  0.00     0.022 A 
BRANCH  64  67
ATOM     67  S   UNL     1       6.389  -6.889  10.628  1.00  0.00     0.127 S 
ATOM     68  O   UNL     1       5.794  -8.069  11.251  1.00  0.00    -0.237 OA
ATOM     69  O   UNL     1       7.266  -7.173   9.490  1.00  0.00    -0.237 OA
ATOM     70  O   UNL     1       6.919  -5.891  11.550  1.00  0.00    -0.744 OA
ENDBRANCH  64  67
ENDBRANCH  37  60
ENDBRANCH  11  12
ENDBRANCH   4   6
ENDBRANCH   1   2
BRANCH   1  71
ATOM     71  C   UNL     1       5.081  -1.884  -0.539  1.00  0.00     0.042 C 
BRANCH  71  72
ATOM     72  C   UNL     1       4.551  -2.899  -1.538  1.00  0.00     0.118 C 
BRANCH  72  73
ATOM     73  N   UNL     1       5.184  -2.800  -2.846  1.00  0.00    -0.351 N 
ATOM     74  C   UNL     1       6.055  -3.667  -3.474  1.00  0.00     0.269 C 
ATOM     75  H   UNL     1       4.957  -1.992  -3.359  1.00  0.00     0.163 HD
ATOM     76  O   UNL     1       6.566  -3.339  -4.543  1.00  0.00    -0.268 OA
BRANCH  74  77
ATOM     77  C   UNL     1       6.327  -5.006  -2.877  1.00  0.00     0.129 A 
ATOM     78  C   UNL     1       5.284  -5.793  -2.458  1.00  0.00     0.039 A 
ATOM     79  N   UNL     1       7.598  -5.417  -2.815  1.00  0.00    -0.243 NA
ATOM     80  C   UNL     1       5.523  -7.025  -1.809  1.00  0.00    -0.021 A 
ATOM     81  C   UNL     1       7.856  -6.610  -2.269  1.00  0.00     0.072 A 
ATOM     82  C   UNL     1       6.893  -7.496  -1.684  1.00  0.00     0.012 A 
ATOM     83  C   UNL     1       9.188  -6.948  -2.344  1.00  0.00     0.029 A 
ATOM     84  C   UNL     1       7.434  -8.745  -1.107  1.00  0.00    -0.009 A 
ATOM     85  C   UNL     1       9.673  -8.151  -1.860  1.00  0.00     0.011 A 
ATOM     86  C   UNL     1       8.820  -9.047  -1.236  1.00  0.00    -0.018 A 
ATOM     87  C   UNL     1       6.707  -9.727  -0.397  1.00  0.00     0.009 A 
ATOM     88  C   UNL     1       9.378 -10.241  -0.742  1.00  0.00     0.009 A 
ATOM     89  C   UNL     1       7.260 -10.912   0.105  1.00  0.00     0.001 A 
ATOM     90  C   UNL     1       8.600 -11.176  -0.077  1.00  0.00     0.001 A 
BRANCH  80  91
ATOM     91  C   UNL     1       4.220  -7.700  -1.436  1.00  0.00     0.115 C 
ATOM     92  C   UNL     1       3.935  -7.956  -0.003  1.00  0.00     0.123 C 
ATOM     93  C   UNL     1       3.848  -9.037  -1.987  1.00  0.00     0.083 C 
ATOM     94  N   UNL     1       3.385  -9.112   0.192  1.00  0.00    -0.162 NA
ATOM     95  N   UNL     1       3.327  -9.802  -1.069  1.00  0.00    -0.154 NA
BRANCH  93  96
ATOM     96  C   UNL     1       3.878  -9.389  -3.425  1.00  0.00    -0.001 A 
ATOM     97  C   UNL     1       2.888 -10.259  -3.901  1.00  0.00     0.013 A 
ATOM     98  C   UNL     1       4.818  -8.869  -4.323  1.00  0.00     0.013 A 
ATOM     99  C   UNL     1       2.826 -10.581  -5.260  1.00  0.00     0.040 A 
ATOM    100  C   UNL     1       4.756  -9.193  -5.680  1.00  0.00     0.040 A 
ATOM    101  C   UNL     1       3.758 -10.041  -6.137  1.00  0.00     0.123 A 
ATOM    102  F   UNL     1       3.697 -10.344  -7.440  1.00  0.00    -0.207 F 
ENDBRANCH  93  96
ENDBRANCH  80  91
ENDBRANCH  74  77
ENDBRANCH  72  73
ENDBRANCH  71  72
ENDBRANCH   1  71
TORSDOF 15
