REMARK SMILES O=C(CCC[NH2+][C@H]1CCOC2(CCOCC2)C1)NCCCNC(=O)c1ccc(-c2c3nc(c(-c4cccc(S(=O)(=O)[O-])c4F)c4ccc([nH]4)c(-c4cccc(S(=O)(=O)[O-])c4F)c4nc(c(-c5cccc(S(=O)(=O)[O-])c5F)c5ccc2[nH]5)C=C4)C=C3)cc1
REMARK SMILES IDX 19 1 18 2 1 3 2 4 3 6 4 7 5 8 6 9 7 12 8 13 17 14 9 15 11 16
REMARK SMILES IDX 10 17 12 18 16 19 13 20 15 21 14 22 20 23 21 24 22 25 23 26
REMARK SMILES IDX 24 28 25 29 26 30 87 31 27 32 86 33 28 34 29 35 30 36 80 37
REMARK SMILES IDX 31 38 85 39 79 40 81 41 32 42 84 43 78 44 77 45 33 47 65 48
REMARK SMILES IDX 45 49 64 50 46 51 49 52 63 53 82 54 47 55 48 56 62 58 83 59
REMARK SMILES IDX 50 60 34 61 35 62 43 63 36 64 38 65 44 66 37 67 39 68 40 69
REMARK SMILES IDX 41 70 42 71 66 72 67 73 75 74 68 75 70 76 76 77 69 78 71 79
REMARK SMILES IDX 72 80 73 81 74 82 51 83 52 84 60 85 53 86 55 87 61 88 54 89
REMARK SMILES IDX 56 90 57 91 58 92 59 93
REMARK H PARENT 18 5 6 10 6 11 22 27 81 46 49 57
REMARK Flexibility Score: inf
ROOT
ATOM      1  C   UNL     1      10.017   0.374  -4.476  1.00  0.00     0.117 C 
ENDROOT
BRANCH   1   2
ATOM      2  N   UNL     1       8.569   0.304  -4.399  1.00  0.00    -0.356 N 
ATOM      3  O   UNL     1       8.278  -0.737  -6.429  1.00  0.00    -0.275 OA
ATOM      4  C   UNL     1       7.809  -0.274  -5.393  1.00  0.00     0.220 C 
ATOM      5  H   UNL     1       8.115   0.682  -3.611  1.00  0.00     0.163 HD
BRANCH   4   6
ATOM      6  C   UNL     1       6.322  -0.324  -5.103  1.00  0.00     0.106 C 
BRANCH   6   7
ATOM      7  C   UNL     1       5.923  -1.520  -4.232  1.00  0.00     0.071 C 
BRANCH   7   8
ATOM      8  C   UNL     1       6.472  -1.515  -2.799  1.00  0.00     0.261 C 
BRANCH   8   9
ATOM      9  N   UNL     1       6.078  -0.322  -2.062  1.00  0.00    -0.344 N 
ATOM     10  H   UNL     1       5.064  -0.349  -1.952  1.00  0.00     0.346 HD
ATOM     11  H   UNL     1       6.431   0.459  -2.615  1.00  0.00     0.346 HD
BRANCH   9  12
ATOM     12  C   UNL     1       6.664  -0.135  -0.722  1.00  0.00     0.187 C 
ATOM     13  C   UNL     1       8.076  -0.709  -0.542  1.00  0.00     0.093 C 
ATOM     14  C   UNL     1       6.652   1.374  -0.402  1.00  0.00     0.100 C 
ATOM     15  C   UNL     1       8.703  -0.275   0.769  1.00  0.00     0.167 C 
ATOM     16  C   UNL     1       7.354   1.720   0.921  1.00  0.00     0.078 C 
ATOM     17  O   UNL     1       8.671   1.142   0.896  1.00  0.00    -0.374 OA
ATOM     18  C   UNL     1       6.564   1.289   2.169  1.00  0.00     0.064 C 
ATOM     19  C   UNL     1       7.534   3.248   1.028  1.00  0.00     0.064 C 
ATOM     20  C   UNL     1       7.301   1.729   3.433  1.00  0.00     0.163 C 
ATOM     21  C   UNL     1       8.249   3.599   2.328  1.00  0.00     0.163 C 
ATOM     22  O   UNL     1       7.488   3.143   3.445  1.00  0.00    -0.381 OA
ENDBRANCH   9  12
ENDBRANCH   8   9
ENDBRANCH   7   8
ENDBRANCH   6   7
ENDBRANCH   4   6
ENDBRANCH   1   2
BRANCH   1  23
ATOM     23  C   UNL     1      10.574   1.727  -4.044  1.00  0.00     0.042 C 
BRANCH  23  24
ATOM     24  C   UNL     1      10.468   2.031  -2.553  1.00  0.00     0.118 C 
BRANCH  24  25
ATOM     25  N   UNL     1      11.311   1.188  -1.715  1.00  0.00    -0.352 N 
ATOM     26  C   UNL     1      12.101   1.509  -0.631  1.00  0.00     0.251 C 
ATOM     27  H   UNL     1      11.318   0.235  -1.963  1.00  0.00     0.163 HD
ATOM     28  O   UNL     1      12.796   0.628  -0.127  1.00  0.00    -0.269 OA
BRANCH  26  29
ATOM     29  C   UNL     1      12.149   2.889  -0.079  1.00  0.00     0.039 A 
ATOM     30  C   UNL     1      13.353   3.396   0.421  1.00  0.00     0.014 A 
ATOM     31  C   UNL     1      11.008   3.686  -0.019  1.00  0.00     0.014 A 
ATOM     32  C   UNL     1      13.418   4.712   0.903  1.00  0.00     0.010 A 
ATOM     33  C   UNL     1      11.077   5.012   0.406  1.00  0.00     0.010 A 
ATOM     34  C   UNL     1      12.285   5.543   0.867  1.00  0.00    -0.014 A 
BRANCH  34  35
ATOM     35  C   UNL     1      12.354   6.986   1.215  1.00  0.00     0.031 A 
ATOM     36  C   UNL     1      11.596   7.544   2.390  1.00  0.00     0.074 A 
ATOM     37  C   UNL     1      12.992   7.822   0.372  1.00  0.00     0.049 A 
ATOM     38  N   UNL     1      11.495   8.786   2.791  1.00  0.00    -0.248 NA
ATOM     39  C   UNL     1      10.826   6.589   3.201  1.00  0.00     0.031 C 
ATOM     40  C   UNL     1      13.662   7.419  -0.867  1.00  0.00     0.029 A 
ATOM     41  N   UNL     1      13.147   9.185   0.404  1.00  0.00    -0.354 N 
ATOM     42  C   UNL     1      10.629   8.769   3.879  1.00  0.00     0.074 A 
ATOM     43  C   UNL     1      10.205   7.395   4.053  1.00  0.00     0.031 C 
ATOM     44  C   UNL     1      14.152   8.509  -1.476  1.00  0.00     0.029 A 
ATOM     45  C   UNL     1      13.817   9.689  -0.686  1.00  0.00     0.049 A 
ATOM     46  H   UNL     1      12.811   9.749   1.138  1.00  0.00     0.167 HD
ATOM     47  C   UNL     1      10.246   9.798   4.676  1.00  0.00     0.034 A 
ATOM     48  C   UNL     1      14.124  10.958  -1.018  1.00  0.00     0.034 A 
ATOM     49  C   UNL     1      10.706  11.154   4.517  1.00  0.00     0.049 A 
ATOM     50  C   UNL     1      13.746  12.071  -0.081  1.00  0.00     0.074 A 
ATOM     51  C   UNL     1      10.474  12.243   5.340  1.00  0.00     0.029 A 
ATOM     52  N   UNL     1      11.479  11.612   3.462  1.00  0.00    -0.354 N 
ATOM     53  N   UNL     1      13.088  12.009   1.050  1.00  0.00    -0.248 NA
ATOM     54  C   UNL     1      14.192  13.424  -0.443  1.00  0.00     0.031 C 
ATOM     55  C   UNL     1      11.083  13.365   4.767  1.00  0.00     0.029 A 
ATOM     56  C   UNL     1      11.724  12.969   3.605  1.00  0.00     0.049 A 
ATOM     57  H   UNL     1      11.806  11.056   2.719  1.00  0.00     0.167 HD
ATOM     58  C   UNL     1      13.073  13.304   1.555  1.00  0.00     0.074 A 
ATOM     59  C   UNL     1      13.807  14.126   0.615  1.00  0.00     0.031 C 
ATOM     60  C   UNL     1      12.495  13.771   2.689  1.00  0.00     0.034 A 
BRANCH  47  61
ATOM     61  C   UNL     1       9.332   9.494   5.839  1.00  0.00     0.023 A 
ATOM     62  C   UNL     1       9.823   8.748   6.931  1.00  0.00     0.012 A 
ATOM     63  C   UNL     1       8.024  10.017   5.898  1.00  0.00     0.148 A 
ATOM     64  C   UNL     1       9.019   8.496   8.042  1.00  0.00     0.002 A 
ATOM     65  C   UNL     1       7.245   9.802   7.030  1.00  0.00     0.091 A 
ATOM     66  F   UNL     1       7.566  10.715   4.849  1.00  0.00    -0.205 F 
ATOM     67  C   UNL     1       7.736   9.031   8.097  1.00  0.00     0.022 A 
BRANCH  65  68
ATOM     68  S   UNL     1       5.613  10.525   7.242  1.00  0.00     0.127 S 
ATOM     69  O   UNL     1       4.752   9.348   7.151  1.00  0.00    -0.237 OA
ATOM     70  O   UNL     1       5.706  11.110   8.580  1.00  0.00    -0.237 OA
ATOM     71  O   UNL     1       5.460  11.495   6.165  1.00  0.00    -0.744 OA
ENDBRANCH  65  68
ENDBRANCH  47  61
BRANCH  48  72
ATOM     72  C   UNL     1      14.903  11.229  -2.258  1.00  0.00     0.023 A 
ATOM     73  C   UNL     1      16.246  11.642  -2.153  1.00  0.00     0.012 A 
ATOM     74  C   UNL     1      14.338  11.042  -3.534  1.00  0.00     0.148 A 
ATOM     75  C   UNL     1      17.002  11.897  -3.297  1.00  0.00     0.002 A 
ATOM     76  C   UNL     1      15.114  11.244  -4.669  1.00  0.00     0.091 A 
ATOM     77  F   UNL     1      13.058  10.653  -3.611  1.00  0.00    -0.205 F 
ATOM     78  C   UNL     1      16.441  11.689  -4.553  1.00  0.00     0.022 A 
BRANCH  76  79
ATOM     79  S   UNL     1      14.520  10.872  -6.323  1.00  0.00     0.127 S 
ATOM     80  O   UNL     1      14.397  12.205  -6.904  1.00  0.00    -0.237 OA
ATOM     81  O   UNL     1      15.612  10.061  -6.860  1.00  0.00    -0.237 OA
ATOM     82  O   UNL     1      13.269  10.145  -6.136  1.00  0.00    -0.744 OA
ENDBRANCH  76  79
ENDBRANCH  48  72
BRANCH  60  83
ATOM     83  C   UNL     1      12.660  15.236   3.005  1.00  0.00     0.023 A 
ATOM     84  C   UNL     1      11.980  16.203   2.239  1.00  0.00     0.012 A 
ATOM     85  C   UNL     1      13.443  15.649   4.102  1.00  0.00     0.148 A 
ATOM     86  C   UNL     1      12.105  17.560   2.537  1.00  0.00     0.002 A 
ATOM     87  C   UNL     1      13.521  16.998   4.424  1.00  0.00     0.091 A 
ATOM     88  F   UNL     1      14.097  14.715   4.808  1.00  0.00    -0.205 F 
ATOM     89  C   UNL     1      12.865  17.956   3.634  1.00  0.00     0.022 A 
BRANCH  87  90
ATOM     90  S   UNL     1      14.398  17.595   5.874  1.00  0.00     0.127 S 
ATOM     91  O   UNL     1      15.553  18.259   5.272  1.00  0.00    -0.237 OA
ATOM     92  O   UNL     1      13.419  18.500   6.476  1.00  0.00    -0.237 OA
ATOM     93  O   UNL     1      14.704  16.416   6.673  1.00  0.00    -0.744 OA
ENDBRANCH  87  90
ENDBRANCH  60  83
ENDBRANCH  34  35
ENDBRANCH  26  29
ENDBRANCH  24  25
ENDBRANCH  23  24
ENDBRANCH   1  23
TORSDOF 17
