REMARK SMILES COc1ccc(C(=O)N[C@H](C(=O)NCCCNC(=O)c2ccc(-c3c4nc(c(-c5cccc(S(=O)(=O)[O-])c5F)c5ccc([nH]5)c(-c5cccc(S(=O)(=O)[O-])c5F)c5nc(c(-c6cccc(S(=O)(=O)[O-])c6F)c6ccc3[nH]6)C=C5)C=C4)cc2)C2=C(C)N=N[C@H]2C)c(F)c1F
REMARK SMILES IDX 15 1 14 2 13 3 11 4 12 5 10 7 9 8 7 9 8 10 6 12 3 13 4 14
REMARK SMILES IDX 92 15 5 16 90 17 93 18 91 19 2 20 1 21 83 22 84 23 88 24
REMARK SMILES IDX 85 25 86 26 87 27 89 28 16 29 17 30 18 31 19 33 20 34 21 35
REMARK SMILES IDX 82 36 22 37 81 38 23 39 24 40 25 41 75 42 26 43 80 44 74 45
REMARK SMILES IDX 76 46 27 47 79 48 73 49 72 50 28 52 60 53 40 54 59 55 41 56
REMARK SMILES IDX 44 57 58 58 77 59 42 60 43 61 57 63 78 64 45 65 29 66 30 67
REMARK SMILES IDX 38 68 31 69 33 70 39 71 32 72 34 73 35 74 36 75 37 76 61 77
REMARK SMILES IDX 62 78 70 79 63 80 65 81 71 82 64 83 66 84 67 85 68 86 69 87
REMARK SMILES IDX 46 88 47 89 55 90 48 91 50 92 56 93 49 94 51 95 52 96 53 97
REMARK SMILES IDX 54 98
REMARK H PARENT 13 6 9 11 17 32 76 51 44 62
REMARK Flexibility Score: inf
ROOT
ATOM      1  C   UNL     1       1.810   3.317  -1.906  1.00  0.00     0.042 C 
ENDROOT
BRANCH   1   2
ATOM      2  C   UNL     1       1.027   4.458  -2.541  1.00  0.00     0.117 C 
BRANCH   2   3
ATOM      3  N   UNL     1       1.486   4.676  -3.898  1.00  0.00    -0.354 N 
ATOM      4  C   UNL     1       0.780   4.893  -5.038  1.00  0.00     0.247 C 
ATOM      5  O   UNL     1       1.397   4.774  -6.098  1.00  0.00    -0.272 OA
ATOM      6  H   UNL     1       2.464   4.664  -4.012  1.00  0.00     0.163 HD
BRANCH   4   7
ATOM      7  C   UNL     1      -0.716   5.261  -4.951  1.00  0.00     0.202 C 
BRANCH   7   8
ATOM      8  N   UNL     1      -1.139   6.596  -4.505  1.00  0.00    -0.336 N 
ATOM      9  C   UNL     1      -0.583   7.739  -4.003  1.00  0.00     0.255 C 
ATOM     10  O   UNL     1      -1.373   8.599  -3.602  1.00  0.00    -0.269 OA
ATOM     11  H   UNL     1      -2.114   6.697  -4.595  1.00  0.00     0.165 HD
BRANCH   9  12
ATOM     12  C   UNL     1       0.854   8.028  -3.838  1.00  0.00     0.078 A 
ATOM     13  C   UNL     1       3.557   8.692  -3.379  1.00  0.00     0.157 A 
ATOM     14  C   UNL     1       2.581   9.090  -2.468  1.00  0.00     0.050 A 
ATOM     15  C   UNL     1       3.158   8.052  -4.557  1.00  0.00     0.201 A 
ATOM     16  C   UNL     1       1.242   8.745  -2.690  1.00  0.00     0.021 A 
ATOM     17  C   UNL     1       1.813   7.772  -4.805  1.00  0.00     0.175 A 
ATOM     18  F   UNL     1       4.080   7.703  -5.467  1.00  0.00    -0.200 F 
ATOM     19  F   UNL     1       1.453   7.319  -6.012  1.00  0.00    -0.203 F 
BRANCH  13  20
ATOM     20  O   UNL     1       4.891   8.961  -3.239  1.00  0.00    -0.494 OA
ATOM     21  C   UNL     1       5.381   8.959  -1.900  1.00  0.00     0.278 C 
ENDBRANCH  13  20
ENDBRANCH   9  12
ENDBRANCH   7   8
BRANCH   7  22
ATOM     22  C   UNL     1      -1.359   4.954  -6.274  1.00  0.00     0.011 C 
ATOM     23  C   UNL     1      -1.488   3.758  -6.867  1.00  0.00     0.064 C 
ATOM     24  C   UNL     1      -1.705   5.946  -7.335  1.00  0.00     0.156 C 
ATOM     25  C   UNL     1      -1.106   2.411  -6.350  1.00  0.00     0.069 C 
ATOM     26  N   UNL     1      -1.909   3.859  -8.169  1.00  0.00    -0.160 NA
ATOM     27  N   UNL     1      -2.003   5.070  -8.503  1.00  0.00    -0.181 NA
ATOM     28  C   UNL     1      -2.958   6.780  -7.085  1.00  0.00     0.040 C 
ENDBRANCH   7  22
ENDBRANCH   4   7
ENDBRANCH   2   3
ENDBRANCH   1   2
BRANCH   1  29
ATOM     29  C   UNL     1       3.292   3.627  -1.744  1.00  0.00     0.118 C 
BRANCH  29  30
ATOM     30  N   UNL     1       3.559   4.539  -0.643  1.00  0.00    -0.352 N 
ATOM     31  C   UNL     1       4.454   4.370   0.388  1.00  0.00     0.251 C 
ATOM     32  H   UNL     1       3.038   5.374  -0.634  1.00  0.00     0.163 HD
ATOM     33  O   UNL     1       4.476   5.163   1.325  1.00  0.00    -0.269 OA
BRANCH  31  34
ATOM     34  C   UNL     1       5.359   3.202   0.361  1.00  0.00     0.039 A 
ATOM     35  C   UNL     1       5.407   2.355   1.468  1.00  0.00     0.014 A 
ATOM     36  C   UNL     1       6.099   2.909  -0.790  1.00  0.00     0.014 A 
ATOM     37  C   UNL     1       6.156   1.178   1.401  1.00  0.00     0.010 A 
ATOM     38  C   UNL     1       6.771   1.694  -0.884  1.00  0.00     0.010 A 
ATOM     39  C   UNL     1       6.817   0.820   0.213  1.00  0.00    -0.014 A 
BRANCH  39  40
ATOM     40  C   UNL     1       7.563  -0.461   0.101  1.00  0.00     0.031 A 
ATOM     41  C   UNL     1       9.044  -0.451  -0.170  1.00  0.00     0.074 A 
ATOM     42  C   UNL     1       6.900  -1.633   0.169  1.00  0.00     0.049 A 
ATOM     43  N   UNL     1       9.858  -1.461  -0.338  1.00  0.00    -0.248 NA
ATOM     44  C   UNL     1       9.692   0.866  -0.294  1.00  0.00     0.031 C 
ATOM     45  C   UNL     1       5.454  -1.780   0.349  1.00  0.00     0.029 A 
ATOM     46  N   UNL     1       7.354  -2.926   0.071  1.00  0.00    -0.354 N 
ATOM     47  C   UNL     1      11.100  -0.905  -0.621  1.00  0.00     0.074 A 
ATOM     48  C   UNL     1      10.926   0.530  -0.642  1.00  0.00     0.031 C 
ATOM     49  C   UNL     1       5.142  -3.086   0.358  1.00  0.00     0.029 A 
ATOM     50  C   UNL     1       6.356  -3.870   0.152  1.00  0.00     0.049 A 
ATOM     51  H   UNL     1       8.303  -3.155  -0.047  1.00  0.00     0.167 HD
ATOM     52  C   UNL     1      12.287  -1.528  -0.815  1.00  0.00     0.034 A 
ATOM     53  C   UNL     1       6.410  -5.213   0.063  1.00  0.00     0.034 A 
ATOM     54  C   UNL     1      12.467  -2.952  -0.755  1.00  0.00     0.049 A 
ATOM     55  C   UNL     1       7.746  -5.882  -0.124  1.00  0.00     0.074 A 
ATOM     56  C   UNL     1      13.644  -3.674  -0.852  1.00  0.00     0.029 A 
ATOM     57  N   UNL     1      11.445  -3.874  -0.594  1.00  0.00    -0.354 N 
ATOM     58  N   UNL     1       8.934  -5.337  -0.228  1.00  0.00    -0.248 NA
ATOM     59  C   UNL     1       7.754  -7.351  -0.168  1.00  0.00     0.031 C 
ATOM     60  C   UNL     1      13.328  -5.035  -0.778  1.00  0.00     0.029 A 
ATOM     61  C   UNL     1      11.960  -5.159  -0.600  1.00  0.00     0.049 A 
ATOM     62  H   UNL     1      10.492  -3.648  -0.490  1.00  0.00     0.167 HD
ATOM     63  C   UNL     1       9.833  -6.395  -0.311  1.00  0.00     0.074 A 
ATOM     64  C   UNL     1       9.053  -7.612  -0.224  1.00  0.00     0.031 C 
ATOM     65  C   UNL     1      11.180  -6.361  -0.458  1.00  0.00     0.034 A 
BRANCH  52  66
ATOM     66  C   UNL     1      13.498  -0.664  -1.060  1.00  0.00     0.023 A 
ATOM     67  C   UNL     1      14.022   0.116  -0.008  1.00  0.00     0.012 A 
ATOM     68  C   UNL     1      14.148  -0.664  -2.309  1.00  0.00     0.148 A 
ATOM     69  C   UNL     1      15.150   0.910  -0.205  1.00  0.00     0.002 A 
ATOM     70  C   UNL     1      15.301   0.093  -2.484  1.00  0.00     0.091 A 
ATOM     71  F   UNL     1      13.624  -1.395  -3.303  1.00  0.00    -0.205 F 
ATOM     72  C   UNL     1      15.795   0.890  -1.438  1.00  0.00     0.022 A 
BRANCH  70  73
ATOM     73  S   UNL     1      16.253   0.071  -4.006  1.00  0.00     0.127 S 
ATOM     74  O   UNL     1      15.992   1.409  -4.535  1.00  0.00    -0.237 OA
ATOM     75  O   UNL     1      17.615  -0.134  -3.513  1.00  0.00    -0.237 OA
ATOM     76  O   UNL     1      15.720  -1.028  -4.798  1.00  0.00    -0.744 OA
ENDBRANCH  70  73
ENDBRANCH  52  66
BRANCH  53  77
ATOM     77  C   UNL     1       5.167  -6.023   0.212  1.00  0.00     0.023 A 
ATOM     78  C   UNL     1       4.993  -6.821   1.360  1.00  0.00     0.012 A 
ATOM     79  C   UNL     1       4.151  -5.993  -0.762  1.00  0.00     0.148 A 
ATOM     80  C   UNL     1       3.848  -7.601   1.518  1.00  0.00     0.002 A 
ATOM     81  C   UNL     1       2.987  -6.728  -0.571  1.00  0.00     0.091 A 
ATOM     82  F   UNL     1       4.339  -5.236  -1.852  1.00  0.00    -0.205 F 
ATOM     83  C   UNL     1       2.841  -7.548   0.558  1.00  0.00     0.022 A 
BRANCH  81  84
ATOM     84  S   UNL     1       1.582  -6.614  -1.686  1.00  0.00     0.127 S 
ATOM     85  O   UNL     1       1.593  -7.932  -2.315  1.00  0.00    -0.237 OA
ATOM     86  O   UNL     1       0.477  -6.383  -0.754  1.00  0.00    -0.237 OA
ATOM     87  O   UNL     1       1.868  -5.489  -2.566  1.00  0.00    -0.744 OA
ENDBRANCH  81  84
ENDBRANCH  53  77
BRANCH  65  88
ATOM     88  C   UNL     1      11.915  -7.676  -0.490  1.00  0.00     0.023 A 
ATOM     89  C   UNL     1      11.810  -8.516  -1.616  1.00  0.00     0.012 A 
ATOM     90  C   UNL     1      12.772  -8.042   0.567  1.00  0.00     0.148 A 
ATOM     91  C   UNL     1      12.518  -9.716  -1.674  1.00  0.00     0.002 A 
ATOM     92  C   UNL     1      13.515  -9.213   0.480  1.00  0.00     0.091 A 
ATOM     93  F   UNL     1      12.846  -7.238   1.638  1.00  0.00    -0.205 F 
ATOM     94  C   UNL     1      13.380 -10.057  -0.634  1.00  0.00     0.022 A 
BRANCH  92  95
ATOM     95  S   UNL     1      14.722  -9.684   1.724  1.00  0.00     0.127 S 
ATOM     96  O   UNL     1      14.059 -10.817   2.367  1.00  0.00    -0.237 OA
ATOM     97  O   UNL     1      15.885 -10.038   0.910  1.00  0.00    -0.237 OA
ATOM     98  O   UNL     1      14.909  -8.510   2.567  1.00  0.00    -0.744 OA
ENDBRANCH  92  95
ENDBRANCH  65  88
ENDBRANCH  39  40
ENDBRANCH  31  34
ENDBRANCH  29  30
ENDBRANCH   1  29
TORSDOF 17
