REMARK SMILES COc1ccc([C@@H](C)[C@H](NC(=O)OC(C)(C)C)C(=O)NCCCNC(=O)c2ccc(-c3c4nc(c(-c5cccc(S(=O)(=O)[O-])c5F)c5ccc([nH]5)c(-c5cccc(S(=O)(=O)[O-])c5F)c5nc(c(-c6cccc(S(=O)(=O)[O-])c6F)c6ccc3[nH]6)C=C5)C=C4)cc2)cc1
REMARK SMILES IDX 22 1 21 2 20 3 18 4 19 5 9 7 7 8 8 9 6 10 3 11 4 12 91 13
REMARK SMILES IDX 5 14 90 15 2 16 1 17 10 18 11 19 12 21 13 22 14 23 15 24
REMARK SMILES IDX 16 25 17 26 23 27 24 28 25 29 26 31 27 32 28 33 89 34 29 35
REMARK SMILES IDX 88 36 30 37 31 38 32 39 82 40 33 41 87 42 81 43 83 44 34 45
REMARK SMILES IDX 86 46 80 47 79 48 35 50 67 51 47 52 66 53 48 54 51 55 65 56
REMARK SMILES IDX 84 57 49 58 50 59 64 61 85 62 52 63 36 64 37 65 45 66 38 67
REMARK SMILES IDX 40 68 46 69 39 70 41 71 42 72 43 73 44 74 68 75 69 76 77 77
REMARK SMILES IDX 70 78 72 79 78 80 71 81 73 82 74 83 75 84 76 85 53 86 54 87
REMARK SMILES IDX 62 88 55 89 57 90 63 91 56 92 58 93 59 94 60 95 61 96
REMARK H PARENT 20 6 10 20 24 30 83 49 51 60
REMARK Flexibility Score: inf
ROOT
ATOM      1  C   UNL     1       5.327  -5.056   6.440  1.00  0.00     0.042 C 
ENDROOT
BRANCH   1   2
ATOM      2  C   UNL     1       4.147  -5.727   5.776  1.00  0.00     0.117 C 
BRANCH   2   3
ATOM      3  N   UNL     1       2.979  -5.802   6.625  1.00  0.00    -0.354 N 
ATOM      4  C   UNL     1       1.772  -5.176   6.520  1.00  0.00     0.243 C 
ATOM      5  O   UNL     1       0.874  -5.574   7.270  1.00  0.00    -0.273 OA
ATOM      6  H   UNL     1       3.070  -6.400   7.402  1.00  0.00     0.163 HD
BRANCH   4   7
ATOM      7  C   UNL     1       1.466  -4.171   5.383  1.00  0.00     0.182 C 
BRANCH   7   8
ATOM      8  C   UNL     1       1.166  -4.973   4.070  1.00  0.00     0.048 C 
ATOM      9  C   UNL     1       2.312  -5.185   3.061  1.00  0.00     0.015 C 
BRANCH   8  10
ATOM     10  C   UNL     1       0.017  -4.382   3.273  1.00  0.00    -0.042 A 
ATOM     11  C   UNL     1      -1.996  -3.411   1.587  1.00  0.00     0.118 A 
ATOM     12  C   UNL     1      -0.989  -2.560   2.043  1.00  0.00     0.047 A 
ATOM     13  C   UNL     1      -1.991  -4.754   1.961  1.00  0.00     0.047 A 
ATOM     14  C   UNL     1       0.011  -3.038   2.886  1.00  0.00     0.008 A 
ATOM     15  C   UNL     1      -0.991  -5.236   2.803  1.00  0.00     0.008 A 
BRANCH  11  16
ATOM     16  O   UNL     1      -2.907  -2.841   0.741  1.00  0.00    -0.497 OA
ATOM     17  C   UNL     1      -4.197  -3.440   0.759  1.00  0.00     0.278 C 
ENDBRANCH  11  16
ENDBRANCH   8  10
ENDBRANCH   7   8
BRANCH   7  18
ATOM     18  N   UNL     1       2.510  -3.156   5.265  1.00  0.00    -0.309 N 
ATOM     19  C   UNL     1       2.655  -1.979   5.931  1.00  0.00     0.408 C 
ATOM     20  H   UNL     1       3.214  -3.353   4.605  1.00  0.00     0.167 HD
ATOM     21  O   UNL     1       3.739  -1.418   5.877  1.00  0.00    -0.225 OA
BRANCH  19  22
ATOM     22  O   UNL     1       1.546  -1.518   6.559  1.00  0.00    -0.444 OA
BRANCH  22  23
ATOM     23  C   UNL     1       1.605  -0.200   7.186  1.00  0.00     0.106 C 
ATOM     24  C   UNL     1       2.530  -0.213   8.412  1.00  0.00     0.056 C 
ATOM     25  C   UNL     1       2.005   0.899   6.185  1.00  0.00     0.056 C 
ATOM     26  C   UNL     1       0.178   0.117   7.666  1.00  0.00     0.056 C 
ENDBRANCH  22  23
ENDBRANCH  19  22
ENDBRANCH   7  18
ENDBRANCH   4   7
ENDBRANCH   2   3
ENDBRANCH   1   2
BRANCH   1  27
ATOM     27  C   UNL     1       5.995  -5.955   7.458  1.00  0.00     0.118 C 
BRANCH  27  28
ATOM     28  N   UNL     1       6.545  -7.166   6.851  1.00  0.00    -0.352 N 
ATOM     29  C   UNL     1       7.849  -7.569   6.707  1.00  0.00     0.251 C 
ATOM     30  H   UNL     1       5.875  -7.790   6.488  1.00  0.00     0.163 HD
ATOM     31  O   UNL     1       8.117  -8.511   5.966  1.00  0.00    -0.269 OA
BRANCH  29  32
ATOM     32  C   UNL     1       8.918  -6.862   7.440  1.00  0.00     0.039 A 
ATOM     33  C   UNL     1      10.150  -6.644   6.822  1.00  0.00     0.014 A 
ATOM     34  C   UNL     1       8.696  -6.411   8.741  1.00  0.00     0.014 A 
ATOM     35  C   UNL     1      11.137  -5.924   7.496  1.00  0.00     0.010 A 
ATOM     36  C   UNL     1       9.619  -5.578   9.349  1.00  0.00     0.010 A 
ATOM     37  C   UNL     1      10.866  -5.358   8.753  1.00  0.00    -0.014 A 
BRANCH  37  38
ATOM     38  C   UNL     1      11.884  -4.578   9.496  1.00  0.00     0.031 A 
ATOM     39  C   UNL     1      12.317  -5.031  10.867  1.00  0.00     0.074 A 
ATOM     40  C   UNL     1      12.351  -3.424   8.982  1.00  0.00     0.049 A 
ATOM     41  N   UNL     1      13.132  -4.453  11.708  1.00  0.00    -0.248 NA
ATOM     42  C   UNL     1      11.721  -6.279  11.379  1.00  0.00     0.031 C 
ATOM     43  C   UNL     1      11.935  -2.832   7.709  1.00  0.00     0.029 A 
ATOM     44  N   UNL     1      13.260  -2.528   9.483  1.00  0.00    -0.354 N 
ATOM     45  C   UNL     1      13.114  -5.239  12.854  1.00  0.00     0.074 A 
ATOM     46  C   UNL     1      12.161  -6.300  12.626  1.00  0.00     0.031 C 
ATOM     47  C   UNL     1      12.595  -1.678   7.524  1.00  0.00     0.029 A 
ATOM     48  C   UNL     1      13.453  -1.431   8.678  1.00  0.00     0.049 A 
ATOM     49  H   UNL     1      13.730  -2.658  10.338  1.00  0.00     0.167 HD
ATOM     50  C   UNL     1      13.856  -5.120  13.980  1.00  0.00     0.034 A 
ATOM     51  C   UNL     1      14.229  -0.345   8.855  1.00  0.00     0.034 A 
ATOM     52  C   UNL     1      14.835  -4.089  14.181  1.00  0.00     0.049 A 
ATOM     53  C   UNL     1      15.086  -0.259  10.088  1.00  0.00     0.074 A 
ATOM     54  C   UNL     1      15.699  -3.917  15.247  1.00  0.00     0.029 A 
ATOM     55  N   UNL     1      15.079  -3.051  13.294  1.00  0.00    -0.354 N 
ATOM     56  N   UNL     1      15.165  -1.091  11.098  1.00  0.00    -0.248 NA
ATOM     57  C   UNL     1      15.994   0.892  10.186  1.00  0.00     0.031 C 
ATOM     58  C   UNL     1      16.448  -2.758  15.016  1.00  0.00     0.029 A 
ATOM     59  C   UNL     1      16.079  -2.232  13.788  1.00  0.00     0.049 A 
ATOM     60  H   UNL     1      14.610  -2.916  12.439  1.00  0.00     0.167 HD
ATOM     61  C   UNL     1      16.157  -0.588  11.931  1.00  0.00     0.074 A 
ATOM     62  C   UNL     1      16.662   0.612  11.297  1.00  0.00     0.031 C 
ATOM     63  C   UNL     1      16.603  -1.070  13.118  1.00  0.00     0.034 A 
BRANCH  50  64
ATOM     64  C   UNL     1      13.668  -6.165  15.051  1.00  0.00     0.023 A 
ATOM     65  C   UNL     1      14.079  -7.493  14.809  1.00  0.00     0.012 A 
ATOM     66  C   UNL     1      13.113  -5.833  16.301  1.00  0.00     0.148 A 
ATOM     67  C   UNL     1      13.895  -8.483  15.773  1.00  0.00     0.002 A 
ATOM     68  C   UNL     1      12.982  -6.815  17.277  1.00  0.00     0.091 A 
ATOM     69  F   UNL     1      12.707  -4.572  16.508  1.00  0.00    -0.205 F 
ATOM     70  C   UNL     1      13.357  -8.142  17.009  1.00  0.00     0.022 A 
BRANCH  68  71
ATOM     71  S   UNL     1      12.380  -6.462  18.932  1.00  0.00     0.127 S 
ATOM     72  O   UNL     1      11.077  -7.127  18.919  1.00  0.00    -0.237 OA
ATOM     73  O   UNL     1      13.387  -7.112  19.770  1.00  0.00    -0.237 OA
ATOM     74  O   UNL     1      12.339  -5.011  19.044  1.00  0.00    -0.744 OA
ENDBRANCH  68  71
ENDBRANCH  50  64
BRANCH  51  75
ATOM     75  C   UNL     1      14.277   0.711   7.805  1.00  0.00     0.023 A 
ATOM     76  C   UNL     1      15.436   0.862   7.019  1.00  0.00     0.012 A 
ATOM     77  C   UNL     1      13.166   1.540   7.557  1.00  0.00     0.148 A 
ATOM     78  C   UNL     1      15.501   1.841   6.028  1.00  0.00     0.002 A 
ATOM     79  C   UNL     1      13.217   2.476   6.531  1.00  0.00     0.091 A 
ATOM     80  F   UNL     1      12.074   1.382   8.318  1.00  0.00    -0.205 F 
ATOM     81  C   UNL     1      14.389   2.641   5.777  1.00  0.00     0.022 A 
BRANCH  79  82
ATOM     82  S   UNL     1      11.793   3.459   6.049  1.00  0.00     0.127 S 
ATOM     83  O   UNL     1      12.216   4.804   6.431  1.00  0.00    -0.237 OA
ATOM     84  O   UNL     1      11.737   3.217   4.607  1.00  0.00    -0.237 OA
ATOM     85  O   UNL     1      10.667   2.916   6.796  1.00  0.00    -0.744 OA
ENDBRANCH  79  82
ENDBRANCH  51  75
BRANCH  63  86
ATOM     86  C   UNL     1      17.733  -0.334  13.788  1.00  0.00     0.023 A 
ATOM     87  C   UNL     1      17.509   0.929  14.372  1.00  0.00     0.012 A 
ATOM     88  C   UNL     1      19.003  -0.933  13.900  1.00  0.00     0.148 A 
ATOM     89  C   UNL     1      18.544   1.601  15.022  1.00  0.00     0.002 A 
ATOM     90  C   UNL     1      20.013  -0.282  14.596  1.00  0.00     0.091 A 
ATOM     91  F   UNL     1      19.201  -2.127  13.322  1.00  0.00    -0.205 F 
ATOM     92  C   UNL     1      19.790   0.991  15.145  1.00  0.00     0.022 A 
BRANCH  90  93
ATOM     93  S   UNL     1      21.616  -1.036  14.892  1.00  0.00     0.127 S 
ATOM     94  O   UNL     1      22.479  -0.262  14.001  1.00  0.00    -0.237 OA
ATOM     95  O   UNL     1      21.822  -0.777  16.318  1.00  0.00    -0.237 OA
ATOM     96  O   UNL     1      21.467  -2.444  14.550  1.00  0.00    -0.744 OA
ENDBRANCH  90  93
ENDBRANCH  63  86
ENDBRANCH  37  38
ENDBRANCH  29  32
ENDBRANCH  27  28
ENDBRANCH   1  27
TORSDOF 19
