REMARK SMILES COc1cc([C@@H]2CC(NCCCNC(=O)c3ccc(-c4c5nc(c(-c6cccc(S(=O)(=O)[O-])c6F)c6ccc([nH]6)c(-c6cccc(S(=O)(=O)[O-])c6F)c6nc(c(-c7cccc(S(=O)(=O)[O-])c7F)c7ccc4[nH]7)C=C6)C=C5)cc3)=[NH+]c3c(C(=O)[O-])cn(-c4ccc(Cl)cc4)c32)cc(OC)c1O
REMARK SMILES IDX 12 1 11 2 10 3 9 4 6 5 7 6 94 7 8 8 80 9 86 10 79 11 81 12
REMARK SMILES IDX 85 13 5 16 3 17 4 18 99 19 96 20 95 21 2 22 1 23 100 24
REMARK SMILES IDX 97 26 98 27 87 28 88 29 93 30 89 31 92 32 90 33 91 34 82 35
REMARK SMILES IDX 83 36 84 37 13 38 14 39 15 41 16 42 17 43 78 44 18 45 77 46
REMARK SMILES IDX 19 47 20 48 21 49 71 50 22 51 76 52 70 53 72 54 23 55 75 56
REMARK SMILES IDX 69 57 68 58 24 60 56 61 36 62 55 63 37 64 40 65 54 66 73 67
REMARK SMILES IDX 38 68 39 69 53 71 74 72 41 73 25 74 26 75 34 76 27 77 29 78
REMARK SMILES IDX 35 79 28 80 30 81 31 82 32 83 33 84 57 85 58 86 66 87 59 88
REMARK SMILES IDX 61 89 67 90 60 91 62 92 63 93 64 94 65 95 42 96 43 97 51 98
REMARK SMILES IDX 44 99 46 100 52 101 45 102 47 103 48 104 49 105 50 106
REMARK H PARENT 9 14 79 15 100 25 13 40 72 59 40 70
REMARK Flexibility Score: inf
ROOT
ATOM      1  C   UNL     1      -0.872   0.820  10.992  1.00  0.00     0.120 C 
ENDROOT
BRANCH   1   2
ATOM      2  C   UNL     1      -2.112   1.518  10.462  1.00  0.00     0.067 C 
BRANCH   2   3
ATOM      3  C   UNL     1      -1.789   2.843   9.773  1.00  0.00     0.235 C 
BRANCH   3   4
ATOM      4  N   UNL     1      -1.097   2.661   8.503  1.00  0.00    -0.278 N 
ATOM      5  C   UNL     1      -1.478   2.978   4.669  1.00  0.00     0.083 C 
ATOM      6  C   UNL     1      -0.793   2.935   6.054  1.00  0.00     0.142 C 
ATOM      7  C   UNL     1      -2.946   3.232   4.823  1.00  0.00     0.078 A 
ATOM      8  C   UNL     1      -1.715   2.826   7.277  1.00  0.00     0.248 C 
ATOM      9  C   UNL     1      -3.594   3.243   6.032  1.00  0.00     0.155 A 
ATOM     10  N   UNL     1      -3.858   3.679   3.877  1.00  0.00    -0.315 N 
ATOM     11  N   UNL     1      -3.009   2.952   7.250  1.00  0.00    -0.243 N 
ATOM     12  C   UNL     1      -4.919   3.692   5.882  1.00  0.00     0.062 A 
ATOM     13  C   UNL     1      -5.035   3.993   4.535  1.00  0.00     0.106 A 
ATOM     14  H   UNL     1      -0.145   2.409   8.519  1.00  0.00     0.304 HD
ATOM     15  H   UNL     1      -3.550   2.843   8.065  1.00  0.00     0.312 HD
BRANCH   5  16
ATOM     16  C   UNL     1      -1.129   1.744   3.860  1.00  0.00    -0.031 A 
ATOM     17  C   UNL     1      -0.082   0.777   1.861  1.00  0.00     0.164 A 
ATOM     18  C   UNL     1      -0.346   1.869   2.700  1.00  0.00     0.055 A 
ATOM     19  C   UNL     1      -0.580  -0.482   2.224  1.00  0.00     0.200 A 
ATOM     20  C   UNL     1      -1.334  -0.643   3.401  1.00  0.00     0.164 A 
ATOM     21  C   UNL     1      -1.603   0.475   4.203  1.00  0.00     0.055 A 
BRANCH  17  22
ATOM     22  O   UNL     1       0.561   1.160   0.716  1.00  0.00    -0.493 OA
ATOM     23  C   UNL     1       1.318   0.240  -0.058  1.00  0.00     0.278 C 
ENDBRANCH  17  22
BRANCH  19  24
ATOM     24  O   UNL     1      -0.356  -1.562   1.423  1.00  0.00    -0.502 OA
ATOM     25  H   UNL     1       0.145  -1.466   0.636  1.00  0.00     0.293 HD
ENDBRANCH  19  24
BRANCH  20  26
ATOM     26  O   UNL     1      -1.930  -1.781   3.881  1.00  0.00    -0.493 OA
ATOM     27  C   UNL     1      -1.506  -3.036   3.363  1.00  0.00     0.278 C 
ENDBRANCH  20  26
ENDBRANCH   5  16
BRANCH  10  28
ATOM     28  C   UNL     1      -3.687   3.875   2.485  1.00  0.00     0.046 A 
ATOM     29  C   UNL     1      -3.244   2.833   1.670  1.00  0.00     0.028 A 
ATOM     30  C   UNL     1      -4.052   5.101   1.914  1.00  0.00     0.028 A 
ATOM     31  C   UNL     1      -3.084   3.036   0.296  1.00  0.00     0.022 A 
ATOM     32  C   UNL     1      -3.897   5.301   0.539  1.00  0.00     0.022 A 
ATOM     33  C   UNL     1      -3.403   4.271  -0.262  1.00  0.00     0.041 A 
ATOM     34  Cl  UNL     1      -3.210   4.527  -1.953  1.00  0.00    -0.084 Cl
ENDBRANCH  10  28
BRANCH  12  35
ATOM     35  C   UNL     1      -5.981   3.872   6.856  1.00  0.00     0.077 C 
ATOM     36  O   UNL     1      -7.100   4.278   6.606  1.00  0.00    -0.545 OA
ATOM     37  O   UNL     1      -5.660   3.564   8.136  1.00  0.00    -0.545 OA
ENDBRANCH  12  35
ENDBRANCH   3   4
ENDBRANCH   2   3
ENDBRANCH   1   2
BRANCH   1  38
ATOM     38  N   UNL     1      -0.196   1.567  12.064  1.00  0.00    -0.352 N 
ATOM     39  C   UNL     1       0.975   1.251  12.730  1.00  0.00     0.251 C 
ATOM     40  H   UNL     1      -0.635   2.402  12.344  1.00  0.00     0.163 HD
ATOM     41  O   UNL     1       1.251   1.788  13.797  1.00  0.00    -0.269 OA
BRANCH  39  42
ATOM     42  C   UNL     1       1.884   0.256  12.135  1.00  0.00     0.039 A 
ATOM     43  C   UNL     1       2.554  -0.692  12.914  1.00  0.00     0.014 A 
ATOM     44  C   UNL     1       2.017   0.254  10.752  1.00  0.00     0.014 A 
ATOM     45  C   UNL     1       3.282  -1.689  12.270  1.00  0.00     0.010 A 
ATOM     46  C   UNL     1       2.541  -0.840  10.123  1.00  0.00     0.010 A 
ATOM     47  C   UNL     1       3.247  -1.770  10.868  1.00  0.00    -0.014 A 
BRANCH  47  48
ATOM     48  C   UNL     1       3.876  -2.872  10.154  1.00  0.00     0.031 A 
ATOM     49  C   UNL     1       3.470  -4.219  10.625  1.00  0.00     0.074 A 
ATOM     50  C   UNL     1       4.612  -2.704   9.034  1.00  0.00     0.049 A 
ATOM     51  N   UNL     1       4.173  -5.036  11.337  1.00  0.00    -0.248 NA
ATOM     52  C   UNL     1       2.077  -4.643  10.429  1.00  0.00     0.031 C 
ATOM     53  C   UNL     1       4.835  -1.476   8.256  1.00  0.00     0.029 A 
ATOM     54  N   UNL     1       5.219  -3.649   8.269  1.00  0.00    -0.354 N 
ATOM     55  C   UNL     1       3.402  -6.189  11.449  1.00  0.00     0.074 A 
ATOM     56  C   UNL     1       2.063  -5.808  11.082  1.00  0.00     0.031 C 
ATOM     57  C   UNL     1       5.292  -1.795   7.025  1.00  0.00     0.029 A 
ATOM     58  C   UNL     1       5.581  -3.213   6.999  1.00  0.00     0.049 A 
ATOM     59  H   UNL     1       5.389  -4.564   8.588  1.00  0.00     0.167 HD
ATOM     60  C   UNL     1       3.990  -7.412  11.563  1.00  0.00     0.034 A 
ATOM     61  C   UNL     1       6.066  -3.979   5.995  1.00  0.00     0.034 A 
ATOM     62  C   UNL     1       5.395  -7.287  11.876  1.00  0.00     0.049 A 
ATOM     63  C   UNL     1       6.635  -5.194   6.625  1.00  0.00     0.074 A 
ATOM     64  C   UNL     1       6.125  -6.683  12.881  1.00  0.00     0.029 A 
ATOM     65  N   UNL     1       6.278  -7.492  10.843  1.00  0.00    -0.354 N 
ATOM     66  N   UNL     1       7.673  -5.177   7.413  1.00  0.00    -0.248 NA
ATOM     67  C   UNL     1       5.791  -6.371   6.724  1.00  0.00     0.031 C 
ATOM     68  C   UNL     1       7.259  -6.121  12.221  1.00  0.00     0.029 A 
ATOM     69  C   UNL     1       7.198  -6.479  10.872  1.00  0.00     0.049 A 
ATOM     70  H   UNL     1       6.253  -8.235  10.197  1.00  0.00     0.167 HD
ATOM     71  C   UNL     1       7.357  -6.085   8.415  1.00  0.00     0.074 A 
ATOM     72  C   UNL     1       6.250  -6.872   7.874  1.00  0.00     0.031 C 
ATOM     73  C   UNL     1       7.823  -5.923   9.690  1.00  0.00     0.034 A 
BRANCH  60  74
ATOM     74  C   UNL     1       3.428  -8.706  11.015  1.00  0.00     0.023 A 
ATOM     75  C   UNL     1       4.126  -9.895  11.333  1.00  0.00     0.012 A 
ATOM     76  C   UNL     1       2.447  -8.797  10.001  1.00  0.00     0.148 A 
ATOM     77  C   UNL     1       3.908 -11.087  10.634  1.00  0.00     0.002 A 
ATOM     78  C   UNL     1       2.177 -10.004   9.365  1.00  0.00     0.091 A 
ATOM     79  F   UNL     1       1.856  -7.695   9.536  1.00  0.00    -0.205 F 
ATOM     80  C   UNL     1       2.928 -11.144   9.652  1.00  0.00     0.022 A 
BRANCH  78  81
ATOM     81  S   UNL     1       0.886 -10.141   8.121  1.00  0.00     0.127 S 
ATOM     82  O   UNL     1       1.673 -10.243   6.896  1.00  0.00    -0.237 OA
ATOM     83  O   UNL     1       0.208 -11.371   8.530  1.00  0.00    -0.237 OA
ATOM     84  O   UNL     1       0.076  -8.938   8.264  1.00  0.00    -0.744 OA
ENDBRANCH  78  81
ENDBRANCH  60  74
BRANCH  61  85
ATOM     85  C   UNL     1       5.892  -3.864   4.529  1.00  0.00     0.023 A 
ATOM     86  C   UNL     1       6.804  -4.528   3.684  1.00  0.00     0.012 A 
ATOM     87  C   UNL     1       4.686  -3.380   3.969  1.00  0.00     0.148 A 
ATOM     88  C   UNL     1       6.505  -4.756   2.338  1.00  0.00     0.002 A 
ATOM     89  C   UNL     1       4.392  -3.613   2.629  1.00  0.00     0.091 A 
ATOM     90  F   UNL     1       3.793  -2.777   4.766  1.00  0.00    -0.205 F 
ATOM     91  C   UNL     1       5.295  -4.313   1.816  1.00  0.00     0.022 A 
BRANCH  89  92
ATOM     92  S   UNL     1       2.848  -3.130   1.859  1.00  0.00     0.127 S 
ATOM     93  O   UNL     1       3.300  -2.486   0.627  1.00  0.00    -0.237 OA
ATOM     94  O   UNL     1       2.171  -4.407   1.667  1.00  0.00    -0.237 OA
ATOM     95  O   UNL     1       2.160  -2.219   2.766  1.00  0.00    -0.744 OA
ENDBRANCH  89  92
ENDBRANCH  61  85
BRANCH  73  96
ATOM     96  C   UNL     1       8.909  -4.900   9.929  1.00  0.00     0.023 A 
ATOM     97  C   UNL     1       8.722  -3.521   9.693  1.00  0.00     0.012 A 
ATOM     98  C   UNL     1      10.087  -5.323  10.567  1.00  0.00     0.148 A 
ATOM     99  C   UNL     1       9.699  -2.591  10.065  1.00  0.00     0.002 A 
ATOM    100  C   UNL     1      11.033  -4.393  10.978  1.00  0.00     0.091 A 
ATOM    101  F   UNL     1      10.251  -6.637  10.786  1.00  0.00    -0.205 F 
ATOM    102  C   UNL     1      10.849  -3.026  10.720  1.00  0.00     0.022 A 
BRANCH 100 103
ATOM    103  S   UNL     1      12.469  -4.881  11.936  1.00  0.00     0.127 S 
ATOM    104  O   UNL     1      13.537  -4.813  10.941  1.00  0.00    -0.237 OA
ATOM    105  O   UNL     1      12.527  -3.845  12.968  1.00  0.00    -0.237 OA
ATOM    106  O   UNL     1      12.172  -6.213  12.450  1.00  0.00    -0.744 OA
ENDBRANCH 100 103
ENDBRANCH  73  96
ENDBRANCH  47  48
ENDBRANCH  39  42
ENDBRANCH   1  38
TORSDOF 18
