REMARK SMILES O=C(NCCCNC(=O)c1cc(OC[C@@H]2Cc3cc(F)ccc3O2)cs1)c1ccc(-c2c3nc(c(-c4cccc(S(=O)(=O)[O-])c4F)c4ccc([nH]4)c(-c4cccc(S(=O)(=O)[O-])c4F)c4nc(c(-c5cccc(S(=O)(=O)[O-])c5F)c5ccc2[nH]5)C=C4)C=C3)cc1
REMARK SMILES IDX 5 1 4 2 3 3 1 4 2 5 27 7 28 8 89 9 29 10 88 11 30 12 31 13
REMARK SMILES IDX 32 14 82 15 33 16 87 17 81 18 83 19 34 20 86 21 80 22 79 23
REMARK SMILES IDX 35 25 67 26 47 27 66 28 48 29 51 30 65 31 84 32 49 33 50 34
REMARK SMILES IDX 64 36 85 37 52 38 36 39 37 40 45 41 38 42 40 43 46 44 39 45
REMARK SMILES IDX 41 46 42 47 43 48 44 49 68 50 69 51 77 52 70 53 72 54 78 55
REMARK SMILES IDX 71 56 73 57 74 58 75 59 76 60 53 61 54 62 62 63 55 64 57 65
REMARK SMILES IDX 63 66 56 67 58 68 59 69 60 70 61 71 6 72 7 73 8 74 9 76
REMARK SMILES IDX 10 77 11 78 26 79 12 80 25 81 13 82 14 83 15 84 16 85 24 86
REMARK SMILES IDX 17 87 23 88 18 89 22 90 19 91 21 92 20 93
REMARK H PARENT 3 6 83 24 51 35 7 75
REMARK Flexibility Score: inf
ROOT
ATOM      1  C   UNL     1       4.913   1.342  -2.147  1.00  0.00     0.042 C 
ENDROOT
BRANCH   1   2
ATOM      2  C   UNL     1       4.575   1.129  -0.678  1.00  0.00     0.118 C 
BRANCH   2   3
ATOM      3  N   UNL     1       3.141   0.993  -0.454  1.00  0.00    -0.352 N 
ATOM      4  O   UNL     1       1.196   0.011   0.057  1.00  0.00    -0.269 OA
ATOM      5  C   UNL     1       2.421  -0.004   0.154  1.00  0.00     0.251 C 
ATOM      6  H   UNL     1       2.599   1.741  -0.795  1.00  0.00     0.163 HD
BRANCH   5   7
ATOM      7  C   UNL     1       3.094  -1.083   0.911  1.00  0.00     0.039 A 
ATOM      8  C   UNL     1       2.529  -2.362   0.899  1.00  0.00     0.014 A 
ATOM      9  C   UNL     1       4.237  -0.838   1.675  1.00  0.00     0.014 A 
ATOM     10  C   UNL     1       3.127  -3.391   1.629  1.00  0.00     0.010 A 
ATOM     11  C   UNL     1       4.890  -1.888   2.314  1.00  0.00     0.010 A 
ATOM     12  C   UNL     1       4.324  -3.169   2.329  1.00  0.00    -0.014 A 
BRANCH  12  13
ATOM     13  C   UNL     1       4.959  -4.253   3.122  1.00  0.00     0.031 A 
ATOM     14  C   UNL     1       5.139  -4.097   4.611  1.00  0.00     0.074 A 
ATOM     15  C   UNL     1       5.394  -5.369   2.503  1.00  0.00     0.049 A 
ATOM     16  N   UNL     1       5.673  -4.933   5.463  1.00  0.00    -0.248 NA
ATOM     17  C   UNL     1       4.687  -2.835   5.225  1.00  0.00     0.031 C 
ATOM     18  C   UNL     1       5.350  -5.607   1.058  1.00  0.00     0.029 A 
ATOM     19  N   UNL     1       5.964  -6.511   3.009  1.00  0.00    -0.354 N 
ATOM     20  C   UNL     1       5.643  -4.292   6.695  1.00  0.00     0.074 A 
ATOM     21  C   UNL     1       5.081  -2.980   6.482  1.00  0.00     0.031 C 
ATOM     22  C   UNL     1       5.843  -6.829   0.798  1.00  0.00     0.029 A 
ATOM     23  C   UNL     1       6.264  -7.451   2.050  1.00  0.00     0.049 A 
ATOM     24  H   UNL     1       6.141  -6.645   3.968  1.00  0.00     0.167 HD
ATOM     25  C   UNL     1       6.005  -4.771   7.906  1.00  0.00     0.034 A 
ATOM     26  C   UNL     1       6.812  -8.677   2.163  1.00  0.00     0.034 A 
ATOM     27  C   UNL     1       6.491  -6.101   8.132  1.00  0.00     0.049 A 
ATOM     28  C   UNL     1       7.161  -9.204   3.526  1.00  0.00     0.074 A 
ATOM     29  C   UNL     1       6.807  -6.699   9.338  1.00  0.00     0.029 A 
ATOM     30  N   UNL     1       6.717  -7.039   7.140  1.00  0.00    -0.354 N 
ATOM     31  N   UNL     1       7.014  -8.621   4.690  1.00  0.00    -0.248 NA
ATOM     32  C   UNL     1       7.723 -10.562   3.602  1.00  0.00     0.031 C 
ATOM     33  C   UNL     1       7.231  -8.001   9.076  1.00  0.00     0.029 A 
ATOM     34  C   UNL     1       7.166  -8.215   7.708  1.00  0.00     0.049 A 
ATOM     35  H   UNL     1       6.579  -6.891   6.177  1.00  0.00     0.167 HD
ATOM     36  C   UNL     1       7.443  -9.544   5.636  1.00  0.00     0.074 A 
ATOM     37  C   UNL     1       7.847 -10.731   4.913  1.00  0.00     0.031 C 
ATOM     38  C   UNL     1       7.507  -9.409   6.981  1.00  0.00     0.034 A 
BRANCH  25  39
ATOM     39  C   UNL     1       5.803  -3.897   9.111  1.00  0.00     0.023 A 
ATOM     40  C   UNL     1       4.508  -3.775   9.652  1.00  0.00     0.012 A 
ATOM     41  C   UNL     1       6.898  -3.326   9.786  1.00  0.00     0.148 A 
ATOM     42  C   UNL     1       4.303  -3.095  10.850  1.00  0.00     0.002 A 
ATOM     43  C   UNL     1       6.691  -2.675  10.996  1.00  0.00     0.091 A 
ATOM     44  F   UNL     1       8.118  -3.453   9.245  1.00  0.00    -0.205 F 
ATOM     45  C   UNL     1       5.395  -2.558  11.528  1.00  0.00     0.022 A 
BRANCH  43  46
ATOM     46  S   UNL     1       8.030  -1.995  11.980  1.00  0.00     0.127 S 
ATOM     47  O   UNL     1       7.678  -0.575  12.015  1.00  0.00    -0.237 OA
ATOM     48  O   UNL     1       7.862  -2.697  13.251  1.00  0.00    -0.237 OA
ATOM     49  O   UNL     1       9.258  -2.303  11.261  1.00  0.00    -0.744 OA
ENDBRANCH  43  46
ENDBRANCH  25  39
BRANCH  26  50
ATOM     50  C   UNL     1       7.002  -9.506   0.942  1.00  0.00     0.023 A 
ATOM     51  C   UNL     1       6.129 -10.581   0.691  1.00  0.00     0.012 A 
ATOM     52  C   UNL     1       7.997  -9.188  -0.002  1.00  0.00     0.148 A 
ATOM     53  C   UNL     1       6.250 -11.333  -0.479  1.00  0.00     0.002 A 
ATOM     54  C   UNL     1       8.087  -9.916  -1.182  1.00  0.00     0.091 A 
ATOM     55  F   UNL     1       8.816  -8.161   0.264  1.00  0.00    -0.205 F 
ATOM     56  C   UNL     1       7.221 -10.995  -1.418  1.00  0.00     0.022 A 
BRANCH  54  57
ATOM     57  S   UNL     1       9.239  -9.495  -2.494  1.00  0.00     0.127 S 
ATOM     58  O   UNL     1      10.122 -10.658  -2.499  1.00  0.00    -0.237 OA
ATOM     59  O   UNL     1       8.349  -9.391  -3.651  1.00  0.00    -0.237 OA
ATOM     60  O   UNL     1       9.857  -8.239  -2.091  1.00  0.00    -0.744 OA
ENDBRANCH  54  57
ENDBRANCH  26  50
BRANCH  38  61
ATOM     61  C   UNL     1       8.006 -10.561   7.803  1.00  0.00     0.023 A 
ATOM     62  C   UNL     1       9.393 -10.746   7.953  1.00  0.00     0.012 A 
ATOM     63  C   UNL     1       7.109 -11.313   8.587  1.00  0.00     0.148 A 
ATOM     64  C   UNL     1       9.883 -11.658   8.886  1.00  0.00     0.002 A 
ATOM     65  C   UNL     1       7.605 -12.195   9.537  1.00  0.00     0.091 A 
ATOM     66  F   UNL     1       5.794 -11.107   8.423  1.00  0.00    -0.205 F 
ATOM     67  C   UNL     1       8.991 -12.369   9.687  1.00  0.00     0.022 A 
BRANCH  65  68
ATOM     68  S   UNL     1       6.544 -13.094  10.674  1.00  0.00     0.127 S 
ATOM     69  O   UNL     1       6.854 -14.483  10.334  1.00  0.00    -0.237 OA
ATOM     70  O   UNL     1       7.047 -12.657  11.975  1.00  0.00    -0.237 OA
ATOM     71  O   UNL     1       5.180 -12.680  10.371  1.00  0.00    -0.744 OA
ENDBRANCH  65  68
ENDBRANCH  38  61
ENDBRANCH  12  13
ENDBRANCH   5   7
ENDBRANCH   2   3
ENDBRANCH   1   2
BRANCH   1  72
ATOM     72  C   UNL     1       4.315   2.613  -2.735  1.00  0.00     0.118 C 
BRANCH  72  73
ATOM     73  N   UNL     1       5.008   3.818  -2.315  1.00  0.00    -0.351 N 
ATOM     74  C   UNL     1       5.853   4.648  -3.018  1.00  0.00     0.261 C 
ATOM     75  H   UNL     1       4.849   4.084  -1.380  1.00  0.00     0.163 HD
ATOM     76  O   UNL     1       6.410   5.550  -2.386  1.00  0.00    -0.268 OA
BRANCH  74  77
ATOM     77  C   UNL     1       6.056   4.417  -4.435  1.00  0.00     0.096 A 
ATOM     78  C   UNL     1       5.134   4.162  -5.436  1.00  0.00     0.072 A 
ATOM     79  S   UNL     1       7.650   4.475  -5.062  1.00  0.00    -0.135 S 
ATOM     80  C   UNL     1       5.764   3.769  -6.648  1.00  0.00     0.131 A 
ATOM     81  C   UNL     1       7.125   3.961  -6.604  1.00  0.00     0.112 A 
BRANCH  80  82
ATOM     82  O   UNL     1       5.216   3.218  -7.760  1.00  0.00    -0.489 OA
BRANCH  82  83
ATOM     83  C   UNL     1       3.961   2.554  -7.582  1.00  0.00     0.275 C 
BRANCH  83  84
ATOM     84  C   UNL     1       3.958   1.274  -6.712  1.00  0.00     0.215 C 
ATOM     85  C   UNL     1       5.309   0.807  -6.150  1.00  0.00     0.088 C 
ATOM     86  O   UNL     1       3.365   0.172  -7.473  1.00  0.00    -0.486 OA
ATOM     87  C   UNL     1       5.162  -0.652  -6.285  1.00  0.00     0.001 A 
ATOM     88  C   UNL     1       4.058  -0.940  -7.069  1.00  0.00     0.123 A 
ATOM     89  C   UNL     1       6.004  -1.649  -5.827  1.00  0.00     0.047 A 
ATOM     90  C   UNL     1       3.746  -2.237  -7.426  1.00  0.00     0.050 A 
ATOM     91  C   UNL     1       5.702  -2.957  -6.184  1.00  0.00     0.123 A 
ATOM     92  C   UNL     1       4.586  -3.259  -6.973  1.00  0.00     0.043 A 
ATOM     93  F   UNL     1       6.511  -3.945  -5.784  1.00  0.00    -0.207 F 
ENDBRANCH  83  84
ENDBRANCH  82  83
ENDBRANCH  80  82
ENDBRANCH  74  77
ENDBRANCH  72  73
ENDBRANCH   1  72
TORSDOF 16
