REMARK SMILES CC(C)n1cncc1[C@@H](O)[C@H](C)C(=O)NCCCNC(=O)c1ccc(-c2c3nc(c(-c4cccc(S(=O)(=O)[O-])c4F)c4ccc([nH]4)c(-c4cccc(S(=O)(=O)[O-])c4F)c4nc(c(-c5cccc(S(=O)(=O)[O-])c5F)c5ccc2[nH]5)C=C4)C=C3)cc1
REMARK SMILES IDX 17 1 16 2 15 3 13 4 14 5 11 7 12 8 9 9 8 10 4 11 5 12 6 13
REMARK SMILES IDX 7 14 2 15 1 16 3 17 10 18 18 20 19 21 20 22 21 24 22 25
REMARK SMILES IDX 23 26 84 27 24 28 83 29 25 30 26 31 27 32 77 33 28 34 82 35
REMARK SMILES IDX 76 36 78 37 29 38 81 39 75 40 74 41 30 43 62 44 42 45 61 46
REMARK SMILES IDX 43 47 46 48 60 49 79 50 44 51 45 52 59 54 80 55 47 56 31 57
REMARK SMILES IDX 32 58 40 59 33 60 35 61 41 62 34 63 36 64 37 65 38 66 39 67
REMARK SMILES IDX 63 68 64 69 72 70 65 71 67 72 73 73 66 74 68 75 69 76 70 77
REMARK SMILES IDX 71 78 48 79 49 80 57 81 50 82 52 83 58 84 51 85 53 86 54 87
REMARK SMILES IDX 55 88 56 89
REMARK H PARENT 15 6 10 19 19 23 78 42 46 53
REMARK Flexibility Score: inf
ROOT
ATOM      1  C   UNL     1       2.161   3.682   1.365  1.00  0.00     0.042 C 
ENDROOT
BRANCH   1   2
ATOM      2  C   UNL     1       1.305   3.833   2.612  1.00  0.00     0.117 C 
BRANCH   2   3
ATOM      3  N   UNL     1       0.223   4.798   2.520  1.00  0.00    -0.356 N 
ATOM      4  C   UNL     1      -1.104   4.588   2.778  1.00  0.00     0.225 C 
ATOM      5  O   UNL     1      -1.836   5.562   2.959  1.00  0.00    -0.275 OA
ATOM      6  H   UNL     1       0.473   5.707   2.238  1.00  0.00     0.163 HD
BRANCH   4   7
ATOM      7  C   UNL     1      -1.682   3.181   2.795  1.00  0.00     0.110 C 
ATOM      8  C   UNL     1      -1.563   2.552   1.401  1.00  0.00     0.021 C 
BRANCH   7   9
ATOM      9  C   UNL     1      -1.289   2.357   4.049  1.00  0.00     0.175 C 
BRANCH   9  10
ATOM     10  C   UNL     1      -1.027   0.902   3.822  1.00  0.00     0.067 A 
ATOM     11  N   UNL     1      -1.703  -0.148   4.407  1.00  0.00    -0.330 N 
ATOM     12  C   UNL     1      -1.166  -1.309   3.903  1.00  0.00     0.199 A 
ATOM     13  N   UNL     1      -0.164  -1.079   3.094  1.00  0.00    -0.245 NA
ATOM     14  C   UNL     1      -0.060   0.279   3.046  1.00  0.00     0.137 A 
BRANCH  11  15
ATOM     15  C   UNL     1      -2.680  -0.157   5.492  1.00  0.00     0.082 C 
ATOM     16  C   UNL     1      -1.965  -0.044   6.839  1.00  0.00     0.031 C 
ATOM     17  C   UNL     1      -3.829   0.846   5.372  1.00  0.00     0.031 C 
ENDBRANCH  11  15
ENDBRANCH   9  10
BRANCH   9  18
ATOM     18  O   UNL     1      -0.166   2.841   4.778  1.00  0.00    -0.386 OA
ATOM     19  H   UNL     1       0.639   2.718   4.250  1.00  0.00     0.211 HD
ENDBRANCH   9  18
ENDBRANCH   7   9
ENDBRANCH   4   7
ENDBRANCH   2   3
ENDBRANCH   1   2
BRANCH   1  20
ATOM     20  C   UNL     1       3.092   4.853   1.176  1.00  0.00     0.118 C 
BRANCH  20  21
ATOM     21  N   UNL     1       4.099   4.955   2.237  1.00  0.00    -0.352 N 
ATOM     22  C   UNL     1       5.083   5.921   2.371  1.00  0.00     0.251 C 
ATOM     23  H   UNL     1       4.074   4.258   2.932  1.00  0.00     0.163 HD
ATOM     24  O   UNL     1       6.056   5.743   3.077  1.00  0.00    -0.269 OA
BRANCH  22  25
ATOM     25  C   UNL     1       4.899   7.176   1.619  1.00  0.00     0.039 A 
ATOM     26  C   UNL     1       5.938   7.735   0.877  1.00  0.00     0.014 A 
ATOM     27  C   UNL     1       3.615   7.718   1.588  1.00  0.00     0.014 A 
ATOM     28  C   UNL     1       5.639   8.794   0.027  1.00  0.00     0.010 A 
ATOM     29  C   UNL     1       3.287   8.615   0.608  1.00  0.00     0.010 A 
ATOM     30  C   UNL     1       4.301   9.202  -0.131  1.00  0.00    -0.014 A 
BRANCH  30  31
ATOM     31  C   UNL     1       3.929  10.152  -1.171  1.00  0.00     0.031 A 
ATOM     32  C   UNL     1       4.434   9.773  -2.514  1.00  0.00     0.074 A 
ATOM     33  C   UNL     1       3.086  11.190  -0.982  1.00  0.00     0.049 A 
ATOM     34  N   UNL     1       5.504  10.224  -3.079  1.00  0.00    -0.248 NA
ATOM     35  C   UNL     1       3.838   8.623  -3.208  1.00  0.00     0.031 C 
ATOM     36  C   UNL     1       2.264  11.496   0.195  1.00  0.00     0.029 A 
ATOM     37  N   UNL     1       2.701  12.150  -1.865  1.00  0.00    -0.354 N 
ATOM     38  C   UNL     1       5.532   9.636  -4.337  1.00  0.00     0.074 A 
ATOM     39  C   UNL     1       4.666   8.491  -4.249  1.00  0.00     0.031 C 
ATOM     40  C   UNL     1       1.317  12.404  -0.135  1.00  0.00     0.029 A 
ATOM     41  C   UNL     1       1.578  12.878  -1.479  1.00  0.00     0.049 A 
ATOM     42  H   UNL     1       3.178  12.318  -2.710  1.00  0.00     0.167 HD
ATOM     43  C   UNL     1       6.010  10.334  -5.406  1.00  0.00     0.034 A 
ATOM     44  C   UNL     1       0.904  13.789  -2.226  1.00  0.00     0.034 A 
ATOM     45  C   UNL     1       6.702  11.527  -4.962  1.00  0.00     0.049 A 
ATOM     46  C   UNL     1       1.835  14.254  -3.277  1.00  0.00     0.074 A 
ATOM     47  C   UNL     1       7.757  11.795  -4.113  1.00  0.00     0.029 A 
ATOM     48  N   UNL     1       6.009  12.707  -5.093  1.00  0.00    -0.354 N 
ATOM     49  N   UNL     1       2.901  14.961  -3.026  1.00  0.00    -0.248 NA
ATOM     50  C   UNL     1       1.825  13.560  -4.553  1.00  0.00     0.031 C 
ATOM     51  C   UNL     1       7.377  12.982  -3.417  1.00  0.00     0.029 A 
ATOM     52  C   UNL     1       6.163  13.429  -3.943  1.00  0.00     0.049 A 
ATOM     53  H   UNL     1       5.489  12.985  -5.881  1.00  0.00     0.167 HD
ATOM     54  C   UNL     1       3.870  14.404  -3.848  1.00  0.00     0.074 A 
ATOM     55  C   UNL     1       3.126  13.637  -4.847  1.00  0.00     0.031 C 
ATOM     56  C   UNL     1       5.178  14.370  -3.457  1.00  0.00     0.034 A 
BRANCH  43  57
ATOM     57  C   UNL     1       5.499  10.230  -6.831  1.00  0.00     0.023 A 
ATOM     58  C   UNL     1       6.157  11.031  -7.796  1.00  0.00     0.012 A 
ATOM     59  C   UNL     1       4.270   9.651  -7.222  1.00  0.00     0.148 A 
ATOM     60  C   UNL     1       5.578  11.320  -9.035  1.00  0.00     0.002 A 
ATOM     61  C   UNL     1       3.732   9.882  -8.483  1.00  0.00     0.091 A 
ATOM     62  F   UNL     1       3.538   8.964  -6.346  1.00  0.00    -0.205 F 
ATOM     63  C   UNL     1       4.363  10.747  -9.379  1.00  0.00     0.022 A 
BRANCH  61  64
ATOM     64  S   UNL     1       2.183   9.132  -9.005  1.00  0.00     0.127 S 
ATOM     65  O   UNL     1       1.309  10.299  -9.088  1.00  0.00    -0.237 OA
ATOM     66  O   UNL     1       2.560   8.545 -10.291  1.00  0.00    -0.237 OA
ATOM     67  O   UNL     1       1.845   8.157  -7.977  1.00  0.00    -0.744 OA
ENDBRANCH  61  64
ENDBRANCH  43  57
BRANCH  44  68
ATOM     68  C   UNL     1      -0.533  14.142  -2.271  1.00  0.00     0.023 A 
ATOM     69  C   UNL     1      -0.931  15.355  -2.874  1.00  0.00     0.012 A 
ATOM     70  C   UNL     1      -1.520  13.162  -2.032  1.00  0.00     0.148 A 
ATOM     71  C   UNL     1      -2.256  15.562  -3.277  1.00  0.00     0.002 A 
ATOM     72  C   UNL     1      -2.836  13.371  -2.438  1.00  0.00     0.091 A 
ATOM     73  F   UNL     1      -1.147  11.991  -1.499  1.00  0.00    -0.205 F 
ATOM     74  C   UNL     1      -3.204  14.565  -3.074  1.00  0.00     0.022 A 
BRANCH  72  75
ATOM     75  S   UNL     1      -4.109  12.115  -2.259  1.00  0.00     0.127 S 
ATOM     76  O   UNL     1      -5.188  12.868  -1.620  1.00  0.00    -0.237 OA
ATOM     77  O   UNL     1      -4.362  11.742  -3.648  1.00  0.00    -0.237 OA
ATOM     78  O   UNL     1      -3.525  11.074  -1.423  1.00  0.00    -0.744 OA
ENDBRANCH  72  75
ENDBRANCH  44  68
BRANCH  56  79
ATOM     79  C   UNL     1       5.595  15.238  -2.298  1.00  0.00     0.023 A 
ATOM     80  C   UNL     1       5.085  15.094  -0.991  1.00  0.00     0.012 A 
ATOM     81  C   UNL     1       6.646  16.143  -2.520  1.00  0.00     0.148 A 
ATOM     82  C   UNL     1       5.598  15.859   0.063  1.00  0.00     0.002 A 
ATOM     83  C   UNL     1       7.186  16.863  -1.464  1.00  0.00     0.091 A 
ATOM     84  F   UNL     1       7.115  16.274  -3.771  1.00  0.00    -0.205 F 
ATOM     85  C   UNL     1       6.658  16.733  -0.172  1.00  0.00     0.022 A 
BRANCH  83  86
ATOM     86  S   UNL     1       8.624  17.906  -1.702  1.00  0.00     0.127 S 
ATOM     87  O   UNL     1       8.028  19.238  -1.763  1.00  0.00    -0.237 OA
ATOM     88  O   UNL     1       9.411  17.641  -0.496  1.00  0.00    -0.237 OA
ATOM     89  O   UNL     1       9.254  17.439  -2.932  1.00  0.00    -0.744 OA
ENDBRANCH  83  86
ENDBRANCH  56  79
ENDBRANCH  30  31
ENDBRANCH  22  25
ENDBRANCH  20  21
ENDBRANCH   1  20
TORSDOF 17
