REMARK SMILES CC(=O)N[C@H]1[C@@H](Oc2ccc(C)c(C)c2)O[C@H]2CO[C@H](c3ccco3)O[C@@H]2[C@H]1OCC(=O)NCCCNC(=O)c1ccc(-c2c3nc(c(-c4cccc(S(=O)(=O)[O-])c4F)c4ccc([nH]4)c(-c4cccc(S(=O)(=O)[O-])c4F)c4nc(c(-c5cccc(S(=O)(=O)[O-])c5F)c5ccc2[nH]5)C=C4)C=C3)cc1
REMARK SMILES IDX 34 1 33 2 31 3 32 4 30 6 29 7 28 8 5 9 6 10 16 11 27 12
REMARK SMILES IDX 17 13 26 14 18 15 20 16 19 17 4 18 1 19 2 20 3 21 7 23 8 24
REMARK SMILES IDX 9 25 15 26 10 27 13 28 11 29 14 30 12 31 21 32 22 33 25 34
REMARK SMILES IDX 23 35 24 36 35 37 36 38 37 39 38 40 39 42 40 43 41 44 102 45
REMARK SMILES IDX 42 46 101 47 43 48 44 49 45 50 95 51 46 52 100 53 94 54
REMARK SMILES IDX 96 55 47 56 99 57 93 58 92 59 48 61 80 62 60 63 79 64 61 65
REMARK SMILES IDX 64 66 78 67 97 68 62 69 63 70 77 72 98 73 65 74 49 75 50 76
REMARK SMILES IDX 58 77 51 78 53 79 59 80 52 81 54 82 55 83 56 84 57 85 81 86
REMARK SMILES IDX 82 87 90 88 83 89 85 90 91 91 84 92 86 93 87 94 88 95 89 96
REMARK SMILES IDX 66 97 67 98 75 99 68 100 70 101 76 102 69 103 71 104 72 105
REMARK SMILES IDX 73 106 74 107
REMARK H PARENT 33 5 4 22 37 41 96 60 64 71
REMARK Flexibility Score: inf
ROOT
ATOM      1  C   UNL     1       0.953   5.670   4.819  1.00  0.00     0.117 C 
ENDROOT
BRANCH   1   2
ATOM      2  N   UNL     1       2.280   6.224   4.644  1.00  0.00    -0.354 N 
ATOM      3  C   UNL     1       2.997   6.427   3.503  1.00  0.00     0.246 C 
ATOM      4  O   UNL     1       4.077   7.012   3.606  1.00  0.00    -0.272 OA
ATOM      5  H   UNL     1       2.733   6.495   5.476  1.00  0.00     0.163 HD
BRANCH   3   6
ATOM      6  C   UNL     1       2.394   6.072   2.135  1.00  0.00     0.260 C 
BRANCH   6   7
ATOM      7  O   UNL     1       1.717   4.865   1.875  1.00  0.00    -0.363 OA
BRANCH   7   8
ATOM      8  C   UNL     1       2.439   3.623   1.915  1.00  0.00     0.179 C 
ATOM      9  C   UNL     1       1.537   2.648   1.070  1.00  0.00     0.182 C 
ATOM     10  C   UNL     1       1.990   1.205   1.288  1.00  0.00     0.333 C 
ATOM     11  O   UNL     1       3.379   1.074   0.842  1.00  0.00    -0.332 OA
ATOM     12  C   UNL     1       3.792   3.557   1.206  1.00  0.00     0.184 C 
ATOM     13  C   UNL     1       4.322   2.106   1.255  1.00  0.00     0.180 C 
ATOM     14  O   UNL     1       4.811   4.499   1.538  1.00  0.00    -0.337 OA
ATOM     15  C   UNL     1       5.575   2.084   0.337  1.00  0.00     0.199 C 
ATOM     16  C   UNL     1       5.746   4.419   0.444  1.00  0.00     0.319 C 
ATOM     17  O   UNL     1       6.469   3.193   0.541  1.00  0.00    -0.343 OA
BRANCH   9  18
ATOM     18  N   UNL     1       1.621   3.170  -0.355  1.00  0.00    -0.345 N 
ATOM     19  C   UNL     1       2.730   1.389  -1.826  1.00  0.00     0.114 C 
ATOM     20  C   UNL     1       2.301   2.804  -1.492  1.00  0.00     0.217 C 
ATOM     21  O   UNL     1       2.521   3.704  -2.309  1.00  0.00    -0.275 OA
ATOM     22  H   UNL     1       1.051   3.959  -0.498  1.00  0.00     0.164 HD
ENDBRANCH   9  18
BRANCH  10  23
ATOM     23  O   UNL     1       1.056   0.140   0.861  1.00  0.00    -0.463 OA
BRANCH  23  24
ATOM     24  C   UNL     1       0.015   0.125  -0.037  1.00  0.00     0.123 A 
ATOM     25  C   UNL     1      -0.286   1.067  -1.002  1.00  0.00     0.047 A 
ATOM     26  C   UNL     1      -0.831  -0.996  -0.070  1.00  0.00     0.050 A 
ATOM     27  C   UNL     1      -1.218   0.911  -2.028  1.00  0.00     0.007 A 
ATOM     28  C   UNL     1      -1.861  -1.160  -1.063  1.00  0.00    -0.045 A 
ATOM     29  C   UNL     1      -2.027  -0.202  -2.077  1.00  0.00    -0.048 A 
ATOM     30  C   UNL     1      -2.741  -2.381  -1.011  1.00  0.00     0.045 C 
ATOM     31  C   UNL     1      -3.009  -0.288  -3.211  1.00  0.00     0.044 C 
ENDBRANCH  23  24
ENDBRANCH  10  23
BRANCH  16  32
ATOM     32  C   UNL     1       6.667   5.585   0.357  1.00  0.00     0.159 A 
ATOM     33  C   UNL     1       7.521   5.980  -0.661  1.00  0.00     0.051 A 
ATOM     34  O   UNL     1       6.605   6.565   1.304  1.00  0.00    -0.464 OA
ATOM     35  C   UNL     1       8.020   7.253  -0.304  1.00  0.00     0.042 A 
ATOM     36  C   UNL     1       7.434   7.564   0.900  1.00  0.00     0.195 A 
ENDBRANCH  16  32
ENDBRANCH   7   8
ENDBRANCH   6   7
ENDBRANCH   3   6
ENDBRANCH   1   2
BRANCH   1  37
ATOM     37  C   UNL     1       0.990   4.293   5.470  1.00  0.00     0.042 C 
BRANCH  37  38
ATOM     38  C   UNL     1       1.657   4.262   6.842  1.00  0.00     0.118 C 
BRANCH  38  39
ATOM     39  N   UNL     1       0.930   5.039   7.836  1.00  0.00    -0.352 N 
ATOM     40  C   UNL     1       0.411   4.646   9.043  1.00  0.00     0.251 C 
ATOM     41  H   UNL     1       0.790   5.986   7.608  1.00  0.00     0.163 HD
ATOM     42  O   UNL     1      -0.338   5.411   9.655  1.00  0.00    -0.269 OA
BRANCH  40  43
ATOM     43  C   UNL     1       0.725   3.314   9.603  1.00  0.00     0.039 A 
ATOM     44  C   UNL     1      -0.301   2.576  10.201  1.00  0.00     0.014 A 
ATOM     45  C   UNL     1       2.022   2.795   9.558  1.00  0.00     0.014 A 
ATOM     46  C   UNL     1      -0.038   1.298  10.698  1.00  0.00     0.010 A 
ATOM     47  C   UNL     1       2.264   1.490   9.981  1.00  0.00     0.010 A 
ATOM     48  C   UNL     1       1.239   0.729  10.562  1.00  0.00    -0.014 A 
BRANCH  48  49
ATOM     49  C   UNL     1       1.512  -0.664  11.006  1.00  0.00     0.031 A 
ATOM     50  C   UNL     1       2.528  -0.938  12.083  1.00  0.00     0.074 A 
ATOM     51  C   UNL     1       0.904  -1.692  10.380  1.00  0.00     0.049 A 
ATOM     52  N   UNL     1       2.931  -2.087  12.561  1.00  0.00    -0.248 NA
ATOM     53  C   UNL     1       3.198   0.227  12.685  1.00  0.00     0.031 C 
ATOM     54  C   UNL     1      -0.039  -1.563   9.266  1.00  0.00     0.029 A 
ATOM     55  N   UNL     1       1.011  -3.048  10.568  1.00  0.00    -0.354 N 
ATOM     56  C   UNL     1       3.926  -1.789  13.484  1.00  0.00     0.074 A 
ATOM     57  C   UNL     1       4.085  -0.351  13.482  1.00  0.00     0.031 C 
ATOM     58  C   UNL     1      -0.423  -2.787   8.870  1.00  0.00     0.029 A 
ATOM     59  C   UNL     1       0.271  -3.788   9.674  1.00  0.00     0.049 A 
ATOM     60  H   UNL     1       1.564  -3.452  11.274  1.00  0.00     0.167 HD
ATOM     61  C   UNL     1       4.628  -2.632  14.279  1.00  0.00     0.034 A 
ATOM     62  C   UNL     1       0.174  -5.122   9.507  1.00  0.00     0.034 A 
ATOM     63  C   UNL     1       4.439  -4.057  14.308  1.00  0.00     0.049 A 
ATOM     64  C   UNL     1       0.934  -6.034  10.432  1.00  0.00     0.074 A 
ATOM     65  C   UNL     1       5.027  -4.984  15.152  1.00  0.00     0.029 A 
ATOM     66  N   UNL     1       3.615  -4.766  13.449  1.00  0.00    -0.354 N 
ATOM     67  N   UNL     1       1.741  -5.722  11.417  1.00  0.00    -0.248 NA
ATOM     68  C   UNL     1       0.741  -7.479  10.249  1.00  0.00     0.031 C 
ATOM     69  C   UNL     1       4.588  -6.257  14.777  1.00  0.00     0.029 A 
ATOM     70  C   UNL     1       3.693  -6.120  13.728  1.00  0.00     0.049 A 
ATOM     71  H   UNL     1       3.056  -4.366  12.744  1.00  0.00     0.167 HD
ATOM     72  C   UNL     1       2.123  -6.929  11.992  1.00  0.00     0.074 A 
ATOM     73  C   UNL     1       1.442  -7.975  11.260  1.00  0.00     0.031 C 
ATOM     74  C   UNL     1       2.973  -7.151  13.025  1.00  0.00     0.034 A 
BRANCH  61  75
ATOM     75  C   UNL     1       5.646  -2.035  15.216  1.00  0.00     0.023 A 
ATOM     76  C   UNL     1       5.219  -1.291  16.335  1.00  0.00     0.012 A 
ATOM     77  C   UNL     1       7.022  -2.276  15.032  1.00  0.00     0.148 A 
ATOM     78  C   UNL     1       6.145  -0.769  17.237  1.00  0.00     0.002 A 
ATOM     79  C   UNL     1       7.936  -1.794  15.961  1.00  0.00     0.091 A 
ATOM     80  F   UNL     1       7.411  -2.969  13.952  1.00  0.00    -0.205 F 
ATOM     81  C   UNL     1       7.501  -1.030  17.056  1.00  0.00     0.022 A 
BRANCH  79  82
ATOM     82  S   UNL     1       9.695  -2.146  15.867  1.00  0.00     0.127 S 
ATOM     83  O   UNL     1      10.243  -0.829  15.550  1.00  0.00    -0.237 OA
ATOM     84  O   UNL     1       9.985  -2.620  17.220  1.00  0.00    -0.237 OA
ATOM     85  O   UNL     1       9.848  -3.152  14.823  1.00  0.00    -0.744 OA
ENDBRANCH  79  82
ENDBRANCH  61  75
BRANCH  62  86
ATOM     86  C   UNL     1      -0.711  -5.678   8.444  1.00  0.00     0.023 A 
ATOM     87  C   UNL     1      -1.883  -6.370   8.802  1.00  0.00     0.012 A 
ATOM     88  C   UNL     1      -0.404  -5.508   7.080  1.00  0.00     0.148 A 
ATOM     89  C   UNL     1      -2.714  -6.917   7.823  1.00  0.00     0.002 A 
ATOM     90  C   UNL     1      -1.266  -6.002   6.109  1.00  0.00     0.091 A 
ATOM     91  F   UNL     1       0.722  -4.855   6.758  1.00  0.00    -0.205 F 
ATOM     92  C   UNL     1      -2.411  -6.725   6.478  1.00  0.00     0.022 A 
BRANCH  90  93
ATOM     93  S   UNL     1      -1.028  -5.681   4.357  1.00  0.00     0.127 S 
ATOM     94  O   UNL     1      -0.645  -6.999   3.861  1.00  0.00    -0.237 OA
ATOM     95  O   UNL     1      -2.358  -5.229   3.948  1.00  0.00    -0.237 OA
ATOM     96  O   UNL     1       0.002  -4.652   4.284  1.00  0.00    -0.744 OA
ENDBRANCH  90  93
ENDBRANCH  62  86
BRANCH  74  97
ATOM     97  C   UNL     1       3.187  -8.576  13.464  1.00  0.00     0.023 A 
ATOM     98  C   UNL     1       3.923  -9.462  12.653  1.00  0.00     0.012 A 
ATOM     99  C   UNL     1       2.717  -9.015  14.718  1.00  0.00     0.148 A 
ATOM    100  C   UNL     1       4.158 -10.773  13.067  1.00  0.00     0.002 A 
ATOM    101  C   UNL     1       3.001 -10.306  15.148  1.00  0.00     0.091 A 
ATOM    102  F   UNL     1       2.003  -8.163  15.468  1.00  0.00    -0.205 F 
ATOM    103  C   UNL     1       3.708 -11.190  14.318  1.00  0.00     0.022 A 
BRANCH 101 104
ATOM    104  S   UNL     1       2.548 -10.895  16.783  1.00  0.00     0.127 S 
ATOM    105  O   UNL     1       1.485 -11.853  16.469  1.00  0.00    -0.237 OA
ATOM    106  O   UNL     1       3.797 -11.507  17.246  1.00  0.00    -0.237 OA
ATOM    107  O   UNL     1       2.132  -9.726  17.535  1.00  0.00    -0.744 OA
ENDBRANCH 101 104
ENDBRANCH  74  97
ENDBRANCH  48  49
ENDBRANCH  40  43
ENDBRANCH  38  39
ENDBRANCH  37  38
ENDBRANCH   1  37
TORSDOF 19
