REMARK SMILES O=C1C[C@H](C(=O)NCCCNC(=O)c2ccc(-c3c4nc(c(-c5cccc(S(=O)(=O)[O-])c5F)c5ccc([nH]5)c(-c5cccc(S(=O)(=O)[O-])c5F)c5nc(c(-c6cccc(S(=O)(=O)[O-])c6F)c6ccc3[nH]6)C=C5)C=C4)cc2)c2c(nc(Nc3ccc(Oc4ccccc4)cc3)[nH]c2=O)N1
REMARK SMILES IDX 8 1 7 2 5 3 6 4 4 6 1 7 2 8 3 9 98 10 78 11 77 13 79 14
REMARK SMILES IDX 96 15 80 16 95 17 97 18 81 20 82 22 83 23 94 24 84 25 93 26
REMARK SMILES IDX 85 27 86 28 87 29 88 30 92 31 89 32 91 33 90 34 9 35 10 36
REMARK SMILES IDX 11 37 12 38 13 40 14 41 15 42 76 43 16 44 75 45 17 46 18 47
REMARK SMILES IDX 19 48 69 49 20 50 74 51 68 52 70 53 21 54 73 55 67 56 66 57
REMARK SMILES IDX 22 59 54 60 34 61 53 62 35 63 38 64 52 65 71 66 36 67 37 68
REMARK SMILES IDX 51 70 72 71 39 72 23 73 24 74 32 75 25 76 27 77 33 78 26 79
REMARK SMILES IDX 28 80 29 81 30 82 31 83 55 84 56 85 64 86 57 87 59 88 65 89
REMARK SMILES IDX 58 90 60 91 61 92 62 93 63 94 40 95 41 96 49 97 42 98 44 99
REMARK SMILES IDX 50 100 43 101 45 102 46 103 47 104 48 105
REMARK H PARENT 7 5 98 12 95 19 81 21 11 39 70 58 38 69
REMARK Flexibility Score: inf
ROOT
ATOM      1  C   UNL     1       6.171  -1.022   0.534  1.00  0.00     0.117 C 
ENDROOT
BRANCH   1   2
ATOM      2  N   UNL     1       5.848  -2.260  -0.157  1.00  0.00    -0.355 N 
ATOM      3  C   UNL     1       4.801  -2.604  -0.956  1.00  0.00     0.228 C 
ATOM      4  O   UNL     1       4.720  -3.783  -1.313  1.00  0.00    -0.274 OA
ATOM      5  H   UNL     1       6.505  -2.981  -0.021  1.00  0.00     0.163 HD
BRANCH   3   6
ATOM      6  C   UNL     1       3.732  -1.595  -1.372  1.00  0.00     0.127 C 
ATOM      7  O   UNL     1       1.325   0.411   0.583  1.00  0.00    -0.275 OA
ATOM      8  C   UNL     1       2.296   0.111  -0.106  1.00  0.00     0.226 C 
ATOM      9  C   UNL     1       2.817  -1.304  -0.177  1.00  0.00     0.119 C 
ATOM     10  N   UNL     1       2.996   1.065  -0.778  1.00  0.00    -0.310 N 
ATOM     11  C   UNL     1       3.997   0.854  -1.669  1.00  0.00     0.146 A 
ATOM     12  H   UNL     1       2.751   2.002  -0.600  1.00  0.00     0.171 HD
ATOM     13  C   UNL     1       4.346  -0.388  -2.009  1.00  0.00     0.073 A 
ATOM     14  N   UNL     1       4.558   1.989  -2.153  1.00  0.00    -0.196 NA
ATOM     15  C   UNL     1       5.396  -0.506  -3.036  1.00  0.00     0.258 A 
ATOM     16  C   UNL     1       5.514   1.892  -3.024  1.00  0.00     0.209 A 
ATOM     17  N   UNL     1       5.939   0.670  -3.463  1.00  0.00    -0.292 N 
ATOM     18  O   UNL     1       5.765  -1.580  -3.495  1.00  0.00    -0.269 OA
ATOM     19  H   UNL     1       6.671   0.637  -4.121  1.00  0.00     0.173 HD
BRANCH  16  20
ATOM     20  N   UNL     1       6.131   2.984  -3.578  1.00  0.00    -0.326 N 
ATOM     21  H   UNL     1       6.737   2.848  -4.341  1.00  0.00     0.170 HD
BRANCH  20  22
ATOM     22  C   UNL     1       5.931   4.290  -3.100  1.00  0.00     0.041 A 
ATOM     23  C   UNL     1       5.402   5.273  -3.940  1.00  0.00     0.030 A 
ATOM     24  C   UNL     1       6.115   4.589  -1.745  1.00  0.00     0.030 A 
ATOM     25  C   UNL     1       5.049   6.527  -3.429  1.00  0.00     0.049 A 
ATOM     26  C   UNL     1       5.778   5.842  -1.235  1.00  0.00     0.049 A 
ATOM     27  C   UNL     1       5.241   6.818  -2.076  1.00  0.00     0.127 A 
BRANCH  27  28
ATOM     28  O   UNL     1       4.830   8.072  -1.667  1.00  0.00    -0.457 OA
BRANCH  28  29
ATOM     29  C   UNL     1       5.199   8.464  -0.404  1.00  0.00     0.127 A 
ATOM     30  C   UNL     1       4.243   8.458   0.612  1.00  0.00     0.047 A 
ATOM     31  C   UNL     1       6.516   8.852  -0.146  1.00  0.00     0.047 A 
ATOM     32  C   UNL     1       4.625   8.783   1.913  1.00  0.00     0.004 A 
ATOM     33  C   UNL     1       6.894   9.170   1.157  1.00  0.00     0.004 A 
ATOM     34  C   UNL     1       5.951   9.127   2.186  1.00  0.00     0.000 A 
ENDBRANCH  28  29
ENDBRANCH  27  28
ENDBRANCH  20  22
ENDBRANCH  16  20
ENDBRANCH   3   6
ENDBRANCH   1   2
BRANCH   1  35
ATOM     35  C   UNL     1       6.161  -1.197   2.045  1.00  0.00     0.042 C 
BRANCH  35  36
ATOM     36  C   UNL     1       7.221  -2.168   2.546  1.00  0.00     0.118 C 
BRANCH  36  37
ATOM     37  N   UNL     1       8.572  -1.654   2.360  1.00  0.00    -0.352 N 
ATOM     38  C   UNL     1       9.467  -1.225   3.310  1.00  0.00     0.251 C 
ATOM     39  H   UNL     1       8.886  -1.609   1.428  1.00  0.00     0.163 HD
ATOM     40  O   UNL     1      10.485  -0.626   2.978  1.00  0.00    -0.269 OA
BRANCH  38  41
ATOM     41  C   UNL     1       9.175  -1.476   4.735  1.00  0.00     0.039 A 
ATOM     42  C   UNL     1       9.249  -0.419   5.644  1.00  0.00     0.014 A 
ATOM     43  C   UNL     1       8.799  -2.755   5.158  1.00  0.00     0.014 A 
ATOM     44  C   UNL     1       8.883  -0.634   6.973  1.00  0.00     0.010 A 
ATOM     45  C   UNL     1       8.363  -2.947   6.463  1.00  0.00     0.010 A 
ATOM     46  C   UNL     1       8.414  -1.893   7.385  1.00  0.00    -0.014 A 
BRANCH  46  47
ATOM     47  C   UNL     1       8.012  -2.135   8.790  1.00  0.00     0.031 A 
ATOM     48  C   UNL     1       8.826  -3.062   9.646  1.00  0.00     0.074 A 
ATOM     49  C   UNL     1       6.893  -1.563   9.277  1.00  0.00     0.049 A 
ATOM     50  N   UNL     1       8.639  -3.400  10.894  1.00  0.00    -0.248 NA
ATOM     51  C   UNL     1       9.994  -3.706   9.018  1.00  0.00     0.031 C 
ATOM     52  C   UNL     1       5.985  -0.699   8.521  1.00  0.00     0.029 A 
ATOM     53  N   UNL     1       6.323  -1.637  10.523  1.00  0.00    -0.354 N 
ATOM     54  C   UNL     1       9.648  -4.306  11.194  1.00  0.00     0.074 A 
ATOM     55  C   UNL     1      10.425  -4.497   9.991  1.00  0.00     0.031 C 
ATOM     56  C   UNL     1       4.979  -0.311   9.323  1.00  0.00     0.029 A 
ATOM     57  C   UNL     1       5.162  -0.911  10.643  1.00  0.00     0.049 A 
ATOM     58  H   UNL     1       6.709  -2.161  11.262  1.00  0.00     0.167 HD
ATOM     59  C   UNL     1       9.927  -4.896  12.377  1.00  0.00     0.034 A 
ATOM     60  C   UNL     1       4.341  -0.742  11.698  1.00  0.00     0.034 A 
ATOM     61  C   UNL     1       9.186  -4.669  13.584  1.00  0.00     0.049 A 
ATOM     62  C   UNL     1       4.684  -1.394  13.009  1.00  0.00     0.074 A 
ATOM     63  C   UNL     1       9.443  -5.161  14.850  1.00  0.00     0.029 A 
ATOM     64  N   UNL     1       8.045  -3.890  13.675  1.00  0.00    -0.354 N 
ATOM     65  N   UNL     1       5.720  -2.139  13.308  1.00  0.00    -0.248 NA
ATOM     66  C   UNL     1       3.765  -1.163  14.134  1.00  0.00     0.031 C 
ATOM     67  C   UNL     1       8.448  -4.688  15.708  1.00  0.00     0.029 A 
ATOM     68  C   UNL     1       7.580  -3.892  14.976  1.00  0.00     0.049 A 
ATOM     69  H   UNL     1       7.627  -3.407  12.925  1.00  0.00     0.167 HD
ATOM     70  C   UNL     1       5.593  -2.445  14.658  1.00  0.00     0.074 A 
ATOM     71  C   UNL     1       4.384  -1.798  15.123  1.00  0.00     0.031 C 
ATOM     72  C   UNL     1       6.403  -3.203  15.435  1.00  0.00     0.034 A 
BRANCH  59  73
ATOM     73  C   UNL     1      11.132  -5.789  12.450  1.00  0.00     0.023 A 
ATOM     74  C   UNL     1      12.412  -5.205  12.519  1.00  0.00     0.012 A 
ATOM     75  C   UNL     1      10.995  -7.186  12.548  1.00  0.00     0.148 A 
ATOM     76  C   UNL     1      13.544  -6.000  12.677  1.00  0.00     0.002 A 
ATOM     77  C   UNL     1      12.127  -7.970  12.736  1.00  0.00     0.091 A 
ATOM     78  F   UNL     1       9.767  -7.715  12.464  1.00  0.00    -0.205 F 
ATOM     79  C   UNL     1      13.401  -7.380  12.796  1.00  0.00     0.022 A 
BRANCH  77  80
ATOM     80  S   UNL     1      12.051  -9.751  12.954  1.00  0.00     0.127 S 
ATOM     81  O   UNL     1      12.782 -10.222  11.777  1.00  0.00    -0.237 OA
ATOM     82  O   UNL     1      12.755  -9.933  14.223  1.00  0.00    -0.237 OA
ATOM     83  O   UNL     1      10.637 -10.097  12.979  1.00  0.00    -0.744 OA
ENDBRANCH  77  80
ENDBRANCH  59  73
BRANCH  60  84
ATOM     84  C   UNL     1       3.160   0.154  11.570  1.00  0.00     0.023 A 
ATOM     85  C   UNL     1       3.212   1.441  12.139  1.00  0.00     0.012 A 
ATOM     86  C   UNL     1       2.022  -0.234  10.839  1.00  0.00     0.148 A 
ATOM     87  C   UNL     1       2.143   2.326  11.989  1.00  0.00     0.002 A 
ATOM     88  C   UNL     1       0.975   0.664  10.665  1.00  0.00     0.091 A 
ATOM     89  F   UNL     1       2.001  -1.465  10.309  1.00  0.00    -0.205 F 
ATOM     90  C   UNL     1       1.030   1.941  11.246  1.00  0.00     0.022 A 
BRANCH  88  91
ATOM     91  S   UNL     1      -0.462   0.298   9.652  1.00  0.00     0.127 S 
ATOM     92  O   UNL     1      -1.543   0.363  10.634  1.00  0.00    -0.237 OA
ATOM     93  O   UNL     1      -0.434   1.400   8.691  1.00  0.00    -0.237 OA
ATOM     94  O   UNL     1      -0.219  -1.019   9.079  1.00  0.00    -0.744 OA
ENDBRANCH  88  91
ENDBRANCH  60  84
BRANCH  72  95
ATOM     95  C   UNL     1       6.041  -3.386  16.882  1.00  0.00     0.023 A 
ATOM     96  C   UNL     1       5.062  -4.334  17.232  1.00  0.00     0.012 A 
ATOM     97  C   UNL     1       6.790  -2.748  17.891  1.00  0.00     0.148 A 
ATOM     98  C   UNL     1       4.833  -4.649  18.570  1.00  0.00     0.002 A 
ATOM     99  C   UNL     1       6.580  -3.092  19.221  1.00  0.00     0.091 A 
ATOM    100  F   UNL     1       7.715  -1.849  17.527  1.00  0.00    -0.205 F 
ATOM    101  C   UNL     1       5.600  -4.040  19.562  1.00  0.00     0.022 A 
BRANCH  99 102
ATOM    102  S   UNL     1       7.570  -2.426  20.563  1.00  0.00     0.127 S 
ATOM    103  O   UNL     1       6.570  -1.686  21.332  1.00  0.00    -0.237 OA
ATOM    104  O   UNL     1       8.064  -3.640  21.212  1.00  0.00    -0.237 OA
ATOM    105  O   UNL     1       8.599  -1.604  19.940  1.00  0.00    -0.744 OA
ENDBRANCH  99 102
ENDBRANCH  72  95
ENDBRANCH  46  47
ENDBRANCH  38  41
ENDBRANCH  36  37
ENDBRANCH  35  36
ENDBRANCH   1  35
TORSDOF 17
