REMARK SMILES COc1cc([C@H]2c3c(-c4ccccc4)n[nH]c3C(=O)N2c2ccc(C(=O)NCCCNC(=O)c3ccc(-c4c5nc(c(-c6cccc(S(=O)(=O)[O-])c6F)c6ccc([nH]6)c(-c6cccc(S(=O)(=O)[O-])c6F)c6nc(c(-c7cccc(S(=O)(=O)[O-])c7F)c7ccc4[nH]7)C=C6)C=C5)cc3)cc2)ccc1O
REMARK SMILES IDX 29 1 28 2 27 3 25 4 26 5 24 7 21 8 22 9 98 10 23 11 97 12
REMARK SMILES IDX 20 13 6 14 7 15 8 16 17 17 18 18 15 19 16 20 19 21 5 23 3 24
REMARK SMILES IDX 4 25 101 26 100 27 99 28 2 29 1 30 102 31 9 33 10 34 14 35
REMARK SMILES IDX 11 36 13 37 12 38 30 39 31 40 32 41 33 43 34 44 35 45 96 46
REMARK SMILES IDX 36 47 95 48 37 49 38 50 39 51 89 52 40 53 94 54 88 55 90 56
REMARK SMILES IDX 41 57 93 58 87 59 86 60 42 62 74 63 54 64 73 65 55 66 58 67
REMARK SMILES IDX 72 68 91 69 56 70 57 71 71 73 92 74 59 75 43 76 44 77 52 78
REMARK SMILES IDX 45 79 47 80 53 81 46 82 48 83 49 84 50 85 51 86 75 87 76 88
REMARK SMILES IDX 84 89 77 90 79 91 85 92 78 93 80 94 81 95 82 96 83 97 60 98
REMARK SMILES IDX 61 99 69 100 62 101 64 102 70 103 63 104 65 105 66 106
REMARK SMILES IDX 67 107 68 108
REMARK H PARENT 27 6 16 22 102 32 31 42 90 61 58 72
REMARK Flexibility Score: inf
ROOT
ATOM      1  C   UNL     1      -7.003  -4.135  -4.419  1.00  0.00     0.042 C 
ENDROOT
BRANCH   1   2
ATOM      2  C   UNL     1      -6.575  -3.640  -3.032  1.00  0.00     0.118 C 
BRANCH   2   3
ATOM      3  N   UNL     1      -6.707  -4.672  -2.020  1.00  0.00    -0.352 N 
ATOM      4  C   UNL     1      -5.828  -5.588  -1.498  1.00  0.00     0.251 C 
ATOM      5  O   UNL     1      -6.216  -6.254  -0.539  1.00  0.00    -0.269 OA
ATOM      6  H   UNL     1      -7.609  -4.726  -1.629  1.00  0.00     0.163 HD
BRANCH   4   7
ATOM      7  C   UNL     1      -4.429  -5.777  -1.984  1.00  0.00     0.039 A 
ATOM      8  C   UNL     1      -1.728  -6.114  -2.692  1.00  0.00     0.045 A 
ATOM      9  C   UNL     1      -2.213  -6.692  -1.522  1.00  0.00     0.027 A 
ATOM     10  C   UNL     1      -2.594  -5.427  -3.536  1.00  0.00     0.027 A 
ATOM     11  C   UNL     1      -3.549  -6.495  -1.156  1.00  0.00     0.016 A 
ATOM     12  C   UNL     1      -3.943  -5.311  -3.206  1.00  0.00     0.016 A 
BRANCH   8  13
ATOM     13  N   UNL     1      -0.379  -6.228  -3.043  1.00  0.00    -0.295 N 
ATOM     14  C   UNL     1       0.463  -5.029  -3.312  1.00  0.00     0.156 C 
ATOM     15  C   UNL     1       1.695  -5.698  -3.795  1.00  0.00     0.038 A 
ATOM     16  C   UNL     1       2.986  -5.491  -4.306  1.00  0.00     0.099 A 
ATOM     17  C   UNL     1       1.529  -7.053  -3.774  1.00  0.00     0.129 A 
ATOM     18  C   UNL     1       0.268  -7.448  -3.273  1.00  0.00     0.277 C 
ATOM     19  N   UNL     1       3.545  -6.678  -4.646  1.00  0.00    -0.174 NA
ATOM     20  N   UNL     1       2.630  -7.615  -4.293  1.00  0.00    -0.272 N 
ATOM     21  O   UNL     1      -0.137  -8.595  -3.137  1.00  0.00    -0.267 OA
ATOM     22  H   UNL     1       2.758  -8.585  -4.404  1.00  0.00     0.190 HD
BRANCH  14  23
ATOM     23  C   UNL     1       0.807  -4.255  -2.055  1.00  0.00    -0.016 A 
ATOM     24  C   UNL     1       0.914  -2.089  -0.882  1.00  0.00     0.160 A 
ATOM     25  C   UNL     1       0.586  -2.866  -2.008  1.00  0.00     0.056 A 
ATOM     26  C   UNL     1       1.480  -2.730   0.221  1.00  0.00     0.157 A 
ATOM     27  C   UNL     1       1.685  -4.111   0.208  1.00  0.00     0.050 A 
ATOM     28  C   UNL     1       1.337  -4.870  -0.910  1.00  0.00     0.010 A 
BRANCH  24  29
ATOM     29  O   UNL     1       0.625  -0.766  -1.066  1.00  0.00    -0.493 OA
ATOM     30  C   UNL     1       0.987   0.192  -0.088  1.00  0.00     0.278 C 
ENDBRANCH  24  29
BRANCH  26  31
ATOM     31  O   UNL     1       1.876  -2.106   1.369  1.00  0.00    -0.504 OA
ATOM     32  H   UNL     1       1.773  -1.179   1.457  1.00  0.00     0.293 HD
ENDBRANCH  26  31
ENDBRANCH  14  23
BRANCH  16  33
ATOM     33  C   UNL     1       3.714  -4.243  -4.484  1.00  0.00     0.002 A 
ATOM     34  C   UNL     1       4.245  -3.904  -5.734  1.00  0.00     0.010 A 
ATOM     35  C   UNL     1       3.935  -3.391  -3.396  1.00  0.00     0.010 A 
ATOM     36  C   UNL     1       4.971  -2.720  -5.894  1.00  0.00     0.001 A 
ATOM     37  C   UNL     1       4.656  -2.207  -3.556  1.00  0.00     0.001 A 
ATOM     38  C   UNL     1       5.173  -1.872  -4.806  1.00  0.00     0.000 A 
ENDBRANCH  16  33
ENDBRANCH   8  13
ENDBRANCH   4   7
ENDBRANCH   2   3
ENDBRANCH   1   2
BRANCH   1  39
ATOM     39  C   UNL     1      -8.505  -4.028  -4.620  1.00  0.00     0.118 C 
BRANCH  39  40
ATOM     40  N   UNL     1      -8.934  -2.633  -4.738  1.00  0.00    -0.352 N 
ATOM     41  C   UNL     1     -10.218  -2.140  -4.838  1.00  0.00     0.251 C 
ATOM     42  H   UNL     1      -8.215  -1.961  -4.747  1.00  0.00     0.163 HD
ATOM     43  O   UNL     1     -10.416  -1.014  -5.280  1.00  0.00    -0.269 OA
BRANCH  41  44
ATOM     44  C   UNL     1     -11.340  -2.993  -4.414  1.00  0.00     0.039 A 
ATOM     45  C   UNL     1     -12.502  -3.068  -5.182  1.00  0.00     0.014 A 
ATOM     46  C   UNL     1     -11.194  -3.759  -3.258  1.00  0.00     0.014 A 
ATOM     47  C   UNL     1     -13.475  -3.995  -4.826  1.00  0.00     0.010 A 
ATOM     48  C   UNL     1     -12.084  -4.774  -2.994  1.00  0.00     0.010 A 
ATOM     49  C   UNL     1     -13.243  -4.878  -3.753  1.00  0.00    -0.014 A 
BRANCH  49  50
ATOM     50  C   UNL     1     -14.116  -6.037  -3.569  1.00  0.00     0.031 A 
ATOM     51  C   UNL     1     -14.278  -6.817  -4.824  1.00  0.00     0.074 A 
ATOM     52  C   UNL     1     -14.571  -6.482  -2.374  1.00  0.00     0.049 A 
ATOM     53  N   UNL     1     -15.289  -6.788  -5.631  1.00  0.00    -0.248 NA
ATOM     54  C   UNL     1     -13.110  -7.530  -5.373  1.00  0.00     0.031 C 
ATOM     55  C   UNL     1     -14.175  -5.997  -1.044  1.00  0.00     0.029 A 
ATOM     56  N   UNL     1     -15.379  -7.543  -2.071  1.00  0.00    -0.354 N 
ATOM     57  C   UNL     1     -15.008  -7.769  -6.580  1.00  0.00     0.074 A 
ATOM     58  C   UNL     1     -13.585  -7.956  -6.548  1.00  0.00     0.031 C 
ATOM     59  C   UNL     1     -14.512  -6.912  -0.109  1.00  0.00     0.029 A 
ATOM     60  C   UNL     1     -15.314  -7.944  -0.735  1.00  0.00     0.049 A 
ATOM     61  H   UNL     1     -15.954  -7.985  -2.736  1.00  0.00     0.167 HD
ATOM     62  C   UNL     1     -15.998  -8.620  -6.970  1.00  0.00     0.034 A 
ATOM     63  C   UNL     1     -15.866  -9.051  -0.179  1.00  0.00     0.034 A 
ATOM     64  C   UNL     1     -17.280  -8.134  -6.525  1.00  0.00     0.049 A 
ATOM     65  C   UNL     1     -16.982  -9.468  -1.049  1.00  0.00     0.074 A 
ATOM     66  C   UNL     1     -18.173  -7.139  -6.852  1.00  0.00     0.029 A 
ATOM     67  N   UNL     1     -17.578  -8.552  -5.258  1.00  0.00    -0.354 N 
ATOM     68  N   UNL     1     -18.067  -8.761  -1.202  1.00  0.00    -0.248 NA
ATOM     69  C   UNL     1     -16.773 -10.532  -2.024  1.00  0.00     0.031 C 
ATOM     70  C   UNL     1     -18.975  -6.924  -5.690  1.00  0.00     0.029 A 
ATOM     71  C   UNL     1     -18.590  -7.827  -4.703  1.00  0.00     0.049 A 
ATOM     72  H   UNL     1     -17.115  -9.289  -4.799  1.00  0.00     0.167 HD
ATOM     73  C   UNL     1     -18.398  -8.972  -2.525  1.00  0.00     0.074 A 
ATOM     74  C   UNL     1     -17.710 -10.197  -2.913  1.00  0.00     0.031 C 
ATOM     75  C   UNL     1     -18.873  -7.952  -3.292  1.00  0.00     0.034 A 
BRANCH  62  76
ATOM     76  C   UNL     1     -15.833 -10.114  -7.224  1.00  0.00     0.023 A 
ATOM     77  C   UNL     1     -16.981 -10.811  -7.672  1.00  0.00     0.012 A 
ATOM     78  C   UNL     1     -14.757 -10.908  -6.763  1.00  0.00     0.148 A 
ATOM     79  C   UNL     1     -17.070 -12.207  -7.619  1.00  0.00     0.002 A 
ATOM     80  C   UNL     1     -14.820 -12.297  -6.781  1.00  0.00     0.091 A 
ATOM     81  F   UNL     1     -13.706 -10.338  -6.173  1.00  0.00    -0.205 F 
ATOM     82  C   UNL     1     -15.985 -12.953  -7.179  1.00  0.00     0.022 A 
BRANCH  80  83
ATOM     83  S   UNL     1     -13.434 -13.314  -6.248  1.00  0.00     0.127 S 
ATOM     84  O   UNL     1     -13.966 -13.912  -5.028  1.00  0.00    -0.237 OA
ATOM     85  O   UNL     1     -13.291 -14.229  -7.381  1.00  0.00    -0.237 OA
ATOM     86  O   UNL     1     -12.315 -12.396  -6.076  1.00  0.00    -0.744 OA
ENDBRANCH  80  83
ENDBRANCH  62  76
BRANCH  63  87
ATOM     87  C   UNL     1     -15.446  -9.892   0.966  1.00  0.00     0.023 A 
ATOM     88  C   UNL     1     -16.392 -10.726   1.602  1.00  0.00     0.012 A 
ATOM     89  C   UNL     1     -14.078 -10.122   1.221  1.00  0.00     0.148 A 
ATOM     90  C   UNL     1     -15.987 -11.793   2.413  1.00  0.00     0.002 A 
ATOM     91  C   UNL     1     -13.680 -11.187   2.026  1.00  0.00     0.091 A 
ATOM     92  F   UNL     1     -13.173  -9.353   0.600  1.00  0.00    -0.205 F 
ATOM     93  C   UNL     1     -14.632 -12.034   2.610  1.00  0.00     0.022 A 
BRANCH  91  94
ATOM     94  S   UNL     1     -11.951 -11.594   2.304  1.00  0.00     0.127 S 
ATOM     95  O   UNL     1     -11.892 -11.668   3.764  1.00  0.00    -0.237 OA
ATOM     96  O   UNL     1     -11.830 -12.879   1.622  1.00  0.00    -0.237 OA
ATOM     97  O   UNL     1     -11.188 -10.495   1.726  1.00  0.00    -0.744 OA
ENDBRANCH  91  94
ENDBRANCH  63  87
BRANCH  75  98
ATOM     98  C   UNL     1     -19.622  -6.853  -2.614  1.00  0.00     0.023 A 
ATOM     99  C   UNL     1     -19.034  -5.918  -1.742  1.00  0.00     0.012 A 
ATOM    100  C   UNL     1     -20.980  -6.725  -2.947  1.00  0.00     0.148 A 
ATOM    101  C   UNL     1     -19.800  -4.879  -1.204  1.00  0.00     0.002 A 
ATOM    102  C   UNL     1     -21.725  -5.670  -2.448  1.00  0.00     0.091 A 
ATOM    103  F   UNL     1     -21.519  -7.644  -3.764  1.00  0.00    -0.205 F 
ATOM    104  C   UNL     1     -21.142  -4.747  -1.568  1.00  0.00     0.022 A 
BRANCH 102 105
ATOM    105  S   UNL     1     -23.419  -5.406  -2.967  1.00  0.00     0.127 S 
ATOM    106  O   UNL     1     -24.169  -5.814  -1.782  1.00  0.00    -0.237 OA
ATOM    107  O   UNL     1     -23.440  -3.969  -3.244  1.00  0.00    -0.237 OA
ATOM    108  O   UNL     1     -23.612  -6.240  -4.148  1.00  0.00    -0.744 OA
ENDBRANCH 102 105
ENDBRANCH  75  98
ENDBRANCH  49  50
ENDBRANCH  41  44
ENDBRANCH  39  40
ENDBRANCH   1  39
TORSDOF 18
