REMARK SMILES CCC[N@@H+]1CCO[C@H](c2nc(CC(=O)NCCCNC(=O)c3ccc(-c4c5nc(c(-c6cccc(S(=O)(=O)[O-])c6F)c6ccc([nH]6)c(-c6cccc(S(=O)(=O)[O-])c6F)c6nc(c(-c7cccc(S(=O)(=O)[O-])c7F)c7ccc4[nH]7)C=C6)C=C5)cc3)cs2)C1
REMARK SMILES IDX 16 1 15 2 13 3 14 4 12 6 11 7 9 8 10 9 86 10 85 11 8 12 4 13
REMARK SMILES IDX 5 14 87 15 6 17 7 18 3 19 2 20 1 21 17 22 18 23 19 24 20 25
REMARK SMILES IDX 21 27 22 28 23 29 84 30 24 31 83 32 25 33 26 34 27 35 77 36
REMARK SMILES IDX 28 37 82 38 76 39 78 40 29 41 81 42 75 43 74 44 30 46 62 47
REMARK SMILES IDX 42 48 61 49 43 50 46 51 60 52 79 53 44 54 45 55 59 57 80 58
REMARK SMILES IDX 47 59 31 60 32 61 40 62 33 63 35 64 41 65 34 66 36 67 37 68
REMARK SMILES IDX 38 69 39 70 63 71 64 72 72 73 65 74 67 75 73 76 66 77 68 78
REMARK SMILES IDX 69 79 70 80 71 81 48 82 49 83 57 84 50 85 52 86 58 87 51 88
REMARK SMILES IDX 53 89 54 90 55 91 56 92
REMARK H PARENT 15 5 4 16 19 26 78 45 46 56
REMARK Flexibility Score: inf
ROOT
ATOM      1  C   UNL     1       2.663   2.801  -2.916  1.00  0.00     0.117 C 
ENDROOT
BRANCH   1   2
ATOM      2  N   UNL     1       3.208   1.916  -3.934  1.00  0.00    -0.356 N 
ATOM      3  C   UNL     1       2.971   0.583  -4.120  1.00  0.00     0.226 C 
ATOM      4  O   UNL     1       3.573   0.001  -5.026  1.00  0.00    -0.275 OA
ATOM      5  H   UNL     1       3.831   2.332  -4.573  1.00  0.00     0.163 HD
BRANCH   3   6
ATOM      6  C   UNL     1       1.955  -0.140  -3.259  1.00  0.00     0.157 C 
BRANCH   6   7
ATOM      7  C   UNL     1       2.424  -0.321  -1.855  1.00  0.00     0.061 A 
ATOM      8  C   UNL     1       2.191  -0.007   0.351  1.00  0.00     0.128 A 
ATOM      9  N   UNL     1       1.706   0.294  -0.841  1.00  0.00    -0.243 NA
ATOM     10  S   UNL     1       3.706  -0.850   0.278  1.00  0.00    -0.124 S 
ATOM     11  C   UNL     1       3.514  -1.043  -1.417  1.00  0.00     0.091 A 
BRANCH   8  12
ATOM     12  C   UNL     1       1.496   0.228   1.698  1.00  0.00     0.232 C 
ATOM     13  N   UNL     1      -0.021  -1.790   1.967  1.00  0.00    -0.331 N 
ATOM     14  C   UNL     1      -1.129  -0.932   2.334  1.00  0.00     0.291 C 
ATOM     15  C   UNL     1       1.218  -1.115   2.411  1.00  0.00     0.302 C 
ATOM     16  H   UNL     1      -0.151  -2.677   2.453  1.00  0.00     0.348 HD
ATOM     17  C   UNL     1      -0.927   0.574   2.069  1.00  0.00     0.222 C 
ATOM     18  O   UNL     1       0.301   1.009   1.466  1.00  0.00    -0.359 OA
BRANCH  13  19
ATOM     19  C   UNL     1       0.022  -2.303   0.594  1.00  0.00     0.262 C 
BRANCH  19  20
ATOM     20  C   UNL     1      -0.933  -1.925  -0.566  1.00  0.00     0.058 C 
ATOM     21  C   UNL     1      -1.210  -0.488  -0.982  1.00  0.00     0.010 C 
ENDBRANCH  19  20
ENDBRANCH  13  19
ENDBRANCH   8  12
ENDBRANCH   6   7
ENDBRANCH   3   6
ENDBRANCH   1   2
BRANCH   1  22
ATOM     22  C   UNL     1       3.527   2.869  -1.663  1.00  0.00     0.042 C 
BRANCH  22  23
ATOM     23  C   UNL     1       4.938   3.383  -1.885  1.00  0.00     0.118 C 
BRANCH  23  24
ATOM     24  N   UNL     1       4.971   4.801  -2.191  1.00  0.00    -0.352 N 
ATOM     25  C   UNL     1       5.531   5.839  -1.486  1.00  0.00     0.251 C 
ATOM     26  H   UNL     1       4.525   5.058  -3.031  1.00  0.00     0.163 HD
ATOM     27  O   UNL     1       5.276   6.993  -1.818  1.00  0.00    -0.269 OA
BRANCH  25  28
ATOM     28  C   UNL     1       6.416   5.580  -0.325  1.00  0.00     0.039 A 
ATOM     29  C   UNL     1       6.309   6.409   0.795  1.00  0.00     0.014 A 
ATOM     30  C   UNL     1       7.367   4.556  -0.338  1.00  0.00     0.014 A 
ATOM     31  C   UNL     1       7.117   6.180   1.913  1.00  0.00     0.010 A 
ATOM     32  C   UNL     1       8.106   4.272   0.810  1.00  0.00     0.010 A 
ATOM     33  C   UNL     1       8.001   5.090   1.944  1.00  0.00    -0.014 A 
BRANCH  33  34
ATOM     34  C   UNL     1       8.824   4.797   3.148  1.00  0.00     0.031 A 
ATOM     35  C   UNL     1      10.329   4.820   3.066  1.00  0.00     0.074 A 
ATOM     36  C   UNL     1       8.219   4.436   4.299  1.00  0.00     0.049 A 
ATOM     37  N   UNL     1      11.209   4.550   3.997  1.00  0.00    -0.248 NA
ATOM     38  C   UNL     1      10.928   5.168   1.766  1.00  0.00     0.031 C 
ATOM     39  C   UNL     1       6.773   4.302   4.490  1.00  0.00     0.029 A 
ATOM     40  N   UNL     1       8.745   4.088   5.519  1.00  0.00    -0.354 N 
ATOM     41  C   UNL     1      12.454   4.647   3.387  1.00  0.00     0.074 A 
ATOM     42  C   UNL     1      12.220   4.984   2.000  1.00  0.00     0.031 C 
ATOM     43  C   UNL     1       6.528   3.908   5.750  1.00  0.00     0.029 A 
ATOM     44  C   UNL     1       7.797   3.725   6.448  1.00  0.00     0.049 A 
ATOM     45  H   UNL     1       9.711   4.098   5.712  1.00  0.00     0.167 HD
ATOM     46  C   UNL     1      13.682   4.493   3.935  1.00  0.00     0.034 A 
ATOM     47  C   UNL     1       7.932   3.281   7.714  1.00  0.00     0.034 A 
ATOM     48  C   UNL     1      13.915   4.218   5.327  1.00  0.00     0.049 A 
ATOM     49  C   UNL     1       9.313   3.163   8.304  1.00  0.00     0.074 A 
ATOM     50  C   UNL     1      15.124   4.160   5.998  1.00  0.00     0.029 A 
ATOM     51  N   UNL     1      12.927   3.941   6.256  1.00  0.00    -0.354 N 
ATOM     52  N   UNL     1      10.472   3.439   7.757  1.00  0.00    -0.248 NA
ATOM     53  C   UNL     1       9.403   2.705   9.699  1.00  0.00     0.031 C 
ATOM     54  C   UNL     1      14.870   3.809   7.327  1.00  0.00     0.029 A 
ATOM     55  C   UNL     1      13.500   3.689   7.491  1.00  0.00     0.049 A 
ATOM     56  H   UNL     1      11.961   3.925   6.067  1.00  0.00     0.167 HD
ATOM     57  C   UNL     1      11.421   3.233   8.752  1.00  0.00     0.074 A 
ATOM     58  C   UNL     1      10.701   2.830   9.941  1.00  0.00     0.031 C 
ATOM     59  C   UNL     1      12.769   3.353   8.684  1.00  0.00     0.034 A 
BRANCH  46  60
ATOM     60  C   UNL     1      14.888   4.657   3.047  1.00  0.00     0.023 A 
ATOM     61  C   UNL     1      15.264   5.941   2.606  1.00  0.00     0.012 A 
ATOM     62  C   UNL     1      15.709   3.553   2.746  1.00  0.00     0.148 A 
ATOM     63  C   UNL     1      16.429   6.121   1.861  1.00  0.00     0.002 A 
ATOM     64  C   UNL     1      16.892   3.747   2.043  1.00  0.00     0.091 A 
ATOM     65  F   UNL     1      15.322   2.338   3.161  1.00  0.00    -0.205 F 
ATOM     66  C   UNL     1      17.248   5.028   1.592  1.00  0.00     0.022 A 
BRANCH  64  67
ATOM     67  S   UNL     1      18.059   2.419   1.722  1.00  0.00     0.127 S 
ATOM     68  O   UNL     1      17.986   2.310   0.265  1.00  0.00    -0.237 OA
ATOM     69  O   UNL     1      19.310   2.985   2.228  1.00  0.00    -0.237 OA
ATOM     70  O   UNL     1      17.569   1.262   2.455  1.00  0.00    -0.744 OA
ENDBRANCH  64  67
ENDBRANCH  46  60
BRANCH  47  71
ATOM     71  C   UNL     1       6.730   2.955   8.535  1.00  0.00     0.023 A 
ATOM     72  C   UNL     1       6.422   3.748   9.659  1.00  0.00     0.012 A 
ATOM     73  C   UNL     1       5.903   1.860   8.223  1.00  0.00     0.148 A 
ATOM     74  C   UNL     1       5.345   3.424  10.485  1.00  0.00     0.002 A 
ATOM     75  C   UNL     1       4.794   1.580   9.014  1.00  0.00     0.091 A 
ATOM     76  F   UNL     1       6.217   1.106   7.160  1.00  0.00    -0.205 F 
ATOM     77  C   UNL     1       4.527   2.346  10.159  1.00  0.00     0.022 A 
BRANCH  75  78
ATOM     78  S   UNL     1       3.614   0.297   8.582  1.00  0.00     0.127 S 
ATOM     79  O   UNL     1       3.959  -0.760   9.528  1.00  0.00    -0.237 OA
ATOM     80  O   UNL     1       2.334   0.960   8.837  1.00  0.00    -0.237 OA
ATOM     81  O   UNL     1       3.858   0.002   7.176  1.00  0.00    -0.744 OA
ENDBRANCH  75  78
ENDBRANCH  47  71
BRANCH  59  82
ATOM     82  C   UNL     1      13.562   3.101   9.940  1.00  0.00     0.023 A 
ATOM     83  C   UNL     1      13.694   1.792  10.442  1.00  0.00     0.012 A 
ATOM     84  C   UNL     1      14.239   4.159  10.580  1.00  0.00     0.148 A 
ATOM     85  C   UNL     1      14.458   1.544  11.582  1.00  0.00     0.002 A 
ATOM     86  C   UNL     1      15.042   3.897  11.682  1.00  0.00     0.091 A 
ATOM     87  F   UNL     1      14.087   5.401  10.097  1.00  0.00    -0.205 F 
ATOM     88  C   UNL     1      15.141   2.593  12.194  1.00  0.00     0.022 A 
BRANCH  86  89
ATOM     89  S   UNL     1      16.038   5.166  12.472  1.00  0.00     0.127 S 
ATOM     90  O   UNL     1      15.332   5.355  13.738  1.00  0.00    -0.237 OA
ATOM     91  O   UNL     1      17.340   4.507  12.592  1.00  0.00    -0.237 OA
ATOM     92  O   UNL     1      16.021   6.310  11.570  1.00  0.00    -0.744 OA
ENDBRANCH  86  89
ENDBRANCH  59  82
ENDBRANCH  33  34
ENDBRANCH  25  28
ENDBRANCH  23  24
ENDBRANCH  22  23
ENDBRANCH   1  22
TORSDOF 17
