REMARK SMILES CC(C)c1nc(OCC(=O)NCCCNC(=O)c2ccc(-c3c4nc(c(-c5cccc(S(=O)(=O)[O-])c5F)c5ccc([nH]5)c(-c5cccc(S(=O)(=O)[O-])c5F)c5nc(c(-c6cccc(S(=O)(=O)[O-])c6F)c6ccc3[nH]6)C=C5)C=C4)cc2)cc(-c2ccccn2)n1
REMARK SMILES IDX 13 1 12 2 11 3 9 4 10 5 8 7 7 8 6 9 4 10 5 11 89 12 82 13
REMARK SMILES IDX 81 14 2 15 1 16 3 17 83 18 84 19 88 20 85 21 87 22 86 23
REMARK SMILES IDX 14 24 15 25 16 26 17 28 18 29 19 30 80 31 20 32 79 33 21 34
REMARK SMILES IDX 22 35 23 36 73 37 24 38 78 39 72 40 74 41 25 42 77 43 71 44
REMARK SMILES IDX 70 45 26 47 58 48 38 49 57 50 39 51 42 52 56 53 75 54 40 55
REMARK SMILES IDX 41 56 55 58 76 59 43 60 27 61 28 62 36 63 29 64 31 65 37 66
REMARK SMILES IDX 30 67 32 68 33 69 34 70 35 71 59 72 60 73 68 74 61 75 63 76
REMARK SMILES IDX 69 77 62 78 64 79 65 80 66 81 67 82 44 83 45 84 53 85 46 86
REMARK SMILES IDX 48 87 54 88 47 89 49 90 50 91 51 92 52 93
REMARK H PARENT 11 6 15 27 74 46 42 57
REMARK Flexibility Score: inf
ROOT
ATOM      1  C   UNL     1      -3.203  -1.849   3.976  1.00  0.00     0.042 C 
ENDROOT
BRANCH   1   2
ATOM      2  C   UNL     1      -4.500  -2.275   3.300  1.00  0.00     0.117 C 
BRANCH   2   3
ATOM      3  N   UNL     1      -5.409  -1.165   3.082  1.00  0.00    -0.353 N 
ATOM      4  C   UNL     1      -5.742  -0.566   1.903  1.00  0.00     0.258 C 
ATOM      5  O   UNL     1      -6.551   0.364   1.916  1.00  0.00    -0.271 OA
ATOM      6  H   UNL     1      -5.840  -0.798   3.887  1.00  0.00     0.163 HD
BRANCH   4   7
ATOM      7  C   UNL     1      -5.126  -1.070   0.593  1.00  0.00     0.331 C 
BRANCH   7   8
ATOM      8  O   UNL     1      -3.715  -0.995   0.496  1.00  0.00    -0.467 OA
BRANCH   8   9
ATOM      9  C   UNL     1      -3.138   0.243   0.481  1.00  0.00     0.217 A 
ATOM     10  C   UNL     1      -1.119   1.348   0.538  1.00  0.00     0.135 A 
ATOM     11  N   UNL     1      -1.799   0.185   0.535  1.00  0.00    -0.198 NA
ATOM     12  N   UNL     1      -1.713   2.554   0.567  1.00  0.00    -0.231 NA
ATOM     13  C   UNL     1      -3.060   2.582   0.507  1.00  0.00     0.096 A 
ATOM     14  C   UNL     1      -3.818   1.432   0.432  1.00  0.00     0.099 A 
BRANCH  10  15
ATOM     15  C   UNL     1       0.400   1.295   0.588  1.00  0.00     0.051 C 
ATOM     16  C   UNL     1       0.958   0.018  -0.051  1.00  0.00     0.016 C 
ATOM     17  C   UNL     1       1.036   2.512  -0.095  1.00  0.00     0.016 C 
ENDBRANCH  10  15
BRANCH  13  18
ATOM     18  C   UNL     1      -3.718   3.894   0.567  1.00  0.00     0.089 A 
ATOM     19  C   UNL     1      -4.568   4.224   1.626  1.00  0.00     0.030 A 
ATOM     20  N   UNL     1      -3.536   4.719  -0.496  1.00  0.00    -0.255 NA
ATOM     21  C   UNL     1      -5.249   5.438   1.597  1.00  0.00     0.004 A 
ATOM     22  C   UNL     1      -4.196   5.897  -0.487  1.00  0.00     0.112 A 
ATOM     23  C   UNL     1      -5.060   6.293   0.521  1.00  0.00     0.020 A 
ENDBRANCH  13  18
ENDBRANCH   8   9
ENDBRANCH   7   8
ENDBRANCH   4   7
ENDBRANCH   2   3
ENDBRANCH   1   2
BRANCH   1  24
ATOM     24  C   UNL     1      -3.382  -1.226   5.358  1.00  0.00     0.118 C 
BRANCH  24  25
ATOM     25  N   UNL     1      -4.045  -2.114   6.306  1.00  0.00    -0.352 N 
ATOM     26  C   UNL     1      -3.627  -2.583   7.526  1.00  0.00     0.251 C 
ATOM     27  H   UNL     1      -4.936  -2.428   6.026  1.00  0.00     0.163 HD
ATOM     28  O   UNL     1      -4.285  -3.457   8.092  1.00  0.00    -0.269 OA
BRANCH  26  29
ATOM     29  C   UNL     1      -2.393  -2.065   8.157  1.00  0.00     0.039 A 
ATOM     30  C   UNL     1      -1.532  -2.963   8.794  1.00  0.00     0.014 A 
ATOM     31  C   UNL     1      -2.092  -0.702   8.144  1.00  0.00     0.014 A 
ATOM     32  C   UNL     1      -0.340  -2.502   9.360  1.00  0.00     0.010 A 
ATOM     33  C   UNL     1      -0.865  -0.257   8.631  1.00  0.00     0.010 A 
ATOM     34  C   UNL     1       0.021  -1.149   9.251  1.00  0.00    -0.014 A 
BRANCH  34  35
ATOM     35  C   UNL     1       1.321  -0.651   9.771  1.00  0.00     0.031 A 
ATOM     36  C   UNL     1       1.360   0.388  10.860  1.00  0.00     0.074 A 
ATOM     37  C   UNL     1       2.470  -1.072   9.205  1.00  0.00     0.049 A 
ATOM     38  N   UNL     1       2.394   0.974  11.406  1.00  0.00    -0.248 NA
ATOM     39  C   UNL     1       0.065   0.849  11.385  1.00  0.00     0.031 C 
ATOM     40  C   UNL     1       2.567  -2.024   8.097  1.00  0.00     0.029 A 
ATOM     41  N   UNL     1       3.774  -0.737   9.470  1.00  0.00    -0.354 N 
ATOM     42  C   UNL     1       1.877   1.893  12.311  1.00  0.00     0.074 A 
ATOM     43  C   UNL     1       0.435   1.819  12.207  1.00  0.00     0.031 C 
ATOM     44  C   UNL     1       3.860  -2.212   7.790  1.00  0.00     0.029 A 
ATOM     45  C   UNL     1       4.682  -1.368   8.651  1.00  0.00     0.049 A 
ATOM     46  H   UNL     1       4.035  -0.105  10.178  1.00  0.00     0.167 HD
ATOM     47  C   UNL     1       2.536   2.705  13.173  1.00  0.00     0.034 A 
ATOM     48  C   UNL     1       6.025  -1.276   8.598  1.00  0.00     0.034 A 
ATOM     49  C   UNL     1       3.969   2.760  13.290  1.00  0.00     0.049 A 
ATOM     50  C   UNL     1       6.737  -0.373   9.568  1.00  0.00     0.074 A 
ATOM     51  C   UNL     1       4.733   3.492  14.181  1.00  0.00     0.029 A 
ATOM     52  N   UNL     1       4.856   2.066  12.480  1.00  0.00    -0.354 N 
ATOM     53  N   UNL     1       6.235   0.380  10.517  1.00  0.00    -0.248 NA
ATOM     54  C   UNL     1       8.204  -0.334   9.483  1.00  0.00     0.031 C 
ATOM     55  C   UNL     1       6.083   3.267  13.887  1.00  0.00     0.029 A 
ATOM     56  C   UNL     1       6.160   2.363  12.840  1.00  0.00     0.049 A 
ATOM     57  H   UNL     1       4.596   1.452  11.756  1.00  0.00     0.167 HD
ATOM     58  C   UNL     1       7.324   0.949  11.169  1.00  0.00     0.074 A 
ATOM     59  C   UNL     1       8.512   0.441  10.514  1.00  0.00     0.031 C 
ATOM     60  C   UNL     1       7.337   1.817  12.211  1.00  0.00     0.034 A 
BRANCH  47  61
ATOM     61  C   UNL     1       1.700   3.572  14.083  1.00  0.00     0.023 A 
ATOM     62  C   UNL     1       0.920   2.974  15.096  1.00  0.00     0.012 A 
ATOM     63  C   UNL     1       1.696   4.975  13.953  1.00  0.00     0.148 A 
ATOM     64  C   UNL     1       0.107   3.748  15.922  1.00  0.00     0.002 A 
ATOM     65  C   UNL     1       0.923   5.745  14.815  1.00  0.00     0.091 A 
ATOM     66  F   UNL     1       2.427   5.530  12.976  1.00  0.00    -0.205 F 
ATOM     67  C   UNL     1       0.115   5.133  15.787  1.00  0.00     0.022 A 
BRANCH  65  68
ATOM     68  S   UNL     1       0.930   7.541  14.776  1.00  0.00     0.127 S 
ATOM     69  O   UNL     1      -0.372   7.828  14.175  1.00  0.00    -0.237 OA
ATOM     70  O   UNL     1       1.032   7.880  16.196  1.00  0.00    -0.237 OA
ATOM     71  O   UNL     1       2.088   7.919  13.979  1.00  0.00    -0.744 OA
ENDBRANCH  65  68
ENDBRANCH  47  61
BRANCH  48  72
ATOM     72  C   UNL     1       6.789  -2.128   7.644  1.00  0.00     0.023 A 
ATOM     73  C   UNL     1       7.560  -3.196   8.145  1.00  0.00     0.012 A 
ATOM     74  C   UNL     1       6.727  -1.919   6.253  1.00  0.00     0.148 A 
ATOM     75  C   UNL     1       8.278  -4.022   7.281  1.00  0.00     0.002 A 
ATOM     76  C   UNL     1       7.402  -2.778   5.394  1.00  0.00     0.091 A 
ATOM     77  F   UNL     1       5.990  -0.895   5.798  1.00  0.00    -0.205 F 
ATOM     78  C   UNL     1       8.191  -3.820   5.906  1.00  0.00     0.022 A 
BRANCH  76  79
ATOM     79  S   UNL     1       7.255  -2.676   3.607  1.00  0.00     0.127 S 
ATOM     80  O   UNL     1       8.619  -2.329   3.214  1.00  0.00    -0.237 OA
ATOM     81  O   UNL     1       6.841  -4.037   3.264  1.00  0.00    -0.237 OA
ATOM     82  O   UNL     1       6.249  -1.655   3.349  1.00  0.00    -0.744 OA
ENDBRANCH  76  79
ENDBRANCH  48  72
BRANCH  60  83
ATOM     83  C   UNL     1       8.679   2.245  12.748  1.00  0.00     0.023 A 
ATOM     84  C   UNL     1       9.499   3.110  11.996  1.00  0.00     0.012 A 
ATOM     85  C   UNL     1       9.097   1.840  14.031  1.00  0.00     0.148 A 
ATOM     86  C   UNL     1      10.729   3.536  12.498  1.00  0.00     0.002 A 
ATOM     87  C   UNL     1      10.299   2.311  14.547  1.00  0.00     0.091 A 
ATOM     88  F   UNL     1       8.313   1.001  14.724  1.00  0.00    -0.205 F 
ATOM     89  C   UNL     1      11.122   3.147  13.777  1.00  0.00     0.022 A 
BRANCH  87  90
ATOM     90  S   UNL     1      10.839   1.945  16.221  1.00  0.00     0.127 S 
ATOM     91  O   UNL     1      11.958   1.036  15.980  1.00  0.00    -0.237 OA
ATOM     92  O   UNL     1      11.222   3.267  16.718  1.00  0.00    -0.237 OA
ATOM     93  O   UNL     1       9.690   1.355  16.895  1.00  0.00    -0.744 OA
ENDBRANCH  87  90
ENDBRANCH  60  83
ENDBRANCH  34  35
ENDBRANCH  26  29
ENDBRANCH  24  25
ENDBRANCH   1  24
TORSDOF 17
