REMARK SMILES C[C@]12C(=O)N(c3ccc(C(=O)NCCCNC(=O)c4ccc(-c5c6nc(c(-c7cccc(S(=O)(=O)[O-])c7F)c7ccc([nH]7)c(-c7cccc(S(=O)(=O)[O-])c7F)c7nc(c(-c8cccc(S(=O)(=O)[O-])c8F)c8ccc5[nH]8)C=C7)C=C6)cc4)cc3)C(=O)[C@H]1[C@H]1c3ccccc3[C@@H]2c2ccccc21
REMARK SMILES IDX 15 1 14 2 13 3 12 4 10 5 11 6 9 8 6 9 7 10 83 11 8 12 82 13
REMARK SMILES IDX 5 14 1 15 2 16 3 17 86 18 94 19 4 20 84 21 87 22 93 23 95 24
REMARK SMILES IDX 85 25 88 26 100 27 92 28 96 29 89 30 99 31 91 32 97 33 90 34
REMARK SMILES IDX 98 35 16 36 17 37 18 39 19 40 20 41 81 42 21 43 80 44 22 45
REMARK SMILES IDX 23 46 24 47 74 48 25 49 79 50 73 51 75 52 26 53 78 54 72 55
REMARK SMILES IDX 71 56 27 58 59 59 39 60 58 61 40 62 43 63 57 64 76 65 41 66
REMARK SMILES IDX 42 67 56 69 77 70 44 71 28 72 29 73 37 74 30 75 32 76 38 77
REMARK SMILES IDX 31 78 33 79 34 80 35 81 36 82 60 83 61 84 69 85 62 86 64 87
REMARK SMILES IDX 70 88 63 89 65 90 66 91 67 92 68 93 45 94 46 95 54 96 47 97
REMARK SMILES IDX 49 98 55 99 48 100 50 101 51 102 52 103 53 104
REMARK H PARENT 12 7 16 38 75 57 43 68
REMARK Flexibility Score: inf
ROOT
ATOM      1  C   UNL     1      -3.491   9.050   6.985  1.00  0.00     0.118 C 
ENDROOT
BRANCH   1   2
ATOM      2  C   UNL     1      -2.408   8.143   6.415  1.00  0.00     0.042 C 
BRANCH   2   3
ATOM      3  C   UNL     1      -2.379   6.760   7.048  1.00  0.00     0.118 C 
BRANCH   3   4
ATOM      4  N   UNL     1      -3.553   5.964   6.728  1.00  0.00    -0.352 N 
ATOM      5  C   UNL     1      -3.805   5.003   5.787  1.00  0.00     0.251 C 
ATOM      6  O   UNL     1      -4.961   4.582   5.699  1.00  0.00    -0.269 OA
ATOM      7  H   UNL     1      -4.325   6.155   7.308  1.00  0.00     0.163 HD
BRANCH   5   8
ATOM      8  C   UNL     1      -2.777   4.459   4.861  1.00  0.00     0.039 A 
ATOM      9  C   UNL     1      -0.993   3.181   3.032  1.00  0.00     0.052 A 
ATOM     10  C   UNL     1      -2.346   3.394   2.716  1.00  0.00     0.027 A 
ATOM     11  C   UNL     1      -0.549   3.650   4.276  1.00  0.00     0.027 A 
ATOM     12  C   UNL     1      -3.222   4.022   3.611  1.00  0.00     0.016 A 
ATOM     13  C   UNL     1      -1.440   4.239   5.194  1.00  0.00     0.016 A 
BRANCH   9  14
ATOM     14  N   UNL     1      -0.178   2.300   2.251  1.00  0.00    -0.250 N 
ATOM     15  C   UNL     1       0.858   0.015   0.088  1.00  0.00     0.024 C 
ATOM     16  C   UNL     1       0.068   0.150   1.408  1.00  0.00     0.071 C 
ATOM     17  C   UNL     1      -0.726   1.425   1.339  1.00  0.00     0.241 C 
ATOM     18  C   UNL     1       1.038   0.356   2.617  1.00  0.00     0.107 C 
ATOM     19  C   UNL     1      -0.904  -1.035   1.710  1.00  0.00     0.066 C 
ATOM     20  O   UNL     1      -1.653   1.579   0.565  1.00  0.00    -0.273 OA
ATOM     21  C   UNL     1       1.110   1.877   2.605  1.00  0.00     0.238 C 
ATOM     22  C   UNL     1       1.082  -0.986   3.461  1.00  0.00     0.063 C 
ATOM     23  C   UNL     1      -1.386  -0.904   3.167  1.00  0.00    -0.036 A 
ATOM     24  C   UNL     1      -0.029  -2.279   1.665  1.00  0.00    -0.036 A 
ATOM     25  O   UNL     1       2.073   2.546   2.945  1.00  0.00    -0.274 OA
ATOM     26  C   UNL     1      -0.336  -0.991   4.133  1.00  0.00    -0.036 A 
ATOM     27  C   UNL     1       1.071  -2.231   2.562  1.00  0.00    -0.036 A 
ATOM     28  C   UNL     1      -2.666  -0.546   3.563  1.00  0.00     0.005 A 
ATOM     29  C   UNL     1      -0.290  -3.399   0.886  1.00  0.00     0.005 A 
ATOM     30  C   UNL     1      -0.570  -0.731   5.479  1.00  0.00     0.004 A 
ATOM     31  C   UNL     1       1.902  -3.336   2.681  1.00  0.00     0.004 A 
ATOM     32  C   UNL     1      -2.896  -0.276   4.916  1.00  0.00     0.000 A 
ATOM     33  C   UNL     1       0.554  -4.498   1.007  1.00  0.00     0.000 A 
ATOM     34  C   UNL     1      -1.862  -0.372   5.863  1.00  0.00     0.000 A 
ATOM     35  C   UNL     1       1.639  -4.467   1.897  1.00  0.00     0.000 A 
ENDBRANCH   9  14
ENDBRANCH   5   8
ENDBRANCH   3   4
ENDBRANCH   2   3
ENDBRANCH   1   2
BRANCH   1  36
ATOM     36  N   UNL     1      -3.297   9.344   8.402  1.00  0.00    -0.352 N 
ATOM     37  C   UNL     1      -2.702  10.407   9.041  1.00  0.00     0.251 C 
ATOM     38  H   UNL     1      -3.658   8.658   9.010  1.00  0.00     0.163 HD
ATOM     39  O   UNL     1      -2.461  10.319  10.243  1.00  0.00    -0.269 OA
BRANCH  37  40
ATOM     40  C   UNL     1      -2.321  11.629   8.298  1.00  0.00     0.039 A 
ATOM     41  C   UNL     1      -3.151  12.153   7.309  1.00  0.00     0.014 A 
ATOM     42  C   UNL     1      -1.123  12.281   8.610  1.00  0.00     0.014 A 
ATOM     43  C   UNL     1      -2.693  13.182   6.495  1.00  0.00     0.010 A 
ATOM     44  C   UNL     1      -0.714  13.390   7.860  1.00  0.00     0.010 A 
ATOM     45  C   UNL     1      -1.466  13.812   6.753  1.00  0.00    -0.014 A 
BRANCH  45  46
ATOM     46  C   UNL     1      -1.001  14.898   5.849  1.00  0.00     0.031 A 
ATOM     47  C   UNL     1       0.276  14.757   5.060  1.00  0.00     0.074 A 
ATOM     48  C   UNL     1      -1.767  15.997   5.688  1.00  0.00     0.049 A 
ATOM     49  N   UNL     1       0.801  15.587   4.196  1.00  0.00    -0.248 NA
ATOM     50  C   UNL     1       1.070  13.533   5.266  1.00  0.00     0.031 C 
ATOM     51  C   UNL     1      -3.015  16.265   6.407  1.00  0.00     0.029 A 
ATOM     52  N   UNL     1      -1.626  17.079   4.856  1.00  0.00    -0.354 N 
ATOM     53  C   UNL     1       2.001  15.013   3.792  1.00  0.00     0.074 A 
ATOM     54  C   UNL     1       2.133  13.763   4.506  1.00  0.00     0.031 C 
ATOM     55  C   UNL     1      -3.552  17.404   5.947  1.00  0.00     0.029 A 
ATOM     56  C   UNL     1      -2.662  17.979   4.944  1.00  0.00     0.049 A 
ATOM     57  H   UNL     1      -0.856  17.200   4.255  1.00  0.00     0.167 HD
ATOM     58  C   UNL     1       2.901  15.473   2.892  1.00  0.00     0.034 A 
ATOM     59  C   UNL     1      -2.876  19.142   4.299  1.00  0.00     0.034 A 
ATOM     60  C   UNL     1       2.740  16.681   2.129  1.00  0.00     0.049 A 
ATOM     61  C   UNL     1      -1.874  19.617   3.289  1.00  0.00     0.074 A 
ATOM     62  C   UNL     1       3.577  17.194   1.154  1.00  0.00     0.029 A 
ATOM     63  N   UNL     1       1.674  17.557   2.246  1.00  0.00    -0.354 N 
ATOM     64  N   UNL     1      -0.784  19.020   2.872  1.00  0.00    -0.248 NA
ATOM     65  C   UNL     1      -2.131  20.918   2.654  1.00  0.00     0.031 C 
ATOM     66  C   UNL     1       3.019  18.386   0.683  1.00  0.00     0.029 A 
ATOM     67  C   UNL     1       1.833  18.610   1.363  1.00  0.00     0.049 A 
ATOM     68  H   UNL     1       0.917  17.448   2.866  1.00  0.00     0.167 HD
ATOM     69  C   UNL     1      -0.228  19.866   1.922  1.00  0.00     0.074 A 
ATOM     70  C   UNL     1      -1.113  21.008   1.806  1.00  0.00     0.031 C 
ATOM     71  C   UNL     1       0.923  19.717   1.225  1.00  0.00     0.034 A 
BRANCH  58  72
ATOM     72  C   UNL     1       4.128  14.646   2.628  1.00  0.00     0.023 A 
ATOM     73  C   UNL     1       4.037  13.533   1.770  1.00  0.00     0.012 A 
ATOM     74  C   UNL     1       5.384  15.033   3.135  1.00  0.00     0.148 A 
ATOM     75  C   UNL     1       5.178  12.810   1.425  1.00  0.00     0.002 A 
ATOM     76  C   UNL     1       6.521  14.325   2.764  1.00  0.00     0.091 A 
ATOM     77  F   UNL     1       5.441  16.089   3.959  1.00  0.00    -0.205 F 
ATOM     78  C   UNL     1       6.420  13.212   1.913  1.00  0.00     0.022 A 
BRANCH  76  79
ATOM     79  S   UNL     1       8.175  14.791   3.290  1.00  0.00     0.127 S 
ATOM     80  O   UNL     1       8.551  13.650   4.124  1.00  0.00    -0.237 OA
ATOM     81  O   UNL     1       8.888  14.878   2.016  1.00  0.00    -0.237 OA
ATOM     82  O   UNL     1       8.032  16.055   4.000  1.00  0.00    -0.744 OA
ENDBRANCH  76  79
ENDBRANCH  58  72
BRANCH  59  83
ATOM     83  C   UNL     1      -4.123  19.904   4.572  1.00  0.00     0.023 A 
ATOM     84  C   UNL     1      -5.159  19.896   3.620  1.00  0.00     0.012 A 
ATOM     85  C   UNL     1      -4.321  20.556   5.805  1.00  0.00     0.148 A 
ATOM     86  C   UNL     1      -6.374  20.527   3.890  1.00  0.00     0.002 A 
ATOM     87  C   UNL     1      -5.548  21.143   6.086  1.00  0.00     0.091 A 
ATOM     88  F   UNL     1      -3.314  20.554   6.690  1.00  0.00    -0.205 F 
ATOM     89  C   UNL     1      -6.573  21.138   5.126  1.00  0.00     0.022 A 
BRANCH  87  90
ATOM     90  S   UNL     1      -5.939  21.846   7.692  1.00  0.00     0.127 S 
ATOM     91  O   UNL     1      -6.114  23.259   7.364  1.00  0.00    -0.237 OA
ATOM     92  O   UNL     1      -7.170  21.135   8.037  1.00  0.00    -0.237 OA
ATOM     93  O   UNL     1      -4.802  21.537   8.547  1.00  0.00    -0.744 OA
ENDBRANCH  87  90
ENDBRANCH  59  83
BRANCH  71  94
ATOM     94  C   UNL     1       1.314  20.806   0.267  1.00  0.00     0.023 A 
ATOM     95  C   UNL     1       1.921  21.973   0.766  1.00  0.00     0.012 A 
ATOM     96  C   UNL     1       1.199  20.618  -1.124  1.00  0.00     0.148 A 
ATOM     97  C   UNL     1       2.405  22.945  -0.108  1.00  0.00     0.002 A 
ATOM     98  C   UNL     1       1.713  21.575  -1.989  1.00  0.00     0.091 A 
ATOM     99  F   UNL     1       0.609  19.499  -1.569  1.00  0.00    -0.205 F 
ATOM    100  C   UNL     1       2.312  22.741  -1.483  1.00  0.00     0.022 A 
BRANCH  98 101
ATOM    101  S   UNL     1       1.709  21.370  -3.774  1.00  0.00     0.127 S 
ATOM    102  O   UNL     1       0.789  22.427  -4.192  1.00  0.00    -0.237 OA
ATOM    103  O   UNL     1       3.111  21.610  -4.115  1.00  0.00    -0.237 OA
ATOM    104  O   UNL     1       1.245  20.012  -4.024  1.00  0.00    -0.744 OA
ENDBRANCH  98 101
ENDBRANCH  71  94
ENDBRANCH  45  46
ENDBRANCH  37  40
ENDBRANCH   1  36
TORSDOF 14
