REMARK SMILES O=C(NCCCNC(=O)c1ccc(N2C(=O)[C@@H]3N=NC(c4ccccc4)=C3[C@H]2c2cccc(Br)c2)cc1)c1ccc(-c2c3nc(c(-c4cccc(S(=O)(=O)[O-])c4F)c4ccc([nH]4)c(-c4cccc(S(=O)(=O)[O-])c4F)c4nc(c(-c5cccc(S(=O)(=O)[O-])c5F)c5ccc2[nH]5)C=C4)C=C3)cc1
REMARK SMILES IDX 4 1 3 2 1 3 2 4 38 6 39 7 100 8 40 9 99 10 41 11 42 12 43 13
REMARK SMILES IDX 93 14 44 15 98 16 92 17 94 18 45 19 97 20 91 21 90 22 46 24
REMARK SMILES IDX 78 25 58 26 77 27 59 28 62 29 76 30 95 31 60 32 61 33 75 35
REMARK SMILES IDX 96 36 63 37 47 38 48 39 56 40 49 41 51 42 57 43 50 44 52 45
REMARK SMILES IDX 53 46 54 47 55 48 79 49 80 50 88 51 81 52 83 53 89 54 82 55
REMARK SMILES IDX 84 56 85 57 86 58 87 59 64 60 65 61 73 62 66 63 68 64 74 65
REMARK SMILES IDX 67 66 69 67 70 68 71 69 72 70 5 71 6 72 7 73 8 74 9 76 10 77
REMARK SMILES IDX 11 78 37 79 12 80 36 81 13 82 14 83 15 84 28 85 17 86 16 87
REMARK SMILES IDX 27 88 18 89 20 90 19 91 29 92 30 93 35 94 31 95 33 96 32 97
REMARK SMILES IDX 34 98 21 99 22 100 26 101 23 102 25 103 24 104
REMARK H PARENT 3 5 94 23 62 34 7 75
REMARK Flexibility Score: inf
ROOT
ATOM      1  C   UNL     1       4.615  -1.189  -0.052  1.00  0.00     0.118 C 
ENDROOT
BRANCH   1   2
ATOM      2  N   UNL     1       3.216  -1.024  -0.396  1.00  0.00    -0.352 N 
ATOM      3  O   UNL     1       1.179  -0.214  -0.651  1.00  0.00    -0.269 OA
ATOM      4  C   UNL     1       2.212  -0.192   0.022  1.00  0.00     0.251 C 
ATOM      5  H   UNL     1       2.920  -1.657  -1.090  1.00  0.00     0.163 HD
BRANCH   4   6
ATOM      6  C   UNL     1       2.261   0.656   1.243  1.00  0.00     0.039 A 
ATOM      7  C   UNL     1       3.424   1.050   1.906  1.00  0.00     0.014 A 
ATOM      8  C   UNL     1       1.018   1.081   1.749  1.00  0.00     0.014 A 
ATOM      9  C   UNL     1       3.348   1.776   3.092  1.00  0.00     0.010 A 
ATOM     10  C   UNL     1       0.936   1.827   2.920  1.00  0.00     0.010 A 
ATOM     11  C   UNL     1       2.104   2.155   3.604  1.00  0.00    -0.014 A 
BRANCH  11  12
ATOM     12  C   UNL     1       2.079   3.087   4.731  1.00  0.00     0.031 A 
ATOM     13  C   UNL     1       2.584   4.451   4.405  1.00  0.00     0.074 A 
ATOM     14  C   UNL     1       1.486   2.822   5.913  1.00  0.00     0.049 A 
ATOM     15  N   UNL     1       3.573   5.091   4.941  1.00  0.00    -0.248 NA
ATOM     16  C   UNL     1       1.984   5.137   3.249  1.00  0.00     0.031 C 
ATOM     17  C   UNL     1       0.686   1.640   6.239  1.00  0.00     0.029 A 
ATOM     18  N   UNL     1       1.336   3.621   7.016  1.00  0.00    -0.354 N 
ATOM     19  C   UNL     1       3.555   6.357   4.351  1.00  0.00     0.074 A 
ATOM     20  C   UNL     1       2.710   6.252   3.194  1.00  0.00     0.031 C 
ATOM     21  C   UNL     1      -0.060   1.903   7.334  1.00  0.00     0.029 A 
ATOM     22  C   UNL     1       0.288   3.219   7.841  1.00  0.00     0.049 A 
ATOM     23  H   UNL     1       1.909   4.398   7.205  1.00  0.00     0.167 HD
ATOM     24  C   UNL     1       3.997   7.456   5.022  1.00  0.00     0.034 A 
ATOM     25  C   UNL     1      -0.318   3.947   8.812  1.00  0.00     0.034 A 
ATOM     26  C   UNL     1       4.846   7.092   6.130  1.00  0.00     0.049 A 
ATOM     27  C   UNL     1       0.590   5.050   9.191  1.00  0.00     0.074 A 
ATOM     28  C   UNL     1       6.017   6.384   6.299  1.00  0.00     0.029 A 
ATOM     29  N   UNL     1       4.304   7.239   7.380  1.00  0.00    -0.354 N 
ATOM     30  N   UNL     1       1.705   4.887   9.844  1.00  0.00    -0.248 NA
ATOM     31  C   UNL     1       0.412   6.351   8.568  1.00  0.00     0.031 C 
ATOM     32  C   UNL     1       5.917   5.792   7.593  1.00  0.00     0.029 A 
ATOM     33  C   UNL     1       4.706   6.195   8.159  1.00  0.00     0.049 A 
ATOM     34  H   UNL     1       3.720   7.978   7.668  1.00  0.00     0.167 HD
ATOM     35  C   UNL     1       2.544   5.866   9.334  1.00  0.00     0.074 A 
ATOM     36  C   UNL     1       1.653   6.826   8.693  1.00  0.00     0.031 C 
ATOM     37  C   UNL     1       3.885   5.636   9.210  1.00  0.00     0.034 A 
BRANCH  24  38
ATOM     38  C   UNL     1       3.308   8.819   4.993  1.00  0.00     0.023 A 
ATOM     39  C   UNL     1       3.900   9.846   5.769  1.00  0.00     0.012 A 
ATOM     40  C   UNL     1       1.982   9.049   4.553  1.00  0.00     0.148 A 
ATOM     41  C   UNL     1       3.174  10.963   6.197  1.00  0.00     0.002 A 
ATOM     42  C   UNL     1       1.288  10.198   4.921  1.00  0.00     0.091 A 
ATOM     43  F   UNL     1       1.322   8.114   3.870  1.00  0.00    -0.205 F 
ATOM     44  C   UNL     1       1.862  11.135   5.779  1.00  0.00     0.022 A 
BRANCH  42  45
ATOM     45  S   UNL     1      -0.399  10.490   4.365  1.00  0.00     0.127 S 
ATOM     46  O   UNL     1      -1.151  10.248   5.601  1.00  0.00    -0.237 OA
ATOM     47  O   UNL     1      -0.332  11.897   3.953  1.00  0.00    -0.237 OA
ATOM     48  O   UNL     1      -0.628   9.560   3.282  1.00  0.00    -0.744 OA
ENDBRANCH  42  45
ENDBRANCH  24  38
BRANCH  25  49
ATOM     49  C   UNL     1      -1.707   3.886   9.327  1.00  0.00     0.023 A 
ATOM     50  C   UNL     1      -2.010   4.453  10.582  1.00  0.00     0.012 A 
ATOM     51  C   UNL     1      -2.784   3.511   8.494  1.00  0.00     0.148 A 
ATOM     52  C   UNL     1      -3.335   4.671  10.979  1.00  0.00     0.002 A 
ATOM     53  C   UNL     1      -4.100   3.711   8.900  1.00  0.00     0.091 A 
ATOM     54  F   UNL     1      -2.523   3.049   7.264  1.00  0.00    -0.205 F 
ATOM     55  C   UNL     1      -4.380   4.305  10.136  1.00  0.00     0.022 A 
BRANCH  53  56
ATOM     56  S   UNL     1      -5.495   3.254   7.861  1.00  0.00     0.127 S 
ATOM     57  O   UNL     1      -6.389   2.601   8.819  1.00  0.00    -0.237 OA
ATOM     58  O   UNL     1      -5.956   4.553   7.382  1.00  0.00    -0.237 OA
ATOM     59  O   UNL     1      -4.954   2.356   6.848  1.00  0.00    -0.744 OA
ENDBRANCH  53  56
ENDBRANCH  25  49
BRANCH  37  60
ATOM     60  C   UNL     1       4.495   4.528  10.023  1.00  0.00     0.023 A 
ATOM     61  C   UNL     1       4.099   3.182   9.896  1.00  0.00     0.012 A 
ATOM     62  C   UNL     1       5.594   4.840  10.843  1.00  0.00     0.148 A 
ATOM     63  C   UNL     1       4.760   2.174  10.601  1.00  0.00     0.002 A 
ATOM     64  C   UNL     1       6.282   3.829  11.501  1.00  0.00     0.091 A 
ATOM     65  F   UNL     1       5.961   6.126  10.956  1.00  0.00    -0.205 F 
ATOM     66  C   UNL     1       5.860   2.496  11.394  1.00  0.00     0.022 A 
BRANCH  64  67
ATOM     67  S   UNL     1       7.780   4.176  12.425  1.00  0.00     0.127 S 
ATOM     68  O   UNL     1       7.290   4.217  13.801  1.00  0.00    -0.237 OA
ATOM     69  O   UNL     1       8.623   3.021  12.111  1.00  0.00    -0.237 OA
ATOM     70  O   UNL     1       8.286   5.437  11.896  1.00  0.00    -0.744 OA
ENDBRANCH  64  67
ENDBRANCH  37  60
ENDBRANCH  11  12
ENDBRANCH   4   6
ENDBRANCH   1   2
BRANCH   1  71
ATOM     71  C   UNL     1       4.906  -1.954   1.240  1.00  0.00     0.042 C 
BRANCH  71  72
ATOM     72  C   UNL     1       4.358  -3.381   1.308  1.00  0.00     0.118 C 
BRANCH  72  73
ATOM     73  N   UNL     1       4.916  -4.254   0.289  1.00  0.00    -0.352 N 
ATOM     74  C   UNL     1       5.596  -5.439   0.397  1.00  0.00     0.251 C 
ATOM     75  H   UNL     1       4.783  -3.942  -0.635  1.00  0.00     0.163 HD
ATOM     76  O   UNL     1       6.084  -5.941  -0.616  1.00  0.00    -0.269 OA
BRANCH  74  77
ATOM     77  C   UNL     1       5.793  -6.125   1.698  1.00  0.00     0.039 A 
ATOM     78  C   UNL     1       7.084  -6.565   1.992  1.00  0.00     0.016 A 
ATOM     79  C   UNL     1       4.747  -6.428   2.581  1.00  0.00     0.016 A 
ATOM     80  C   UNL     1       7.335  -7.244   3.186  1.00  0.00     0.027 A 
ATOM     81  C   UNL     1       5.000  -7.128   3.782  1.00  0.00     0.027 A 
ATOM     82  C   UNL     1       6.302  -7.521   4.102  1.00  0.00     0.045 A 
BRANCH  82  83
ATOM     83  N   UNL     1       6.626  -8.118   5.366  1.00  0.00    -0.299 N 
ATOM     84  C   UNL     1       7.807  -7.596   5.997  1.00  0.00     0.259 C 
ATOM     85  C   UNL     1       6.557  -9.591   5.530  1.00  0.00     0.152 C 
ATOM     86  C   UNL     1       8.587  -8.750   6.553  1.00  0.00     0.248 C 
ATOM     87  O   UNL     1       8.165  -6.426   6.017  1.00  0.00    -0.271 OA
ATOM     88  C   UNL     1       8.008  -9.811   5.704  1.00  0.00     0.021 C 
ATOM     89  N   UNL     1      10.010  -8.820   6.185  1.00  0.00    -0.170 NA
ATOM     90  C   UNL     1       9.027 -10.491   5.189  1.00  0.00     0.097 C 
ATOM     91  N   UNL     1      10.221  -9.889   5.532  1.00  0.00    -0.154 NA
BRANCH  85  92
ATOM     92  C   UNL     1       5.800 -10.100   6.776  1.00  0.00    -0.020 A 
ATOM     93  C   UNL     1       6.416 -10.997   7.689  1.00  0.00     0.006 A 
ATOM     94  C   UNL     1       4.458  -9.772   7.021  1.00  0.00     0.022 A 
ATOM     95  C   UNL     1       5.754 -11.508   8.806  1.00  0.00     0.002 A 
ATOM     96  C   UNL     1       3.787 -10.313   8.132  1.00  0.00     0.018 A 
ATOM     97  C   UNL     1       4.429 -11.169   9.027  1.00  0.00     0.016 A 
ATOM     98  Br  UNL     1       1.961  -9.910   8.423  1.00  0.00    -0.051 Br
ENDBRANCH  85  92
BRANCH  90  99
ATOM     99  C   UNL     1       9.018 -11.612   4.256  1.00  0.00     0.002 A 
ATOM    100  C   UNL     1       8.833 -12.920   4.728  1.00  0.00     0.010 A 
ATOM    101  C   UNL     1       9.376 -11.413   2.918  1.00  0.00     0.010 A 
ATOM    102  C   UNL     1       9.078 -14.012   3.890  1.00  0.00     0.001 A 
ATOM    103  C   UNL     1       9.613 -12.505   2.081  1.00  0.00     0.001 A 
ATOM    104  C   UNL     1       9.486 -13.803   2.574  1.00  0.00     0.000 A 
ENDBRANCH  90  99
ENDBRANCH  82  83
ENDBRANCH  74  77
ENDBRANCH  72  73
ENDBRANCH  71  72
ENDBRANCH   1  71
TORSDOF 16
