REMARK SMILES CCCCCNc1cncc(C(=O)NCCCNC(=O)c2ccc(-c3c4nc(c(-c5cccc(S(=O)(=O)[O-])c5F)c5ccc([nH]5)c(-c5cccc(S(=O)(=O)[O-])c5F)c5nc(c(-c6cccc(S(=O)(=O)[O-])c6F)c6ccc3[nH]6)C=C5)C=C4)cc2)n1
REMARK SMILES IDX 15 1 14 2 12 3 13 4 11 6 7 7 8 8 84 9 9 10 10 11 6 12 5 14
REMARK SMILES IDX 4 15 3 16 2 17 1 18 16 19 17 20 18 21 19 22 20 24 21 25
REMARK SMILES IDX 22 26 83 27 23 28 82 29 24 30 25 31 26 32 76 33 27 34 81 35
REMARK SMILES IDX 75 36 77 37 28 38 80 39 74 40 73 41 29 43 61 44 41 45 60 46
REMARK SMILES IDX 42 47 45 48 59 49 78 50 43 51 44 52 58 54 79 55 46 56 30 57
REMARK SMILES IDX 31 58 39 59 32 60 34 61 40 62 33 63 35 64 36 65 37 66 38 67
REMARK SMILES IDX 62 68 63 69 71 70 64 71 66 72 72 73 65 74 67 75 68 76 69 77
REMARK SMILES IDX 70 78 47 79 48 80 56 81 49 82 51 83 57 84 50 85 52 86 53 87
REMARK SMILES IDX 54 88 55 89
REMARK H PARENT 14 5 6 13 18 23 77 42 45 53
REMARK Flexibility Score: inf
ROOT
ATOM      1  C   UNL     1      -0.852  -6.206   4.811  1.00  0.00     0.118 C 
ENDROOT
BRANCH   1   2
ATOM      2  N   UNL     1      -1.776  -6.225   5.936  1.00  0.00    -0.351 N 
ATOM      3  C   UNL     1      -2.739  -5.329   6.347  1.00  0.00     0.271 C 
ATOM      4  O   UNL     1      -3.403  -5.623   7.343  1.00  0.00    -0.267 OA
ATOM      5  H   UNL     1      -1.698  -7.023   6.508  1.00  0.00     0.163 HD
BRANCH   3   6
ATOM      6  C   UNL     1      -3.014  -4.041   5.648  1.00  0.00     0.148 A 
ATOM      7  C   UNL     1      -2.552  -2.527   3.975  1.00  0.00     0.145 A 
ATOM      8  C   UNL     1      -3.551  -1.698   4.481  1.00  0.00     0.157 A 
ATOM      9  N   UNL     1      -2.293  -3.713   4.551  1.00  0.00    -0.223 NA
ATOM     10  N   UNL     1      -4.305  -2.010   5.566  1.00  0.00    -0.258 NA
ATOM     11  C   UNL     1      -4.003  -3.201   6.142  1.00  0.00     0.145 A 
BRANCH   7  12
ATOM     12  N   UNL     1      -1.766  -2.240   2.883  1.00  0.00    -0.369 N 
ATOM     13  H   UNL     1      -1.630  -2.924   2.189  1.00  0.00     0.162 HD
BRANCH  12  14
ATOM     14  C   UNL     1      -1.135  -0.939   2.742  1.00  0.00     0.114 C 
BRANCH  14  15
ATOM     15  C   UNL     1       0.390  -1.086   2.700  1.00  0.00     0.021 C 
BRANCH  15  16
ATOM     16  C   UNL     1       0.950  -1.854   1.494  1.00  0.00     0.002 C 
BRANCH  16  17
ATOM     17  C   UNL     1       0.550  -1.312   0.121  1.00  0.00    -0.003 C 
ATOM     18  C   UNL     1       0.994   0.123  -0.114  1.00  0.00     0.004 C 
ENDBRANCH  16  17
ENDBRANCH  15  16
ENDBRANCH  14  15
ENDBRANCH  12  14
ENDBRANCH   7  12
ENDBRANCH   3   6
ENDBRANCH   1   2
BRANCH   1  19
ATOM     19  C   UNL     1       0.578  -5.886   5.238  1.00  0.00     0.042 C 
BRANCH  19  20
ATOM     20  C   UNL     1       1.245  -7.008   6.033  1.00  0.00     0.118 C 
BRANCH  20  21
ATOM     21  N   UNL     1       1.350  -8.247   5.268  1.00  0.00    -0.352 N 
ATOM     22  C   UNL     1       2.449  -8.973   4.891  1.00  0.00     0.251 C 
ATOM     23  H   UNL     1       0.489  -8.623   4.975  1.00  0.00     0.163 HD
ATOM     24  O   UNL     1       2.315  -9.878   4.064  1.00  0.00    -0.269 OA
BRANCH  22  25
ATOM     25  C   UNL     1       3.784  -8.687   5.456  1.00  0.00     0.039 A 
ATOM     26  C   UNL     1       4.902  -8.760   4.620  1.00  0.00     0.014 A 
ATOM     27  C   UNL     1       3.945  -8.391   6.812  1.00  0.00     0.014 A 
ATOM     28  C   UNL     1       6.172  -8.481   5.131  1.00  0.00     0.010 A 
ATOM     29  C   UNL     1       5.199  -8.036   7.301  1.00  0.00     0.010 A 
ATOM     30  C   UNL     1       6.328  -8.085   6.469  1.00  0.00    -0.014 A 
BRANCH  30  31
ATOM     31  C   UNL     1       7.658  -7.711   7.015  1.00  0.00     0.031 A 
ATOM     32  C   UNL     1       8.265  -8.494   8.148  1.00  0.00     0.074 A 
ATOM     33  C   UNL     1       8.277  -6.607   6.551  1.00  0.00     0.049 A 
ATOM     34  N   UNL     1       9.377  -8.274   8.799  1.00  0.00    -0.248 NA
ATOM     35  C   UNL     1       7.509  -9.662   8.631  1.00  0.00     0.031 C 
ATOM     36  C   UNL     1       7.752  -5.716   5.515  1.00  0.00     0.029 A 
ATOM     37  N   UNL     1       9.468  -6.029   6.914  1.00  0.00    -0.354 N 
ATOM     38  C   UNL     1       9.439  -9.250   9.788  1.00  0.00     0.074 A 
ATOM     39  C   UNL     1       8.232 -10.040   9.675  1.00  0.00     0.031 C 
ATOM     40  C   UNL     1       8.613  -4.703   5.328  1.00  0.00     0.029 A 
ATOM     41  C   UNL     1       9.734  -4.854   6.250  1.00  0.00     0.049 A 
ATOM     42  H   UNL     1      10.074  -6.417   7.586  1.00  0.00     0.167 HD
ATOM     43  C   UNL     1      10.424  -9.488  10.687  1.00  0.00     0.034 A 
ATOM     44  C   UNL     1      10.759  -3.988   6.375  1.00  0.00     0.034 A 
ATOM     45  C   UNL     1      11.639  -8.723  10.771  1.00  0.00     0.049 A 
ATOM     46  C   UNL     1      11.862  -4.299   7.350  1.00  0.00     0.074 A 
ATOM     47  C   UNL     1      12.732  -8.933  11.592  1.00  0.00     0.029 A 
ATOM     48  N   UNL     1      11.919  -7.598  10.012  1.00  0.00    -0.354 N 
ATOM     49  N   UNL     1      11.975  -5.315   8.170  1.00  0.00    -0.248 NA
ATOM     50  C   UNL     1      12.997  -3.366   7.389  1.00  0.00     0.031 C 
ATOM     51  C   UNL     1      13.666  -7.920  11.344  1.00  0.00     0.029 A 
ATOM     52  C   UNL     1      13.166  -7.098  10.347  1.00  0.00     0.049 A 
ATOM     53  H   UNL     1      11.320  -7.211   9.333  1.00  0.00     0.167 HD
ATOM     54  C   UNL     1      13.207  -5.164   8.797  1.00  0.00     0.074 A 
ATOM     55  C   UNL     1      13.812  -3.969   8.245  1.00  0.00     0.031 C 
ATOM     56  C   UNL     1      13.778  -5.936   9.754  1.00  0.00     0.034 A 
BRANCH  43  57
ATOM     57  C   UNL     1      10.250 -10.663  11.616  1.00  0.00     0.023 A 
ATOM     58  C   UNL     1      10.326 -11.973  11.100  1.00  0.00     0.012 A 
ATOM     59  C   UNL     1      10.062 -10.478  13.000  1.00  0.00     0.148 A 
ATOM     60  C   UNL     1      10.175 -13.079  11.936  1.00  0.00     0.002 A 
ATOM     61  C   UNL     1       9.960 -11.585  13.835  1.00  0.00     0.091 A 
ATOM     62  F   UNL     1       9.973  -9.226  13.472  1.00  0.00    -0.205 F 
ATOM     63  C   UNL     1      10.002 -12.885  13.303  1.00  0.00     0.022 A 
BRANCH  61  64
ATOM     64  S   UNL     1       9.817 -11.443  15.620  1.00  0.00     0.127 S 
ATOM     65  O   UNL     1       8.429 -11.850  15.838  1.00  0.00    -0.237 OA
ATOM     66  O   UNL     1      10.814 -12.409  16.086  1.00  0.00    -0.237 OA
ATOM     67  O   UNL     1      10.121 -10.057  15.938  1.00  0.00    -0.744 OA
ENDBRANCH  61  64
ENDBRANCH  43  57
BRANCH  44  68
ATOM     68  C   UNL     1      10.814  -2.777   5.509  1.00  0.00     0.023 A 
ATOM     69  C   UNL     1      11.777  -2.700   4.485  1.00  0.00     0.012 A 
ATOM     70  C   UNL     1       9.893  -1.723   5.667  1.00  0.00     0.148 A 
ATOM     71  C   UNL     1      11.843  -1.581   3.653  1.00  0.00     0.002 A 
ATOM     72  C   UNL     1       9.927  -0.638   4.798  1.00  0.00     0.091 A 
ATOM     73  F   UNL     1       8.989  -1.812   6.653  1.00  0.00    -0.205 F 
ATOM     74  C   UNL     1      10.912  -0.557   3.802  1.00  0.00     0.022 A 
BRANCH  72  75
ATOM     75  S   UNL     1       8.683   0.657   4.828  1.00  0.00     0.127 S 
ATOM     76  O   UNL     1       9.451   1.798   5.324  1.00  0.00    -0.237 OA
ATOM     77  O   UNL     1       8.301   0.741   3.416  1.00  0.00    -0.237 OA
ATOM     78  O   UNL     1       7.629   0.174   5.705  1.00  0.00    -0.744 OA
ENDBRANCH  72  75
ENDBRANCH  44  68
BRANCH  56  79
ATOM     79  C   UNL     1      15.146  -5.541  10.246  1.00  0.00     0.023 A 
ATOM     80  C   UNL     1      15.297  -4.408  11.070  1.00  0.00     0.012 A 
ATOM     81  C   UNL     1      16.272  -6.336   9.951  1.00  0.00     0.148 A 
ATOM     82  C   UNL     1      16.551  -4.053  11.565  1.00  0.00     0.002 A 
ATOM     83  C   UNL     1      17.510  -6.005  10.489  1.00  0.00     0.091 A 
ATOM     84  F   UNL     1      16.112  -7.399   9.150  1.00  0.00    -0.205 F 
ATOM     85  C   UNL     1      17.654  -4.857  11.285  1.00  0.00     0.022 A 
BRANCH  83  86
ATOM     86  S   UNL     1      18.965  -7.034  10.262  1.00  0.00     0.127 S 
ATOM     87  O   UNL     1      19.758  -6.227   9.336  1.00  0.00    -0.237 OA
ATOM     88  O   UNL     1      19.504  -7.112  11.620  1.00  0.00    -0.237 OA
ATOM     89  O   UNL     1      18.481  -8.301   9.730  1.00  0.00    -0.744 OA
ENDBRANCH  83  86
ENDBRANCH  56  79
ENDBRANCH  30  31
ENDBRANCH  22  25
ENDBRANCH  20  21
ENDBRANCH  19  20
ENDBRANCH   1  19
TORSDOF 18
