REMARK SMILES CC(C)c1cc2c(cc1Cl)C=C(C(=O)NCCCNC(=O)c1ccc(-c3c4nc(c(-c5cccc(S(=O)(=O)[O-])c5F)c5ccc([nH]5)c(-c5cccc(S(=O)(=O)[O-])c5F)c5nc(c(-c6cccc(S(=O)(=O)[O-])c6F)c6ccc3[nH]6)C=C5)C=C4)cc1)[C@@H](C(F)(F)F)O2
REMARK SMILES IDX 18 1 17 2 16 3 15 4 13 5 14 6 12 8 4 9 5 10 9 11 6 12 8 13
REMARK SMILES IDX 10 14 7 15 90 16 11 17 85 18 2 19 1 20 3 21 86 22 87 23
REMARK SMILES IDX 88 24 89 25 19 26 20 27 21 29 22 30 23 31 84 32 24 33 83 34
REMARK SMILES IDX 25 35 26 36 27 37 77 38 28 39 82 40 76 41 78 42 29 43 81 44
REMARK SMILES IDX 75 45 74 46 30 48 62 49 42 50 61 51 43 52 46 53 60 54 79 55
REMARK SMILES IDX 44 56 45 57 59 59 80 60 47 61 31 62 32 63 40 64 33 65 35 66
REMARK SMILES IDX 41 67 34 68 36 69 37 70 38 71 39 72 63 73 64 74 72 75 65 76
REMARK SMILES IDX 67 77 73 78 66 79 68 80 69 81 70 82 71 83 48 84 49 85 57 86
REMARK SMILES IDX 50 87 52 88 58 89 51 90 53 91 54 92 55 93 56 94
REMARK H PARENT 15 7 19 28 78 47 46 58
REMARK Flexibility Score: inf
ROOT
ATOM      1  C   UNL     1      -9.497  -4.746  -0.202  1.00  0.00     0.118 C 
ENDROOT
BRANCH   1   2
ATOM      2  C   UNL     1      -8.029  -4.488  -0.511  1.00  0.00     0.042 C 
BRANCH   2   3
ATOM      3  C   UNL     1      -7.836  -3.674  -1.782  1.00  0.00     0.118 C 
BRANCH   3   4
ATOM      4  N   UNL     1      -8.025  -2.249  -1.557  1.00  0.00    -0.352 N 
ATOM      5  C   UNL     1      -7.240  -1.155  -1.426  1.00  0.00     0.251 C 
ATOM      6  O   UNL     1      -7.843  -0.088  -1.268  1.00  0.00    -0.270 OA
ATOM      7  H   UNL     1      -8.980  -2.020  -1.479  1.00  0.00     0.163 HD
BRANCH   5   8
ATOM      8  C   UNL     1      -5.749  -1.159  -1.462  1.00  0.00     0.067 C 
ATOM      9  C   UNL     1      -0.860   0.124  -1.321  1.00  0.00    -0.023 A 
ATOM     10  C   UNL     1      -1.576  -1.082  -1.223  1.00  0.00     0.052 A 
ATOM     11  C   UNL     1      -1.604   1.320  -1.384  1.00  0.00     0.045 A 
ATOM     12  C   UNL     1      -2.968  -1.092  -1.240  1.00  0.00     0.128 A 
ATOM     13  C   UNL     1      -3.007   1.304  -1.374  1.00  0.00     0.032 A 
ATOM     14  Cl  UNL     1      -0.843   2.873  -1.458  1.00  0.00    -0.084 Cl
ATOM     15  C   UNL     1      -3.694   0.093  -1.310  1.00  0.00     0.019 A 
ATOM     16  O   UNL     1      -3.571  -2.314  -1.151  1.00  0.00    -0.475 OA
ATOM     17  C   UNL     1      -5.151   0.033  -1.273  1.00  0.00     0.025 C 
ATOM     18  C   UNL     1      -4.911  -2.382  -1.712  1.00  0.00     0.314 C 
BRANCH   9  19
ATOM     19  C   UNL     1       0.663   0.107  -1.303  1.00  0.00     0.014 C 
ATOM     20  C   UNL     1       1.167   0.133   0.142  1.00  0.00     0.012 C 
ATOM     21  C   UNL     1       1.281  -1.079  -2.058  1.00  0.00     0.012 C 
ENDBRANCH   9  19
BRANCH  18  22
ATOM     22  C   UNL     1      -4.825  -2.740  -3.210  1.00  0.00     0.429 C 
ATOM     23  F   UNL     1      -4.389  -4.014  -3.370  1.00  0.00    -0.167 F 
ATOM     24  F   UNL     1      -6.025  -2.662  -3.834  1.00  0.00    -0.167 F 
ATOM     25  F   UNL     1      -3.981  -1.936  -3.896  1.00  0.00    -0.167 F 
ENDBRANCH  18  22
ENDBRANCH   5   8
ENDBRANCH   3   4
ENDBRANCH   2   3
ENDBRANCH   1   2
BRANCH   1  26
ATOM     26  N   UNL     1     -10.133  -5.598  -1.204  1.00  0.00    -0.352 N 
ATOM     27  C   UNL     1     -10.718  -6.836  -1.079  1.00  0.00     0.251 C 
ATOM     28  H   UNL     1     -10.143  -5.227  -2.116  1.00  0.00     0.163 HD
ATOM     29  O   UNL     1     -11.004  -7.472  -2.090  1.00  0.00    -0.269 OA
BRANCH  27  30
ATOM     30  C   UNL     1     -10.979  -7.400   0.261  1.00  0.00     0.039 A 
ATOM     31  C   UNL     1     -11.437  -6.579   1.290  1.00  0.00     0.014 A 
ATOM     32  C   UNL     1     -10.760  -8.761   0.495  1.00  0.00     0.014 A 
ATOM     33  C   UNL     1     -11.479  -7.066   2.588  1.00  0.00     0.010 A 
ATOM     34  C   UNL     1     -10.916  -9.276   1.785  1.00  0.00     0.010 A 
ATOM     35  C   UNL     1     -11.225  -8.422   2.853  1.00  0.00    -0.014 A 
BRANCH  35  36
ATOM     36  C   UNL     1     -11.312  -8.901   4.257  1.00  0.00     0.031 A 
ATOM     37  C   UNL     1     -10.110  -9.471   4.961  1.00  0.00     0.074 A 
ATOM     38  C   UNL     1     -12.475  -8.746   4.921  1.00  0.00     0.049 A 
ATOM     39  N   UNL     1     -10.004  -9.863   6.205  1.00  0.00    -0.248 NA
ATOM     40  C   UNL     1      -8.871  -9.628   4.180  1.00  0.00     0.031 C 
ATOM     41  C   UNL     1     -13.715  -8.229   4.335  1.00  0.00     0.029 A 
ATOM     42  N   UNL     1     -12.800  -8.969   6.234  1.00  0.00    -0.354 N 
ATOM     43  C   UNL     1      -8.712 -10.356   6.342  1.00  0.00     0.074 A 
ATOM     44  C   UNL     1      -8.066 -10.213   5.056  1.00  0.00     0.031 C 
ATOM     45  C   UNL     1     -14.639  -8.102   5.296  1.00  0.00     0.029 A 
ATOM     46  C   UNL     1     -14.082  -8.588   6.554  1.00  0.00     0.049 A 
ATOM     47  H   UNL     1     -12.176  -9.364   6.886  1.00  0.00     0.167 HD
ATOM     48  C   UNL     1      -8.113 -10.861   7.445  1.00  0.00     0.034 A 
ATOM     49  C   UNL     1     -14.743  -8.623   7.727  1.00  0.00     0.034 A 
ATOM     50  C   UNL     1      -8.735 -10.938   8.738  1.00  0.00     0.049 A 
ATOM     51  C   UNL     1     -14.042  -9.150   8.942  1.00  0.00     0.074 A 
ATOM     52  C   UNL     1      -8.189 -11.393   9.925  1.00  0.00     0.029 A 
ATOM     53  N   UNL     1     -10.032 -10.539   9.018  1.00  0.00    -0.354 N 
ATOM     54  N   UNL     1     -12.800  -9.550   9.061  1.00  0.00    -0.248 NA
ATOM     55  C   UNL     1     -14.824  -9.229  10.183  1.00  0.00     0.031 C 
ATOM     56  C   UNL     1      -9.157 -11.270  10.925  1.00  0.00     0.029 A 
ATOM     57  C   UNL     1     -10.304 -10.735  10.360  1.00  0.00     0.049 A 
ATOM     58  H   UNL     1     -10.665 -10.172   8.361  1.00  0.00     0.167 HD
ATOM     59  C   UNL     1     -12.647  -9.923  10.389  1.00  0.00     0.074 A 
ATOM     60  C   UNL     1     -13.918  -9.680  11.042  1.00  0.00     0.031 C 
ATOM     61  C   UNL     1     -11.559 -10.443  11.003  1.00  0.00     0.034 A 
BRANCH  48  62
ATOM     62  C   UNL     1      -6.688 -11.327   7.330  1.00  0.00     0.023 A 
ATOM     63  C   UNL     1      -5.649 -10.377   7.372  1.00  0.00     0.012 A 
ATOM     64  C   UNL     1      -6.376 -12.700   7.292  1.00  0.00     0.148 A 
ATOM     65  C   UNL     1      -4.316 -10.787   7.369  1.00  0.00     0.002 A 
ATOM     66  C   UNL     1      -5.045 -13.101   7.318  1.00  0.00     0.091 A 
ATOM     67  F   UNL     1      -7.384 -13.582   7.241  1.00  0.00    -0.205 F 
ATOM     68  C   UNL     1      -4.015 -12.146   7.353  1.00  0.00     0.022 A 
BRANCH  66  69
ATOM     69  S   UNL     1      -4.548 -14.827   7.355  1.00  0.00     0.127 S 
ATOM     70  O   UNL     1      -3.875 -14.966   6.064  1.00  0.00    -0.237 OA
ATOM     71  O   UNL     1      -3.657 -14.864   8.515  1.00  0.00    -0.237 OA
ATOM     72  O   UNL     1      -5.775 -15.598   7.500  1.00  0.00    -0.744 OA
ENDBRANCH  66  69
ENDBRANCH  48  62
BRANCH  49  73
ATOM     73  C   UNL     1     -16.129  -8.086   7.794  1.00  0.00     0.023 A 
ATOM     74  C   UNL     1     -16.356  -6.841   8.409  1.00  0.00     0.012 A 
ATOM     75  C   UNL     1     -17.198  -8.752   7.165  1.00  0.00     0.148 A 
ATOM     76  C   UNL     1     -17.627  -6.266   8.396  1.00  0.00     0.002 A 
ATOM     77  C   UNL     1     -18.450  -8.152   7.113  1.00  0.00     0.091 A 
ATOM     78  F   UNL     1     -16.955  -9.940   6.593  1.00  0.00    -0.205 F 
ATOM     79  C   UNL     1     -18.669  -6.914   7.736  1.00  0.00     0.022 A 
BRANCH  77  80
ATOM     80  S   UNL     1     -19.816  -8.849   6.177  1.00  0.00     0.127 S 
ATOM     81  O   UNL     1     -20.755  -9.200   7.239  1.00  0.00    -0.237 OA
ATOM     82  O   UNL     1     -20.219  -7.713   5.346  1.00  0.00    -0.237 OA
ATOM     83  O   UNL     1     -19.256  -9.970   5.435  1.00  0.00    -0.744 OA
ENDBRANCH  77  80
ENDBRANCH  49  73
BRANCH  61  84
ATOM     84  C   UNL     1     -11.672 -10.791  12.459  1.00  0.00     0.023 A 
ATOM     85  C   UNL     1     -12.276 -12.008  12.827  1.00  0.00     0.012 A 
ATOM     86  C   UNL     1     -11.063  -9.986  13.440  1.00  0.00     0.148 A 
ATOM     87  C   UNL     1     -12.275 -12.420  14.158  1.00  0.00     0.002 A 
ATOM     88  C   UNL     1     -11.038 -10.418  14.759  1.00  0.00     0.091 A 
ATOM     89  F   UNL     1     -10.502  -8.829  13.058  1.00  0.00    -0.205 F 
ATOM     90  C   UNL     1     -11.646 -11.632  15.121  1.00  0.00     0.022 A 
BRANCH  88  91
ATOM     91  S   UNL     1     -10.189  -9.514  16.059  1.00  0.00     0.127 S 
ATOM     92  O   UNL     1     -11.303  -9.108  16.915  1.00  0.00    -0.237 OA
ATOM     93  O   UNL     1      -9.321 -10.542  16.632  1.00  0.00    -0.237 OA
ATOM     94  O   UNL     1      -9.487  -8.421  15.399  1.00  0.00    -0.744 OA
ENDBRANCH  88  91
ENDBRANCH  61  84
ENDBRANCH  35  36
ENDBRANCH  27  30
ENDBRANCH   1  26
TORSDOF 15
