REMARK SMILES O=C(NCCCNC(=O)[C@H]1Cc2c([nH]c3ccccc23)[C@H](c2c[nH]c3ccccc23)[NH2+]1)c1ccc(-c2c3nc(c(-c4cccc(S(=O)(=O)[O-])c4F)c4ccc([nH]4)c(-c4cccc(S(=O)(=O)[O-])c4F)c4nc(c(-c5cccc(S(=O)(=O)[O-])c5F)c5ccc2[nH]5)C=C4)C=C3)cc1
REMARK SMILES IDX 4 1 3 2 1 3 2 4 32 6 33 7 94 8 34 9 93 10 35 11 36 12 37 13
REMARK SMILES IDX 87 14 38 15 92 16 86 17 88 18 39 19 91 20 85 21 84 22 40 24
REMARK SMILES IDX 72 25 52 26 71 27 53 28 56 29 70 30 89 31 54 32 55 33 69 35
REMARK SMILES IDX 90 36 57 37 41 38 42 39 50 40 43 41 45 42 51 43 44 44 46 45
REMARK SMILES IDX 47 46 48 47 49 48 73 49 74 50 82 51 75 52 77 53 83 54 76 55
REMARK SMILES IDX 78 56 79 57 80 58 81 59 58 60 59 61 67 62 60 63 62 64 68 65
REMARK SMILES IDX 61 66 63 67 64 68 65 69 66 70 5 71 6 72 7 73 8 74 9 76 10 77
REMARK SMILES IDX 11 78 31 79 12 80 21 81 13 84 20 85 14 86 15 87 19 88 16 90
REMARK SMILES IDX 18 91 17 92 22 93 23 94 30 95 24 96 25 97 29 98 26 100
REMARK SMILES IDX 28 101 27 102
REMARK H PARENT 3 5 88 23 56 34 7 75 31 82 31 83 14 89 24 99
REMARK Flexibility Score: inf
ROOT
ATOM      1  C   UNL     1       4.519  -1.192   0.701  1.00  0.00     0.118 C 
ENDROOT
BRANCH   1   2
ATOM      2  N   UNL     1       3.098  -1.180   0.375  1.00  0.00    -0.352 N 
ATOM      3  O   UNL     1       1.120  -0.239  -0.107  1.00  0.00    -0.269 OA
ATOM      4  C   UNL     1       2.340  -0.205  -0.225  1.00  0.00     0.251 C 
ATOM      5  H   UNL     1       2.606  -1.996   0.623  1.00  0.00     0.163 HD
BRANCH   4   6
ATOM      6  C   UNL     1       2.992   0.867  -1.006  1.00  0.00     0.039 A 
ATOM      7  C   UNL     1       4.089   0.583  -1.824  1.00  0.00     0.014 A 
ATOM      8  C   UNL     1       2.458   2.157  -0.971  1.00  0.00     0.014 A 
ATOM      9  C   UNL     1       4.732   1.608  -2.506  1.00  0.00     0.010 A 
ATOM     10  C   UNL     1       3.050   3.169  -1.729  1.00  0.00     0.010 A 
ATOM     11  C   UNL     1       4.204   2.905  -2.485  1.00  0.00    -0.014 A 
BRANCH  11  12
ATOM     12  C   UNL     1       4.815   3.965  -3.321  1.00  0.00     0.031 A 
ATOM     13  C   UNL     1       5.415   5.186  -2.691  1.00  0.00     0.074 A 
ATOM     14  C   UNL     1       4.771   3.835  -4.661  1.00  0.00     0.049 A 
ATOM     15  N   UNL     1       5.906   6.251  -3.268  1.00  0.00    -0.248 NA
ATOM     16  C   UNL     1       5.456   5.225  -1.221  1.00  0.00     0.031 C 
ATOM     17  C   UNL     1       4.180   2.702  -5.377  1.00  0.00     0.029 A 
ATOM     18  N   UNL     1       5.201   4.671  -5.659  1.00  0.00    -0.354 N 
ATOM     19  C   UNL     1       6.267   7.109  -2.237  1.00  0.00     0.074 A 
ATOM     20  C   UNL     1       5.937   6.440  -0.997  1.00  0.00     0.031 C 
ATOM     21  C   UNL     1       4.274   2.917  -6.696  1.00  0.00     0.029 A 
ATOM     22  C   UNL     1       4.876   4.226  -6.918  1.00  0.00     0.049 A 
ATOM     23  H   UNL     1       5.693   5.507  -5.490  1.00  0.00     0.167 HD
ATOM     24  C   UNL     1       6.830   8.338  -2.321  1.00  0.00     0.034 A 
ATOM     25  C   UNL     1       5.007   4.821  -8.119  1.00  0.00     0.034 A 
ATOM     26  C   UNL     1       7.176   8.976  -3.563  1.00  0.00     0.049 A 
ATOM     27  C   UNL     1       5.645   6.176  -8.188  1.00  0.00     0.074 A 
ATOM     28  C   UNL     1       7.814  10.188  -3.759  1.00  0.00     0.029 A 
ATOM     29  N   UNL     1       6.900   8.461  -4.821  1.00  0.00    -0.354 N 
ATOM     30  N   UNL     1       6.091   6.924  -7.208  1.00  0.00    -0.248 NA
ATOM     31  C   UNL     1       5.827   6.761  -9.523  1.00  0.00     0.031 C 
ATOM     32  C   UNL     1       7.898  10.418  -5.136  1.00  0.00     0.029 A 
ATOM     33  C   UNL     1       7.343   9.335  -5.799  1.00  0.00     0.049 A 
ATOM     34  H   UNL     1       6.455   7.600  -4.994  1.00  0.00     0.167 HD
ATOM     35  C   UNL     1       6.639   8.051  -7.806  1.00  0.00     0.074 A 
ATOM     36  C   UNL     1       6.474   7.884  -9.236  1.00  0.00     0.031 C 
ATOM     37  C   UNL     1       7.218   9.127  -7.221  1.00  0.00     0.034 A 
BRANCH  24  38
ATOM     38  C   UNL     1       7.117   9.065  -1.032  1.00  0.00     0.023 A 
ATOM     39  C   UNL     1       8.156   8.618  -0.191  1.00  0.00     0.012 A 
ATOM     40  C   UNL     1       6.381  10.210  -0.669  1.00  0.00     0.148 A 
ATOM     41  C   UNL     1       8.429   9.271   1.011  1.00  0.00     0.002 A 
ATOM     42  C   UNL     1       6.687  10.882   0.509  1.00  0.00     0.091 A 
ATOM     43  F   UNL     1       5.380  10.609  -1.467  1.00  0.00    -0.205 F 
ATOM     44  C   UNL     1       7.701  10.407   1.356  1.00  0.00     0.022 A 
BRANCH  42  45
ATOM     45  S   UNL     1       5.853  12.397   0.995  1.00  0.00     0.127 S 
ATOM     46  O   UNL     1       4.933  11.911   2.021  1.00  0.00    -0.237 OA
ATOM     47  O   UNL     1       6.957  13.212   1.504  1.00  0.00    -0.237 OA
ATOM     48  O   UNL     1       5.234  12.914  -0.217  1.00  0.00    -0.744 OA
ENDBRANCH  42  45
ENDBRANCH  24  38
BRANCH  25  49
ATOM     49  C   UNL     1       4.543   4.101  -9.337  1.00  0.00     0.023 A 
ATOM     50  C   UNL     1       5.490   3.560 -10.226  1.00  0.00     0.012 A 
ATOM     51  C   UNL     1       3.172   3.864  -9.560  1.00  0.00     0.148 A 
ATOM     52  C   UNL     1       5.078   2.803 -11.323  1.00  0.00     0.002 A 
ATOM     53  C   UNL     1       2.772   3.063 -10.621  1.00  0.00     0.091 A 
ATOM     54  F   UNL     1       2.289   4.393  -8.700  1.00  0.00    -0.205 F 
ATOM     55  C   UNL     1       3.723   2.543 -11.513  1.00  0.00     0.022 A 
BRANCH  53  56
ATOM     56  S   UNL     1       1.066   2.554 -10.861  1.00  0.00     0.127 S 
ATOM     57  O   UNL     1       0.726   3.229 -12.110  1.00  0.00    -0.237 OA
ATOM     58  O   UNL     1       1.199   1.100 -10.962  1.00  0.00    -0.237 OA
ATOM     59  O   UNL     1       0.346   3.012  -9.681  1.00  0.00    -0.744 OA
ENDBRANCH  53  56
ENDBRANCH  25  49
BRANCH  37  60
ATOM     60  C   UNL     1       7.770  10.200  -8.120  1.00  0.00     0.023 A 
ATOM     61  C   UNL     1       6.897  11.097  -8.764  1.00  0.00     0.012 A 
ATOM     62  C   UNL     1       9.163  10.384  -8.230  1.00  0.00     0.148 A 
ATOM     63  C   UNL     1       7.403  12.155  -9.518  1.00  0.00     0.002 A 
ATOM     64  C   UNL     1       9.659  11.467  -8.943  1.00  0.00     0.091 A 
ATOM     65  F   UNL     1       9.973   9.504  -7.624  1.00  0.00    -0.205 F 
ATOM     66  C   UNL     1       8.781  12.348  -9.596  1.00  0.00     0.022 A 
BRANCH  64  67
ATOM     67  S   UNL     1      11.412  11.855  -9.013  1.00  0.00     0.127 S 
ATOM     68  O   UNL     1      11.723  11.576 -10.414  1.00  0.00    -0.237 OA
ATOM     69  O   UNL     1      11.428  13.273  -8.654  1.00  0.00    -0.237 OA
ATOM     70  O   UNL     1      12.058  10.977  -8.046  1.00  0.00    -0.744 OA
ENDBRANCH  64  67
ENDBRANCH  37  60
ENDBRANCH  11  12
ENDBRANCH   4   6
ENDBRANCH   1   2
BRANCH   1  71
ATOM     71  C   UNL     1       4.746  -0.978   2.191  1.00  0.00     0.042 C 
BRANCH  71  72
ATOM     72  C   UNL     1       4.227  -2.146   3.019  1.00  0.00     0.118 C 
BRANCH  72  73
ATOM     73  N   UNL     1       5.131  -3.280   2.977  1.00  0.00    -0.351 N 
ATOM     74  C   UNL     1       6.130  -3.713   3.798  1.00  0.00     0.278 C 
ATOM     75  H   UNL     1       4.995  -3.857   2.191  1.00  0.00     0.163 HD
ATOM     76  O   UNL     1       6.745  -4.710   3.395  1.00  0.00    -0.268 OA
BRANCH  74  77
ATOM     77  C   UNL     1       6.396  -3.124   5.202  1.00  0.00     0.277 C 
ATOM     78  C   UNL     1       7.712  -3.745   5.761  1.00  0.00     0.114 C 
ATOM     79  N   UNL     1       6.422  -1.639   5.220  1.00  0.00    -0.324 N 
ATOM     80  C   UNL     1       8.095  -3.067   7.031  1.00  0.00    -0.006 A 
ATOM     81  C   UNL     1       6.572  -1.058   6.562  1.00  0.00     0.264 C 
ATOM     82  H   UNL     1       5.548  -1.298   4.819  1.00  0.00     0.347 HD
ATOM     83  H   UNL     1       7.240  -1.352   4.682  1.00  0.00     0.347 HD
ATOM     84  C   UNL     1       7.559  -1.841   7.361  1.00  0.00     0.083 A 
ATOM     85  C   UNL     1       9.011  -3.433   8.052  1.00  0.00     0.003 A 
ATOM     86  N   UNL     1       8.161  -1.417   8.513  1.00  0.00    -0.353 N 
ATOM     87  C   UNL     1       9.046  -2.373   8.962  1.00  0.00     0.046 A 
ATOM     88  C   UNL     1       9.834  -4.551   8.286  1.00  0.00     0.010 A 
ATOM     89  H   UNL     1       7.988  -0.555   8.957  1.00  0.00     0.166 HD
ATOM     90  C   UNL     1       9.874  -2.371  10.090  1.00  0.00     0.026 A 
ATOM     91  C   UNL     1      10.656  -4.572   9.420  1.00  0.00     0.001 A 
ATOM     92  C   UNL     1      10.677  -3.495  10.304  1.00  0.00     0.002 A 
BRANCH  81  93
ATOM     93  C   UNL     1       5.259  -0.772   7.290  1.00  0.00     0.041 A 
ATOM     94  C   UNL     1       5.184   0.215   8.269  1.00  0.00     0.093 A 
ATOM     95  C   UNL     1       3.900  -1.285   7.169  1.00  0.00     0.009 A 
ATOM     96  N   UNL     1       3.901   0.329   8.712  1.00  0.00    -0.361 N 
ATOM     97  C   UNL     1       3.087  -0.534   8.029  1.00  0.00     0.046 A 
ATOM     98  C   UNL     1       3.229  -2.277   6.415  1.00  0.00     0.011 A 
ATOM     99  H   UNL     1       3.602   0.944   9.421  1.00  0.00     0.166 HD
ATOM    100  C   UNL     1       1.694  -0.686   8.118  1.00  0.00     0.026 A 
ATOM    101  C   UNL     1       1.837  -2.429   6.464  1.00  0.00     0.001 A 
ATOM    102  C   UNL     1       1.077  -1.632   7.303  1.00  0.00     0.002 A 
ENDBRANCH  81  93
ENDBRANCH  74  77
ENDBRANCH  72  73
ENDBRANCH  71  72
ENDBRANCH   1  71
TORSDOF 14
