REMARK SMILES CCCC[C@@H](C)[NH2+]Cc1ccc(C(=O)NCCCNC(=O)c2ccc(-c3c4nc(c(-c5cccc(S(=O)(=O)[O-])c5F)c5ccc([nH]5)c(-c5cccc(S(=O)(=O)[O-])c5F)c5nc(c(-c6cccc(S(=O)(=O)[O-])c6F)c6ccc3[nH]6)C=C5)C=C4)cc2)cn1
REMARK SMILES IDX 13 1 14 2 15 3 12 5 9 6 10 7 86 8 11 9 85 10 8 11 7 12 5 15
REMARK SMILES IDX 6 16 4 17 3 18 2 19 1 20 16 21 17 22 18 23 19 24 20 25 21 27
REMARK SMILES IDX 22 28 23 29 84 30 24 31 83 32 25 33 26 34 27 35 77 36 28 37
REMARK SMILES IDX 82 38 76 39 78 40 29 41 81 42 75 43 74 44 30 46 62 47 42 48
REMARK SMILES IDX 61 49 43 50 46 51 60 52 79 53 44 54 45 55 59 57 80 58 47 59
REMARK SMILES IDX 31 60 32 61 40 62 33 63 35 64 41 65 34 66 36 67 37 68 38 69
REMARK SMILES IDX 39 70 63 71 64 72 72 73 65 74 67 75 73 76 66 77 68 78 69 79
REMARK SMILES IDX 70 80 71 81 48 82 49 83 57 84 50 85 52 86 58 87 51 88 53 89
REMARK SMILES IDX 54 90 55 91 56 92
REMARK H PARENT 15 4 7 13 7 14 19 26 78 45 46 56
REMARK Flexibility Score: inf
ROOT
ATOM      1  C   UNL     1      -4.995   5.980  -3.980  1.00  0.00     0.252 C 
ATOM      2  O   UNL     1      -4.111   6.824  -3.860  1.00  0.00    -0.269 OA
ATOM      3  N   UNL     1      -6.299   6.385  -4.047  1.00  0.00    -0.352 N 
ATOM      4  H   UNL     1      -6.447   7.341  -3.863  1.00  0.00     0.163 HD
ENDROOT
BRANCH   1   5
ATOM      5  C   UNL     1      -4.619   4.559  -4.083  1.00  0.00     0.058 A 
ATOM      6  C   UNL     1      -3.562   2.025  -4.166  1.00  0.00     0.094 A 
ATOM      7  C   UNL     1      -4.769   2.225  -3.501  1.00  0.00     0.030 A 
ATOM      8  N   UNL     1      -2.929   3.013  -4.858  1.00  0.00    -0.255 NA
ATOM      9  C   UNL     1      -5.287   3.517  -3.440  1.00  0.00     0.017 A 
ATOM     10  C   UNL     1      -3.458   4.256  -4.778  1.00  0.00     0.125 A 
BRANCH   6  11
ATOM     11  C   UNL     1      -2.792   0.730  -3.975  1.00  0.00     0.318 C 
BRANCH  11  12
ATOM     12  N   UNL     1      -1.346   0.955  -3.789  1.00  0.00    -0.339 N 
ATOM     13  H   UNL     1      -0.861   0.083  -4.003  1.00  0.00     0.346 HD
ATOM     14  H   UNL     1      -1.098   1.724  -4.412  1.00  0.00     0.346 HD
BRANCH  12  15
ATOM     15  C   UNL     1      -0.942   1.381  -2.432  1.00  0.00     0.179 C 
ATOM     16  C   UNL     1      -1.459   2.764  -2.015  1.00  0.00     0.075 C 
BRANCH  15  17
ATOM     17  C   UNL     1       0.605   1.349  -2.424  1.00  0.00     0.065 C 
BRANCH  17  18
ATOM     18  C   UNL     1       1.290   1.850  -1.144  1.00  0.00     0.006 C 
BRANCH  18  19
ATOM     19  C   UNL     1       0.816   1.209   0.161  1.00  0.00    -0.003 C 
ATOM     20  C   UNL     1       1.082  -0.284   0.227  1.00  0.00     0.004 C 
ENDBRANCH  18  19
ENDBRANCH  17  18
ENDBRANCH  15  17
ENDBRANCH  12  15
ENDBRANCH  11  12
ENDBRANCH   6  11
ENDBRANCH   1   5
BRANCH   3  21
ATOM     21  C   UNL     1      -7.500   5.628  -4.346  1.00  0.00     0.118 C 
BRANCH  21  22
ATOM     22  C   UNL     1      -8.407   5.518  -3.126  1.00  0.00     0.042 C 
BRANCH  22  23
ATOM     23  C   UNL     1      -9.084   6.835  -2.761  1.00  0.00     0.118 C 
BRANCH  23  24
ATOM     24  N   UNL     1     -10.010   7.272  -3.797  1.00  0.00    -0.352 N 
ATOM     25  C   UNL     1     -11.366   7.472  -3.735  1.00  0.00     0.251 C 
ATOM     26  H   UNL     1      -9.601   7.451  -4.675  1.00  0.00     0.163 HD
ATOM     27  O   UNL     1     -12.007   7.587  -4.775  1.00  0.00    -0.269 OA
BRANCH  25  28
ATOM     28  C   UNL     1     -12.049   7.552  -2.426  1.00  0.00     0.039 A 
ATOM     29  C   UNL     1     -13.301   6.950  -2.279  1.00  0.00     0.014 A 
ATOM     30  C   UNL     1     -11.479   8.257  -1.363  1.00  0.00     0.014 A 
ATOM     31  C   UNL     1     -13.962   7.019  -1.051  1.00  0.00     0.010 A 
ATOM     32  C   UNL     1     -12.103   8.260  -0.119  1.00  0.00     0.010 A 
ATOM     33  C   UNL     1     -13.357   7.655   0.046  1.00  0.00    -0.014 A 
BRANCH  33  34
ATOM     34  C   UNL     1     -14.019   7.701   1.373  1.00  0.00     0.031 A 
ATOM     35  C   UNL     1     -14.414   9.021   1.976  1.00  0.00     0.074 A 
ATOM     36  C   UNL     1     -14.179   6.560   2.072  1.00  0.00     0.049 A 
ATOM     37  N   UNL     1     -14.941   9.267   3.147  1.00  0.00    -0.248 NA
ATOM     38  C   UNL     1     -14.155  10.228   1.172  1.00  0.00     0.031 C 
ATOM     39  C   UNL     1     -13.760   5.230   1.627  1.00  0.00     0.029 A 
ATOM     40  N   UNL     1     -14.709   6.341   3.318  1.00  0.00    -0.354 N 
ATOM     41  C   UNL     1     -15.039  10.651   3.238  1.00  0.00     0.074 A 
ATOM     42  C   UNL     1     -14.488  11.194   2.016  1.00  0.00     0.031 C 
ATOM     43  C   UNL     1     -14.052   4.333   2.582  1.00  0.00     0.029 A 
ATOM     44  C   UNL     1     -14.652   5.026   3.718  1.00  0.00     0.049 A 
ATOM     45  H   UNL     1     -15.094   7.057   3.874  1.00  0.00     0.167 HD
ATOM     46  C   UNL     1     -15.566  11.400   4.235  1.00  0.00     0.034 A 
ATOM     47  C   UNL     1     -15.035   4.445   4.872  1.00  0.00     0.034 A 
ATOM     48  C   UNL     1     -16.161  10.851   5.423  1.00  0.00     0.049 A 
ATOM     49  C   UNL     1     -15.670   5.294   5.939  1.00  0.00     0.074 A 
ATOM     50  C   UNL     1     -16.812  11.517   6.446  1.00  0.00     0.029 A 
ATOM     51  N   UNL     1     -16.173   9.504   5.750  1.00  0.00    -0.354 N 
ATOM     52  N   UNL     1     -15.904   6.584   5.935  1.00  0.00    -0.248 NA
ATOM     53  C   UNL     1     -16.129   4.604   7.152  1.00  0.00     0.031 C 
ATOM     54  C   UNL     1     -17.201  10.573   7.402  1.00  0.00     0.029 A 
ATOM     55  C   UNL     1     -16.813   9.317   6.963  1.00  0.00     0.049 A 
ATOM     56  H   UNL     1     -15.784   8.786   5.201  1.00  0.00     0.167 HD
ATOM     57  C   UNL     1     -16.568   6.855   7.126  1.00  0.00     0.074 A 
ATOM     58  C   UNL     1     -16.717   5.590   7.816  1.00  0.00     0.031 C 
ATOM     59  C   UNL     1     -17.001   8.044   7.611  1.00  0.00     0.034 A 
BRANCH  46  60
ATOM     60  C   UNL     1     -15.576  12.897   4.058  1.00  0.00     0.023 A 
ATOM     61  C   UNL     1     -16.450  13.480   3.117  1.00  0.00     0.012 A 
ATOM     62  C   UNL     1     -14.769  13.729   4.859  1.00  0.00     0.148 A 
ATOM     63  C   UNL     1     -16.496  14.864   2.951  1.00  0.00     0.002 A 
ATOM     64  C   UNL     1     -14.853  15.110   4.718  1.00  0.00     0.091 A 
ATOM     65  F   UNL     1     -13.929  13.157   5.732  1.00  0.00    -0.205 F 
ATOM     66  C   UNL     1     -15.706  15.678   3.757  1.00  0.00     0.022 A 
BRANCH  64  67
ATOM     67  S   UNL     1     -13.936  16.248   5.763  1.00  0.00     0.127 S 
ATOM     68  O   UNL     1     -12.940  16.769   4.828  1.00  0.00    -0.237 OA
ATOM     69  O   UNL     1     -14.969  17.209   6.152  1.00  0.00    -0.237 OA
ATOM     70  O   UNL     1     -13.408  15.448   6.859  1.00  0.00    -0.744 OA
ENDBRANCH  64  67
ENDBRANCH  46  60
BRANCH  47  71
ATOM     71  C   UNL     1     -14.898   2.971   5.041  1.00  0.00     0.023 A 
ATOM     72  C   UNL     1     -16.055   2.168   5.045  1.00  0.00     0.012 A 
ATOM     73  C   UNL     1     -13.636   2.357   5.154  1.00  0.00     0.148 A 
ATOM     74  C   UNL     1     -15.960   0.784   5.190  1.00  0.00     0.002 A 
ATOM     75  C   UNL     1     -13.545   0.973   5.242  1.00  0.00     0.091 A 
ATOM     76  F   UNL     1     -12.547   3.139   5.158  1.00  0.00    -0.205 F 
ATOM     77  C   UNL     1     -14.707   0.185   5.278  1.00  0.00     0.022 A 
BRANCH  75  78
ATOM     78  S   UNL     1     -11.970   0.108   5.221  1.00  0.00     0.127 S 
ATOM     79  O   UNL     1     -11.867  -0.362   6.599  1.00  0.00    -0.237 OA
ATOM     80  O   UNL     1     -12.213  -0.939   4.227  1.00  0.00    -0.237 OA
ATOM     81  O   UNL     1     -10.984   1.101   4.813  1.00  0.00    -0.744 OA
ENDBRANCH  75  78
ENDBRANCH  47  71
BRANCH  59  82
ATOM     82  C   UNL     1     -17.710   8.040   8.940  1.00  0.00     0.023 A 
ATOM     83  C   UNL     1     -16.976   7.836  10.124  1.00  0.00     0.012 A 
ATOM     84  C   UNL     1     -19.090   8.314   9.019  1.00  0.00     0.148 A 
ATOM     85  C   UNL     1     -17.609   7.875  11.366  1.00  0.00     0.002 A 
ATOM     86  C   UNL     1     -19.705   8.400  10.262  1.00  0.00     0.091 A 
ATOM     87  F   UNL     1     -19.775   8.486   7.878  1.00  0.00    -0.205 F 
ATOM     88  C   UNL     1     -18.969   8.169  11.435  1.00  0.00     0.022 A 
BRANCH  86  89
ATOM     89  S   UNL     1     -21.428   8.870  10.450  1.00  0.00     0.127 S 
ATOM     90  O   UNL     1     -22.047   7.594  10.805  1.00  0.00    -0.237 OA
ATOM     91  O   UNL     1     -21.369   9.843  11.541  1.00  0.00    -0.237 OA
ATOM     92  O   UNL     1     -21.834   9.428   9.167  1.00  0.00    -0.744 OA
ENDBRANCH  86  89
ENDBRANCH  59  82
ENDBRANCH  33  34
ENDBRANCH  25  28
ENDBRANCH  23  24
ENDBRANCH  22  23
ENDBRANCH  21  22
ENDBRANCH   3  21
TORSDOF 19
