REMARK SMILES Cc1ccc(/C=C/C(=O)NC[C@H]2CC[C@@H](C(=O)NCCCNC(=O)c3ccc(-c4c5nc(c(-c6cccc(S(=O)(=O)[O-])c6F)c6ccc([nH]6)c(-c6cccc(S(=O)(=O)[O-])c6F)c6nc(c(-c7cccc(S(=O)(=O)[O-])c7F)c7ccc4[nH]7)C=C6)C=C5)cc3)CC2)s1
REMARK SMILES IDX 19 1 18 2 16 3 17 4 15 6 12 7 13 8 89 9 14 10 88 11 11 12
REMARK SMILES IDX 10 13 8 14 9 15 7 17 6 18 5 19 1 20 2 21 3 22 90 23 4 24
REMARK SMILES IDX 20 25 21 26 22 27 23 28 24 30 25 31 26 32 87 33 27 34 86 35
REMARK SMILES IDX 28 36 29 37 30 38 80 39 31 40 85 41 79 42 81 43 32 44 84 45
REMARK SMILES IDX 78 46 77 47 33 49 65 50 45 51 64 52 46 53 49 54 63 55 82 56
REMARK SMILES IDX 47 57 48 58 62 60 83 61 50 62 34 63 35 64 43 65 36 66 38 67
REMARK SMILES IDX 44 68 37 69 39 70 40 71 41 72 42 73 66 74 67 75 75 76 68 77
REMARK SMILES IDX 70 78 76 79 69 80 71 81 72 82 73 83 74 84 51 85 52 86 60 87
REMARK SMILES IDX 53 88 55 89 61 90 54 91 56 92 57 93 58 94 59 95
REMARK H PARENT 18 5 10 16 22 29 81 48 49 59
REMARK Flexibility Score: inf
ROOT
ATOM      1  C   UNL     1      -3.370   0.145   2.503  1.00  0.00     0.117 C 
ENDROOT
BRANCH   1   2
ATOM      2  N   UNL     1      -3.330  -0.422   3.827  1.00  0.00    -0.356 N 
ATOM      3  C   UNL     1      -4.232  -1.226   4.447  1.00  0.00     0.223 C 
ATOM      4  O   UNL     1      -3.778  -2.002   5.298  1.00  0.00    -0.275 OA
ATOM      5  H   UNL     1      -2.534  -0.193   4.359  1.00  0.00     0.163 HD
BRANCH   3   6
ATOM      6  C   UNL     1      -5.743  -1.241   4.152  1.00  0.00     0.078 C 
ATOM      7  C   UNL     1      -6.893  -0.707   1.415  1.00  0.00     0.008 C 
ATOM      8  C   UNL     1      -6.095  -1.967   1.762  1.00  0.00     0.006 C 
ATOM      9  C   UNL     1      -6.724   0.463   2.410  1.00  0.00     0.006 C 
ATOM     10  C   UNL     1      -6.185  -2.361   3.218  1.00  0.00     0.014 C 
ATOM     11  C   UNL     1      -6.454   0.085   3.875  1.00  0.00     0.014 C 
BRANCH   7  12
ATOM     12  C   UNL     1      -6.667  -0.340  -0.078  1.00  0.00     0.119 C 
BRANCH  12  13
ATOM     13  N   UNL     1      -5.737   0.739  -0.341  1.00  0.00    -0.352 N 
ATOM     14  C   UNL     1      -4.538   0.843  -0.949  1.00  0.00     0.244 C 
ATOM     15  O   UNL     1      -4.186   1.979  -1.281  1.00  0.00    -0.270 OA
ATOM     16  H   UNL     1      -6.057   1.603   0.007  1.00  0.00     0.163 HD
BRANCH  14  17
ATOM     17  C   UNL     1      -3.559  -0.251  -1.173  1.00  0.00     0.072 C 
ATOM     18  C   UNL     1      -3.455  -1.528  -0.773  1.00  0.00     0.024 C 
BRANCH  18  19
ATOM     19  C   UNL     1      -2.159  -2.135  -0.844  1.00  0.00     0.027 A 
ATOM     20  C   UNL     1       1.594  -1.725   0.025  1.00  0.00     0.056 C 
ATOM     21  C   UNL     1       0.271  -2.233  -0.445  1.00  0.00     0.002 A 
ATOM     22  C   UNL     1      -0.069  -2.796  -1.658  1.00  0.00     0.016 A 
ATOM     23  S   UNL     1      -1.119  -2.125   0.540  1.00  0.00    -0.141 S 
ATOM     24  C   UNL     1      -1.485  -2.742  -1.889  1.00  0.00     0.020 A 
ENDBRANCH  18  19
ENDBRANCH  14  17
ENDBRANCH  12  13
ENDBRANCH   7  12
ENDBRANCH   3   6
ENDBRANCH   1   2
BRANCH   1  25
ATOM     25  C   UNL     1      -3.002   1.613   2.392  1.00  0.00     0.042 C 
BRANCH  25  26
ATOM     26  C   UNL     1      -1.595   1.911   1.871  1.00  0.00     0.118 C 
BRANCH  26  27
ATOM     27  N   UNL     1      -1.164   1.144   0.701  1.00  0.00    -0.352 N 
ATOM     28  C   UNL     1      -0.601   1.538  -0.488  1.00  0.00     0.251 C 
ATOM     29  H   UNL     1      -1.303   0.172   0.781  1.00  0.00     0.163 HD
ATOM     30  O   UNL     1      -0.311   0.721  -1.360  1.00  0.00    -0.269 OA
BRANCH  28  31
ATOM     31  C   UNL     1      -0.334   2.948  -0.747  1.00  0.00     0.039 A 
ATOM     32  C   UNL     1      -0.662   3.489  -1.997  1.00  0.00     0.014 A 
ATOM     33  C   UNL     1       0.257   3.718   0.248  1.00  0.00     0.014 A 
ATOM     34  C   UNL     1      -0.463   4.844  -2.221  1.00  0.00     0.010 A 
ATOM     35  C   UNL     1       0.345   5.078   0.067  1.00  0.00     0.010 A 
ATOM     36  C   UNL     1       0.006   5.642  -1.172  1.00  0.00    -0.014 A 
BRANCH  36  37
ATOM     37  C   UNL     1       0.221   7.090  -1.306  1.00  0.00     0.031 A 
ATOM     38  C   UNL     1       1.617   7.597  -1.101  1.00  0.00     0.074 A 
ATOM     39  C   UNL     1      -0.853   7.895  -1.370  1.00  0.00     0.049 A 
ATOM     40  N   UNL     1       2.025   8.802  -0.827  1.00  0.00    -0.248 NA
ATOM     41  C   UNL     1       2.690   6.583  -1.111  1.00  0.00     0.031 C 
ATOM     42  C   UNL     1      -2.246   7.447  -1.468  1.00  0.00     0.029 A 
ATOM     43  N   UNL     1      -0.945   9.257  -1.296  1.00  0.00    -0.354 N 
ATOM     44  C   UNL     1       3.380   8.678  -0.545  1.00  0.00     0.074 A 
ATOM     45  C   UNL     1       3.717   7.277  -0.646  1.00  0.00     0.031 C 
ATOM     46  C   UNL     1      -3.056   8.517  -1.434  1.00  0.00     0.029 A 
ATOM     47  C   UNL     1      -2.242   9.715  -1.279  1.00  0.00     0.049 A 
ATOM     48  H   UNL     1      -0.161   9.851  -1.260  1.00  0.00     0.167 HD
ATOM     49  C   UNL     1       4.262   9.662  -0.253  1.00  0.00     0.034 A 
ATOM     50  C   UNL     1      -2.704  10.971  -1.141  1.00  0.00     0.034 A 
ATOM     51  C   UNL     1       3.886  11.048  -0.261  1.00  0.00     0.049 A 
ATOM     52  C   UNL     1      -1.681  12.065  -0.994  1.00  0.00     0.074 A 
ATOM     53  C   UNL     1       4.684  12.165  -0.117  1.00  0.00     0.029 A 
ATOM     54  N   UNL     1       2.586  11.500  -0.454  1.00  0.00    -0.354 N 
ATOM     55  N   UNL     1      -0.379  11.958  -0.859  1.00  0.00    -0.248 NA
ATOM     56  C   UNL     1      -2.174  13.446  -1.024  1.00  0.00     0.031 C 
ATOM     57  C   UNL     1       3.864  13.294  -0.231  1.00  0.00     0.029 A 
ATOM     58  C   UNL     1       2.558  12.879  -0.456  1.00  0.00     0.049 A 
ATOM     59  H   UNL     1       1.799  10.920  -0.572  1.00  0.00     0.167 HD
ATOM     60  C   UNL     1       0.111  13.255  -0.820  1.00  0.00     0.074 A 
ATOM     61  C   UNL     1      -1.038  14.131  -0.967  1.00  0.00     0.031 C 
ATOM     62  C   UNL     1       1.385  13.694  -0.658  1.00  0.00     0.034 A 
BRANCH  49  63
ATOM     63  C   UNL     1       5.693   9.268   0.014  1.00  0.00     0.023 A 
ATOM     64  C   UNL     1       6.472   8.721  -1.028  1.00  0.00     0.012 A 
ATOM     65  C   UNL     1       6.273   9.431   1.288  1.00  0.00     0.148 A 
ATOM     66  C   UNL     1       7.779   8.292  -0.798  1.00  0.00     0.002 A 
ATOM     67  C   UNL     1       7.595   9.047   1.498  1.00  0.00     0.091 A 
ATOM     68  F   UNL     1       5.519   9.932   2.276  1.00  0.00    -0.205 F 
ATOM     69  C   UNL     1       8.342   8.462   0.462  1.00  0.00     0.022 A 
BRANCH  67  70
ATOM     70  S   UNL     1       8.446   9.290   3.062  1.00  0.00     0.127 S 
ATOM     71  O   UNL     1       8.604   7.914   3.531  1.00  0.00    -0.237 OA
ATOM     72  O   UNL     1       9.689   9.935   2.637  1.00  0.00    -0.237 OA
ATOM     73  O   UNL     1       7.572  10.129   3.870  1.00  0.00    -0.744 OA
ENDBRANCH  67  70
ENDBRANCH  49  63
BRANCH  50  74
ATOM     74  C   UNL     1      -4.163  11.244  -1.268  1.00  0.00     0.023 A 
ATOM     75  C   UNL     1      -4.638  11.844  -2.451  1.00  0.00     0.012 A 
ATOM     76  C   UNL     1      -5.092  10.838  -0.289  1.00  0.00     0.148 A 
ATOM     77  C   UNL     1      -6.003  12.060  -2.647  1.00  0.00     0.002 A 
ATOM     78  C   UNL     1      -6.456  11.012  -0.511  1.00  0.00     0.091 A 
ATOM     79  F   UNL     1      -4.627  10.270   0.833  1.00  0.00    -0.205 F 
ATOM     80  C   UNL     1      -6.912  11.634  -1.683  1.00  0.00     0.022 A 
BRANCH  78  81
ATOM     81  S   UNL     1      -7.705  10.373   0.614  1.00  0.00     0.127 S 
ATOM     82  O   UNL     1      -8.158  11.591   1.283  1.00  0.00    -0.237 OA
ATOM     83  O   UNL     1      -8.677   9.782  -0.307  1.00  0.00    -0.237 OA
ATOM     84  O   UNL     1      -7.014   9.404   1.454  1.00  0.00    -0.744 OA
ENDBRANCH  78  81
ENDBRANCH  50  74
BRANCH  62  85
ATOM     85  C   UNL     1       1.595  15.180  -0.657  1.00  0.00     0.023 A 
ATOM     86  C   UNL     1       1.247  15.927   0.484  1.00  0.00     0.012 A 
ATOM     87  C   UNL     1       2.225  15.813  -1.745  1.00  0.00     0.148 A 
ATOM     88  C   UNL     1       1.505  17.294   0.534  1.00  0.00     0.002 A 
ATOM     89  C   UNL     1       2.522  17.166  -1.668  1.00  0.00     0.091 A 
ATOM     90  F   UNL     1       2.525  15.079  -2.827  1.00  0.00    -0.205 F 
ATOM     91  C   UNL     1       2.154  17.910  -0.535  1.00  0.00     0.022 A 
BRANCH  89  92
ATOM     92  S   UNL     1       3.445  18.014  -2.953  1.00  0.00     0.127 S 
ATOM     93  O   UNL     1       2.394  18.781  -3.618  1.00  0.00    -0.237 OA
ATOM     94  O   UNL     1       4.391  18.817  -2.178  1.00  0.00    -0.237 OA
ATOM     95  O   UNL     1       4.063  16.967  -3.757  1.00  0.00    -0.744 OA
ENDBRANCH  89  92
ENDBRANCH  62  85
ENDBRANCH  36  37
ENDBRANCH  28  31
ENDBRANCH  26  27
ENDBRANCH  25  26
ENDBRANCH   1  25
TORSDOF 17
