REMARK SMILES CC(C)(C)OC(=O)N1CC[N@H+](Cc2ccc(Cl)nc2)[C@H](C(=O)NCCCNC(=O)c2ccc(-c3c4nc(c(-c5cccc(S(=O)(=O)[O-])c5F)c5ccc([nH]5)c(-c5cccc(S(=O)(=O)[O-])c5F)c5nc(c(-c6cccc(S(=O)(=O)[O-])c6F)c6ccc3[nH]6)C=C5)C=C4)cc2)C1
REMARK SMILES IDX 25 1 24 2 23 3 21 4 22 5 20 7 8 8 9 9 93 10 10 11 11 12 6 14
REMARK SMILES IDX 7 15 5 16 2 17 1 18 3 19 4 20 12 21 13 22 14 23 19 24 15 25
REMARK SMILES IDX 18 26 16 27 17 28 26 29 27 30 28 31 29 33 30 34 31 35 92 36
REMARK SMILES IDX 32 37 91 38 33 39 34 40 35 41 85 42 36 43 90 44 84 45 86 46
REMARK SMILES IDX 37 47 89 48 83 49 82 50 38 52 70 53 50 54 69 55 51 56 54 57
REMARK SMILES IDX 68 58 87 59 52 60 53 61 67 63 88 64 55 65 39 66 40 67 48 68
REMARK SMILES IDX 41 69 43 70 49 71 42 72 44 73 45 74 46 75 47 76 71 77 72 78
REMARK SMILES IDX 80 79 73 80 75 81 81 82 74 83 76 84 77 85 78 86 79 87 56 88
REMARK SMILES IDX 57 89 65 90 58 91 60 92 66 93 59 94 61 95 62 96 63 97 64 98
REMARK H PARENT 23 6 11 13 27 32 86 51 54 62
REMARK Flexibility Score: inf
ROOT
ATOM      1  C   UNL     1       4.267  -8.499   4.893  1.00  0.00     0.042 C 
ENDROOT
BRANCH   1   2
ATOM      2  C   UNL     1       3.645  -7.130   5.106  1.00  0.00     0.118 C 
BRANCH   2   3
ATOM      3  N   UNL     1       4.381  -6.025   4.510  1.00  0.00    -0.351 N 
ATOM      4  C   UNL     1       3.931  -4.777   4.170  1.00  0.00     0.280 C 
ATOM      5  O   UNL     1       4.784  -3.930   3.887  1.00  0.00    -0.268 OA
ATOM      6  H   UNL     1       5.333  -6.198   4.326  1.00  0.00     0.163 HD
BRANCH   4   7
ATOM      7  C   UNL     1       2.423  -4.471   4.072  1.00  0.00     0.294 C 
ATOM      8  N   UNL     1       0.753  -2.583   3.681  1.00  0.00    -0.296 N 
ATOM      9  C   UNL     1      -0.140  -3.216   4.640  1.00  0.00     0.184 C 
ATOM     10  C   UNL     1       2.164  -3.006   3.625  1.00  0.00     0.198 C 
ATOM     11  C   UNL     1       0.223  -4.653   5.022  1.00  0.00     0.285 C 
ATOM     12  N   UNL     1       1.647  -4.888   5.265  1.00  0.00    -0.318 N 
ATOM     13  H   UNL     1       1.823  -5.889   5.347  1.00  0.00     0.349 HD
BRANCH   8  14
ATOM     14  C   UNL     1       0.344  -1.349   3.204  1.00  0.00     0.410 C 
ATOM     15  O   UNL     1      -0.611  -0.742   3.686  1.00  0.00    -0.224 OA
BRANCH  14  16
ATOM     16  O   UNL     1       1.046  -0.932   2.121  1.00  0.00    -0.444 OA
BRANCH  16  17
ATOM     17  C   UNL     1       0.612   0.246   1.386  1.00  0.00     0.106 C 
ATOM     18  C   UNL     1       1.321   0.154   0.026  1.00  0.00     0.056 C 
ATOM     19  C   UNL     1       1.075   1.512   2.112  1.00  0.00     0.056 C 
ATOM     20  C   UNL     1      -0.903   0.278   1.115  1.00  0.00     0.056 C 
ENDBRANCH  16  17
ENDBRANCH  14  16
ENDBRANCH   8  14
BRANCH  12  21
ATOM     21  C   UNL     1       2.135  -4.564   6.606  1.00  0.00     0.301 C 
BRANCH  21  22
ATOM     22  C   UNL     1       2.211  -3.133   7.051  1.00  0.00     0.025 A 
ATOM     23  C   UNL     1       1.136  -2.506   7.688  1.00  0.00     0.014 A 
ATOM     24  C   UNL     1       3.390  -2.402   6.918  1.00  0.00     0.122 A 
ATOM     25  C   UNL     1       1.255  -1.183   8.100  1.00  0.00     0.041 A 
ATOM     26  N   UNL     1       3.541  -1.123   7.324  1.00  0.00    -0.244 NA
ATOM     27  C   UNL     1       2.465  -0.547   7.893  1.00  0.00     0.129 A 
ATOM     28  Cl  UNL     1       2.699   1.080   8.380  1.00  0.00    -0.062 Cl
ENDBRANCH  21  22
ENDBRANCH  12  21
ENDBRANCH   4   7
ENDBRANCH   2   3
ENDBRANCH   1   2
BRANCH   1  29
ATOM     29  C   UNL     1       5.739  -8.623   5.265  1.00  0.00     0.118 C 
BRANCH  29  30
ATOM     30  N   UNL     1       6.050  -8.289   6.652  1.00  0.00    -0.352 N 
ATOM     31  C   UNL     1       6.467  -9.073   7.706  1.00  0.00     0.251 C 
ATOM     32  H   UNL     1       5.942  -7.336   6.873  1.00  0.00     0.163 HD
ATOM     33  O   UNL     1       6.596  -8.565   8.818  1.00  0.00    -0.269 OA
BRANCH  31  34
ATOM     34  C   UNL     1       6.708 -10.523   7.527  1.00  0.00     0.039 A 
ATOM     35  C   UNL     1       6.243 -11.413   8.501  1.00  0.00     0.014 A 
ATOM     36  C   UNL     1       7.359 -11.016   6.399  1.00  0.00     0.014 A 
ATOM     37  C   UNL     1       6.316 -12.792   8.275  1.00  0.00     0.010 A 
ATOM     38  C   UNL     1       7.320 -12.377   6.120  1.00  0.00     0.010 A 
ATOM     39  C   UNL     1       6.789 -13.284   7.049  1.00  0.00    -0.014 A 
BRANCH  39  40
ATOM     40  C   UNL     1       6.711 -14.727   6.689  1.00  0.00     0.031 A 
ATOM     41  C   UNL     1       7.953 -15.476   6.280  1.00  0.00     0.074 A 
ATOM     42  C   UNL     1       5.505 -15.326   6.592  1.00  0.00     0.049 A 
ATOM     43  N   UNL     1       8.065 -16.682   5.786  1.00  0.00    -0.248 NA
ATOM     44  C   UNL     1       9.235 -14.759   6.397  1.00  0.00     0.031 C 
ATOM     45  C   UNL     1       4.214 -14.687   6.861  1.00  0.00     0.029 A 
ATOM     46  N   UNL     1       5.164 -16.599   6.204  1.00  0.00    -0.354 N 
ATOM     47  C   UNL     1       9.411 -16.845   5.480  1.00  0.00     0.074 A 
ATOM     48  C   UNL     1      10.073 -15.603   5.813  1.00  0.00     0.031 C 
ATOM     49  C   UNL     1       3.227 -15.569   6.640  1.00  0.00     0.029 A 
ATOM     50  C   UNL     1       3.806 -16.825   6.178  1.00  0.00     0.049 A 
ATOM     51  H   UNL     1       5.829 -17.286   5.967  1.00  0.00     0.167 HD
ATOM     52  C   UNL     1      10.048 -17.939   5.000  1.00  0.00     0.034 A 
ATOM     53  C   UNL     1       3.103 -17.917   5.815  1.00  0.00     0.034 A 
ATOM     54  C   UNL     1       9.405 -19.200   4.753  1.00  0.00     0.049 A 
ATOM     55  C   UNL     1       3.845 -19.148   5.371  1.00  0.00     0.074 A 
ATOM     56  C   UNL     1       9.981 -20.401   4.380  1.00  0.00     0.029 A 
ATOM     57  N   UNL     1       8.042 -19.427   4.863  1.00  0.00    -0.354 N 
ATOM     58  N   UNL     1       5.137 -19.331   5.245  1.00  0.00    -0.248 NA
ATOM     59  C   UNL     1       3.037 -20.334   5.051  1.00  0.00     0.031 C 
ATOM     60  C   UNL     1       8.964 -21.354   4.260  1.00  0.00     0.029 A 
ATOM     61  C   UNL     1       7.757 -20.748   4.567  1.00  0.00     0.049 A 
ATOM     62  H   UNL     1       7.375 -18.748   5.115  1.00  0.00     0.167 HD
ATOM     63  C   UNL     1       5.299 -20.657   4.865  1.00  0.00     0.074 A 
ATOM     64  C   UNL     1       3.974 -21.239   4.804  1.00  0.00     0.031 C 
ATOM     65  C   UNL     1       6.440 -21.328   4.572  1.00  0.00     0.034 A 
BRANCH  52  66
ATOM     66  C   UNL     1      11.536 -17.846   4.784  1.00  0.00     0.023 A 
ATOM     67  C   UNL     1      12.396 -17.810   5.901  1.00  0.00     0.012 A 
ATOM     68  C   UNL     1      12.087 -17.854   3.487  1.00  0.00     0.148 A 
ATOM     69  C   UNL     1      13.778 -17.749   5.733  1.00  0.00     0.002 A 
ATOM     70  C   UNL     1      13.469 -17.837   3.328  1.00  0.00     0.091 A 
ATOM     71  F   UNL     1      11.254 -17.867   2.437  1.00  0.00    -0.205 F 
ATOM     72  C   UNL     1      14.314 -17.773   4.448  1.00  0.00     0.022 A 
BRANCH  70  73
ATOM     73  S   UNL     1      14.260 -17.943   1.719  1.00  0.00     0.127 S 
ATOM     74  O   UNL     1      14.766 -16.581   1.549  1.00  0.00    -0.237 OA
ATOM     75  O   UNL     1      15.294 -18.953   1.949  1.00  0.00    -0.237 OA
ATOM     76  O   UNL     1      13.217 -18.345   0.786  1.00  0.00    -0.744 OA
ENDBRANCH  70  73
ENDBRANCH  52  66
BRANCH  53  77
ATOM     77  C   UNL     1       1.617 -17.921   5.935  1.00  0.00     0.023 A 
ATOM     78  C   UNL     1       1.014 -18.698   6.944  1.00  0.00     0.012 A 
ATOM     79  C   UNL     1       0.802 -17.145   5.089  1.00  0.00     0.148 A 
ATOM     80  C   UNL     1      -0.374 -18.727   7.088  1.00  0.00     0.002 A 
ATOM     81  C   UNL     1      -0.576 -17.135   5.273  1.00  0.00     0.091 A 
ATOM     82  F   UNL     1       1.391 -16.422   4.125  1.00  0.00    -0.205 F 
ATOM     83  C   UNL     1      -1.168 -17.938   6.260  1.00  0.00     0.022 A 
BRANCH  81  84
ATOM     84  S   UNL     1      -1.657 -16.041   4.342  1.00  0.00     0.127 S 
ATOM     85  O   UNL     1      -2.259 -16.960   3.381  1.00  0.00    -0.237 OA
ATOM     86  O   UNL     1      -2.566 -15.551   5.380  1.00  0.00    -0.237 OA
ATOM     87  O   UNL     1      -0.783 -15.016   3.787  1.00  0.00    -0.744 OA
ENDBRANCH  81  84
ENDBRANCH  53  77
BRANCH  65  88
ATOM     88  C   UNL     1       6.318 -22.778   4.185  1.00  0.00     0.023 A 
ATOM     89  C   UNL     1       5.827 -23.118   2.909  1.00  0.00     0.012 A 
ATOM     90  C   UNL     1       6.764 -23.795   5.051  1.00  0.00     0.148 A 
ATOM     91  C   UNL     1       5.758 -24.452   2.511  1.00  0.00     0.002 A 
ATOM     92  C   UNL     1       6.733 -25.119   4.630  1.00  0.00     0.091 A 
ATOM     93  F   UNL     1       7.207 -23.451   6.269  1.00  0.00    -0.205 F 
ATOM     94  C   UNL     1       6.221 -25.450   3.365  1.00  0.00     0.022 A 
BRANCH  92  95
ATOM     95  S   UNL     1       7.396 -26.457   5.629  1.00  0.00     0.127 S 
ATOM     96  O   UNL     1       6.176 -27.081   6.138  1.00  0.00    -0.237 OA
ATOM     97  O   UNL     1       8.122 -27.256   4.641  1.00  0.00    -0.237 OA
ATOM     98  O   UNL     1       8.244 -25.823   6.630  1.00  0.00    -0.744 OA
ENDBRANCH  92  95
ENDBRANCH  65  88
ENDBRANCH  39  40
ENDBRANCH  31  34
ENDBRANCH  29  30
ENDBRANCH   1  29
TORSDOF 18
