REMARK SMILES CC(C)OCCS(=O)(=O)N1CCC[C@H](C(=O)NCCCNC(=O)c2ccc(-c3c4nc(c(-c5cccc(S(=O)(=O)[O-])c5F)c5ccc([nH]5)c(-c5cccc(S(=O)(=O)[O-])c5F)c5nc(c(-c6cccc(S(=O)(=O)[O-])c6F)c6ccc3[nH]6)C=C5)C=C4)cc2)C1
REMARK SMILES IDX 18 1 17 2 15 3 16 4 14 6 10 7 11 8 87 9 12 10 13 11 7 12
REMARK SMILES IDX 8 13 9 14 6 15 5 16 4 17 2 18 1 19 3 20 19 21 20 22 21 23
REMARK SMILES IDX 22 24 23 26 24 27 25 28 86 29 26 30 85 31 27 32 28 33 29 34
REMARK SMILES IDX 79 35 30 36 84 37 78 38 80 39 31 40 83 41 77 42 76 43 32 45
REMARK SMILES IDX 64 46 44 47 63 48 45 49 48 50 62 51 81 52 46 53 47 54 61 56
REMARK SMILES IDX 82 57 49 58 33 59 34 60 42 61 35 62 37 63 43 64 36 65 38 66
REMARK SMILES IDX 39 67 40 68 41 69 65 70 66 71 74 72 67 73 69 74 75 75 68 76
REMARK SMILES IDX 70 77 71 78 72 79 73 80 50 81 51 82 59 83 52 84 54 85 60 86
REMARK SMILES IDX 53 87 55 88 56 89 57 90 58 91
REMARK H PARENT 17 5 21 25 80 44 48 55
REMARK Flexibility Score: inf
ROOT
ATOM      1  C   UNL     1       4.246  -3.519  -1.233  1.00  0.00     0.117 C 
ENDROOT
BRANCH   1   2
ATOM      2  N   UNL     1       4.396  -2.508  -2.263  1.00  0.00    -0.356 N 
ATOM      3  C   UNL     1       3.472  -1.752  -2.903  1.00  0.00     0.224 C 
ATOM      4  O   UNL     1       3.884  -0.963  -3.760  1.00  0.00    -0.275 OA
ATOM      5  H   UNL     1       5.325  -2.345  -2.545  1.00  0.00     0.163 HD
BRANCH   3   6
ATOM      6  C   UNL     1       1.978  -1.845  -2.611  1.00  0.00     0.093 C 
ATOM      7  N   UNL     1       1.101  -2.895  -0.458  1.00  0.00    -0.201 NA
ATOM      8  C   UNL     1       0.379  -3.920  -1.235  1.00  0.00     0.102 C 
ATOM      9  C   UNL     1       1.638  -1.689  -1.132  1.00  0.00     0.115 C 
ATOM     10  C   UNL     1       1.064  -4.226  -2.554  1.00  0.00     0.018 C 
ATOM     11  C   UNL     1       1.282  -2.969  -3.372  1.00  0.00     0.016 C 
BRANCH   7  12
ATOM     12  S   UNL     1       0.894  -2.853   1.219  1.00  0.00     0.216 S 
ATOM     13  O   UNL     1       1.635  -1.718   1.731  1.00  0.00    -0.212 OA
ATOM     14  O   UNL     1       1.185  -4.185   1.704  1.00  0.00    -0.212 OA
BRANCH  12  15
ATOM     15  C   UNL     1      -0.869  -2.583   1.448  1.00  0.00     0.182 C 
BRANCH  15  16
ATOM     16  C   UNL     1      -1.226  -1.216   2.000  1.00  0.00     0.178 C 
BRANCH  16  17
ATOM     17  O   UNL     1      -2.207  -0.522   1.221  1.00  0.00    -0.378 OA
BRANCH  17  18
ATOM     18  C   UNL     1      -1.775   0.315   0.144  1.00  0.00     0.112 C 
ATOM     19  C   UNL     1      -0.531   1.150   0.439  1.00  0.00     0.038 C 
ATOM     20  C   UNL     1      -1.692  -0.474  -1.156  1.00  0.00     0.038 C 
ENDBRANCH  17  18
ENDBRANCH  16  17
ENDBRANCH  15  16
ENDBRANCH  12  15
ENDBRANCH   7  12
ENDBRANCH   3   6
ENDBRANCH   1   2
BRANCH   1  21
ATOM     21  C   UNL     1       4.736  -4.870  -1.713  1.00  0.00     0.042 C 
BRANCH  21  22
ATOM     22  C   UNL     1       6.244  -4.960  -1.596  1.00  0.00     0.118 C 
BRANCH  22  23
ATOM     23  N   UNL     1       6.663  -5.149  -0.208  1.00  0.00    -0.352 N 
ATOM     24  C   UNL     1       6.943  -6.311   0.474  1.00  0.00     0.251 C 
ATOM     25  H   UNL     1       6.758  -4.322   0.317  1.00  0.00     0.163 HD
ATOM     26  O   UNL     1       7.028  -6.306   1.698  1.00  0.00    -0.269 OA
BRANCH  24  27
ATOM     27  C   UNL     1       7.123  -7.567  -0.281  1.00  0.00     0.039 A 
ATOM     28  C   UNL     1       6.551  -8.754   0.181  1.00  0.00     0.014 A 
ATOM     29  C   UNL     1       7.841  -7.553  -1.475  1.00  0.00     0.014 A 
ATOM     30  C   UNL     1       6.632  -9.907  -0.606  1.00  0.00     0.010 A 
ATOM     31  C   UNL     1       7.789  -8.650  -2.317  1.00  0.00     0.010 A 
ATOM     32  C   UNL     1       7.210  -9.850  -1.885  1.00  0.00    -0.014 A 
BRANCH  32  33
ATOM     33  C   UNL     1       7.263 -11.022  -2.796  1.00  0.00     0.031 A 
ATOM     34  C   UNL     1       8.595 -11.471  -3.344  1.00  0.00     0.074 A 
ATOM     35  C   UNL     1       6.122 -11.586  -3.238  1.00  0.00     0.049 A 
ATOM     36  N   UNL     1       8.851 -12.343  -4.283  1.00  0.00    -0.248 NA
ATOM     37  C   UNL     1       9.797 -10.806  -2.807  1.00  0.00     0.031 C 
ATOM     38  C   UNL     1       4.767 -11.174  -2.860  1.00  0.00     0.029 A 
ATOM     39  N   UNL     1       5.918 -12.607  -4.132  1.00  0.00    -0.354 N 
ATOM     40  C   UNL     1      10.224 -12.278  -4.495  1.00  0.00     0.074 A 
ATOM     41  C   UNL     1      10.741 -11.248  -3.624  1.00  0.00     0.031 C 
ATOM     42  C   UNL     1       3.876 -11.944  -3.506  1.00  0.00     0.029 A 
ATOM     43  C   UNL     1       4.590 -12.876  -4.371  1.00  0.00     0.049 A 
ATOM     44  H   UNL     1       6.653 -13.100  -4.562  1.00  0.00     0.167 HD
ATOM     45  C   UNL     1      10.995 -13.037  -5.307  1.00  0.00     0.034 A 
ATOM     46  C   UNL     1       4.015 -13.769  -5.199  1.00  0.00     0.034 A 
ATOM     47  C   UNL     1      10.488 -14.130  -6.088  1.00  0.00     0.049 A 
ATOM     48  C   UNL     1       4.900 -14.668  -6.021  1.00  0.00     0.074 A 
ATOM     49  C   UNL     1      11.193 -15.052  -6.838  1.00  0.00     0.029 A 
ATOM     50  N   UNL     1       9.145 -14.454  -6.208  1.00  0.00    -0.354 N 
ATOM     51  N   UNL     1       6.209 -14.702  -6.083  1.00  0.00    -0.248 NA
ATOM     52  C   UNL     1       4.232 -15.670  -6.863  1.00  0.00     0.031 C 
ATOM     53  C   UNL     1      10.274 -15.931  -7.420  1.00  0.00     0.029 A 
ATOM     54  C   UNL     1       8.998 -15.560  -7.023  1.00  0.00     0.049 A 
ATOM     55  H   UNL     1       8.406 -13.968  -5.776  1.00  0.00     0.167 HD
ATOM     56  C   UNL     1       6.523 -15.743  -6.949  1.00  0.00     0.074 A 
ATOM     57  C   UNL     1       5.266 -16.332  -7.365  1.00  0.00     0.031 C 
ATOM     58  C   UNL     1       7.739 -16.161  -7.381  1.00  0.00     0.034 A 
BRANCH  45  59
ATOM     59  C   UNL     1      12.476 -12.764  -5.323  1.00  0.00     0.023 A 
ATOM     60  C   UNL     1      13.255 -13.090  -4.192  1.00  0.00     0.012 A 
ATOM     61  C   UNL     1      13.106 -12.223  -6.460  1.00  0.00     0.148 A 
ATOM     62  C   UNL     1      14.626 -12.843  -4.176  1.00  0.00     0.002 A 
ATOM     63  C   UNL     1      14.482 -12.023  -6.454  1.00  0.00     0.091 A 
ATOM     64  F   UNL     1      12.348 -11.897  -7.517  1.00  0.00    -0.205 F 
ATOM     65  C   UNL     1      15.241 -12.319  -5.310  1.00  0.00     0.022 A 
BRANCH  63  66
ATOM     66  S   UNL     1      15.381 -11.426  -7.891  1.00  0.00     0.127 S 
ATOM     67  O   UNL     1      15.729 -10.068  -7.478  1.00  0.00    -0.237 OA
ATOM     68  O   UNL     1      16.512 -12.353  -7.953  1.00  0.00    -0.237 OA
ATOM     69  O   UNL     1      14.455 -11.523  -9.011  1.00  0.00    -0.744 OA
ENDBRANCH  63  66
ENDBRANCH  45  59
BRANCH  46  70
ATOM     70  C   UNL     1       2.531 -13.911  -5.229  1.00  0.00     0.023 A 
ATOM     71  C   UNL     1       1.943 -15.062  -4.668  1.00  0.00     0.012 A 
ATOM     72  C   UNL     1       1.700 -12.908  -5.762  1.00  0.00     0.148 A 
ATOM     73  C   UNL     1       0.557 -15.225  -4.664  1.00  0.00     0.002 A 
ATOM     74  C   UNL     1       0.317 -13.051  -5.706  1.00  0.00     0.091 A 
ATOM     75  F   UNL     1       2.276 -11.825  -6.303  1.00  0.00    -0.205 F 
ATOM     76  C   UNL     1      -0.256 -14.216  -5.173  1.00  0.00     0.022 A 
BRANCH  74  77
ATOM     77  S   UNL     1      -0.806 -11.743  -6.213  1.00  0.00     0.127 S 
ATOM     78  O   UNL     1      -1.322 -12.262  -7.476  1.00  0.00    -0.237 OA
ATOM     79  O   UNL     1      -1.772 -11.725  -5.113  1.00  0.00    -0.237 OA
ATOM     80  O   UNL     1       0.013 -10.541  -6.305  1.00  0.00    -0.744 OA
ENDBRANCH  74  77
ENDBRANCH  46  70
BRANCH  58  81
ATOM     81  C   UNL     1       7.776 -17.317  -8.342  1.00  0.00     0.023 A 
ATOM     82  C   UNL     1       7.404 -17.112  -9.685  1.00  0.00     0.012 A 
ATOM     83  C   UNL     1       8.265 -18.575  -7.941  1.00  0.00     0.148 A 
ATOM     84  C   UNL     1       7.494 -18.150 -10.610  1.00  0.00     0.002 A 
ATOM     85  C   UNL     1       8.396 -19.591  -8.878  1.00  0.00     0.091 A 
ATOM     86  F   UNL     1       8.598 -18.751  -6.654  1.00  0.00    -0.205 F 
ATOM     87  C   UNL     1       8.002 -19.384 -10.210  1.00  0.00     0.022 A 
BRANCH  85  88
ATOM     88  S   UNL     1       9.129 -21.182  -8.476  1.00  0.00     0.127 S 
ATOM     89  O   UNL     1       7.958 -22.057  -8.474  1.00  0.00    -0.237 OA
ATOM     90  O   UNL     1      10.047 -21.393  -9.596  1.00  0.00    -0.237 OA
ATOM     91  O   UNL     1       9.782 -21.007  -7.186  1.00  0.00    -0.744 OA
ENDBRANCH  85  88
ENDBRANCH  58  81
ENDBRANCH  32  33
ENDBRANCH  24  27
ENDBRANCH  22  23
ENDBRANCH  21  22
ENDBRANCH   1  21
TORSDOF 18
