REMARK SMILES Cc1csc(=O)n1CC(=O)N[C@@H](C(=O)NCCCNC(=O)c1ccc(-c2c3nc(c(-c4cccc(S(=O)(=O)[O-])c4F)c4ccc([nH]4)c(-c4cccc(S(=O)(=O)[O-])c4F)c4nc(c(-c5cccc(S(=O)(=O)[O-])c5F)c5ccc2[nH]5)C=C4)C=C3)cc1)[C@@H](C)O
REMARK SMILES IDX 17 1 16 2 15 3 13 4 14 5 12 7 11 8 9 9 10 10 8 12 7 13 1 14
REMARK SMILES IDX 2 15 3 16 4 17 5 18 6 19 85 20 86 21 87 22 18 24 19 25 20 26
REMARK SMILES IDX 21 28 22 29 23 30 84 31 24 32 83 33 25 34 26 35 27 36 77 37
REMARK SMILES IDX 28 38 82 39 76 40 78 41 29 42 81 43 75 44 74 45 30 47 62 48
REMARK SMILES IDX 42 49 61 50 43 51 46 52 60 53 79 54 44 55 45 56 59 58 80 59
REMARK SMILES IDX 47 60 31 61 32 62 40 63 33 64 35 65 41 66 34 67 36 68 37 69
REMARK SMILES IDX 38 70 39 71 63 72 64 73 72 74 65 75 67 76 73 77 66 78 68 79
REMARK SMILES IDX 69 80 70 81 71 82 48 83 49 84 57 85 50 86 52 87 58 88 51 89
REMARK SMILES IDX 53 90 54 91 55 92 56 93
REMARK H PARENT 15 6 11 11 87 23 19 27 78 46 46 57
REMARK Flexibility Score: inf
ROOT
ATOM      1  C   UNL     1      -0.660   5.097  -1.346  1.00  0.00     0.042 C 
ENDROOT
BRANCH   1   2
ATOM      2  C   UNL     1      -1.155   3.656  -1.253  1.00  0.00     0.117 C 
BRANCH   2   3
ATOM      3  N   UNL     1      -1.619   3.087  -2.502  1.00  0.00    -0.354 N 
ATOM      4  C   UNL     1      -1.040   2.061  -3.206  1.00  0.00     0.245 C 
ATOM      5  O   UNL     1      -1.768   1.363  -3.915  1.00  0.00    -0.273 OA
ATOM      6  H   UNL     1      -2.436   3.478  -2.888  1.00  0.00     0.163 HD
BRANCH   4   7
ATOM      7  C   UNL     1       0.434   1.663  -2.935  1.00  0.00     0.200 C 
BRANCH   7   8
ATOM      8  N   UNL     1       1.304   2.833  -2.904  1.00  0.00    -0.340 N 
ATOM      9  C   UNL     1       2.256   3.188  -1.994  1.00  0.00     0.240 C 
ATOM     10  O   UNL     1       2.847   4.254  -2.187  1.00  0.00    -0.273 OA
ATOM     11  H   UNL     1       1.187   3.462  -3.653  1.00  0.00     0.164 HD
BRANCH   9  12
ATOM     12  C   UNL     1       2.618   2.286  -0.792  1.00  0.00     0.226 C 
BRANCH  12  13
ATOM     13  N   UNL     1       1.663   2.278   0.310  1.00  0.00    -0.294 N 
ATOM     14  C   UNL     1       1.139  -0.213   0.247  1.00  0.00     0.065 C 
ATOM     15  C   UNL     1       0.941   1.175   0.765  1.00  0.00     0.029 A 
ATOM     16  C   UNL     1       0.101   1.471   1.767  1.00  0.00     0.091 A 
ATOM     17  S   UNL     1       0.215   3.128   2.256  1.00  0.00    -0.082 S 
ATOM     18  C   UNL     1       1.488   3.429   1.068  1.00  0.00     0.307 A 
ATOM     19  O   UNL     1       2.063   4.509   0.964  1.00  0.00    -0.257 OA
ENDBRANCH  12  13
ENDBRANCH   9  12
ENDBRANCH   7   8
BRANCH   7  20
ATOM     20  C   UNL     1       0.872   0.569  -3.947  1.00  0.00     0.143 C 
ATOM     21  C   UNL     1       2.381   0.389  -4.074  1.00  0.00     0.041 C 
BRANCH  20  22
ATOM     22  O   UNL     1       0.360  -0.700  -3.501  1.00  0.00    -0.391 OA
ATOM     23  H   UNL     1       0.749  -0.920  -2.639  1.00  0.00     0.211 HD
ENDBRANCH  20  22
ENDBRANCH   7  20
ENDBRANCH   4   7
ENDBRANCH   2   3
ENDBRANCH   1   2
BRANCH   1  24
ATOM     24  C   UNL     1      -1.693   6.091  -0.841  1.00  0.00     0.118 C 
BRANCH  24  25
ATOM     25  N   UNL     1      -1.952   5.967   0.604  1.00  0.00    -0.352 N 
ATOM     26  C   UNL     1      -3.024   6.469   1.322  1.00  0.00     0.251 C 
ATOM     27  H   UNL     1      -1.281   5.466   1.122  1.00  0.00     0.163 HD
ATOM     28  O   UNL     1      -2.992   6.580   2.542  1.00  0.00    -0.269 OA
BRANCH  26  29
ATOM     29  C   UNL     1      -4.218   6.872   0.565  1.00  0.00     0.039 A 
ATOM     30  C   UNL     1      -4.765   8.151   0.693  1.00  0.00     0.014 A 
ATOM     31  C   UNL     1      -4.653   5.988  -0.415  1.00  0.00     0.014 A 
ATOM     32  C   UNL     1      -5.672   8.584  -0.271  1.00  0.00     0.010 A 
ATOM     33  C   UNL     1      -5.392   6.486  -1.456  1.00  0.00     0.010 A 
ATOM     34  C   UNL     1      -5.946   7.762  -1.375  1.00  0.00    -0.014 A 
BRANCH  34  35
ATOM     35  C   UNL     1      -6.707   8.262  -2.517  1.00  0.00     0.031 A 
ATOM     36  C   UNL     1      -6.248   9.563  -3.085  1.00  0.00     0.074 A 
ATOM     37  C   UNL     1      -7.614   7.504  -3.172  1.00  0.00     0.049 A 
ATOM     38  N   UNL     1      -6.878  10.692  -3.062  1.00  0.00    -0.248 NA
ATOM     39  C   UNL     1      -4.889   9.656  -3.639  1.00  0.00     0.031 C 
ATOM     40  C   UNL     1      -7.954   6.091  -2.951  1.00  0.00     0.029 A 
ATOM     41  N   UNL     1      -8.314   7.802  -4.299  1.00  0.00    -0.354 N 
ATOM     42  C   UNL     1      -6.102  11.582  -3.807  1.00  0.00     0.074 A 
ATOM     43  C   UNL     1      -4.816  10.952  -3.957  1.00  0.00     0.031 C 
ATOM     44  C   UNL     1      -8.546   5.593  -4.056  1.00  0.00     0.029 A 
ATOM     45  C   UNL     1      -8.810   6.687  -4.966  1.00  0.00     0.049 A 
ATOM     46  H   UNL     1      -8.457   8.723  -4.614  1.00  0.00     0.167 HD
ATOM     47  C   UNL     1      -6.663  12.651  -4.441  1.00  0.00     0.034 A 
ATOM     48  C   UNL     1      -9.367   6.665  -6.199  1.00  0.00     0.034 A 
ATOM     49  C   UNL     1      -8.011  12.882  -3.981  1.00  0.00     0.049 A 
ATOM     50  C   UNL     1      -9.830   8.042  -6.484  1.00  0.00     0.074 A 
ATOM     51  C   UNL     1      -8.600  13.112  -2.752  1.00  0.00     0.029 A 
ATOM     52  N   UNL     1      -9.032  12.495  -4.816  1.00  0.00    -0.354 N 
ATOM     53  N   UNL     1     -10.790   8.627  -5.823  1.00  0.00    -0.248 NA
ATOM     54  C   UNL     1      -8.934   8.929  -7.207  1.00  0.00     0.031 C 
ATOM     55  C   UNL     1      -9.813  12.361  -2.789  1.00  0.00     0.029 A 
ATOM     56  C   UNL     1      -9.926  11.789  -4.059  1.00  0.00     0.049 A 
ATOM     57  H   UNL     1      -9.106  12.690  -5.779  1.00  0.00     0.167 HD
ATOM     58  C   UNL     1     -10.346   9.932  -5.659  1.00  0.00     0.074 A 
ATOM     59  C   UNL     1      -9.264  10.088  -6.631  1.00  0.00     0.031 C 
ATOM     60  C   UNL     1     -10.688  10.664  -4.556  1.00  0.00     0.034 A 
BRANCH  47  61
ATOM     61  C   UNL     1      -6.174  13.281  -5.732  1.00  0.00     0.023 A 
ATOM     62  C   UNL     1      -6.844  14.449  -6.172  1.00  0.00     0.012 A 
ATOM     63  C   UNL     1      -5.315  12.657  -6.663  1.00  0.00     0.148 A 
ATOM     64  C   UNL     1      -6.732  14.918  -7.486  1.00  0.00     0.002 A 
ATOM     65  C   UNL     1      -5.145  13.172  -7.945  1.00  0.00     0.091 A 
ATOM     66  F   UNL     1      -4.751  11.482  -6.375  1.00  0.00    -0.205 F 
ATOM     67  C   UNL     1      -5.878  14.280  -8.374  1.00  0.00     0.022 A 
BRANCH  65  68
ATOM     68  S   UNL     1      -4.012  12.417  -9.120  1.00  0.00     0.127 S 
ATOM     69  O   UNL     1      -4.937  11.745 -10.027  1.00  0.00    -0.237 OA
ATOM     70  O   UNL     1      -3.335  13.588  -9.678  1.00  0.00    -0.237 OA
ATOM     71  O   UNL     1      -3.148  11.553  -8.325  1.00  0.00    -0.744 OA
ENDBRANCH  65  68
ENDBRANCH  47  61
BRANCH  48  72
ATOM     72  C   UNL     1      -9.347   5.603  -7.229  1.00  0.00     0.023 A 
ATOM     73  C   UNL     1     -10.291   5.634  -8.273  1.00  0.00     0.012 A 
ATOM     74  C   UNL     1      -8.243   4.728  -7.353  1.00  0.00     0.148 A 
ATOM     75  C   UNL     1     -10.119   4.856  -9.424  1.00  0.00     0.002 A 
ATOM     76  C   UNL     1      -8.079   3.953  -8.497  1.00  0.00     0.091 A 
ATOM     77  F   UNL     1      -7.306   4.728  -6.395  1.00  0.00    -0.205 F 
ATOM     78  C   UNL     1      -9.009   4.025  -9.542  1.00  0.00     0.022 A 
BRANCH  76  79
ATOM     79  S   UNL     1      -6.654   2.880  -8.726  1.00  0.00     0.127 S 
ATOM     80  O   UNL     1      -7.271   1.658  -9.243  1.00  0.00    -0.237 OA
ATOM     81  O   UNL     1      -5.866   3.628  -9.701  1.00  0.00    -0.237 OA
ATOM     82  O   UNL     1      -6.056   2.734  -7.405  1.00  0.00    -0.744 OA
ENDBRANCH  76  79
ENDBRANCH  48  72
BRANCH  60  83
ATOM     83  C   UNL     1     -11.749  10.124  -3.627  1.00  0.00     0.023 A 
ATOM     84  C   UNL     1     -11.596   8.903  -2.936  1.00  0.00     0.012 A 
ATOM     85  C   UNL     1     -12.828  10.959  -3.291  1.00  0.00     0.148 A 
ATOM     86  C   UNL     1     -12.507   8.517  -1.948  1.00  0.00     0.002 A 
ATOM     87  C   UNL     1     -13.703  10.595  -2.274  1.00  0.00     0.091 A 
ATOM     88  F   UNL     1     -12.962  12.119  -3.952  1.00  0.00    -0.205 F 
ATOM     89  C   UNL     1     -13.552   9.370  -1.607  1.00  0.00     0.022 A 
BRANCH  87  90
ATOM     90  S   UNL     1     -14.985  11.712  -1.699  1.00  0.00     0.127 S 
ATOM     91  O   UNL     1     -16.185  11.136  -2.301  1.00  0.00    -0.237 OA
ATOM     92  O   UNL     1     -14.901  11.568  -0.245  1.00  0.00    -0.237 OA
ATOM     93  O   UNL     1     -14.609  13.034  -2.186  1.00  0.00    -0.744 OA
ENDBRANCH  87  90
ENDBRANCH  60  83
ENDBRANCH  34  35
ENDBRANCH  26  29
ENDBRANCH  24  25
ENDBRANCH   1  24
TORSDOF 18
