REMARK SMILES O=C(C[C@H]1CN(C(=O)c2sccc2Br)CCO1)NCCCNC(=O)c1ccc(-c2c3nc(c(-c4cccc(S(=O)(=O)[O-])c4F)c4ccc([nH]4)c(-c4cccc(S(=O)(=O)[O-])c4F)c4nc(c(-c5cccc(S(=O)(=O)[O-])c5F)c5ccc2[nH]5)C=C4)C=C3)cc1
REMARK SMILES IDX 20 1 19 2 18 3 1 4 2 5 3 7 4 8 5 9 17 10 6 11 16 12 15 13
REMARK SMILES IDX 7 14 8 15 9 16 10 17 13 18 11 19 12 20 14 21 21 22 22 23
REMARK SMILES IDX 23 24 24 26 25 27 26 28 87 29 27 30 86 31 28 32 29 33 30 34
REMARK SMILES IDX 80 35 31 36 85 37 79 38 81 39 32 40 84 41 78 42 77 43 33 45
REMARK SMILES IDX 65 46 45 47 64 48 46 49 49 50 63 51 82 52 47 53 48 54 62 56
REMARK SMILES IDX 83 57 50 58 34 59 35 60 43 61 36 62 38 63 44 64 37 65 39 66
REMARK SMILES IDX 40 67 41 68 42 69 66 70 67 71 75 72 68 73 70 74 76 75 69 76
REMARK SMILES IDX 71 77 72 78 73 79 74 80 51 81 52 82 60 83 53 84 55 85 61 86
REMARK SMILES IDX 54 87 56 88 57 89 58 90 59 91
REMARK H PARENT 18 6 22 25 81 44 49 55
REMARK Flexibility Score: inf
ROOT
ATOM      1  C   UNL     1       2.172   3.321  -3.607  1.00  0.00     0.042 C 
ENDROOT
BRANCH   1   2
ATOM      2  C   UNL     1       3.479   2.572  -3.378  1.00  0.00     0.117 C 
BRANCH   2   3
ATOM      3  N   UNL     1       3.324   1.321  -2.666  1.00  0.00    -0.356 N 
ATOM      4  O   UNL     1       2.499   0.173  -4.458  1.00  0.00    -0.275 OA
ATOM      5  C   UNL     1       2.909   0.178  -3.299  1.00  0.00     0.222 C 
ATOM      6  H   UNL     1       3.523   1.290  -1.703  1.00  0.00     0.163 HD
BRANCH   5   7
ATOM      7  C   UNL     1       2.936  -1.101  -2.488  1.00  0.00     0.133 C 
BRANCH   7   8
ATOM      8  C   UNL     1       3.988  -1.282  -1.380  1.00  0.00     0.147 C 
ATOM      9  C   UNL     1       4.524  -2.737  -1.330  1.00  0.00     0.152 C 
ATOM     10  O   UNL     1       5.075  -0.336  -1.415  1.00  0.00    -0.374 OA
ATOM     11  N   UNL     1       5.504  -2.965  -2.399  1.00  0.00    -0.333 N 
ATOM     12  C   UNL     1       5.998  -0.568  -2.494  1.00  0.00     0.182 C 
ATOM     13  C   UNL     1       6.578  -1.976  -2.438  1.00  0.00     0.148 C 
BRANCH  11  14
ATOM     14  C   UNL     1       5.457  -3.967  -3.366  1.00  0.00     0.265 C 
ATOM     15  O   UNL     1       6.200  -3.940  -4.348  1.00  0.00    -0.268 OA
BRANCH  14  16
ATOM     16  C   UNL     1       4.540  -5.062  -3.152  1.00  0.00     0.106 A 
ATOM     17  S   UNL     1       5.005  -6.320  -2.080  1.00  0.00    -0.137 S 
ATOM     18  C   UNL     1       3.338  -5.346  -3.757  1.00  0.00     0.041 A 
ATOM     19  C   UNL     1       3.589  -7.219  -2.422  1.00  0.00     0.067 A 
ATOM     20  C   UNL     1       2.772  -6.575  -3.326  1.00  0.00     0.028 A 
ATOM     21  Br  UNL     1       2.458  -4.278  -5.041  1.00  0.00    -0.049 Br
ENDBRANCH  14  16
ENDBRANCH  11  14
ENDBRANCH   7   8
ENDBRANCH   5   7
ENDBRANCH   2   3
ENDBRANCH   1   2
BRANCH   1  22
ATOM     22  C   UNL     1       1.392   3.644  -2.337  1.00  0.00     0.118 C 
BRANCH  22  23
ATOM     23  N   UNL     1       2.160   4.421  -1.374  1.00  0.00    -0.352 N 
ATOM     24  C   UNL     1       1.849   5.576  -0.704  1.00  0.00     0.251 C 
ATOM     25  H   UNL     1       3.052   4.056  -1.170  1.00  0.00     0.163 HD
ATOM     26  O   UNL     1       2.717   6.121  -0.024  1.00  0.00    -0.269 OA
BRANCH  24  27
ATOM     27  C   UNL     1       0.499   6.180  -0.794  1.00  0.00     0.039 A 
ATOM     28  C   UNL     1       0.399   7.574  -0.860  1.00  0.00     0.014 A 
ATOM     29  C   UNL     1      -0.662   5.403  -0.761  1.00  0.00     0.014 A 
ATOM     30  C   UNL     1      -0.857   8.183  -0.938  1.00  0.00     0.010 A 
ATOM     31  C   UNL     1      -1.911   6.007  -0.902  1.00  0.00     0.010 A 
ATOM     32  C   UNL     1      -2.022   7.402  -0.980  1.00  0.00    -0.014 A 
BRANCH  32  33
ATOM     33  C   UNL     1      -3.361   8.035  -1.096  1.00  0.00     0.031 A 
ATOM     34  C   UNL     1      -4.349   7.940   0.034  1.00  0.00     0.074 A 
ATOM     35  C   UNL     1      -3.713   8.638  -2.249  1.00  0.00     0.049 A 
ATOM     36  N   UNL     1      -5.565   8.418   0.107  1.00  0.00    -0.248 NA
ATOM     37  C   UNL     1      -3.929   7.189   1.229  1.00  0.00     0.031 C 
ATOM     38  C   UNL     1      -2.880   8.717  -3.450  1.00  0.00     0.029 A 
ATOM     39  N   UNL     1      -4.872   9.280  -2.605  1.00  0.00    -0.354 N 
ATOM     40  C   UNL     1      -6.067   7.998   1.332  1.00  0.00     0.074 A 
ATOM     41  C   UNL     1      -5.034   7.203   1.961  1.00  0.00     0.031 C 
ATOM     42  C   UNL     1      -3.552   9.377  -4.408  1.00  0.00     0.029 A 
ATOM     43  C   UNL     1      -4.864   9.761  -3.893  1.00  0.00     0.049 A 
ATOM     44  H   UNL     1      -5.638   9.386  -1.995  1.00  0.00     0.167 HD
ATOM     45  C   UNL     1      -7.264   8.275   1.901  1.00  0.00     0.034 A 
ATOM     46  C   UNL     1      -5.800  10.448  -4.576  1.00  0.00     0.034 A 
ATOM     47  C   UNL     1      -8.264   9.122   1.307  1.00  0.00     0.049 A 
ATOM     48  C   UNL     1      -7.077  10.834  -3.882  1.00  0.00     0.074 A 
ATOM     49  C   UNL     1      -9.475   9.530   1.838  1.00  0.00     0.029 A 
ATOM     50  N   UNL     1      -8.162   9.702   0.052  1.00  0.00    -0.354 N 
ATOM     51  N   UNL     1      -7.464  10.566  -2.658  1.00  0.00    -0.248 NA
ATOM     52  C   UNL     1      -8.027  11.656  -4.645  1.00  0.00     0.031 C 
ATOM     53  C   UNL     1     -10.100  10.368   0.907  1.00  0.00     0.029 A 
ATOM     54  C   UNL     1      -9.280  10.475  -0.204  1.00  0.00     0.049 A 
ATOM     55  H   UNL     1      -7.405   9.581  -0.565  1.00  0.00     0.167 HD
ATOM     56  C   UNL     1      -8.682  11.213  -2.493  1.00  0.00     0.074 A 
ATOM     57  C   UNL     1      -8.960  11.905  -3.735  1.00  0.00     0.031 C 
ATOM     58  C   UNL     1      -9.508  11.216  -1.417  1.00  0.00     0.034 A 
BRANCH  45  59
ATOM     59  C   UNL     1      -7.523   7.725   3.277  1.00  0.00     0.023 A 
ATOM     60  C   UNL     1      -6.894   8.330   4.384  1.00  0.00     0.012 A 
ATOM     61  C   UNL     1      -8.411   6.653   3.487  1.00  0.00     0.148 A 
ATOM     62  C   UNL     1      -7.122   7.860   5.676  1.00  0.00     0.002 A 
ATOM     63  C   UNL     1      -8.659   6.210   4.782  1.00  0.00     0.091 A 
ATOM     64  F   UNL     1      -8.978   6.069   2.421  1.00  0.00    -0.205 F 
ATOM     65  C   UNL     1      -8.012   6.808   5.876  1.00  0.00     0.022 A 
BRANCH  63  66
ATOM     66  S   UNL     1      -9.839   4.901   5.135  1.00  0.00     0.127 S 
ATOM     67  O   UNL     1      -8.959   3.745   5.295  1.00  0.00    -0.237 OA
ATOM     68  O   UNL     1     -10.466   5.365   6.373  1.00  0.00    -0.237 OA
ATOM     69  O   UNL     1     -10.735   4.863   3.987  1.00  0.00    -0.744 OA
ENDBRANCH  63  66
ENDBRANCH  45  59
BRANCH  46  70
ATOM     70  C   UNL     1      -5.506  10.919  -5.958  1.00  0.00     0.023 A 
ATOM     71  C   UNL     1      -5.231  12.285  -6.169  1.00  0.00     0.012 A 
ATOM     72  C   UNL     1      -5.451  10.031  -7.048  1.00  0.00     0.148 A 
ATOM     73  C   UNL     1      -4.930  12.761  -7.444  1.00  0.00     0.002 A 
ATOM     74  C   UNL     1      -5.105  10.505  -8.309  1.00  0.00     0.091 A 
ATOM     75  F   UNL     1      -5.734   8.738  -6.833  1.00  0.00    -0.205 F 
ATOM     76  C   UNL     1      -4.856  11.871  -8.512  1.00  0.00     0.022 A 
BRANCH  74  77
ATOM     77  S   UNL     1      -4.866   9.396  -9.702  1.00  0.00     0.127 S 
ATOM     78  O   UNL     1      -6.149   9.499 -10.392  1.00  0.00    -0.237 OA
ATOM     79  O   UNL     1      -3.739  10.013 -10.404  1.00  0.00    -0.237 OA
ATOM     80  O   UNL     1      -4.558   8.103  -9.107  1.00  0.00    -0.744 OA
ENDBRANCH  74  77
ENDBRANCH  46  70
BRANCH  58  81
ATOM     81  C   UNL     1     -10.781  12.010  -1.521  1.00  0.00     0.023 A 
ATOM     82  C   UNL     1     -11.858  11.494  -2.268  1.00  0.00     0.012 A 
ATOM     83  C   UNL     1     -10.940  13.224  -0.826  1.00  0.00     0.148 A 
ATOM     84  C   UNL     1     -13.065  12.188  -2.342  1.00  0.00     0.002 A 
ATOM     85  C   UNL     1     -12.159  13.892  -0.875  1.00  0.00     0.091 A 
ATOM     86  F   UNL     1      -9.898  13.715  -0.139  1.00  0.00    -0.205 F 
ATOM     87  C   UNL     1     -13.220  13.380  -1.638  1.00  0.00     0.022 A 
BRANCH  85  88
ATOM     88  S   UNL     1     -12.440  15.387   0.080  1.00  0.00     0.127 S 
ATOM     89  O   UNL     1     -12.037  16.429  -0.862  1.00  0.00    -0.237 OA
ATOM     90  O   UNL     1     -13.878  15.336   0.349  1.00  0.00    -0.237 OA
ATOM     91  O   UNL     1     -11.608  15.241   1.267  1.00  0.00    -0.744 OA
ENDBRANCH  85  88
ENDBRANCH  58  81
ENDBRANCH  32  33
ENDBRANCH  24  27
ENDBRANCH  22  23
ENDBRANCH   1  22
TORSDOF 16
