REMARK SMILES O=C(NCCCNC(=O)[C@@H]1C[N@H+](Cc2ccco2)CC12CCOCC2)c1ccc(-c2c3nc(c(-c4cccc(S(=O)(=O)[O-])c4F)c4ccc([nH]4)c(-c4cccc(S(=O)(=O)[O-])c4F)c4nc(c(-c5cccc(S(=O)(=O)[O-])c5F)c5ccc2[nH]5)C=C4)C=C3)cc1
REMARK SMILES IDX 4 1 3 2 1 3 2 4 26 6 27 7 88 8 28 9 87 10 29 11 30 12 31 13
REMARK SMILES IDX 81 14 32 15 86 16 80 17 82 18 33 19 85 20 79 21 78 22 34 24
REMARK SMILES IDX 66 25 46 26 65 27 47 28 50 29 64 30 83 31 48 32 49 33 63 35
REMARK SMILES IDX 84 36 51 37 35 38 36 39 44 40 37 41 39 42 45 43 38 44 40 45
REMARK SMILES IDX 41 46 42 47 43 48 67 49 68 50 76 51 69 52 71 53 77 54 70 55
REMARK SMILES IDX 72 56 73 57 74 58 75 59 52 60 53 61 61 62 54 63 56 64 62 65
REMARK SMILES IDX 55 66 57 67 58 68 59 69 60 70 5 71 6 72 7 73 8 74 9 76 10 77
REMARK SMILES IDX 11 78 20 79 12 80 19 81 21 82 25 83 22 85 24 86 23 87 13 88
REMARK SMILES IDX 14 89 15 90 18 91 16 92 17 93
REMARK H PARENT 3 5 82 23 50 34 7 75 12 84
REMARK Flexibility Score: inf
ROOT
ATOM      1  C   UNL     1       3.978  -8.337   0.731  1.00  0.00     0.118 C 
ENDROOT
BRANCH   1   2
ATOM      2  N   UNL     1       4.351  -9.735   0.537  1.00  0.00    -0.352 N 
ATOM      3  O   UNL     1       4.736 -11.883   1.148  1.00  0.00    -0.269 OA
ATOM      4  C   UNL     1       4.295 -10.784   1.437  1.00  0.00     0.251 C 
ATOM      5  H   UNL     1       4.689  -9.963  -0.359  1.00  0.00     0.163 HD
BRANCH   4   6
ATOM      6  C   UNL     1       3.745 -10.508   2.783  1.00  0.00     0.039 A 
ATOM      7  C   UNL     1       2.566  -9.779   2.894  1.00  0.00     0.014 A 
ATOM      8  C   UNL     1       4.503 -10.809   3.914  1.00  0.00     0.014 A 
ATOM      9  C   UNL     1       2.318  -9.092   4.071  1.00  0.00     0.010 A 
ATOM     10  C   UNL     1       4.136 -10.260   5.148  1.00  0.00     0.010 A 
ATOM     11  C   UNL     1       3.084  -9.335   5.224  1.00  0.00    -0.014 A 
BRANCH  11  12
ATOM     12  C   UNL     1       2.724  -8.634   6.488  1.00  0.00     0.031 A 
ATOM     13  C   UNL     1       3.727  -7.814   7.263  1.00  0.00     0.074 A 
ATOM     14  C   UNL     1       1.450  -8.722   6.924  1.00  0.00     0.049 A 
ATOM     15  N   UNL     1       3.562  -7.178   8.395  1.00  0.00    -0.248 NA
ATOM     16  C   UNL     1       5.090  -7.704   6.716  1.00  0.00     0.031 C 
ATOM     17  C   UNL     1       0.394  -9.510   6.279  1.00  0.00     0.029 A 
ATOM     18  N   UNL     1       0.815  -8.135   7.987  1.00  0.00    -0.354 N 
ATOM     19  C   UNL     1       4.810  -6.666   8.738  1.00  0.00     0.074 A 
ATOM     20  C   UNL     1       5.722  -7.047   7.681  1.00  0.00     0.031 C 
ATOM     21  C   UNL     1      -0.767  -9.297   6.907  1.00  0.00     0.029 A 
ATOM     22  C   UNL     1      -0.523  -8.446   8.063  1.00  0.00     0.049 A 
ATOM     23  H   UNL     1       1.271  -7.548   8.632  1.00  0.00     0.167 HD
ATOM     24  C   UNL     1       5.158  -5.942   9.829  1.00  0.00     0.034 A 
ATOM     25  C   UNL     1      -1.455  -8.115   8.974  1.00  0.00     0.034 A 
ATOM     26  C   UNL     1       4.226  -5.497  10.834  1.00  0.00     0.049 A 
ATOM     27  C   UNL     1      -1.051  -7.258  10.133  1.00  0.00     0.074 A 
ATOM     28  C   UNL     1       4.470  -4.703  11.942  1.00  0.00     0.029 A 
ATOM     29  N   UNL     1       2.872  -5.795  10.849  1.00  0.00    -0.354 N 
ATOM     30  N   UNL     1       0.117  -6.726  10.394  1.00  0.00    -0.248 NA
ATOM     31  C   UNL     1      -2.094  -6.947  11.118  1.00  0.00     0.031 C 
ATOM     32  C   UNL     1       3.264  -4.530  12.631  1.00  0.00     0.029 A 
ATOM     33  C   UNL     1       2.267  -5.203  11.945  1.00  0.00     0.049 A 
ATOM     34  H   UNL     1       2.409  -6.348  10.178  1.00  0.00     0.167 HD
ATOM     35  C   UNL     1      -0.051  -6.002  11.565  1.00  0.00     0.074 A 
ATOM     36  C   UNL     1      -1.444  -6.137  11.943  1.00  0.00     0.031 C 
ATOM     37  C   UNL     1       0.870  -5.308  12.277  1.00  0.00     0.034 A 
BRANCH  24  38
ATOM     38  C   UNL     1       6.606  -5.551   9.994  1.00  0.00     0.023 A 
ATOM     39  C   UNL     1       7.149  -4.516   9.206  1.00  0.00     0.012 A 
ATOM     40  C   UNL     1       7.406  -6.150  10.990  1.00  0.00     0.148 A 
ATOM     41  C   UNL     1       8.468  -4.100   9.390  1.00  0.00     0.002 A 
ATOM     42  C   UNL     1       8.708  -5.703  11.193  1.00  0.00     0.091 A 
ATOM     43  F   UNL     1       6.883  -7.148  11.716  1.00  0.00    -0.205 F 
ATOM     44  C   UNL     1       9.243  -4.684  10.389  1.00  0.00     0.022 A 
BRANCH  42  45
ATOM     45  S   UNL     1       9.752  -6.344  12.509  1.00  0.00     0.127 S 
ATOM     46  O   UNL     1      10.656  -7.221  11.767  1.00  0.00    -0.237 OA
ATOM     47  O   UNL     1      10.377  -5.128  13.032  1.00  0.00    -0.237 OA
ATOM     48  O   UNL     1       8.852  -7.008  13.441  1.00  0.00    -0.744 OA
ENDBRANCH  42  45
ENDBRANCH  24  38
BRANCH  25  49
ATOM     49  C   UNL     1      -2.859  -8.573   8.786  1.00  0.00     0.023 A 
ATOM     50  C   UNL     1      -3.854  -7.632   8.463  1.00  0.00     0.012 A 
ATOM     51  C   UNL     1      -3.196  -9.940   8.836  1.00  0.00     0.148 A 
ATOM     52  C   UNL     1      -5.162  -8.043   8.206  1.00  0.00     0.002 A 
ATOM     53  C   UNL     1      -4.483 -10.348   8.511  1.00  0.00     0.091 A 
ATOM     54  F   UNL     1      -2.240 -10.821   9.165  1.00  0.00    -0.205 F 
ATOM     55  C   UNL     1      -5.473  -9.401   8.212  1.00  0.00     0.022 A 
BRANCH  53  56
ATOM     56  S   UNL     1      -4.906 -12.085   8.327  1.00  0.00     0.127 S 
ATOM     57  O   UNL     1      -5.598 -12.360   9.583  1.00  0.00    -0.237 OA
ATOM     58  O   UNL     1      -5.763 -12.070   7.140  1.00  0.00    -0.237 OA
ATOM     59  O   UNL     1      -3.635 -12.770   8.131  1.00  0.00    -0.744 OA
ENDBRANCH  53  56
ENDBRANCH  25  49
BRANCH  37  60
ATOM     60  C   UNL     1       0.389  -4.622  13.525  1.00  0.00     0.023 A 
ATOM     61  C   UNL     1       0.103  -5.386  14.673  1.00  0.00     0.012 A 
ATOM     62  C   UNL     1       0.258  -3.221  13.573  1.00  0.00     0.148 A 
ATOM     63  C   UNL     1      -0.341  -4.769  15.841  1.00  0.00     0.002 A 
ATOM     64  C   UNL     1      -0.142  -2.609  14.755  1.00  0.00     0.091 A 
ATOM     65  F   UNL     1       0.509  -2.514  12.462  1.00  0.00    -0.205 F 
ATOM     66  C   UNL     1      -0.453  -3.381  15.886  1.00  0.00     0.022 A 
BRANCH  64  67
ATOM     67  S   UNL     1      -0.228  -0.822  14.915  1.00  0.00     0.127 S 
ATOM     68  O   UNL     1      -1.658  -0.574  14.743  1.00  0.00    -0.237 OA
ATOM     69  O   UNL     1       0.271  -0.602  16.273  1.00  0.00    -0.237 OA
ATOM     70  O   UNL     1       0.636  -0.293  13.868  1.00  0.00    -0.744 OA
ENDBRANCH  64  67
ENDBRANCH  37  60
ENDBRANCH  11  12
ENDBRANCH   4   6
ENDBRANCH   1   2
BRANCH   1  71
ATOM     71  C   UNL     1       5.149  -7.388   0.654  1.00  0.00     0.042 C 
BRANCH  71  72
ATOM     72  C   UNL     1       5.575  -7.154  -0.776  1.00  0.00     0.117 C 
BRANCH  72  73
ATOM     73  N   UNL     1       4.619  -6.384  -1.564  1.00  0.00    -0.356 N 
ATOM     74  C   UNL     1       4.691  -5.301  -2.378  1.00  0.00     0.229 C 
ATOM     75  H   UNL     1       3.703  -6.735  -1.487  1.00  0.00     0.163 HD
ATOM     76  O   UNL     1       3.631  -5.007  -2.954  1.00  0.00    -0.275 OA
BRANCH  74  77
ATOM     77  C   UNL     1       5.938  -4.466  -2.714  1.00  0.00     0.145 C 
ATOM     78  C   UNL     1       6.611  -5.025  -3.957  1.00  0.00     0.276 C 
ATOM     79  C   UNL     1       7.101  -4.295  -1.722  1.00  0.00     0.041 C 
ATOM     80  N   UNL     1       7.591  -5.964  -3.447  1.00  0.00    -0.327 N 
ATOM     81  C   UNL     1       8.046  -5.486  -2.125  1.00  0.00     0.270 C 
ATOM     82  C   UNL     1       7.891  -2.969  -1.988  1.00  0.00     0.042 C 
ATOM     83  C   UNL     1       6.558  -4.105  -0.288  1.00  0.00     0.042 C 
ATOM     84  H   UNL     1       8.394  -5.951  -4.076  1.00  0.00     0.348 HD
ATOM     85  C   UNL     1       8.924  -2.699  -0.885  1.00  0.00     0.161 C 
ATOM     86  C   UNL     1       7.640  -3.844   0.737  1.00  0.00     0.161 C 
ATOM     87  O   UNL     1       8.322  -2.643   0.403  1.00  0.00    -0.381 OA
BRANCH  80  88
ATOM     88  C   UNL     1       7.429  -7.409  -3.697  1.00  0.00     0.338 C 
BRANCH  88  89
ATOM     89  C   UNL     1       6.057  -7.979  -3.993  1.00  0.00     0.157 A 
ATOM     90  C   UNL     1       5.065  -7.739  -4.930  1.00  0.00     0.052 A 
ATOM     91  O   UNL     1       5.661  -9.044  -3.220  1.00  0.00    -0.463 OA
ATOM     92  C   UNL     1       3.959  -8.559  -4.593  1.00  0.00     0.042 A 
ATOM     93  C   UNL     1       4.379  -9.347  -3.552  1.00  0.00     0.195 A 
ENDBRANCH  88  89
ENDBRANCH  80  88
ENDBRANCH  74  77
ENDBRANCH  72  73
ENDBRANCH  71  72
ENDBRANCH   1  71
TORSDOF 15
