REMARK SMILES O=C(C[NH+]1CCN(c2nccc(N3CCCCC3)n2)CC1)NCCCNC(=O)c1ccc(-c2c3nc(c(-c4cccc(S(=O)(=O)[O-])c4F)c4ccc([nH]4)c(-c4cccc(S(=O)(=O)[O-])c4F)c4nc(c(-c5cccc(S(=O)(=O)[O-])c5F)c5ccc2[nH]5)C=C4)C=C3)cc1
REMARK SMILES IDX 24 1 23 2 22 3 1 4 2 5 3 7 4 8 5 9 21 10 6 12 20 13 7 14
REMARK SMILES IDX 8 15 9 16 19 17 10 18 12 19 11 20 13 21 14 22 18 23 15 24
REMARK SMILES IDX 17 25 16 26 25 27 26 28 27 29 28 31 29 32 30 33 91 34 31 35
REMARK SMILES IDX 90 36 32 37 33 38 34 39 84 40 35 41 89 42 83 43 85 44 36 45
REMARK SMILES IDX 88 46 82 47 81 48 37 50 69 51 49 52 68 53 50 54 53 55 67 56
REMARK SMILES IDX 86 57 51 58 52 59 66 61 87 62 54 63 38 64 39 65 47 66 40 67
REMARK SMILES IDX 42 68 48 69 41 70 43 71 44 72 45 73 46 74 70 75 71 76 79 77
REMARK SMILES IDX 72 78 74 79 80 80 73 81 75 82 76 83 77 84 78 85 55 86 56 87
REMARK SMILES IDX 64 88 57 89 59 90 65 91 58 92 60 93 61 94 62 95 63 96
REMARK H PARENT 22 6 4 11 26 30 85 49 53 60
REMARK Flexibility Score: inf
ROOT
ATOM      1  C   UNL     1       2.087   0.130   3.732  1.00  0.00     0.042 C 
ENDROOT
BRANCH   1   2
ATOM      2  C   UNL     1       1.768   0.722   2.365  1.00  0.00     0.118 C 
BRANCH   2   3
ATOM      3  N   UNL     1       2.435   0.040   1.274  1.00  0.00    -0.351 N 
ATOM      4  O   UNL     1       0.953   0.754  -0.328  1.00  0.00    -0.269 OA
ATOM      5  C   UNL     1       1.977   0.147  -0.025  1.00  0.00     0.275 C 
ATOM      6  H   UNL     1       3.229  -0.509   1.462  1.00  0.00     0.163 HD
BRANCH   5   7
ATOM      7  C   UNL     1       2.867  -0.537  -1.063  1.00  0.00     0.363 C 
BRANCH   7   8
ATOM      8  N   UNL     1       3.974   0.277  -1.605  1.00  0.00    -0.324 N 
ATOM      9  C   UNL     1       4.087   1.677  -1.153  1.00  0.00     0.284 C 
ATOM     10  C   UNL     1       5.287  -0.385  -1.479  1.00  0.00     0.284 C 
ATOM     11  H   UNL     1       3.695   0.342  -2.584  1.00  0.00     0.348 HD
ATOM     12  C   UNL     1       4.780   1.940   0.210  1.00  0.00     0.181 C 
ATOM     13  C   UNL     1       5.883  -0.338  -0.062  1.00  0.00     0.181 C 
ATOM     14  N   UNL     1       5.876   1.019   0.448  1.00  0.00    -0.329 N 
BRANCH  14  15
ATOM     15  C   UNL     1       6.829   1.357   1.370  1.00  0.00     0.227 A 
ATOM     16  N   UNL     1       6.452   1.774   2.583  1.00  0.00    -0.221 NA
ATOM     17  N   UNL     1       8.104   1.298   0.969  1.00  0.00    -0.196 NA
ATOM     18  C   UNL     1       7.439   2.085   3.442  1.00  0.00     0.119 A 
ATOM     19  C   UNL     1       9.060   1.662   1.835  1.00  0.00     0.134 A 
ATOM     20  C   UNL     1       8.769   2.015   3.130  1.00  0.00     0.067 A 
BRANCH  19  21
ATOM     21  N   UNL     1      10.347   1.804   1.369  1.00  0.00    -0.356 N 
ATOM     22  C   UNL     1      10.548   2.615   0.181  1.00  0.00     0.118 C 
ATOM     23  C   UNL     1      11.394   0.912   1.829  1.00  0.00     0.118 C 
ATOM     24  C   UNL     1      11.051   1.764  -0.977  1.00  0.00     0.022 C 
ATOM     25  C   UNL     1      11.898   0.059   0.664  1.00  0.00     0.022 C 
ATOM     26  C   UNL     1      12.249   0.920  -0.549  1.00  0.00     0.004 C 
ENDBRANCH  19  21
ENDBRANCH  14  15
ENDBRANCH   7   8
ENDBRANCH   5   7
ENDBRANCH   2   3
ENDBRANCH   1   2
BRANCH   1  27
ATOM     27  C   UNL     1       3.532   0.294   4.195  1.00  0.00     0.118 C 
BRANCH  27  28
ATOM     28  N   UNL     1       3.909   1.674   4.444  1.00  0.00    -0.352 N 
ATOM     29  C   UNL     1       4.686   2.216   5.437  1.00  0.00     0.251 C 
ATOM     30  H   UNL     1       3.550   2.324   3.798  1.00  0.00     0.163 HD
ATOM     31  O   UNL     1       4.838   3.437   5.480  1.00  0.00    -0.269 OA
BRANCH  29  32
ATOM     32  C   UNL     1       5.363   1.372   6.455  1.00  0.00     0.039 A 
ATOM     33  C   UNL     1       5.499   1.892   7.746  1.00  0.00     0.014 A 
ATOM     34  C   UNL     1       5.912   0.119   6.161  1.00  0.00     0.014 A 
ATOM     35  C   UNL     1       6.085   1.123   8.752  1.00  0.00     0.010 A 
ATOM     36  C   UNL     1       6.424  -0.682   7.183  1.00  0.00     0.010 A 
ATOM     37  C   UNL     1       6.496  -0.196   8.494  1.00  0.00    -0.014 A 
BRANCH  37  38
ATOM     38  C   UNL     1       6.880  -1.085   9.621  1.00  0.00     0.031 A 
ATOM     39  C   UNL     1       8.260  -1.664   9.746  1.00  0.00     0.074 A 
ATOM     40  C   UNL     1       5.930  -1.411  10.522  1.00  0.00     0.049 A 
ATOM     41  N   UNL     1       8.762  -2.380  10.720  1.00  0.00    -0.248 NA
ATOM     42  C   UNL     1       9.192  -1.433   8.632  1.00  0.00     0.031 C 
ATOM     43  C   UNL     1       4.523  -1.006  10.444  1.00  0.00     0.029 A 
ATOM     44  N   UNL     1       5.995  -2.156  11.671  1.00  0.00    -0.354 N 
ATOM     45  C   UNL     1      10.057  -2.700  10.334  1.00  0.00     0.074 A 
ATOM     46  C   UNL     1      10.253  -2.130   9.017  1.00  0.00     0.031 C 
ATOM     47  C   UNL     1       3.867  -1.478  11.515  1.00  0.00     0.029 A 
ATOM     48  C   UNL     1       4.796  -2.241  12.340  1.00  0.00     0.049 A 
ATOM     49  H   UNL     1       6.821  -2.588  11.988  1.00  0.00     0.167 HD
ATOM     50  C   UNL     1      11.004  -3.384  11.023  1.00  0.00     0.034 A 
ATOM     51  C   UNL     1       4.478  -2.855  13.495  1.00  0.00     0.034 A 
ATOM     52  C   UNL     1      10.802  -3.940  12.336  1.00  0.00     0.049 A 
ATOM     53  C   UNL     1       5.562  -3.551  14.267  1.00  0.00     0.074 A 
ATOM     54  C   UNL     1      11.720  -4.577  13.154  1.00  0.00     0.029 A 
ATOM     55  N   UNL     1       9.595  -3.943  13.020  1.00  0.00    -0.354 N 
ATOM     56  N   UNL     1       6.832  -3.685  13.969  1.00  0.00    -0.248 NA
ATOM     57  C   UNL     1       5.180  -4.139  15.557  1.00  0.00     0.031 C 
ATOM     58  C   UNL     1      11.059  -4.994  14.315  1.00  0.00     0.029 A 
ATOM     59  C   UNL     1       9.740  -4.579  14.242  1.00  0.00     0.049 A 
ATOM     60  H   UNL     1       8.756  -3.550  12.685  1.00  0.00     0.167 HD
ATOM     61  C   UNL     1       7.408  -4.342  15.049  1.00  0.00     0.074 A 
ATOM     62  C   UNL     1       6.353  -4.549  16.020  1.00  0.00     0.031 C 
ATOM     63  C   UNL     1       8.691  -4.750  15.216  1.00  0.00     0.034 A 
BRANCH  50  64
ATOM     64  C   UNL     1      12.365  -3.533  10.388  1.00  0.00     0.023 A 
ATOM     65  C   UNL     1      13.198  -2.401  10.255  1.00  0.00     0.012 A 
ATOM     66  C   UNL     1      12.850  -4.793   9.988  1.00  0.00     0.148 A 
ATOM     67  C   UNL     1      14.473  -2.515   9.701  1.00  0.00     0.002 A 
ATOM     68  C   UNL     1      14.140  -4.907   9.480  1.00  0.00     0.091 A 
ATOM     69  F   UNL     1      12.042  -5.856  10.105  1.00  0.00    -0.205 F 
ATOM     70  C   UNL     1      14.947  -3.768   9.324  1.00  0.00     0.022 A 
BRANCH  68  71
ATOM     71  S   UNL     1      14.877  -6.484   9.037  1.00  0.00     0.127 S 
ATOM     72  O   UNL     1      14.956  -6.374   7.582  1.00  0.00    -0.237 OA
ATOM     73  O   UNL     1      16.166  -6.425   9.725  1.00  0.00    -0.237 OA
ATOM     74  O   UNL     1      13.966  -7.508   9.537  1.00  0.00    -0.744 OA
ENDBRANCH  68  71
ENDBRANCH  50  64
BRANCH  51  75
ATOM     75  C   UNL     1       3.088  -2.769  14.025  1.00  0.00     0.023 A 
ATOM     76  C   UNL     1       2.829  -2.010  15.183  1.00  0.00     0.012 A 
ATOM     77  C   UNL     1       2.019  -3.410  13.370  1.00  0.00     0.148 A 
ATOM     78  C   UNL     1       1.536  -1.923  15.701  1.00  0.00     0.002 A 
ATOM     79  C   UNL     1       0.726  -3.270  13.857  1.00  0.00     0.091 A 
ATOM     80  F   UNL     1       2.288  -4.132  12.273  1.00  0.00    -0.205 F 
ATOM     81  C   UNL     1       0.484  -2.544  15.034  1.00  0.00     0.022 A 
BRANCH  79  82
ATOM     82  S   UNL     1      -0.705  -3.919  12.987  1.00  0.00     0.127 S 
ATOM     83  O   UNL     1      -1.124  -5.005  13.869  1.00  0.00    -0.237 OA
ATOM     84  O   UNL     1      -1.597  -2.760  12.967  1.00  0.00    -0.237 OA
ATOM     85  O   UNL     1      -0.216  -4.322  11.675  1.00  0.00    -0.744 OA
ENDBRANCH  79  82
ENDBRANCH  51  75
BRANCH  63  86
ATOM     86  C   UNL     1       9.031  -5.431  16.517  1.00  0.00     0.023 A 
ATOM     87  C   UNL     1       8.517  -6.713  16.801  1.00  0.00     0.012 A 
ATOM     88  C   UNL     1       9.880  -4.808  17.452  1.00  0.00     0.148 A 
ATOM     89  C   UNL     1       8.795  -7.337  18.016  1.00  0.00     0.002 A 
ATOM     90  C   UNL     1      10.200  -5.460  18.637  1.00  0.00     0.091 A 
ATOM     91  F   UNL     1      10.346  -3.580  17.177  1.00  0.00    -0.205 F 
ATOM     92  C   UNL     1       9.644  -6.715  18.929  1.00  0.00     0.022 A 
BRANCH  90  93
ATOM     93  S   UNL     1      11.363  -4.777  19.822  1.00  0.00     0.127 S 
ATOM     94  O   UNL     1      10.471  -4.309  20.881  1.00  0.00    -0.237 OA
ATOM     95  O   UNL     1      12.170  -5.946  20.176  1.00  0.00    -0.237 OA
ATOM     96  O   UNL     1      12.093  -3.737  19.110  1.00  0.00    -0.744 OA
ENDBRANCH  90  93
ENDBRANCH  63  86
ENDBRANCH  37  38
ENDBRANCH  29  32
ENDBRANCH  27  28
ENDBRANCH   1  27
TORSDOF 16
