REMARK SMILES C[C@H](Sc1ccccn1)C(=O)N[C@H](C(=O)NCCCNC(=O)c1ccc(-c2c3nc(c(-c4cccc(S(=O)(=O)[O-])c4F)c4ccc([nH]4)c(-c4cccc(S(=O)(=O)[O-])c4F)c4nc(c(-c5cccc(S(=O)(=O)[O-])c5F)c5ccc2[nH]5)C=C4)C=C3)cc1)c1ccc(F)cc1
REMARK SMILES IDX 17 1 16 2 14 3 15 4 13 6 12 7 10 8 11 9 2 11 1 12 3 13 4 14
REMARK SMILES IDX 5 15 9 16 6 17 8 18 7 19 86 20 87 21 92 22 88 23 91 24 89 25
REMARK SMILES IDX 90 26 18 27 19 28 20 29 21 30 22 32 23 33 24 34 85 35 25 36
REMARK SMILES IDX 84 37 26 38 27 39 28 40 78 41 29 42 83 43 77 44 79 45 30 46
REMARK SMILES IDX 82 47 76 48 75 49 31 51 63 52 43 53 62 54 44 55 47 56 61 57
REMARK SMILES IDX 80 58 45 59 46 60 60 62 81 63 48 64 32 65 33 66 41 67 34 68
REMARK SMILES IDX 36 69 42 70 35 71 37 72 38 73 39 74 40 75 64 76 65 77 73 78
REMARK SMILES IDX 66 79 68 80 74 81 67 82 69 83 70 84 71 85 72 86 49 87 50 88
REMARK SMILES IDX 58 89 51 90 53 91 59 92 52 93 54 94 55 95 56 96 57 97
REMARK H PARENT 16 5 12 10 20 31 79 50 47 61
REMARK Flexibility Score: inf
ROOT
ATOM      1  C   UNL     1      -0.118  -0.254   0.408  1.00  0.00     0.117 C 
ENDROOT
BRANCH   1   2
ATOM      2  N   UNL     1      -1.091   0.755   0.022  1.00  0.00    -0.354 N 
ATOM      3  C   UNL     1      -1.351   1.323  -1.200  1.00  0.00     0.247 C 
ATOM      4  O   UNL     1      -2.062   2.327  -1.203  1.00  0.00    -0.272 OA
ATOM      5  H   UNL     1      -1.656   1.084   0.758  1.00  0.00     0.163 HD
BRANCH   3   6
ATOM      6  C   UNL     1      -0.772   0.659  -2.478  1.00  0.00     0.202 C 
BRANCH   6   7
ATOM      7  N   UNL     1      -1.428  -0.657  -2.643  1.00  0.00    -0.340 N 
ATOM      8  C   UNL     1      -2.767  -0.913  -2.716  1.00  0.00     0.234 C 
ATOM      9  O   UNL     1      -3.253  -1.512  -1.747  1.00  0.00    -0.274 OA
ATOM     10  H   UNL     1      -0.831  -1.437  -2.707  1.00  0.00     0.164 HD
BRANCH   8  11
ATOM     11  C   UNL     1      -3.540  -0.818  -4.021  1.00  0.00     0.139 C 
ATOM     12  C   UNL     1      -2.857  -1.512  -5.203  1.00  0.00     0.030 C 
BRANCH  11  13
ATOM     13  S   UNL     1      -4.719   0.578  -4.176  1.00  0.00    -0.093 SA
BRANCH  13  14
ATOM     14  C   UNL     1      -3.883   2.043  -4.738  1.00  0.00     0.097 A 
ATOM     15  C   UNL     1      -3.954   2.408  -6.080  1.00  0.00     0.035 A 
ATOM     16  N   UNL     1      -3.469   2.914  -3.796  1.00  0.00    -0.250 NA
ATOM     17  C   UNL     1      -3.552   3.690  -6.468  1.00  0.00     0.004 A 
ATOM     18  C   UNL     1      -3.071   4.150  -4.194  1.00  0.00     0.112 A 
ATOM     19  C   UNL     1      -3.099   4.583  -5.507  1.00  0.00     0.020 A 
ENDBRANCH  13  14
ENDBRANCH  11  13
ENDBRANCH   8  11
ENDBRANCH   6   7
BRANCH   6  20
ATOM     20  C   UNL     1      -0.503   1.549  -3.683  1.00  0.00    -0.016 A 
ATOM     21  C   UNL     1       0.209   2.752  -3.510  1.00  0.00     0.009 A 
ATOM     22  C   UNL     1      -0.796   1.186  -5.000  1.00  0.00     0.009 A 
ATOM     23  C   UNL     1       0.561   3.557  -4.603  1.00  0.00     0.039 A 
ATOM     24  C   UNL     1      -0.469   1.987  -6.096  1.00  0.00     0.039 A 
ATOM     25  C   UNL     1       0.206   3.172  -5.887  1.00  0.00     0.123 A 
ATOM     26  F   UNL     1       0.508   3.951  -6.934  1.00  0.00    -0.207 F 
ENDBRANCH   6  20
ENDBRANCH   3   6
ENDBRANCH   1   2
BRANCH   1  27
ATOM     27  C   UNL     1       1.087   0.374   1.095  1.00  0.00     0.042 C 
BRANCH  27  28
ATOM     28  C   UNL     1       0.758   1.017   2.437  1.00  0.00     0.118 C 
BRANCH  28  29
ATOM     29  N   UNL     1       0.385   0.042   3.454  1.00  0.00    -0.352 N 
ATOM     30  C   UNL     1       0.934  -0.182   4.693  1.00  0.00     0.251 C 
ATOM     31  H   UNL     1      -0.372  -0.541   3.218  1.00  0.00     0.163 HD
ATOM     32  O   UNL     1       0.580  -1.166   5.344  1.00  0.00    -0.269 OA
BRANCH  30  33
ATOM     33  C   UNL     1       1.964   0.731   5.232  1.00  0.00     0.039 A 
ATOM     34  C   UNL     1       3.084   0.188   5.868  1.00  0.00     0.014 A 
ATOM     35  C   UNL     1       1.836   2.117   5.111  1.00  0.00     0.014 A 
ATOM     36  C   UNL     1       4.105   1.030   6.314  1.00  0.00     0.010 A 
ATOM     37  C   UNL     1       2.894   2.946   5.475  1.00  0.00     0.010 A 
ATOM     38  C   UNL     1       4.039   2.414   6.085  1.00  0.00    -0.014 A 
BRANCH  38  39
ATOM     39  C   UNL     1       5.162   3.314   6.459  1.00  0.00     0.031 A 
ATOM     40  C   UNL     1       4.948   4.429   7.450  1.00  0.00     0.074 A 
ATOM     41  C   UNL     1       6.352   3.187   5.838  1.00  0.00     0.049 A 
ATOM     42  N   UNL     1       5.790   5.344   7.854  1.00  0.00    -0.248 NA
ATOM     43  C   UNL     1       3.606   4.549   8.046  1.00  0.00     0.031 C 
ATOM     44  C   UNL     1       6.665   2.203   4.799  1.00  0.00     0.029 A 
ATOM     45  N   UNL     1       7.514   3.910   5.967  1.00  0.00    -0.354 N 
ATOM     46  C   UNL     1       5.074   6.171   8.710  1.00  0.00     0.074 A 
ATOM     47  C   UNL     1       3.720   5.665   8.751  1.00  0.00     0.031 C 
ATOM     48  C   UNL     1       7.930   2.383   4.387  1.00  0.00     0.029 A 
ATOM     49  C   UNL     1       8.509   3.515   5.102  1.00  0.00     0.049 A 
ATOM     50  H   UNL     1       7.624   4.641   6.617  1.00  0.00     0.167 HD
ATOM     51  C   UNL     1       5.508   7.243   9.415  1.00  0.00     0.034 A 
ATOM     52  C   UNL     1       9.742   4.018   4.893  1.00  0.00     0.034 A 
ATOM     53  C   UNL     1       6.865   7.717   9.409  1.00  0.00     0.049 A 
ATOM     54  C   UNL     1      10.209   5.183   5.724  1.00  0.00     0.074 A 
ATOM     55  C   UNL     1       7.426   8.723  10.176  1.00  0.00     0.029 A 
ATOM     56  N   UNL     1       7.870   7.235   8.586  1.00  0.00    -0.354 N 
ATOM     57  N   UNL     1       9.568   5.837   6.662  1.00  0.00    -0.248 NA
ATOM     58  C   UNL     1      11.582   5.656   5.495  1.00  0.00     0.031 C 
ATOM     59  C   UNL     1       8.759   8.879   9.786  1.00  0.00     0.029 A 
ATOM     60  C   UNL     1       9.041   7.938   8.809  1.00  0.00     0.049 A 
ATOM     61  H   UNL     1       7.766   6.501   7.938  1.00  0.00     0.167 HD
ATOM     62  C   UNL     1      10.470   6.770   7.160  1.00  0.00     0.074 A 
ATOM     63  C   UNL     1      11.709   6.581   6.436  1.00  0.00     0.031 C 
ATOM     64  C   UNL     1      10.285   7.707   8.121  1.00  0.00     0.034 A 
BRANCH  51  65
ATOM     65  C   UNL     1       4.514   7.968  10.286  1.00  0.00     0.023 A 
ATOM     66  C   UNL     1       4.040   7.361  11.466  1.00  0.00     0.012 A 
ATOM     67  C   UNL     1       4.120   9.285   9.979  1.00  0.00     0.148 A 
ATOM     68  C   UNL     1       3.165   8.041  12.312  1.00  0.00     0.002 A 
ATOM     69  C   UNL     1       3.287   9.975  10.852  1.00  0.00     0.091 A 
ATOM     70  F   UNL     1       4.567   9.838   8.843  1.00  0.00    -0.205 F 
ATOM     71  C   UNL     1       2.799   9.351  12.012  1.00  0.00     0.022 A 
BRANCH  69  72
ATOM     72  S   UNL     1       2.828  11.693  10.600  1.00  0.00     0.127 S 
ATOM     73  O   UNL     1       1.397  11.578  10.320  1.00  0.00    -0.237 OA
ATOM     74  O   UNL     1       3.149  12.288  11.898  1.00  0.00    -0.237 OA
ATOM     75  O   UNL     1       3.643  12.171   9.492  1.00  0.00    -0.744 OA
ENDBRANCH  69  72
ENDBRANCH  51  65
BRANCH  52  76
ATOM     76  C   UNL     1      10.643   3.400   3.878  1.00  0.00     0.023 A 
ATOM     77  C   UNL     1      11.804   2.722   4.297  1.00  0.00     0.012 A 
ATOM     78  C   UNL     1      10.356   3.482   2.502  1.00  0.00     0.148 A 
ATOM     79  C   UNL     1      12.686   2.176   3.363  1.00  0.00     0.002 A 
ATOM     80  C   UNL     1      11.207   2.884   1.580  1.00  0.00     0.091 A 
ATOM     81  F   UNL     1       9.253   4.141   2.120  1.00  0.00    -0.205 F 
ATOM     82  C   UNL     1      12.384   2.250   2.006  1.00  0.00     0.022 A 
BRANCH  80  83
ATOM     83  S   UNL     1      10.825   2.813  -0.174  1.00  0.00     0.127 S 
ATOM     84  O   UNL     1      11.797   3.749  -0.731  1.00  0.00    -0.237 OA
ATOM     85  O   UNL     1      11.078   1.404  -0.481  1.00  0.00    -0.237 OA
ATOM     86  O   UNL     1       9.427   3.206  -0.286  1.00  0.00    -0.744 OA
ENDBRANCH  80  83
ENDBRANCH  52  76
BRANCH  64  87
ATOM     87  C   UNL     1      11.460   8.575   8.492  1.00  0.00     0.023 A 
ATOM     88  C   UNL     1      11.920   9.562   7.599  1.00  0.00     0.012 A 
ATOM     89  C   UNL     1      12.060   8.457   9.762  1.00  0.00     0.148 A 
ATOM     90  C   UNL     1      12.985  10.393   7.949  1.00  0.00     0.002 A 
ATOM     91  C   UNL     1      13.083   9.324  10.124  1.00  0.00     0.091 A 
ATOM     92  F   UNL     1      11.619   7.500  10.591  1.00  0.00    -0.205 F 
ATOM     93  C   UNL     1      13.556  10.283   9.214  1.00  0.00     0.022 A 
BRANCH  91  94
ATOM     94  S   UNL     1      13.810   9.323  11.767  1.00  0.00     0.127 S 
ATOM     95  O   UNL     1      15.143   8.784  11.502  1.00  0.00    -0.237 OA
ATOM     96  O   UNL     1      13.785  10.744  12.117  1.00  0.00    -0.237 OA
ATOM     97  O   UNL     1      12.949   8.483  12.588  1.00  0.00    -0.744 OA
ENDBRANCH  91  94
ENDBRANCH  64  87
ENDBRANCH  38  39
ENDBRANCH  30  33
ENDBRANCH  28  29
ENDBRANCH  27  28
ENDBRANCH   1  27
TORSDOF 18
