REMARK SMILES Cc1nc2n(n1)[C@@H](c1ccc([N+](=O)[O-])o1)CC(C(=O)NCCCNC(=O)c1ccc(-c3c4nc(c(-c5cccc(S(=O)(=O)[O-])c5F)c5ccc([nH]5)c(-c5cccc(S(=O)(=O)[O-])c5F)c5nc(c(-c6cccc(S(=O)(=O)[O-])c6F)c6ccc3[nH]6)C=C5)C=C4)cc1)=N2
REMARK SMILES IDX 22 1 21 2 20 3 18 4 19 5 17 7 1 8 2 9 3 10 6 11 4 12 5 13
REMARK SMILES IDX 90 14 7 15 16 16 8 17 9 18 15 19 10 20 11 21 12 22 13 23
REMARK SMILES IDX 14 24 23 25 24 26 25 27 26 29 27 30 28 31 89 32 29 33 88 34
REMARK SMILES IDX 30 35 31 36 32 37 82 38 33 39 87 40 81 41 83 42 34 43 86 44
REMARK SMILES IDX 80 45 79 46 35 48 67 49 47 50 66 51 48 52 51 53 65 54 84 55
REMARK SMILES IDX 49 56 50 57 64 59 85 60 52 61 36 62 37 63 45 64 38 65 40 66
REMARK SMILES IDX 46 67 39 68 41 69 42 70 43 71 44 72 68 73 69 74 77 75 70 76
REMARK SMILES IDX 72 77 78 78 71 79 73 80 74 81 75 82 76 83 53 84 54 85 62 86
REMARK SMILES IDX 55 87 57 88 63 89 56 90 58 91 59 92 60 93 61 94
REMARK H PARENT 20 6 24 28 83 47 51 58
REMARK Flexibility Score: inf
ROOT
ATOM      1  C   UNL     1      -1.030   8.465  -5.002  1.00  0.00     0.042 C 
ENDROOT
BRANCH   1   2
ATOM      2  C   UNL     1      -2.011   7.758  -4.054  1.00  0.00     0.118 C 
BRANCH   2   3
ATOM      3  N   UNL     1      -2.459   6.472  -4.561  1.00  0.00    -0.351 N 
ATOM      4  C   UNL     1      -2.269   5.155  -4.232  1.00  0.00     0.265 C 
ATOM      5  O   UNL     1      -2.930   4.327  -4.858  1.00  0.00    -0.268 OA
ATOM      6  H   UNL     1      -3.051   6.573  -5.341  1.00  0.00     0.163 HD
BRANCH   4   7
ATOM      7  C   UNL     1      -1.309   4.629  -3.145  1.00  0.00     0.112 C 
ATOM      8  C   UNL     1       1.025   0.353   0.027  1.00  0.00     0.092 C 
ATOM      9  C   UNL     1       0.574   1.576  -0.666  1.00  0.00     0.149 A 
ATOM     10  N   UNL     1      -0.379   1.547  -1.648  1.00  0.00    -0.195 NA
ATOM     11  N   UNL     1       1.065   2.792  -0.393  1.00  0.00    -0.154 NA
ATOM     12  C   UNL     1      -0.483   2.800  -2.039  1.00  0.00     0.249 A 
ATOM     13  N   UNL     1       0.403   3.534  -1.303  1.00  0.00    -0.219 N 
ATOM     14  N   UNL     1      -1.274   3.337  -2.991  1.00  0.00    -0.211 NA
ATOM     15  C   UNL     1       0.582   4.959  -1.448  1.00  0.00     0.184 C 
ATOM     16  C   UNL     1      -0.532   5.592  -2.289  1.00  0.00     0.098 C 
BRANCH  15  17
ATOM     17  C   UNL     1       1.937   5.302  -2.000  1.00  0.00     0.136 A 
ATOM     18  C   UNL     1       3.066   4.591  -2.373  1.00  0.00     0.056 A 
ATOM     19  O   UNL     1       2.165   6.643  -2.179  1.00  0.00    -0.404 OA
ATOM     20  C   UNL     1       4.022   5.538  -2.830  1.00  0.00     0.134 A 
ATOM     21  C   UNL     1       3.413   6.762  -2.701  1.00  0.00     0.433 A 
BRANCH  21  22
ATOM     22  N   UNL     1       3.847   8.091  -2.995  1.00  0.00     0.102 N 
ATOM     23  O   UNL     1       5.023   8.217  -3.360  1.00  0.00    -0.256 OA
ATOM     24  O   UNL     1       3.026   9.006  -2.849  1.00  0.00    -0.256 OA
ENDBRANCH  21  22
ENDBRANCH  15  17
ENDBRANCH   4   7
ENDBRANCH   2   3
ENDBRANCH   1   2
BRANCH   1  25
ATOM     25  C   UNL     1      -1.715   9.355  -6.056  1.00  0.00     0.118 C 
BRANCH  25  26
ATOM     26  N   UNL     1      -2.436  10.438  -5.403  1.00  0.00    -0.352 N 
ATOM     27  C   UNL     1      -2.468  11.785  -5.624  1.00  0.00     0.251 C 
ATOM     28  H   UNL     1      -3.010  10.143  -4.660  1.00  0.00     0.163 HD
ATOM     29  O   UNL     1      -2.850  12.493  -4.690  1.00  0.00    -0.269 OA
BRANCH  27  30
ATOM     30  C   UNL     1      -2.097  12.415  -6.911  1.00  0.00     0.039 A 
ATOM     31  C   UNL     1      -1.629  13.735  -6.855  1.00  0.00     0.014 A 
ATOM     32  C   UNL     1      -2.355  11.828  -8.153  1.00  0.00     0.014 A 
ATOM     33  C   UNL     1      -1.408  14.457  -8.025  1.00  0.00     0.010 A 
ATOM     34  C   UNL     1      -2.126  12.554  -9.331  1.00  0.00     0.010 A 
ATOM     35  C   UNL     1      -1.649  13.870  -9.274  1.00  0.00    -0.014 A 
BRANCH  35  36
ATOM     36  C   UNL     1      -1.292  14.656 -10.474  1.00  0.00     0.031 A 
ATOM     37  C   UNL     1      -0.452  13.947 -11.486  1.00  0.00     0.074 A 
ATOM     38  C   UNL     1      -2.023  15.726 -10.859  1.00  0.00     0.049 A 
ATOM     39  N   UNL     1      -0.949  13.146 -12.383  1.00  0.00    -0.248 NA
ATOM     40  C   UNL     1       1.007  13.899 -11.402  1.00  0.00     0.031 C 
ATOM     41  C   UNL     1      -3.484  15.787 -10.723  1.00  0.00     0.029 A 
ATOM     42  N   UNL     1      -1.709  16.812 -11.648  1.00  0.00    -0.354 N 
ATOM     43  C   UNL     1       0.106  12.458 -12.959  1.00  0.00     0.074 A 
ATOM     44  C   UNL     1       1.302  12.965 -12.321  1.00  0.00     0.031 C 
ATOM     45  C   UNL     1      -3.954  16.749 -11.545  1.00  0.00     0.029 A 
ATOM     46  C   UNL     1      -2.834  17.475 -12.144  1.00  0.00     0.049 A 
ATOM     47  H   UNL     1      -0.786  17.093 -11.842  1.00  0.00     0.167 HD
ATOM     48  C   UNL     1      -0.064  11.521 -13.932  1.00  0.00     0.034 A 
ATOM     49  C   UNL     1      -2.890  18.112 -13.350  1.00  0.00     0.034 A 
ATOM     50  C   UNL     1      -1.419  11.320 -14.358  1.00  0.00     0.049 A 
ATOM     51  C   UNL     1      -2.831  16.942 -14.297  1.00  0.00     0.074 A 
ATOM     52  C   UNL     1      -2.446  10.437 -14.107  1.00  0.00     0.029 A 
ATOM     53  N   UNL     1      -1.970  12.246 -15.212  1.00  0.00    -0.354 N 
ATOM     54  N   UNL     1      -3.826  16.142 -14.578  1.00  0.00    -0.248 NA
ATOM     55  C   UNL     1      -1.509  16.419 -14.642  1.00  0.00     0.031 C 
ATOM     56  C   UNL     1      -3.649  11.143 -14.438  1.00  0.00     0.029 A 
ATOM     57  C   UNL     1      -3.276  12.427 -14.833  1.00  0.00     0.049 A 
ATOM     58  H   UNL     1      -1.512  12.697 -15.958  1.00  0.00     0.167 HD
ATOM     59  C   UNL     1      -3.239  14.904 -14.849  1.00  0.00     0.074 A 
ATOM     60  C   UNL     1      -1.810  15.152 -14.891  1.00  0.00     0.031 C 
ATOM     61  C   UNL     1      -3.924  13.721 -14.854  1.00  0.00     0.034 A 
BRANCH  48  62
ATOM     62  C   UNL     1       1.035  10.885 -14.699  1.00  0.00     0.023 A 
ATOM     63  C   UNL     1       1.334  11.460 -15.951  1.00  0.00     0.012 A 
ATOM     64  C   UNL     1       1.611   9.650 -14.351  1.00  0.00     0.148 A 
ATOM     65  C   UNL     1       2.143  10.799 -16.870  1.00  0.00     0.002 A 
ATOM     66  C   UNL     1       2.432   8.999 -15.272  1.00  0.00     0.091 A 
ATOM     67  F   UNL     1       1.311   9.115 -13.159  1.00  0.00    -0.205 F 
ATOM     68  C   UNL     1       2.683   9.564 -16.534  1.00  0.00     0.022 A 
BRANCH  66  69
ATOM     69  S   UNL     1       3.197   7.403 -14.953  1.00  0.00     0.127 S 
ATOM     70  O   UNL     1       2.505   6.538 -15.912  1.00  0.00    -0.237 OA
ATOM     71  O   UNL     1       4.600   7.671 -15.283  1.00  0.00    -0.237 OA
ATOM     72  O   UNL     1       2.950   7.111 -13.554  1.00  0.00    -0.744 OA
ENDBRANCH  66  69
ENDBRANCH  48  62
BRANCH  49  73
ATOM     73  C   UNL     1      -2.038  19.342 -13.492  1.00  0.00     0.023 A 
ATOM     74  C   UNL     1      -2.135  20.311 -12.463  1.00  0.00     0.012 A 
ATOM     75  C   UNL     1      -1.169  19.625 -14.563  1.00  0.00     0.148 A 
ATOM     76  C   UNL     1      -1.329  21.452 -12.444  1.00  0.00     0.002 A 
ATOM     77  C   UNL     1      -0.316  20.728 -14.508  1.00  0.00     0.091 A 
ATOM     78  F   UNL     1      -1.179  18.829 -15.638  1.00  0.00    -0.205 F 
ATOM     79  C   UNL     1      -0.393  21.643 -13.450  1.00  0.00     0.022 A 
BRANCH  77  80
ATOM     80  S   UNL     1       0.992  21.002 -15.713  1.00  0.00     0.127 S 
ATOM     81  O   UNL     1       0.688  22.350 -16.189  1.00  0.00    -0.237 OA
ATOM     82  O   UNL     1       2.184  20.898 -14.873  1.00  0.00    -0.237 OA
ATOM     83  O   UNL     1       0.846  19.945 -16.703  1.00  0.00    -0.744 OA
ENDBRANCH  77  80
ENDBRANCH  49  73
BRANCH  61  84
ATOM     84  C   UNL     1      -5.412  13.817 -14.670  1.00  0.00     0.023 A 
ATOM     85  C   UNL     1      -6.179  14.451 -15.666  1.00  0.00     0.012 A 
ATOM     86  C   UNL     1      -6.070  13.254 -13.556  1.00  0.00     0.148 A 
ATOM     87  C   UNL     1      -7.569  14.511 -15.570  1.00  0.00     0.002 A 
ATOM     88  C   UNL     1      -7.459  13.274 -13.489  1.00  0.00     0.091 A 
ATOM     89  F   UNL     1      -5.335  12.702 -12.579  1.00  0.00    -0.205 F 
ATOM     90  C   UNL     1      -8.209  13.908 -14.492  1.00  0.00     0.022 A 
BRANCH  88  91
ATOM     91  S   UNL     1      -8.387  12.460 -12.182  1.00  0.00     0.127 S 
ATOM     92  O   UNL     1      -9.148  13.570 -11.609  1.00  0.00    -0.237 OA
ATOM     93  O   UNL     1      -9.192  11.500 -12.938  1.00  0.00    -0.237 OA
ATOM     94  O   UNL     1      -7.405  11.862 -11.288  1.00  0.00    -0.744 OA
ENDBRANCH  88  91
ENDBRANCH  61  84
ENDBRANCH  35  36
ENDBRANCH  27  30
ENDBRANCH  25  26
ENDBRANCH   1  25
TORSDOF 15
