REMARK SMILES CC(C)(C)c1csc(NC(=O)Cn2cccc2C(=O)NCCCNC(=O)c2ccc(-c3c4nc(c(-c5cccc(S(=O)(=O)[O-])c5F)c5ccc([nH]5)c(-c5cccc(S(=O)(=O)[O-])c5F)c5nc(c(-c6cccc(S(=O)(=O)[O-])c6F)c6ccc3[nH]6)C=C5)C=C4)cc2)n1
REMARK SMILES IDX 21 1 20 2 18 3 19 4 17 6 13 7 14 8 15 9 16 10 12 11 10 12
REMARK SMILES IDX 9 13 11 15 8 16 5 17 6 18 90 19 7 20 2 21 1 22 3 23 4 24
REMARK SMILES IDX 22 25 23 26 24 27 25 28 26 30 27 31 28 32 89 33 29 34 88 35
REMARK SMILES IDX 30 36 31 37 32 38 82 39 33 40 87 41 81 42 83 43 34 44 86 45
REMARK SMILES IDX 80 46 79 47 35 49 67 50 47 51 66 52 48 53 51 54 65 55 84 56
REMARK SMILES IDX 49 57 50 58 64 60 85 61 52 62 36 63 37 64 45 65 38 66 40 67
REMARK SMILES IDX 46 68 39 69 41 70 42 71 43 72 44 73 68 74 69 75 77 76 70 77
REMARK SMILES IDX 72 78 78 79 71 80 73 81 74 82 75 83 76 84 53 85 54 86 62 87
REMARK SMILES IDX 55 88 57 89 63 90 56 91 58 92 59 93 60 94 61 95
REMARK H PARENT 20 5 9 14 24 29 83 48 51 59
REMARK Flexibility Score: inf
ROOT
ATOM      1  C   UNL     1       1.540   1.018  -8.384  1.00  0.00     0.118 C 
ENDROOT
BRANCH   1   2
ATOM      2  N   UNL     1       1.923  -0.214  -7.741  1.00  0.00    -0.351 N 
ATOM      3  C   UNL     1       2.795  -0.479  -6.717  1.00  0.00     0.267 C 
ATOM      4  O   UNL     1       2.833  -1.657  -6.351  1.00  0.00    -0.268 OA
ATOM      5  H   UNL     1       1.477  -1.012  -8.105  1.00  0.00     0.163 HD
BRANCH   3   6
ATOM      6  C   UNL     1       3.676   0.515  -6.104  1.00  0.00     0.107 A 
ATOM      7  N   UNL     1       3.539   1.865  -5.795  1.00  0.00    -0.334 N 
ATOM      8  C   UNL     1       4.724   2.339  -5.263  1.00  0.00     0.087 A 
ATOM      9  C   UNL     1       5.568   1.280  -5.056  1.00  0.00     0.020 A 
ATOM     10  C   UNL     1       4.909   0.145  -5.558  1.00  0.00     0.033 A 
BRANCH   7  11
ATOM     11  C   UNL     1       2.382   2.740  -5.925  1.00  0.00     0.222 C 
BRANCH  11  12
ATOM     12  C   UNL     1       2.046   3.528  -4.677  1.00  0.00     0.246 C 
ATOM     13  N   UNL     1       1.536   2.963  -3.550  1.00  0.00    -0.300 N 
ATOM     14  H   UNL     1       1.436   3.591  -2.798  1.00  0.00     0.172 HD
ATOM     15  O   UNL     1       2.256   4.749  -4.656  1.00  0.00    -0.273 OA
BRANCH  13  16
ATOM     16  C   UNL     1       1.135   1.688  -3.262  1.00  0.00     0.189 A 
ATOM     17  C   UNL     1       0.691  -0.083  -2.011  1.00  0.00     0.059 A 
ATOM     18  C   UNL     1       0.570  -0.648  -3.268  1.00  0.00     0.093 A 
ATOM     19  N   UNL     1       0.996   1.277  -2.026  1.00  0.00    -0.224 NA
ATOM     20  S   UNL     1       0.625   0.580  -4.439  1.00  0.00    -0.105 S 
BRANCH  17  21
ATOM     21  C   UNL     1       0.424  -0.776  -0.692  1.00  0.00     0.005 C 
ATOM     22  C   UNL     1       1.004   0.023   0.490  1.00  0.00     0.017 C 
ATOM     23  C   UNL     1       1.043  -2.187  -0.662  1.00  0.00     0.017 C 
ATOM     24  C   UNL     1      -1.104  -0.886  -0.520  1.00  0.00     0.017 C 
ENDBRANCH  17  21
ENDBRANCH  13  16
ENDBRANCH  11  12
ENDBRANCH   7  11
ENDBRANCH   3   6
ENDBRANCH   1   2
BRANCH   1  25
ATOM     25  C   UNL     1       0.995   0.888  -9.798  1.00  0.00     0.042 C 
BRANCH  25  26
ATOM     26  C   UNL     1      -0.387   0.244  -9.861  1.00  0.00     0.118 C 
BRANCH  26  27
ATOM     27  N   UNL     1      -1.431   1.022  -9.195  1.00  0.00    -0.352 N 
ATOM     28  C   UNL     1      -2.798   0.837  -9.284  1.00  0.00     0.251 C 
ATOM     29  H   UNL     1      -1.126   1.760  -8.618  1.00  0.00     0.163 HD
ATOM     30  O   UNL     1      -3.571   1.637  -8.792  1.00  0.00    -0.269 OA
BRANCH  28  31
ATOM     31  C   UNL     1      -3.289  -0.324 -10.054  1.00  0.00     0.039 A 
ATOM     32  C   UNL     1      -4.134  -0.086 -11.141  1.00  0.00     0.014 A 
ATOM     33  C   UNL     1      -2.821  -1.610  -9.765  1.00  0.00     0.014 A 
ATOM     34  C   UNL     1      -4.421  -1.131 -12.009  1.00  0.00     0.010 A 
ATOM     35  C   UNL     1      -3.070  -2.642 -10.655  1.00  0.00     0.010 A 
ATOM     36  C   UNL     1      -3.851  -2.395 -11.788  1.00  0.00    -0.014 A 
BRANCH  36  37
ATOM     37  C   UNL     1      -4.011  -3.440 -12.823  1.00  0.00     0.031 A 
ATOM     38  C   UNL     1      -3.113  -3.189 -14.046  1.00  0.00     0.074 A 
ATOM     39  C   UNL     1      -4.937  -4.409 -12.561  1.00  0.00     0.049 A 
ATOM     40  N   UNL     1      -3.377  -3.331 -15.311  1.00  0.00    -0.248 NA
ATOM     41  C   UNL     1      -1.782  -2.557 -13.847  1.00  0.00     0.031 C 
ATOM     42  C   UNL     1      -5.690  -4.516 -11.293  1.00  0.00     0.029 A 
ATOM     43  N   UNL     1      -5.438  -5.484 -13.267  1.00  0.00    -0.354 N 
ATOM     44  C   UNL     1      -2.192  -3.020 -16.027  1.00  0.00     0.074 A 
ATOM     45  C   UNL     1      -1.306  -2.404 -15.087  1.00  0.00     0.031 C 
ATOM     46  C   UNL     1      -6.580  -5.527 -11.344  1.00  0.00     0.029 A 
ATOM     47  C   UNL     1      -6.491  -6.186 -12.633  1.00  0.00     0.049 A 
ATOM     48  H   UNL     1      -5.088  -5.744 -14.150  1.00  0.00     0.167 HD
ATOM     49  C   UNL     1      -1.967  -3.443 -17.310  1.00  0.00     0.034 A 
ATOM     50  C   UNL     1      -7.283  -7.193 -13.113  1.00  0.00     0.034 A 
ATOM     51  C   UNL     1      -3.033  -4.310 -17.697  1.00  0.00     0.049 A 
ATOM     52  C   UNL     1      -6.763  -7.534 -14.444  1.00  0.00     0.074 A 
ATOM     53  C   UNL     1      -4.328  -4.107 -18.088  1.00  0.00     0.029 A 
ATOM     54  N   UNL     1      -2.848  -5.635 -17.378  1.00  0.00    -0.354 N 
ATOM     55  N   UNL     1      -5.664  -8.192 -14.665  1.00  0.00    -0.248 NA
ATOM     56  C   UNL     1      -7.448  -7.002 -15.630  1.00  0.00     0.031 C 
ATOM     57  C   UNL     1      -5.002  -5.251 -17.614  1.00  0.00     0.029 A 
ATOM     58  C   UNL     1      -4.077  -6.167 -17.095  1.00  0.00     0.049 A 
ATOM     59  H   UNL     1      -1.988  -6.114 -17.357  1.00  0.00     0.167 HD
ATOM     60  C   UNL     1      -5.362  -7.817 -15.953  1.00  0.00     0.074 A 
ATOM     61  C   UNL     1      -6.606  -7.420 -16.569  1.00  0.00     0.031 C 
ATOM     62  C   UNL     1      -4.127  -7.323 -16.230  1.00  0.00     0.034 A 
BRANCH  49  63
ATOM     63  C   UNL     1      -0.785  -3.428 -18.262  1.00  0.00     0.023 A 
ATOM     64  C   UNL     1      -1.107  -3.703 -19.627  1.00  0.00     0.012 A 
ATOM     65  C   UNL     1       0.575  -3.443 -17.918  1.00  0.00     0.148 A 
ATOM     66  C   UNL     1      -0.158  -4.106 -20.565  1.00  0.00     0.002 A 
ATOM     67  C   UNL     1       1.534  -3.797 -18.879  1.00  0.00     0.091 A 
ATOM     68  F   UNL     1       0.939  -3.197 -16.656  1.00  0.00    -0.205 F 
ATOM     69  C   UNL     1       1.167  -4.167 -20.183  1.00  0.00     0.022 A 
BRANCH  67  70
ATOM     70  S   UNL     1       3.299  -3.816 -18.537  1.00  0.00     0.127 S 
ATOM     71  O   UNL     1       3.569  -5.245 -18.407  1.00  0.00    -0.237 OA
ATOM     72  O   UNL     1       3.851  -3.204 -19.748  1.00  0.00    -0.237 OA
ATOM     73  O   UNL     1       3.471  -3.010 -17.336  1.00  0.00    -0.744 OA
ENDBRANCH  67  70
ENDBRANCH  49  63
BRANCH  50  74
ATOM     74  C   UNL     1      -8.562  -7.859 -12.662  1.00  0.00     0.023 A 
ATOM     75  C   UNL     1      -9.023  -7.859 -11.337  1.00  0.00     0.012 A 
ATOM     76  C   UNL     1      -9.420  -8.487 -13.612  1.00  0.00     0.148 A 
ATOM     77  C   UNL     1     -10.306  -8.338 -11.004  1.00  0.00     0.002 A 
ATOM     78  C   UNL     1     -10.724  -8.856 -13.308  1.00  0.00     0.091 A 
ATOM     79  F   UNL     1      -8.960  -8.779 -14.832  1.00  0.00    -0.205 F 
ATOM     80  C   UNL     1     -11.175  -8.790 -11.995  1.00  0.00     0.022 A 
BRANCH  78  81
ATOM     81  S   UNL     1     -11.912  -9.283 -14.597  1.00  0.00     0.127 S 
ATOM     82  O   UNL     1     -12.371 -10.603 -14.172  1.00  0.00    -0.237 OA
ATOM     83  O   UNL     1     -12.897  -8.211 -14.451  1.00  0.00    -0.237 OA
ATOM     84  O   UNL     1     -11.178  -9.258 -15.857  1.00  0.00    -0.744 OA
ENDBRANCH  78  81
ENDBRANCH  50  74
BRANCH  62  85
ATOM     85  C   UNL     1      -3.025  -7.828 -15.302  1.00  0.00     0.023 A 
ATOM     86  C   UNL     1      -2.788  -9.216 -15.278  1.00  0.00     0.012 A 
ATOM     87  C   UNL     1      -2.314  -7.034 -14.371  1.00  0.00     0.148 A 
ATOM     88  C   UNL     1      -1.903  -9.794 -14.363  1.00  0.00     0.002 A 
ATOM     89  C   UNL     1      -1.437  -7.610 -13.447  1.00  0.00     0.091 A 
ATOM     90  F   UNL     1      -2.500  -5.717 -14.385  1.00  0.00    -0.205 F 
ATOM     91  C   UNL     1      -1.231  -8.994 -13.446  1.00  0.00     0.022 A 
BRANCH  89  92
ATOM     92  S   UNL     1      -0.576  -6.672 -12.164  1.00  0.00     0.127 S 
ATOM     93  O   UNL     1      -0.874  -7.442 -10.954  1.00  0.00    -0.237 OA
ATOM     94  O   UNL     1       0.815  -6.760 -12.600  1.00  0.00    -0.237 OA
ATOM     95  O   UNL     1      -1.148  -5.330 -12.165  1.00  0.00    -0.744 OA
ENDBRANCH  89  92
ENDBRANCH  62  85
ENDBRANCH  36  37
ENDBRANCH  28  31
ENDBRANCH  26  27
ENDBRANCH  25  26
ENDBRANCH   1  25
TORSDOF 17
