REMARK SMILES O=C(NCCCNC(=O)c1c[nH]c(=O)c(-c2cccc([N+](=O)[O-])c2)c1)c1ccc(-c2c3nc(c(-c4cccc(S(=O)(=O)[O-])c4F)c4ccc([nH]4)c(-c4cccc(S(=O)(=O)[O-])c4F)c4nc(c(-c5cccc(S(=O)(=O)[O-])c5F)c5ccc2[nH]5)C=C4)C=C3)cc1
REMARK SMILES IDX 4 1 3 2 1 3 2 4 26 6 27 7 88 8 28 9 87 10 29 11 30 12 31 13
REMARK SMILES IDX 81 14 32 15 86 16 80 17 82 18 33 19 85 20 79 21 78 22 34 24
REMARK SMILES IDX 66 25 46 26 65 27 47 28 50 29 64 30 83 31 48 32 49 33 63 35
REMARK SMILES IDX 84 36 51 37 35 38 36 39 44 40 37 41 39 42 45 43 38 44 40 45
REMARK SMILES IDX 41 46 42 47 43 48 67 49 68 50 76 51 69 52 71 53 77 54 70 55
REMARK SMILES IDX 72 56 73 57 74 58 75 59 52 60 53 61 61 62 54 63 56 64 62 65
REMARK SMILES IDX 55 66 57 67 58 68 59 69 60 70 5 71 6 72 7 73 8 74 9 76 10 77
REMARK SMILES IDX 11 78 25 79 12 80 15 81 13 82 14 84 16 85 17 86 24 87 18 88
REMARK SMILES IDX 20 89 19 90 21 91 22 92 23 93
REMARK H PARENT 3 5 82 23 50 34 7 75 12 83
REMARK Flexibility Score: inf
ROOT
ATOM      1  C   UNL     1       4.559  -1.118   0.515  1.00  0.00     0.118 C 
ENDROOT
BRANCH   1   2
ATOM      2  N   UNL     1       3.117  -1.042   0.333  1.00  0.00    -0.352 N 
ATOM      3  O   UNL     1       1.116  -0.102  -0.050  1.00  0.00    -0.269 OA
ATOM      4  C   UNL     1       2.337  -0.028  -0.168  1.00  0.00     0.251 C 
ATOM      5  H   UNL     1       2.622  -1.845   0.613  1.00  0.00     0.163 HD
BRANCH   4   6
ATOM      6  C   UNL     1       2.956   1.151  -0.815  1.00  0.00     0.039 A 
ATOM      7  C   UNL     1       4.038   1.010  -1.687  1.00  0.00     0.014 A 
ATOM      8  C   UNL     1       2.428   2.419  -0.560  1.00  0.00     0.014 A 
ATOM      9  C   UNL     1       4.693   2.138  -2.171  1.00  0.00     0.010 A 
ATOM     10  C   UNL     1       3.028   3.546  -1.126  1.00  0.00     0.010 A 
ATOM     11  C   UNL     1       4.189   3.419  -1.905  1.00  0.00    -0.014 A 
BRANCH  11  12
ATOM     12  C   UNL     1       4.849   4.616  -2.485  1.00  0.00     0.031 A 
ATOM     13  C   UNL     1       5.435   5.678  -1.598  1.00  0.00     0.074 A 
ATOM     14  C   UNL     1       4.878   4.762  -3.824  1.00  0.00     0.049 A 
ATOM     15  N   UNL     1       5.979   6.820  -1.930  1.00  0.00    -0.248 NA
ATOM     16  C   UNL     1       5.397   5.432  -0.148  1.00  0.00     0.031 C 
ATOM     17  C   UNL     1       4.319   3.812  -4.787  1.00  0.00     0.029 A 
ATOM     18  N   UNL     1       5.373   5.775  -4.606  1.00  0.00    -0.354 N 
ATOM     19  C   UNL     1       6.303   7.452  -0.735  1.00  0.00     0.074 A 
ATOM     20  C   UNL     1       5.889   6.566   0.332  1.00  0.00     0.031 C 
ATOM     21  C   UNL     1       4.496   4.287  -6.028  1.00  0.00     0.029 A 
ATOM     22  C   UNL     1       5.123   5.601  -5.946  1.00  0.00     0.049 A 
ATOM     23  H   UNL     1       5.859   6.551  -4.242  1.00  0.00     0.167 HD
ATOM     24  C   UNL     1       6.895   8.655  -0.545  1.00  0.00     0.034 A 
ATOM     25  C   UNL     1       5.335   6.420  -6.993  1.00  0.00     0.034 A 
ATOM     26  C   UNL     1       7.317   9.523  -1.614  1.00  0.00     0.049 A 
ATOM     27  C   UNL     1       5.985   7.753  -6.758  1.00  0.00     0.074 A 
ATOM     28  C   UNL     1       7.984  10.732  -1.527  1.00  0.00     0.029 A 
ATOM     29  N   UNL     1       7.094   9.286  -2.962  1.00  0.00    -0.354 N 
ATOM     30  N   UNL     1       6.386   8.284  -5.630  1.00  0.00    -0.248 NA
ATOM     31  C   UNL     1       6.241   8.586  -7.941  1.00  0.00     0.031 C 
ATOM     32  C   UNL     1       8.126  11.246  -2.820  1.00  0.00     0.029 A 
ATOM     33  C   UNL     1       7.595  10.333  -3.717  1.00  0.00     0.049 A 
ATOM     34  H   UNL     1       6.646   8.490  -3.329  1.00  0.00     0.167 HD
ATOM     35  C   UNL     1       6.979   9.494  -5.968  1.00  0.00     0.074 A 
ATOM     36  C   UNL     1       6.889   9.614  -7.409  1.00  0.00     0.031 C 
ATOM     37  C   UNL     1       7.545  10.420  -5.155  1.00  0.00     0.034 A 
BRANCH  24  38
ATOM     38  C   UNL     1       7.126   9.106   0.876  1.00  0.00     0.023 A 
ATOM     39  C   UNL     1       8.087   8.454   1.676  1.00  0.00     0.012 A 
ATOM     40  C   UNL     1       6.419  10.203   1.407  1.00  0.00     0.148 A 
ATOM     41  C   UNL     1       8.304   8.853   2.995  1.00  0.00     0.002 A 
ATOM     42  C   UNL     1       6.676  10.627   2.706  1.00  0.00     0.091 A 
ATOM     43  F   UNL     1       5.496  10.802   0.640  1.00  0.00    -0.205 F 
ATOM     44  C   UNL     1       7.605   9.944   3.506  1.00  0.00     0.022 A 
BRANCH  42  45
ATOM     45  S   UNL     1       5.889  12.074   3.422  1.00  0.00     0.127 S 
ATOM     46  O   UNL     1       4.949  11.463   4.362  1.00  0.00    -0.237 OA
ATOM     47  O   UNL     1       7.019  12.761   4.050  1.00  0.00    -0.237 OA
ATOM     48  O   UNL     1       5.286  12.794   2.309  1.00  0.00    -0.744 OA
ENDBRANCH  42  45
ENDBRANCH  24  38
BRANCH  25  49
ATOM     49  C   UNL     1       4.942   5.975  -8.358  1.00  0.00     0.023 A 
ATOM     50  C   UNL     1       5.939   5.639  -9.293  1.00  0.00     0.012 A 
ATOM     51  C   UNL     1       3.586   5.818  -8.707  1.00  0.00     0.148 A 
ATOM     52  C   UNL     1       5.591   5.172 -10.562  1.00  0.00     0.002 A 
ATOM     53  C   UNL     1       3.248   5.298  -9.950  1.00  0.00     0.091 A 
ATOM     54  F   UNL     1       2.656   6.147  -7.800  1.00  0.00    -0.205 F 
ATOM     55  C   UNL     1       4.249   4.991 -10.885  1.00  0.00     0.022 A 
BRANCH  53  56
ATOM     56  S   UNL     1       1.557   4.901 -10.405  1.00  0.00     0.127 S 
ATOM     57  O   UNL     1       1.315   5.838 -11.499  1.00  0.00    -0.237 OA
ATOM     58  O   UNL     1       1.680   3.499 -10.808  1.00  0.00    -0.237 OA
ATOM     59  O   UNL     1       0.761   5.117  -9.205  1.00  0.00    -0.744 OA
ENDBRANCH  53  56
ENDBRANCH  25  49
BRANCH  37  60
ATOM     60  C   UNL     1       8.177  11.627  -5.797  1.00  0.00     0.023 A 
ATOM     61  C   UNL     1       7.374  12.643  -6.349  1.00  0.00     0.012 A 
ATOM     62  C   UNL     1       9.577  11.791  -5.761  1.00  0.00     0.148 A 
ATOM     63  C   UNL     1       7.957  13.796  -6.876  1.00  0.00     0.002 A 
ATOM     64  C   UNL     1      10.146  12.964  -6.239  1.00  0.00     0.091 A 
ATOM     65  F   UNL     1      10.323  10.801  -5.251  1.00  0.00    -0.205 F 
ATOM     66  C   UNL     1       9.339  13.963  -6.808  1.00  0.00     0.022 A 
BRANCH  64  67
ATOM     67  S   UNL     1      11.903  13.310  -6.099  1.00  0.00     0.127 S 
ATOM     68  O   UNL     1      12.328  13.265  -7.497  1.00  0.00    -0.237 OA
ATOM     69  O   UNL     1      11.908  14.645  -5.502  1.00  0.00    -0.237 OA
ATOM     70  O   UNL     1      12.455  12.263  -5.249  1.00  0.00    -0.744 OA
ENDBRANCH  64  67
ENDBRANCH  37  60
ENDBRANCH  11  12
ENDBRANCH   4   6
ENDBRANCH   1   2
BRANCH   1  71
ATOM     71  C   UNL     1       4.968  -1.116   1.980  1.00  0.00     0.042 C 
BRANCH  71  72
ATOM     72  C   UNL     1       4.469  -2.316   2.768  1.00  0.00     0.118 C 
BRANCH  72  73
ATOM     73  N   UNL     1       4.997  -3.581   2.269  1.00  0.00    -0.352 N 
ATOM     74  C   UNL     1       5.792  -4.512   2.873  1.00  0.00     0.252 C 
ATOM     75  H   UNL     1       4.737  -3.799   1.345  1.00  0.00     0.163 HD
ATOM     76  O   UNL     1       6.231  -5.457   2.222  1.00  0.00    -0.269 OA
BRANCH  74  77
ATOM     77  C   UNL     1       6.125  -4.353   4.312  1.00  0.00     0.056 A 
ATOM     78  C   UNL     1       7.406  -4.479   4.687  1.00  0.00     0.099 A 
ATOM     79  C   UNL     1       5.118  -4.069   5.311  1.00  0.00     0.029 A 
ATOM     80  N   UNL     1       7.765  -4.273   5.998  1.00  0.00    -0.328 N 
ATOM     81  C   UNL     1       5.440  -3.790   6.588  1.00  0.00     0.048 A 
ATOM     82  C   UNL     1       6.884  -3.909   6.994  1.00  0.00     0.255 A 
ATOM     83  H   UNL     1       8.711  -4.392   6.241  1.00  0.00     0.169 HD
ATOM     84  O   UNL     1       7.264  -3.709   8.145  1.00  0.00    -0.269 OA
BRANCH  81  85
ATOM     85  C   UNL     1       4.393  -3.279   7.491  1.00  0.00    -0.006 A 
ATOM     86  C   UNL     1       3.167  -3.950   7.633  1.00  0.00     0.009 A 
ATOM     87  C   UNL     1       4.576  -2.051   8.146  1.00  0.00     0.094 A 
ATOM     88  C   UNL     1       2.132  -3.401   8.394  1.00  0.00     0.008 A 
ATOM     89  C   UNL     1       3.535  -1.506   8.910  1.00  0.00     0.270 A 
ATOM     90  C   UNL     1       2.310  -2.174   9.031  1.00  0.00     0.085 A 
BRANCH  89  91
ATOM     91  N   UNL     1       3.722  -0.210   9.574  1.00  0.00     0.062 N 
ATOM     92  O   UNL     1       2.796   0.211  10.283  1.00  0.00    -0.258 OA
ATOM     93  O   UNL     1       4.792   0.386   9.389  1.00  0.00    -0.258 OA
ENDBRANCH  89  91
ENDBRANCH  81  85
ENDBRANCH  74  77
ENDBRANCH  72  73
ENDBRANCH  71  72
ENDBRANCH   1  71
TORSDOF 15
