REMARK SMILES CC(C)(C(=O)NCCCNC(=O)c1ccc(-c2c3nc(c(-c4cccc(S(=O)(=O)[O-])c4F)c4ccc([nH]4)c(-c4cccc(S(=O)(=O)[O-])c4F)c4nc(c(-c5cccc(S(=O)(=O)[O-])c5F)c5ccc2[nH]5)C=C4)C=C3)cc1)C1CCCCC1
REMARK SMILES IDX 9 1 8 2 7 3 6 4 4 5 5 6 2 8 1 9 3 10 76 11 77 12 81 13 78 14
REMARK SMILES IDX 80 15 79 16 10 17 11 18 12 20 13 21 14 22 75 23 15 24 74 25
REMARK SMILES IDX 16 26 17 27 18 28 68 29 19 30 73 31 67 32 69 33 20 34 72 35
REMARK SMILES IDX 66 36 65 37 21 39 53 40 33 41 52 42 34 43 37 44 51 45 70 46
REMARK SMILES IDX 35 47 36 48 50 50 71 51 38 52 22 53 23 54 31 55 24 56 26 57
REMARK SMILES IDX 32 58 25 59 27 60 28 61 29 62 30 63 54 64 55 65 63 66 56 67
REMARK SMILES IDX 58 68 64 69 57 70 59 71 60 72 61 73 62 74 39 75 40 76 48 77
REMARK SMILES IDX 41 78 43 79 49 80 42 81 44 82 45 83 46 84 47 85
REMARK H PARENT 6 7 10 19 69 38 37 49
REMARK Flexibility Score: inf
ROOT
ATOM      1  C   UNL     1      -2.816  -2.309  -1.616  1.00  0.00     0.118 C 
ENDROOT
BRANCH   1   2
ATOM      2  C   UNL     1      -1.311  -2.070  -1.654  1.00  0.00     0.042 C 
BRANCH   2   3
ATOM      3  C   UNL     1      -0.901  -0.762  -2.317  1.00  0.00     0.117 C 
BRANCH   3   4
ATOM      4  N   UNL     1      -1.436   0.399  -1.633  1.00  0.00    -0.356 N 
ATOM      5  C   UNL     1      -0.880   1.395  -0.898  1.00  0.00     0.225 C 
ATOM      6  O   UNL     1      -1.684   2.247  -0.505  1.00  0.00    -0.275 OA
ATOM      7  H   UNL     1      -2.413   0.483  -1.721  1.00  0.00     0.163 HD
BRANCH   5   8
ATOM      8  C   UNL     1       0.638   1.488  -0.596  1.00  0.00     0.046 C 
ATOM      9  C   UNL     1       1.118   0.216   0.133  1.00  0.00     0.022 C 
ATOM     10  C   UNL     1       1.415   1.651  -1.921  1.00  0.00     0.022 C 
BRANCH   8  11
ATOM     11  C   UNL     1       0.974   2.741   0.328  1.00  0.00     0.004 C 
ATOM     12  C   UNL     1       0.736   4.106  -0.363  1.00  0.00     0.005 C 
ATOM     13  C   UNL     1       0.313   2.692   1.728  1.00  0.00     0.005 C 
ATOM     14  C   UNL     1       1.079   5.288   0.538  1.00  0.00     0.000 C 
ATOM     15  C   UNL     1       0.646   3.913   2.584  1.00  0.00     0.000 C 
ATOM     16  C   UNL     1       0.331   5.215   1.860  1.00  0.00     0.000 C 
ENDBRANCH   8  11
ENDBRANCH   5   8
ENDBRANCH   3   4
ENDBRANCH   2   3
ENDBRANCH   1   2
BRANCH   1  17
ATOM     17  N   UNL     1      -3.417  -2.311  -2.942  1.00  0.00    -0.352 N 
ATOM     18  C   UNL     1      -4.031  -3.317  -3.646  1.00  0.00     0.251 C 
ATOM     19  H   UNL     1      -3.377  -1.447  -3.413  1.00  0.00     0.163 HD
ATOM     20  O   UNL     1      -4.272  -3.145  -4.839  1.00  0.00    -0.269 OA
BRANCH  18  21
ATOM     21  C   UNL     1      -4.401  -4.593  -2.994  1.00  0.00     0.039 A 
ATOM     22  C   UNL     1      -4.304  -5.778  -3.730  1.00  0.00     0.014 A 
ATOM     23  C   UNL     1      -4.905  -4.627  -1.692  1.00  0.00     0.014 A 
ATOM     24  C   UNL     1      -4.680  -6.992  -3.150  1.00  0.00     0.010 A 
ATOM     25  C   UNL     1      -5.186  -5.846  -1.083  1.00  0.00     0.010 A 
ATOM     26  C   UNL     1      -5.110  -7.039  -1.814  1.00  0.00    -0.014 A 
BRANCH  26  27
ATOM     27  C   UNL     1      -5.533  -8.317  -1.186  1.00  0.00     0.031 A 
ATOM     28  C   UNL     1      -6.951  -8.489  -0.706  1.00  0.00     0.074 A 
ATOM     29  C   UNL     1      -4.630  -9.298  -0.989  1.00  0.00     0.049 A 
ATOM     30  N   UNL     1      -7.503  -9.518  -0.115  1.00  0.00    -0.248 NA
ATOM     31  C   UNL     1      -7.863  -7.345  -0.882  1.00  0.00     0.031 C 
ATOM     32  C   UNL     1      -3.207  -9.220  -1.328  1.00  0.00     0.029 A 
ATOM     33  N   UNL     1      -4.772 -10.546  -0.438  1.00  0.00    -0.354 N 
ATOM     34  C   UNL     1      -8.805  -9.131   0.185  1.00  0.00     0.074 A 
ATOM     35  C   UNL     1      -8.949  -7.760  -0.248  1.00  0.00     0.031 C 
ATOM     36  C   UNL     1      -2.611 -10.374  -0.989  1.00  0.00     0.029 A 
ATOM     37  C   UNL     1      -3.600 -11.266  -0.393  1.00  0.00     0.049 A 
ATOM     38  H   UNL     1      -5.631 -10.894  -0.106  1.00  0.00     0.167 HD
ATOM     39  C   UNL     1      -9.804  -9.861   0.735  1.00  0.00     0.034 A 
ATOM     40  C   UNL     1      -3.355 -12.508   0.070  1.00  0.00     0.034 A 
ATOM     41  C   UNL     1      -9.675 -11.243   1.107  1.00  0.00     0.049 A 
ATOM     42  C   UNL     1      -4.501 -13.326   0.602  1.00  0.00     0.074 A 
ATOM     43  C   UNL     1     -10.648 -12.100   1.591  1.00  0.00     0.029 A 
ATOM     44  N   UNL     1      -8.499 -11.974   1.032  1.00  0.00    -0.354 N 
ATOM     45  N   UNL     1      -5.764 -12.995   0.728  1.00  0.00    -0.248 NA
ATOM     46  C   UNL     1      -4.199 -14.706   1.010  1.00  0.00     0.031 C 
ATOM     47  C   UNL     1     -10.056 -13.347   1.819  1.00  0.00     0.029 A 
ATOM     48  C   UNL     1      -8.721 -13.272   1.456  1.00  0.00     0.049 A 
ATOM     49  H   UNL     1      -7.634 -11.620   0.723  1.00  0.00     0.167 HD
ATOM     50  C   UNL     1      -6.413 -14.136   1.186  1.00  0.00     0.074 A 
ATOM     51  C   UNL     1      -5.407 -15.172   1.298  1.00  0.00     0.031 C 
ATOM     52  C   UNL     1      -7.721 -14.308   1.498  1.00  0.00     0.034 A 
BRANCH  39  53
ATOM     53  C   UNL     1     -11.145  -9.194   0.906  1.00  0.00     0.023 A 
ATOM     54  C   UNL     1     -11.925  -8.900  -0.232  1.00  0.00     0.012 A 
ATOM     55  C   UNL     1     -11.657  -8.903   2.186  1.00  0.00     0.148 A 
ATOM     56  C   UNL     1     -13.172  -8.291  -0.103  1.00  0.00     0.002 A 
ATOM     57  C   UNL     1     -12.922  -8.338   2.309  1.00  0.00     0.091 A 
ATOM     58  F   UNL     1     -10.895  -9.169   3.256  1.00  0.00    -0.205 F 
ATOM     59  C   UNL     1     -13.675  -8.020   1.166  1.00  0.00     0.022 A 
BRANCH  57  60
ATOM     60  S   UNL     1     -13.693  -8.027   3.901  1.00  0.00     0.127 S 
ATOM     61  O   UNL     1     -13.636  -6.567   3.976  1.00  0.00    -0.237 OA
ATOM     62  O   UNL     1     -15.036  -8.574   3.706  1.00  0.00    -0.237 OA
ATOM     63  O   UNL     1     -12.886  -8.736   4.883  1.00  0.00    -0.744 OA
ENDBRANCH  57  60
ENDBRANCH  39  53
BRANCH  40  64
ATOM     64  C   UNL     1      -1.986 -13.087  -0.042  1.00  0.00     0.023 A 
ATOM     65  C   UNL     1      -1.748 -14.120  -0.970  1.00  0.00     0.012 A 
ATOM     66  C   UNL     1      -0.918 -12.605   0.738  1.00  0.00     0.148 A 
ATOM     67  C   UNL     1      -0.480 -14.687  -1.094  1.00  0.00     0.002 A 
ATOM     68  C   UNL     1       0.356 -13.137   0.570  1.00  0.00     0.091 A 
ATOM     69  F   UNL     1      -1.166 -11.628   1.621  1.00  0.00    -0.205 F 
ATOM     70  C   UNL     1       0.573 -14.190  -0.332  1.00  0.00     0.022 A 
BRANCH  68  71
ATOM     71  S   UNL     1       1.794 -12.469   1.414  1.00  0.00     0.127 S 
ATOM     72  O   UNL     1       2.082 -13.518   2.391  1.00  0.00    -0.237 OA
ATOM     73  O   UNL     1       2.764 -12.364   0.321  1.00  0.00    -0.237 OA
ATOM     74  O   UNL     1       1.369 -11.191   1.961  1.00  0.00    -0.744 OA
ENDBRANCH  68  71
ENDBRANCH  40  64
BRANCH  52  75
ATOM     75  C   UNL     1      -8.159 -15.678   1.944  1.00  0.00     0.023 A 
ATOM     76  C   UNL     1      -7.796 -16.153   3.219  1.00  0.00     0.012 A 
ATOM     77  C   UNL     1      -8.991 -16.465   1.123  1.00  0.00     0.148 A 
ATOM     78  C   UNL     1      -8.224 -17.406   3.656  1.00  0.00     0.002 A 
ATOM     79  C   UNL     1      -9.454 -17.691   1.585  1.00  0.00     0.091 A 
ATOM     80  F   UNL     1      -9.309 -16.006  -0.096  1.00  0.00    -0.205 F 
ATOM     81  C   UNL     1      -9.062 -18.169   2.845  1.00  0.00     0.022 A 
BRANCH  79  82
ATOM     82  S   UNL     1     -10.616 -18.688   0.645  1.00  0.00     0.127 S 
ATOM     83  O   UNL     1      -9.743 -19.725   0.097  1.00  0.00    -0.237 OA
ATOM     84  O   UNL     1     -11.540 -19.153   1.681  1.00  0.00    -0.237 OA
ATOM     85  O   UNL     1     -11.213 -17.787  -0.331  1.00  0.00    -0.744 OA
ENDBRANCH  79  82
ENDBRANCH  52  75
ENDBRANCH  26  27
ENDBRANCH  18  21
ENDBRANCH   1  17
TORSDOF 14
