REMARK SMILES Cc1cc2c(c(C)c1Cl)C=C(C(=O)NCCCNC(=O)c1ccc(-c3c4nc(c(-c5cccc(S(=O)(=O)[O-])c5F)c5ccc([nH]5)c(-c5cccc(S(=O)(=O)[O-])c5F)c5nc(c(-c6cccc(S(=O)(=O)[O-])c6F)c6ccc3[nH]6)C=C5)C=C4)cc1)[C@@H](C(F)(F)F)O2
REMARK SMILES IDX 17 1 16 2 15 3 14 4 12 5 13 6 11 8 1 9 2 10 3 11 8 12 4 13
REMARK SMILES IDX 6 14 9 15 5 16 89 17 7 18 10 19 84 20 85 21 86 22 87 23
REMARK SMILES IDX 88 24 18 25 19 26 20 28 21 29 22 30 83 31 23 32 82 33 24 34
REMARK SMILES IDX 25 35 26 36 76 37 27 38 81 39 75 40 77 41 28 42 80 43 74 44
REMARK SMILES IDX 73 45 29 47 61 48 41 49 60 50 42 51 45 52 59 53 78 54 43 55
REMARK SMILES IDX 44 56 58 58 79 59 46 60 30 61 31 62 39 63 32 64 34 65 40 66
REMARK SMILES IDX 33 67 35 68 36 69 37 70 38 71 62 72 63 73 71 74 64 75 66 76
REMARK SMILES IDX 72 77 65 78 67 79 68 80 69 81 70 82 47 83 48 84 56 85 49 86
REMARK SMILES IDX 51 87 57 88 50 89 52 90 53 91 54 92 55 93
REMARK H PARENT 14 7 18 27 77 46 45 57
REMARK Flexibility Score: inf
ROOT
ATOM      1  C   UNL     1      -1.717  -2.131  10.638  1.00  0.00     0.118 C 
ENDROOT
BRANCH   1   2
ATOM      2  C   UNL     1      -1.477  -2.319   9.145  1.00  0.00     0.042 C 
BRANCH   2   3
ATOM      3  C   UNL     1      -2.442  -1.507   8.294  1.00  0.00     0.118 C 
BRANCH   3   4
ATOM      4  N   UNL     1      -2.087  -0.096   8.257  1.00  0.00    -0.352 N 
ATOM      5  C   UNL     1      -1.582   0.779   7.357  1.00  0.00     0.251 C 
ATOM      6  O   UNL     1      -1.460   1.939   7.766  1.00  0.00    -0.270 OA
ATOM      7  H   UNL     1      -2.262   0.340   9.122  1.00  0.00     0.163 HD
BRANCH   5   8
ATOM      8  C   UNL     1      -1.194   0.447   5.955  1.00  0.00     0.067 C 
ATOM      9  C   UNL     1       1.025   0.195  -0.158  1.00  0.00     0.046 C 
ATOM     10  C   UNL     1       0.577   0.593   1.222  1.00  0.00    -0.028 A 
ATOM     11  C   UNL     1       0.165  -0.413   2.099  1.00  0.00     0.052 A 
ATOM     12  C   UNL     1       0.599   1.927   1.677  1.00  0.00     0.047 A 
ATOM     13  C   UNL     1      -0.241  -0.100   3.391  1.00  0.00     0.128 A 
ATOM     14  C   UNL     1       0.192   2.260   2.994  1.00  0.00    -0.021 A 
ATOM     15  Cl  UNL     1       1.157   3.161   0.586  1.00  0.00    -0.084 Cl
ATOM     16  C   UNL     1      -0.227   1.218   3.858  1.00  0.00     0.022 A 
ATOM     17  O   UNL     1      -0.603  -1.166   4.162  1.00  0.00    -0.475 OA
ATOM     18  C   UNL     1       0.208   3.683   3.499  1.00  0.00     0.047 C 
ATOM     19  C   UNL     1      -0.612   1.439   5.256  1.00  0.00     0.026 C 
ATOM     20  C   UNL     1      -1.445  -0.881   5.307  1.00  0.00     0.314 C 
BRANCH  20  21
ATOM     21  C   UNL     1      -2.921  -1.075   4.914  1.00  0.00     0.429 C 
ATOM     22  F   UNL     1      -3.186  -2.385   4.678  1.00  0.00    -0.167 F 
ATOM     23  F   UNL     1      -3.779  -0.682   5.887  1.00  0.00    -0.167 F 
ATOM     24  F   UNL     1      -3.260  -0.388   3.799  1.00  0.00    -0.167 F 
ENDBRANCH  20  21
ENDBRANCH   5   8
ENDBRANCH   3   4
ENDBRANCH   2   3
ENDBRANCH   1   2
BRANCH   1  25
ATOM     25  N   UNL     1      -3.029  -2.630  11.046  1.00  0.00    -0.352 N 
ATOM     26  C   UNL     1      -3.365  -3.764  11.743  1.00  0.00     0.251 C 
ATOM     27  H   UNL     1      -3.790  -2.065  10.779  1.00  0.00     0.163 HD
ATOM     28  O   UNL     1      -4.533  -4.149  11.751  1.00  0.00    -0.269 OA
BRANCH  26  29
ATOM     29  C   UNL     1      -2.329  -4.515  12.477  1.00  0.00     0.039 A 
ATOM     30  C   UNL     1      -2.336  -5.911  12.443  1.00  0.00     0.014 A 
ATOM     31  C   UNL     1      -1.358  -3.834  13.216  1.00  0.00     0.014 A 
ATOM     32  C   UNL     1      -1.325  -6.621  13.095  1.00  0.00     0.010 A 
ATOM     33  C   UNL     1      -0.301  -4.536  13.781  1.00  0.00     0.010 A 
ATOM     34  C   UNL     1      -0.280  -5.937  13.738  1.00  0.00    -0.014 A 
BRANCH  34  35
ATOM     35  C   UNL     1       0.844  -6.662  14.379  1.00  0.00     0.031 A 
ATOM     36  C   UNL     1       1.085  -6.521  15.858  1.00  0.00     0.074 A 
ATOM     37  C   UNL     1       1.696  -7.375  13.614  1.00  0.00     0.049 A 
ATOM     38  N   UNL     1       2.046  -7.025  16.585  1.00  0.00    -0.248 NA
ATOM     39  C   UNL     1       0.143  -5.678  16.617  1.00  0.00     0.031 C 
ATOM     40  C   UNL     1       1.612  -7.512  12.157  1.00  0.00     0.029 A 
ATOM     41  N   UNL     1       2.810  -8.102  13.949  1.00  0.00    -0.354 N 
ATOM     42  C   UNL     1       1.845  -6.539  17.871  1.00  0.00     0.074 A 
ATOM     43  C   UNL     1       0.697  -5.664  17.822  1.00  0.00     0.031 C 
ATOM     44  C   UNL     1       2.620  -8.288  11.729  1.00  0.00     0.029 A 
ATOM     45  C   UNL     1       3.438  -8.683  12.871  1.00  0.00     0.049 A 
ATOM     46  H   UNL     1       3.131  -8.200  14.875  1.00  0.00     0.167 HD
ATOM     47  C   UNL     1       2.530  -6.831  19.001  1.00  0.00     0.034 A 
ATOM     48  C   UNL     1       4.546  -9.449  12.811  1.00  0.00     0.034 A 
ATOM     49  C   UNL     1       3.626  -7.757  19.053  1.00  0.00     0.049 A 
ATOM     50  C   UNL     1       5.253  -9.800  14.093  1.00  0.00     0.074 A 
ATOM     51  C   UNL     1       4.327  -8.190  20.164  1.00  0.00     0.029 A 
ATOM     52  N   UNL     1       4.174  -8.397  17.954  1.00  0.00    -0.354 N 
ATOM     53  N   UNL     1       4.950  -9.456  15.321  1.00  0.00    -0.248 NA
ATOM     54  C   UNL     1       6.433 -10.673  13.990  1.00  0.00     0.031 C 
ATOM     55  C   UNL     1       5.311  -9.083  19.734  1.00  0.00     0.029 A 
ATOM     56  C   UNL     1       5.208  -9.222  18.359  1.00  0.00     0.049 A 
ATOM     57  H   UNL     1       3.873  -8.283  17.024  1.00  0.00     0.167 HD
ATOM     58  C   UNL     1       5.876 -10.096  16.137  1.00  0.00     0.074 A 
ATOM     59  C   UNL     1       6.739 -10.866  15.266  1.00  0.00     0.031 C 
ATOM     60  C   UNL     1       6.012 -10.035  17.484  1.00  0.00     0.034 A 
BRANCH  47  61
ATOM     61  C   UNL     1       2.067  -6.219  20.296  1.00  0.00     0.023 A 
ATOM     62  C   UNL     1       0.881  -6.692  20.894  1.00  0.00     0.012 A 
ATOM     63  C   UNL     1       2.857  -5.274  20.979  1.00  0.00     0.148 A 
ATOM     64  C   UNL     1       0.481  -6.226  22.145  1.00  0.00     0.002 A 
ATOM     65  C   UNL     1       2.476  -4.846  22.245  1.00  0.00     0.091 A 
ATOM     66  F   UNL     1       3.972  -4.826  20.384  1.00  0.00    -0.205 F 
ATOM     67  C   UNL     1       1.285  -5.315  22.825  1.00  0.00     0.022 A 
BRANCH  65  68
ATOM     68  S   UNL     1       3.479  -3.742  23.245  1.00  0.00     0.127 S 
ATOM     69  O   UNL     1       2.610  -2.571  23.354  1.00  0.00    -0.237 OA
ATOM     70  O   UNL     1       3.630  -4.506  24.484  1.00  0.00    -0.237 OA
ATOM     71  O   UNL     1       4.712  -3.529  22.501  1.00  0.00    -0.744 OA
ENDBRANCH  65  68
ENDBRANCH  47  61
BRANCH  48  72
ATOM     72  C   UNL     1       4.997 -10.008  11.504  1.00  0.00     0.023 A 
ATOM     73  C   UNL     1       4.880 -11.393  11.272  1.00  0.00     0.012 A 
ATOM     74  C   UNL     1       5.497  -9.184  10.477  1.00  0.00     0.148 A 
ATOM     75  C   UNL     1       5.282 -11.950  10.057  1.00  0.00     0.002 A 
ATOM     76  C   UNL     1       5.840  -9.737   9.248  1.00  0.00     0.091 A 
ATOM     77  F   UNL     1       5.616  -7.870  10.717  1.00  0.00    -0.205 F 
ATOM     78  C   UNL     1       5.751 -11.122   9.042  1.00  0.00     0.022 A 
BRANCH  76  79
ATOM     79  S   UNL     1       6.312  -8.724   7.841  1.00  0.00     0.127 S 
ATOM     80  O   UNL     1       7.754  -8.946   7.781  1.00  0.00    -0.237 OA
ATOM     81  O   UNL     1       5.548  -9.337   6.753  1.00  0.00    -0.237 OA
ATOM     82  O   UNL     1       5.888  -7.372   8.177  1.00  0.00    -0.744 OA
ENDBRANCH  76  79
ENDBRANCH  48  72
BRANCH  60  83
ATOM     83  C   UNL     1       7.113 -10.834  18.126  1.00  0.00     0.023 A 
ATOM     84  C   UNL     1       8.445 -10.391  18.015  1.00  0.00     0.012 A 
ATOM     85  C   UNL     1       6.812 -11.932  18.956  1.00  0.00     0.148 A 
ATOM     86  C   UNL     1       9.465 -11.038  18.712  1.00  0.00     0.002 A 
ATOM     87  C   UNL     1       7.825 -12.539  19.687  1.00  0.00     0.091 A 
ATOM     88  F   UNL     1       5.538 -12.343  19.035  1.00  0.00    -0.205 F 
ATOM     89  C   UNL     1       9.153 -12.099  19.559  1.00  0.00     0.022 A 
BRANCH  87  90
ATOM     90  S   UNL     1       7.506 -13.838  20.887  1.00  0.00     0.127 S 
ATOM     91  O   UNL     1       8.105 -15.001  20.233  1.00  0.00    -0.237 OA
ATOM     92  O   UNL     1       8.232 -13.358  22.063  1.00  0.00    -0.237 OA
ATOM     93  O   UNL     1       6.059 -13.892  21.048  1.00  0.00    -0.744 OA
ENDBRANCH  87  90
ENDBRANCH  60  83
ENDBRANCH  34  35
ENDBRANCH  26  29
ENDBRANCH   1  25
TORSDOF 14
