REMARK SMILES C[C@@](NC(=O)CN1CSCC1=O)(C(=O)NCCCNC(=O)c1ccc(-c2c3nc(c(-c4cccc(S(=O)(=O)[O-])c4F)c4ccc([nH]4)c(-c4cccc(S(=O)(=O)[O-])c4F)c4nc(c(-c5cccc(S(=O)(=O)[O-])c5F)c5ccc2[nH]5)C=C4)C=C3)cc1)C(F)(F)F
REMARK SMILES IDX 17 1 16 2 15 3 13 4 14 5 2 7 1 8 3 9 4 10 5 12 6 13 7 14
REMARK SMILES IDX 8 15 11 16 9 17 10 18 12 19 85 20 86 21 87 22 88 23 18 24
REMARK SMILES IDX 19 25 20 26 21 28 22 29 23 30 84 31 24 32 83 33 25 34 26 35
REMARK SMILES IDX 27 36 77 37 28 38 82 39 76 40 78 41 29 42 81 43 75 44 74 45
REMARK SMILES IDX 30 47 62 48 42 49 61 50 43 51 46 52 60 53 79 54 44 55 45 56
REMARK SMILES IDX 59 58 80 59 47 60 31 61 32 62 40 63 33 64 35 65 41 66 34 67
REMARK SMILES IDX 36 68 37 69 38 70 39 71 63 72 64 73 72 74 65 75 67 76 73 77
REMARK SMILES IDX 66 78 68 79 69 80 70 81 71 82 48 83 49 84 57 85 50 86 52 87
REMARK SMILES IDX 58 88 51 89 53 90 54 91 55 92 56 93
REMARK H PARENT 15 6 3 11 19 27 78 46 46 57
REMARK Flexibility Score: inf
ROOT
ATOM      1  C   UNL     1      -0.313  -3.392  -0.582  1.00  0.00     0.042 C 
ENDROOT
BRANCH   1   2
ATOM      2  C   UNL     1      -0.189  -1.990  -1.163  1.00  0.00     0.117 C 
BRANCH   2   3
ATOM      3  N   UNL     1      -0.679  -0.943  -0.274  1.00  0.00    -0.354 N 
ATOM      4  C   UNL     1      -0.341   0.387  -0.219  1.00  0.00     0.254 C 
ATOM      5  O   UNL     1      -0.936   1.084   0.605  1.00  0.00    -0.272 OA
ATOM      6  H   UNL     1      -1.351  -1.232   0.384  1.00  0.00     0.163 HD
BRANCH   4   7
ATOM      7  C   UNL     1       0.832   0.935  -1.041  1.00  0.00     0.212 C 
ATOM      8  C   UNL     1       2.131   0.380  -0.398  1.00  0.00     0.056 C 
BRANCH   7   9
ATOM      9  N   UNL     1       0.769   0.480  -2.465  1.00  0.00    -0.333 N 
ATOM     10  C   UNL     1      -0.104   0.736  -3.479  1.00  0.00     0.240 C 
ATOM     11  H   UNL     1       1.504  -0.124  -2.719  1.00  0.00     0.164 HD
ATOM     12  O   UNL     1       0.343   0.540  -4.616  1.00  0.00    -0.273 OA
BRANCH  10  13
ATOM     13  C   UNL     1      -1.509   1.345  -3.302  1.00  0.00     0.220 C 
BRANCH  13  14
ATOM     14  N   UNL     1      -2.497   0.627  -2.507  1.00  0.00    -0.323 N 
ATOM     15  C   UNL     1      -3.399   1.373  -1.666  1.00  0.00     0.190 C 
ATOM     16  C   UNL     1      -2.949  -0.620  -2.918  1.00  0.00     0.233 C 
ATOM     17  S   UNL     1      -4.623   0.233  -1.021  1.00  0.00    -0.130 SA
ATOM     18  C   UNL     1      -4.156  -1.097  -2.141  1.00  0.00     0.171 C 
ATOM     19  O   UNL     1      -2.407  -1.286  -3.793  1.00  0.00    -0.274 OA
ENDBRANCH  13  14
ENDBRANCH  10  13
ENDBRANCH   7   9
BRANCH   7  20
ATOM     20  C   UNL     1       0.922   2.470  -0.888  1.00  0.00     0.420 C 
ATOM     21  F   UNL     1       1.133   2.873   0.384  1.00  0.00    -0.168 F 
ATOM     22  F   UNL     1       1.982   2.936  -1.610  1.00  0.00    -0.168 F 
ATOM     23  F   UNL     1      -0.164   3.120  -1.354  1.00  0.00    -0.168 F 
ENDBRANCH   7  20
ENDBRANCH   4   7
ENDBRANCH   2   3
ENDBRANCH   1   2
BRANCH   1  24
ATOM     24  C   UNL     1      -1.738  -3.925  -0.539  1.00  0.00     0.118 C 
BRANCH  24  25
ATOM     25  N   UNL     1      -2.351  -4.074  -1.851  1.00  0.00    -0.352 N 
ATOM     26  C   UNL     1      -3.442  -4.843  -2.192  1.00  0.00     0.251 C 
ATOM     27  H   UNL     1      -1.935  -3.564  -2.583  1.00  0.00     0.163 HD
ATOM     28  O   UNL     1      -3.834  -4.888  -3.349  1.00  0.00    -0.269 OA
BRANCH  26  29
ATOM     29  C   UNL     1      -4.112  -5.652  -1.152  1.00  0.00     0.039 A 
ATOM     30  C   UNL     1      -4.289  -7.015  -1.394  1.00  0.00     0.014 A 
ATOM     31  C   UNL     1      -4.533  -5.087   0.056  1.00  0.00     0.014 A 
ATOM     32  C   UNL     1      -4.822  -7.828  -0.394  1.00  0.00     0.010 A 
ATOM     33  C   UNL     1      -5.011  -5.909   1.074  1.00  0.00     0.010 A 
ATOM     34  C   UNL     1      -5.151  -7.288   0.861  1.00  0.00    -0.014 A 
BRANCH  34  35
ATOM     35  C   UNL     1      -5.581  -8.181   1.964  1.00  0.00     0.031 A 
ATOM     36  C   UNL     1      -6.983  -8.133   2.496  1.00  0.00     0.074 A 
ATOM     37  C   UNL     1      -4.674  -9.012   2.516  1.00  0.00     0.049 A 
ATOM     38  N   UNL     1      -7.547  -8.905   3.389  1.00  0.00    -0.248 NA
ATOM     39  C   UNL     1      -7.861  -7.073   1.978  1.00  0.00     0.031 C 
ATOM     40  C   UNL     1      -3.255  -9.071   2.156  1.00  0.00     0.029 A 
ATOM     41  N   UNL     1      -4.806  -9.958   3.500  1.00  0.00    -0.354 N 
ATOM     42  C   UNL     1      -8.837  -8.417   3.553  1.00  0.00     0.074 A 
ATOM     43  C   UNL     1      -8.961  -7.258   2.695  1.00  0.00     0.031 C 
ATOM     44  C   UNL     1      -2.653 -10.016   2.894  1.00  0.00     0.029 A 
ATOM     45  C   UNL     1      -3.638 -10.628   3.780  1.00  0.00     0.049 A 
ATOM     46  H   UNL     1      -5.656 -10.140   3.962  1.00  0.00     0.167 HD
ATOM     47  C   UNL     1      -9.837  -8.909   4.323  1.00  0.00     0.034 A 
ATOM     48  C   UNL     1      -3.395 -11.641   4.635  1.00  0.00     0.034 A 
ATOM     49  C   UNL     1      -9.713 -10.080   5.150  1.00  0.00     0.049 A 
ATOM     50  C   UNL     1      -4.545 -12.230   5.405  1.00  0.00     0.074 A 
ATOM     51  C   UNL     1     -10.683 -10.703   5.916  1.00  0.00     0.029 A 
ATOM     52  N   UNL     1      -8.544 -10.806   5.321  1.00  0.00    -0.354 N 
ATOM     53  N   UNL     1      -5.807 -11.872   5.405  1.00  0.00    -0.248 NA
ATOM     54  C   UNL     1      -4.251 -13.397   6.249  1.00  0.00     0.031 C 
ATOM     55  C   UNL     1     -10.097 -11.803   6.554  1.00  0.00     0.029 A 
ATOM     56  C   UNL     1      -8.767 -11.873   6.174  1.00  0.00     0.049 A 
ATOM     57  H   UNL     1      -7.681 -10.594   4.897  1.00  0.00     0.167 HD
ATOM     58  C   UNL     1      -6.464 -12.791   6.215  1.00  0.00     0.074 A 
ATOM     59  C   UNL     1      -5.463 -13.735   6.670  1.00  0.00     0.031 C 
ATOM     60  C   UNL     1      -7.773 -12.839   6.566  1.00  0.00     0.034 A 
BRANCH  47  61
ATOM     61  C   UNL     1     -11.174  -8.219   4.251  1.00  0.00     0.023 A 
ATOM     62  C   UNL     1     -11.962  -8.368   3.091  1.00  0.00     0.012 A 
ATOM     63  C   UNL     1     -11.673  -7.470   5.333  1.00  0.00     0.148 A 
ATOM     64  C   UNL     1     -13.210  -7.754   2.994  1.00  0.00     0.002 A 
ATOM     65  C   UNL     1     -12.936  -6.893   5.245  1.00  0.00     0.091 A 
ATOM     66  F   UNL     1     -10.902  -7.320   6.419  1.00  0.00    -0.205 F 
ATOM     67  C   UNL     1     -13.700  -7.025   4.074  1.00  0.00     0.022 A 
BRANCH  65  68
ATOM     68  S   UNL     1     -13.686  -5.994   6.609  1.00  0.00     0.127 S 
ATOM     69  O   UNL     1     -13.575  -4.611   6.147  1.00  0.00    -0.237 OA
ATOM     70  O   UNL     1     -15.049  -6.526   6.619  1.00  0.00    -0.237 OA
ATOM     71  O   UNL     1     -12.898  -6.328   7.787  1.00  0.00    -0.744 OA
ENDBRANCH  65  68
ENDBRANCH  47  61
BRANCH  48  72
ATOM     72  C   UNL     1      -2.031 -12.236   4.708  1.00  0.00     0.023 A 
ATOM     73  C   UNL     1      -1.808 -13.517   4.165  1.00  0.00     0.012 A 
ATOM     74  C   UNL     1      -0.949 -11.531   5.268  1.00  0.00     0.148 A 
ATOM     75  C   UNL     1      -0.541 -14.098   4.208  1.00  0.00     0.002 A 
ATOM     76  C   UNL     1       0.323 -12.093   5.259  1.00  0.00     0.091 A 
ATOM     77  F   UNL     1      -1.182 -10.318   5.791  1.00  0.00    -0.205 F 
ATOM     78  C   UNL     1       0.526 -13.383   4.745  1.00  0.00     0.022 A 
BRANCH  76  79
ATOM     79  S   UNL     1       1.773 -11.183   5.803  1.00  0.00     0.127 S 
ATOM     80  O   UNL     1       2.026 -11.775   7.114  1.00  0.00    -0.237 OA
ATOM     81  O   UNL     1       2.755 -11.523   4.773  1.00  0.00    -0.237 OA
ATOM     82  O   UNL     1       1.372  -9.782   5.802  1.00  0.00    -0.744 OA
ENDBRANCH  76  79
ENDBRANCH  48  72
BRANCH  60  83
ATOM     83  C   UNL     1      -8.210 -13.969   7.460  1.00  0.00     0.023 A 
ATOM     84  C   UNL     1      -7.850 -13.961   8.822  1.00  0.00     0.012 A 
ATOM     85  C   UNL     1      -9.025 -15.006   6.966  1.00  0.00     0.148 A 
ATOM     86  C   UNL     1      -8.265 -14.987   9.671  1.00  0.00     0.002 A 
ATOM     87  C   UNL     1      -9.472 -16.001   7.829  1.00  0.00     0.091 A 
ATOM     88  F   UNL     1      -9.338 -15.013   5.662  1.00  0.00    -0.205 F 
ATOM     89  C   UNL     1      -9.084 -16.000   9.178  1.00  0.00     0.022 A 
BRANCH  87  90
ATOM     90  S   UNL     1     -10.604 -17.285   7.283  1.00  0.00     0.127 S 
ATOM     91  O   UNL     1      -9.691 -18.391   7.003  1.00  0.00    -0.237 OA
ATOM     92  O   UNL     1     -11.454 -17.480   8.459  1.00  0.00    -0.237 OA
ATOM     93  O   UNL     1     -11.299 -16.727   6.130  1.00  0.00    -0.744 OA
ENDBRANCH  87  90
ENDBRANCH  60  83
ENDBRANCH  34  35
ENDBRANCH  26  29
ENDBRANCH  24  25
ENDBRANCH   1  24
TORSDOF 17
