REMARK SMILES CC(C)CCc1cc2c(cc1Cl)C=C(C(=O)NCCCNC(=O)c1ccc(-c3c4nc(c(-c5cccc(S(=O)(=O)[O-])c5F)c5ccc([nH]5)c(-c5cccc(S(=O)(=O)[O-])c5F)c5nc(c(-c6cccc(S(=O)(=O)[O-])c6F)c6ccc3[nH]6)C=C5)C=C4)cc1)[C@@H](C(F)(F)F)O2
REMARK SMILES IDX 19 1 18 2 17 3 15 4 16 5 14 7 6 8 7 9 11 10 8 11 10 12 12 13
REMARK SMILES IDX 9 14 92 15 13 16 87 17 5 18 4 19 2 20 1 21 3 22 88 23 89 24
REMARK SMILES IDX 90 25 91 26 20 27 21 28 22 29 23 31 24 32 25 33 86 34 26 35
REMARK SMILES IDX 85 36 27 37 28 38 29 39 79 40 30 41 84 42 78 43 80 44 31 45
REMARK SMILES IDX 83 46 77 47 76 48 32 50 64 51 44 52 63 53 45 54 48 55 62 56
REMARK SMILES IDX 81 57 46 58 47 59 61 61 82 62 49 63 33 64 34 65 42 66 35 67
REMARK SMILES IDX 37 68 43 69 36 70 38 71 39 72 40 73 41 74 65 75 66 76 74 77
REMARK SMILES IDX 67 78 69 79 75 80 68 81 70 82 71 83 72 84 73 85 50 86 51 87
REMARK SMILES IDX 59 88 52 89 54 90 60 91 53 92 55 93 56 94 57 95 58 96
REMARK H PARENT 17 6 21 30 80 49 48 60
REMARK Flexibility Score: inf
ROOT
ATOM      1  C   UNL     1       3.958  -7.607   5.327  1.00  0.00     0.042 C 
ENDROOT
BRANCH   1   2
ATOM      2  C   UNL     1       4.011  -7.804   3.818  1.00  0.00     0.118 C 
BRANCH   2   3
ATOM      3  N   UNL     1       2.853  -8.527   3.312  1.00  0.00    -0.352 N 
ATOM      4  C   UNL     1       1.694  -8.219   2.683  1.00  0.00     0.251 C 
ATOM      5  O   UNL     1       0.984  -9.182   2.375  1.00  0.00    -0.270 OA
ATOM      6  H   UNL     1       2.934  -9.495   3.469  1.00  0.00     0.163 HD
BRANCH   4   7
ATOM      7  C   UNL     1       1.240  -6.839   2.357  1.00  0.00     0.067 C 
ATOM      8  C   UNL     1      -1.212  -2.714   0.833  1.00  0.00    -0.026 A 
ATOM      9  C   UNL     1      -0.309  -3.004   1.862  1.00  0.00     0.052 A 
ATOM     10  C   UNL     1      -1.760  -3.807   0.126  1.00  0.00     0.045 A 
ATOM     11  C   UNL     1       0.128  -4.305   2.081  1.00  0.00     0.128 A 
ATOM     12  C   UNL     1      -1.380  -5.130   0.410  1.00  0.00     0.032 A 
ATOM     13  Cl  UNL     1      -2.926  -3.575  -1.132  1.00  0.00    -0.084 Cl
ATOM     14  C   UNL     1      -0.407  -5.380   1.375  1.00  0.00     0.019 A 
ATOM     15  O   UNL     1       1.125  -4.465   3.004  1.00  0.00    -0.475 OA
ATOM     16  C   UNL     1       0.071  -6.724   1.693  1.00  0.00     0.025 C 
ATOM     17  C   UNL     1       1.997  -5.594   2.724  1.00  0.00     0.314 C 
BRANCH   8  18
ATOM     18  C   UNL     1      -1.567  -1.285   0.467  1.00  0.00     0.037 C 
BRANCH  18  19
ATOM     19  C   UNL     1      -0.946  -0.136   1.288  1.00  0.00     0.008 C 
BRANCH  19  20
ATOM     20  C   UNL     1       0.573   0.099   1.110  1.00  0.00    -0.017 C 
ATOM     21  C   UNL     1       0.937   0.590  -0.289  1.00  0.00     0.007 C 
ATOM     22  C   UNL     1       1.059   1.101   2.162  1.00  0.00     0.007 C 
ENDBRANCH  19  20
ENDBRANCH  18  19
ENDBRANCH   8  18
BRANCH  17  23
ATOM     23  C   UNL     1       3.058  -5.221   1.663  1.00  0.00     0.429 C 
ATOM     24  F   UNL     1       3.942  -4.325   2.164  1.00  0.00    -0.167 F 
ATOM     25  F   UNL     1       3.782  -6.295   1.261  1.00  0.00    -0.167 F 
ATOM     26  F   UNL     1       2.527  -4.680   0.542  1.00  0.00    -0.167 F 
ENDBRANCH  17  23
ENDBRANCH   4   7
ENDBRANCH   2   3
ENDBRANCH   1   2
BRANCH   1  27
ATOM     27  C   UNL     1       4.375  -8.855   6.093  1.00  0.00     0.118 C 
BRANCH  27  28
ATOM     28  N   UNL     1       5.786  -9.178   5.894  1.00  0.00    -0.352 N 
ATOM     29  C   UNL     1       6.835  -9.184   6.785  1.00  0.00     0.251 C 
ATOM     30  H   UNL     1       6.025  -9.433   4.973  1.00  0.00     0.163 HD
ATOM     31  O   UNL     1       7.982  -9.267   6.365  1.00  0.00    -0.269 OA
BRANCH  29  32
ATOM     32  C   UNL     1       6.571  -9.068   8.235  1.00  0.00     0.039 A 
ATOM     33  C   UNL     1       5.499  -9.749   8.808  1.00  0.00     0.014 A 
ATOM     34  C   UNL     1       7.398  -8.267   9.028  1.00  0.00     0.014 A 
ATOM     35  C   UNL     1       5.130  -9.470  10.116  1.00  0.00     0.010 A 
ATOM     36  C   UNL     1       7.088  -8.076  10.378  1.00  0.00     0.010 A 
ATOM     37  C   UNL     1       5.919  -8.631  10.919  1.00  0.00    -0.014 A 
BRANCH  37  38
ATOM     38  C   UNL     1       5.488  -8.367  12.317  1.00  0.00     0.031 A 
ATOM     39  C   UNL     1       5.136  -6.976  12.773  1.00  0.00     0.074 A 
ATOM     40  C   UNL     1       5.341  -9.411  13.158  1.00  0.00     0.049 A 
ATOM     41  N   UNL     1       4.678  -6.590  13.935  1.00  0.00    -0.248 NA
ATOM     42  C   UNL     1       5.325  -5.875  11.813  1.00  0.00     0.031 C 
ATOM     43  C   UNL     1       5.671 -10.802  12.836  1.00  0.00     0.029 A 
ATOM     44  N   UNL     1       4.849  -9.476  14.436  1.00  0.00    -0.354 N 
ATOM     45  C   UNL     1       4.571  -5.206  13.865  1.00  0.00     0.074 A 
ATOM     46  C   UNL     1       5.009  -4.814  12.545  1.00  0.00     0.031 C 
ATOM     47  C   UNL     1       5.306 -11.589  13.857  1.00  0.00     0.029 A 
ATOM     48  C   UNL     1       4.774 -10.757  14.930  1.00  0.00     0.049 A 
ATOM     49  H   UNL     1       4.574  -8.682  14.950  1.00  0.00     0.167 HD
ATOM     50  C   UNL     1       4.127  -4.344  14.809  1.00  0.00     0.034 A 
ATOM     51  C   UNL     1       4.330 -11.218  16.115  1.00  0.00     0.034 A 
ATOM     52  C   UNL     1       3.623  -4.742  16.094  1.00  0.00     0.049 A 
ATOM     53  C   UNL     1       3.811 -10.243  17.128  1.00  0.00     0.074 A 
ATOM     54  C   UNL     1       3.100  -3.940  17.094  1.00  0.00     0.029 A 
ATOM     55  N   UNL     1       3.568  -6.047  16.555  1.00  0.00    -0.354 N 
ATOM     56  N   UNL     1       3.654  -8.947  17.012  1.00  0.00    -0.248 NA
ATOM     57  C   UNL     1       3.405 -10.787  18.432  1.00  0.00     0.031 C 
ATOM     58  C   UNL     1       2.730  -4.761  18.162  1.00  0.00     0.029 A 
ATOM     59  C   UNL     1       3.020  -6.074  17.825  1.00  0.00     0.049 A 
ATOM     60  H   UNL     1       3.872  -6.837  16.053  1.00  0.00     0.167 HD
ATOM     61  C   UNL     1       3.129  -8.519  18.223  1.00  0.00     0.074 A 
ATOM     62  C   UNL     1       2.970  -9.697  19.052  1.00  0.00     0.031 C 
ATOM     63  C   UNL     1       2.829  -7.259  18.618  1.00  0.00     0.034 A 
BRANCH  50  64
ATOM     64  C   UNL     1       4.109  -2.877  14.479  1.00  0.00     0.023 A 
ATOM     65  C   UNL     1       3.048  -2.357  13.712  1.00  0.00     0.012 A 
ATOM     66  C   UNL     1       5.072  -2.003  15.018  1.00  0.00     0.148 A 
ATOM     67  C   UNL     1       2.950  -0.986  13.479  1.00  0.00     0.002 A 
ATOM     68  C   UNL     1       4.953  -0.635  14.805  1.00  0.00     0.091 A 
ATOM     69  F   UNL     1       6.078  -2.526  15.734  1.00  0.00    -0.205 F 
ATOM     70  C   UNL     1       3.895  -0.126  14.033  1.00  0.00     0.022 A 
BRANCH  68  71
ATOM     71  S   UNL     1       6.083   0.566  15.518  1.00  0.00     0.127 S 
ATOM     72  O   UNL     1       6.730   1.106  14.322  1.00  0.00    -0.237 OA
ATOM     73  O   UNL     1       5.167   1.490  16.186  1.00  0.00    -0.237 OA
ATOM     74  O   UNL     1       6.957  -0.182  16.410  1.00  0.00    -0.744 OA
ENDBRANCH  68  71
ENDBRANCH  50  64
BRANCH  51  75
ATOM     75  C   UNL     1       4.318 -12.684  16.364  1.00  0.00     0.023 A 
ATOM     76  C   UNL     1       3.094 -13.377  16.332  1.00  0.00     0.012 A 
ATOM     77  C   UNL     1       5.517 -13.404  16.528  1.00  0.00     0.148 A 
ATOM     78  C   UNL     1       3.064 -14.767  16.459  1.00  0.00     0.002 A 
ATOM     79  C   UNL     1       5.484 -14.790  16.605  1.00  0.00     0.091 A 
ATOM     80  F   UNL     1       6.667 -12.717  16.562  1.00  0.00    -0.205 F 
ATOM     81  C   UNL     1       4.258 -15.473  16.581  1.00  0.00     0.022 A 
BRANCH  79  82
ATOM     82  S   UNL     1       6.975 -15.791  16.634  1.00  0.00     0.127 S 
ATOM     83  O   UNL     1       6.917 -16.375  17.971  1.00  0.00    -0.237 OA
ATOM     84  O   UNL     1       6.726 -16.730  15.539  1.00  0.00    -0.237 OA
ATOM     85  O   UNL     1       8.076 -14.868  16.398  1.00  0.00    -0.744 OA
ENDBRANCH  79  82
ENDBRANCH  51  75
BRANCH  63  86
ATOM     86  C   UNL     1       2.299  -7.066  20.009  1.00  0.00     0.023 A 
ATOM     87  C   UNL     1       3.204  -7.030  21.087  1.00  0.00     0.012 A 
ATOM     88  C   UNL     1       0.936  -6.787  20.230  1.00  0.00     0.148 A 
ATOM     89  C   UNL     1       2.759  -6.721  22.370  1.00  0.00     0.002 A 
ATOM     90  C   UNL     1       0.505  -6.448  21.506  1.00  0.00     0.091 A 
ATOM     91  F   UNL     1       0.099  -6.836  19.184  1.00  0.00    -0.205 F 
ATOM     92  C   UNL     1       1.414  -6.418  22.577  1.00  0.00     0.022 A 
BRANCH  90  93
ATOM     93  S   UNL     1      -1.189  -5.970  21.861  1.00  0.00     0.127 S 
ATOM     94  O   UNL     1      -1.630  -7.062  22.728  1.00  0.00    -0.237 OA
ATOM     95  O   UNL     1      -1.011  -4.686  22.538  1.00  0.00    -0.237 OA
ATOM     96  O   UNL     1      -1.866  -5.892  20.573  1.00  0.00    -0.744 OA
ENDBRANCH  90  93
ENDBRANCH  63  86
ENDBRANCH  37  38
ENDBRANCH  29  32
ENDBRANCH  27  28
ENDBRANCH   1  27
TORSDOF 17
