REMARK SMILES C=C(C)[C@@H]1CC=C(CN2C[C@]34C=C[C@@H](O3)[C@H](C(=O)NCCCNC(=O)c3ccc(-c5c6nc(c(-c7cccc(S(=O)(=O)[O-])c7F)c7ccc([nH]7)c(-c7cccc(S(=O)(=O)[O-])c7F)c7nc(c(-c8cccc(S(=O)(=O)[O-])c8F)c8ccc5[nH]8)C=C7)C=C6)cc3)[C@@H]4C2=O)CC1
REMARK SMILES IDX 21 1 20 2 19 3 17 4 18 5 16 7 9 8 10 9 90 10 11 11 89 12
REMARK SMILES IDX 91 13 12 14 15 15 13 16 14 17 8 18 7 19 4 20 5 21 93 22 6 23
REMARK SMILES IDX 92 24 2 25 1 26 3 27 22 28 23 29 24 30 25 32 26 33 27 34
REMARK SMILES IDX 88 35 28 36 87 37 29 38 30 39 31 40 81 41 32 42 86 43 80 44
REMARK SMILES IDX 82 45 33 46 85 47 79 48 78 49 34 51 66 52 46 53 65 54 47 55
REMARK SMILES IDX 50 56 64 57 83 58 48 59 49 60 63 62 84 63 51 64 35 65 36 66
REMARK SMILES IDX 44 67 37 68 39 69 45 70 38 71 40 72 41 73 42 74 43 75 67 76
REMARK SMILES IDX 68 77 76 78 69 79 71 80 77 81 70 82 72 83 73 84 74 85 75 86
REMARK SMILES IDX 52 87 53 88 61 89 54 90 56 91 62 92 55 93 57 94 58 95 59 96
REMARK SMILES IDX 60 97
REMARK H PARENT 19 6 23 31 82 50 50 61
REMARK Flexibility Score: inf
ROOT
ATOM      1  C   UNL     1       1.099  -6.916   1.510  1.00  0.00     0.042 C 
ENDROOT
BRANCH   1   2
ATOM      2  C   UNL     1       0.037  -7.949   1.100  1.00  0.00     0.117 C 
BRANCH   2   3
ATOM      3  N   UNL     1      -1.272  -7.647   1.656  1.00  0.00    -0.356 N 
ATOM      4  C   UNL     1      -2.558  -7.702   1.254  1.00  0.00     0.227 C 
ATOM      5  O   UNL     1      -3.354  -7.564   2.197  1.00  0.00    -0.275 OA
ATOM      6  H   UNL     1      -1.201  -7.310   2.578  1.00  0.00     0.163 HD
BRANCH   4   7
ATOM      7  C   UNL     1      -3.111  -8.018  -0.152  1.00  0.00     0.127 C 
ATOM      8  N   UNL     1      -1.321  -5.706  -2.428  1.00  0.00    -0.335 N 
ATOM      9  C   UNL     1      -2.080  -5.449  -1.263  1.00  0.00     0.160 C 
ATOM     10  C   UNL     1      -1.681  -7.025  -2.722  1.00  0.00     0.230 C 
ATOM     11  C   UNL     1      -3.418  -6.115  -1.617  1.00  0.00     0.117 C 
ATOM     12  C   UNL     1      -2.551  -7.543  -1.524  1.00  0.00     0.132 C 
ATOM     13  O   UNL     1      -1.462  -7.633  -3.740  1.00  0.00    -0.274 OA
ATOM     14  C   UNL     1      -4.183  -5.277  -0.601  1.00  0.00     0.009 C 
ATOM     15  O   UNL     1      -4.486  -7.079  -1.632  1.00  0.00    -0.360 OA
ATOM     16  C   UNL     1      -4.765  -6.071   0.287  1.00  0.00     0.004 C 
ATOM     17  C   UNL     1      -4.534  -7.444  -0.231  1.00  0.00     0.155 C 
BRANCH   8  18
ATOM     18  C   UNL     1      -1.101  -4.655  -3.445  1.00  0.00     0.150 C 
BRANCH  18  19
ATOM     19  C   UNL     1      -0.345  -3.462  -2.882  1.00  0.00    -0.055 C 
ATOM     20  C   UNL     1       1.590  -1.619  -1.605  1.00  0.00     0.018 C 
ATOM     21  C   UNL     1       0.522  -2.397  -0.858  1.00  0.00     0.035 C 
ATOM     22  C   UNL     1       1.941  -2.268  -2.957  1.00  0.00     0.013 C 
ATOM     23  C   UNL     1      -0.614  -2.806  -1.736  1.00  0.00    -0.025 C 
ATOM     24  C   UNL     1       0.760  -2.872  -3.728  1.00  0.00     0.033 C 
BRANCH  20  25
ATOM     25  C   UNL     1       2.840  -1.435  -0.758  1.00  0.00    -0.077 C 
ATOM     26  C   UNL     1       3.436  -2.420  -0.060  1.00  0.00     0.008 C 
ATOM     27  C   UNL     1       3.430  -0.053  -0.772  1.00  0.00     0.039 C 
ENDBRANCH  20  25
ENDBRANCH  18  19
ENDBRANCH   8  18
ENDBRANCH   4   7
ENDBRANCH   2   3
ENDBRANCH   1   2
BRANCH   1  28
ATOM     28  C   UNL     1       1.345  -6.724   3.015  1.00  0.00     0.118 C 
BRANCH  28  29
ATOM     29  N   UNL     1       1.846  -7.913   3.684  1.00  0.00    -0.352 N 
ATOM     30  C   UNL     1       2.986  -8.125   4.425  1.00  0.00     0.251 C 
ATOM     31  H   UNL     1       1.270  -8.706   3.590  1.00  0.00     0.163 HD
ATOM     32  O   UNL     1       3.237  -9.273   4.792  1.00  0.00    -0.269 OA
BRANCH  30  33
ATOM     33  C   UNL     1       3.930  -7.032   4.775  1.00  0.00     0.039 A 
ATOM     34  C   UNL     1       5.302  -7.300   4.699  1.00  0.00     0.014 A 
ATOM     35  C   UNL     1       3.505  -5.786   5.247  1.00  0.00     0.014 A 
ATOM     36  C   UNL     1       6.238  -6.311   5.029  1.00  0.00     0.010 A 
ATOM     37  C   UNL     1       4.442  -4.782   5.533  1.00  0.00     0.010 A 
ATOM     38  C   UNL     1       5.819  -5.029   5.419  1.00  0.00    -0.014 A 
BRANCH  38  39
ATOM     39  C   UNL     1       6.817  -3.941   5.633  1.00  0.00     0.031 A 
ATOM     40  C   UNL     1       7.044  -3.324   6.989  1.00  0.00     0.074 A 
ATOM     41  C   UNL     1       7.495  -3.457   4.571  1.00  0.00     0.049 A 
ATOM     42  N   UNL     1       7.891  -2.387   7.335  1.00  0.00    -0.248 NA
ATOM     43  C   UNL     1       6.201  -3.806   8.093  1.00  0.00     0.031 C 
ATOM     44  C   UNL     1       7.316  -3.897   3.186  1.00  0.00     0.029 A 
ATOM     45  N   UNL     1       8.456  -2.478   4.486  1.00  0.00    -0.354 N 
ATOM     46  C   UNL     1       7.669  -2.146   8.687  1.00  0.00     0.074 A 
ATOM     47  C   UNL     1       6.588  -3.022   9.092  1.00  0.00     0.031 C 
ATOM     48  C   UNL     1       8.141  -3.196   2.392  1.00  0.00     0.029 A 
ATOM     49  C   UNL     1       8.897  -2.247   3.204  1.00  0.00     0.049 A 
ATOM     50  H   UNL     1       8.797  -1.988   5.269  1.00  0.00     0.167 HD
ATOM     51  C   UNL     1       8.320  -1.298   9.521  1.00  0.00     0.034 A 
ATOM     52  C   UNL     1       9.810  -1.377   2.728  1.00  0.00     0.034 A 
ATOM     53  C   UNL     1       9.424  -0.456   9.136  1.00  0.00     0.049 A 
ATOM     54  C   UNL     1      10.562  -0.494   3.686  1.00  0.00     0.074 A 
ATOM     55  C   UNL     1      10.202   0.364   9.937  1.00  0.00     0.029 A 
ATOM     56  N   UNL     1       9.905  -0.318   7.844  1.00  0.00    -0.354 N 
ATOM     57  N   UNL     1      10.460  -0.417   4.990  1.00  0.00    -0.248 NA
ATOM     58  C   UNL     1      11.585   0.392   3.110  1.00  0.00     0.031 C 
ATOM     59  C   UNL     1      11.146   1.006   9.126  1.00  0.00     0.029 A 
ATOM     60  C   UNL     1      10.963   0.578   7.822  1.00  0.00     0.049 A 
ATOM     61  H   UNL     1       9.547  -0.787   7.056  1.00  0.00     0.167 HD
ATOM     62  C   UNL     1      11.421   0.504   5.393  1.00  0.00     0.074 A 
ATOM     63  C   UNL     1      12.116   0.934   4.198  1.00  0.00     0.031 C 
ATOM     64  C   UNL     1      11.686   0.968   6.639  1.00  0.00     0.034 A 
BRANCH  51  65
ATOM     65  C   UNL     1       7.902  -1.282  10.970  1.00  0.00     0.023 A 
ATOM     66  C   UNL     1       8.265  -2.361  11.802  1.00  0.00     0.012 A 
ATOM     67  C   UNL     1       7.226  -0.179  11.528  1.00  0.00     0.148 A 
ATOM     68  C   UNL     1       7.939  -2.357  13.157  1.00  0.00     0.002 A 
ATOM     69  C   UNL     1       6.936  -0.166  12.889  1.00  0.00     0.091 A 
ATOM     70  F   UNL     1       6.871   0.831  10.720  1.00  0.00    -0.205 F 
ATOM     71  C   UNL     1       7.284  -1.257  13.702  1.00  0.00     0.022 A 
BRANCH  69  72
ATOM     72  S   UNL     1       6.159   1.239  13.698  1.00  0.00     0.127 S 
ATOM     73  O   UNL     1       4.801   0.742  13.912  1.00  0.00    -0.237 OA
ATOM     74  O   UNL     1       6.956   1.375  14.918  1.00  0.00    -0.237 OA
ATOM     75  O   UNL     1       6.282   2.353  12.768  1.00  0.00    -0.744 OA
ENDBRANCH  69  72
ENDBRANCH  51  65
BRANCH  52  76
ATOM     76  C   UNL     1      10.122  -1.359   1.271  1.00  0.00     0.023 A 
ATOM     77  C   UNL     1      11.358  -1.866   0.825  1.00  0.00     0.012 A 
ATOM     78  C   UNL     1       9.193  -0.883   0.328  1.00  0.00     0.148 A 
ATOM     79  C   UNL     1      11.673  -1.874  -0.534  1.00  0.00     0.002 A 
ATOM     80  C   UNL     1       9.491  -0.944  -1.028  1.00  0.00     0.091 A 
ATOM     81  F   UNL     1       8.029  -0.389   0.774  1.00  0.00    -0.205 F 
ATOM     82  C   UNL     1      10.737  -1.425  -1.461  1.00  0.00     0.022 A 
BRANCH  80  83
ATOM     83  S   UNL     1       8.288  -0.512  -2.290  1.00  0.00     0.127 S 
ATOM     84  O   UNL     1       8.775   0.790  -2.736  1.00  0.00    -0.237 OA
ATOM     85  O   UNL     1       8.455  -1.597  -3.257  1.00  0.00    -0.237 OA
ATOM     86  O   UNL     1       6.998  -0.511  -1.611  1.00  0.00    -0.744 OA
ENDBRANCH  80  83
ENDBRANCH  52  76
BRANCH  64  87
ATOM     87  C   UNL     1      12.783   1.992   6.781  1.00  0.00     0.023 A 
ATOM     88  C   UNL     1      12.564   3.310   6.333  1.00  0.00     0.012 A 
ATOM     89  C   UNL     1      14.009   1.668   7.395  1.00  0.00     0.148 A 
ATOM     90  C   UNL     1      13.558   4.279   6.461  1.00  0.00     0.002 A 
ATOM     91  C   UNL     1      14.980   2.651   7.557  1.00  0.00     0.091 A 
ATOM     92  F   UNL     1      14.214   0.404   7.794  1.00  0.00    -0.205 F 
ATOM     93  C   UNL     1      14.761   3.954   7.082  1.00  0.00     0.022 A 
BRANCH  91  94
ATOM     94  S   UNL     1      16.522   2.330   8.424  1.00  0.00     0.127 S 
ATOM     95  O   UNL     1      17.446   2.097   7.316  1.00  0.00    -0.237 OA
ATOM     96  O   UNL     1      16.745   3.581   9.150  1.00  0.00    -0.237 OA
ATOM     97  O   UNL     1      16.256   1.181   9.280  1.00  0.00    -0.744 OA
ENDBRANCH  91  94
ENDBRANCH  64  87
ENDBRANCH  38  39
ENDBRANCH  30  33
ENDBRANCH  28  29
ENDBRANCH   1  28
TORSDOF 16
