REMARK SMILES O=C(NCCCNC(=O)[C@@H]1[C@@H](C(=O)NCCCn2ccnc2)[C@@H]2C=C[C@H]1C2)c1ccc(-c2c3nc(c(-c4cccc(S(=O)(=O)[O-])c4F)c4ccc([nH]4)c(-c4cccc(S(=O)(=O)[O-])c4F)c4nc(c(-c5cccc(S(=O)(=O)[O-])c5F)c5ccc2[nH]5)C=C4)C=C3)cc1
REMARK SMILES IDX 6 1 5 2 4 3 3 4 1 5 2 6 28 8 29 9 90 10 30 11 89 12 31 13
REMARK SMILES IDX 32 14 33 15 83 16 34 17 88 18 82 19 84 20 35 21 87 22 81 23
REMARK SMILES IDX 80 24 36 26 68 27 48 28 67 29 49 30 52 31 66 32 85 33 50 34
REMARK SMILES IDX 51 35 65 37 86 38 53 39 37 40 38 41 46 42 39 43 41 44 47 45
REMARK SMILES IDX 40 46 42 47 43 48 44 49 45 50 69 51 70 52 78 53 71 54 73 55
REMARK SMILES IDX 79 56 72 57 74 58 75 59 76 60 77 61 54 62 55 63 63 64 56 65
REMARK SMILES IDX 58 66 64 67 57 68 59 69 60 70 61 71 62 72 7 73 8 74 9 76
REMARK SMILES IDX 10 77 11 78 26 79 23 80 25 81 27 82 24 83 12 84 13 85 14 86
REMARK SMILES IDX 15 88 16 89 17 90 18 91 19 92 22 93 20 94 21 95
REMARK H PARENT 3 7 84 25 52 36 7 75 14 87
REMARK Flexibility Score: inf
ROOT
ATOM      1  C   UNL     1       4.158  -2.696  -2.178  1.00  0.00     0.117 C 
ENDROOT
BRANCH   1   2
ATOM      2  C   UNL     1       4.944  -1.921  -1.132  1.00  0.00     0.042 C 
BRANCH   2   3
ATOM      3  C   UNL     1       4.738  -0.407  -1.170  1.00  0.00     0.118 C 
BRANCH   3   4
ATOM      4  N   UNL     1       3.361   0.034  -1.273  1.00  0.00    -0.352 N 
ATOM      5  O   UNL     1       1.308   0.718  -0.877  1.00  0.00    -0.269 OA
ATOM      6  C   UNL     1       2.315   0.183  -0.406  1.00  0.00     0.251 C 
ATOM      7  H   UNL     1       3.120   0.289  -2.192  1.00  0.00     0.163 HD
BRANCH   6   8
ATOM      8  C   UNL     1       2.280  -0.319   0.993  1.00  0.00     0.039 A 
ATOM      9  C   UNL     1       3.370  -0.827   1.701  1.00  0.00     0.014 A 
ATOM     10  C   UNL     1       1.015  -0.317   1.609  1.00  0.00     0.014 A 
ATOM     11  C   UNL     1       3.181  -1.444   2.934  1.00  0.00     0.010 A 
ATOM     12  C   UNL     1       0.825  -0.901   2.853  1.00  0.00     0.010 A 
ATOM     13  C   UNL     1       1.902  -1.513   3.487  1.00  0.00    -0.014 A 
BRANCH  13  14
ATOM     14  C   UNL     1       1.744  -2.111   4.807  1.00  0.00     0.031 A 
ATOM     15  C   UNL     1       2.371  -1.336   5.917  1.00  0.00     0.074 A 
ATOM     16  C   UNL     1       0.952  -3.181   5.024  1.00  0.00     0.049 A 
ATOM     17  N   UNL     1       3.293  -1.715   6.742  1.00  0.00    -0.248 NA
ATOM     18  C   UNL     1       2.010   0.086   6.037  1.00  0.00     0.031 C 
ATOM     19  C   UNL     1       0.054  -3.832   4.064  1.00  0.00     0.029 A 
ATOM     20  N   UNL     1       0.661  -3.815   6.196  1.00  0.00    -0.354 N 
ATOM     21  C   UNL     1       3.462  -0.649   7.629  1.00  0.00     0.074 A 
ATOM     22  C   UNL     1       2.796   0.480   7.038  1.00  0.00     0.031 C 
ATOM     23  C   UNL     1      -0.854  -4.570   4.738  1.00  0.00     0.029 A 
ATOM     24  C   UNL     1      -0.525  -4.545   6.152  1.00  0.00     0.049 A 
ATOM     25  H   UNL     1       1.233  -3.762   6.995  1.00  0.00     0.167 HD
ATOM     26  C   UNL     1       3.922  -0.835   8.898  1.00  0.00     0.034 A 
ATOM     27  C   UNL     1      -1.235  -5.004   7.213  1.00  0.00     0.034 A 
ATOM     28  C   UNL     1       4.580  -2.107   9.042  1.00  0.00     0.049 A 
ATOM     29  C   UNL     1      -0.330  -5.026   8.382  1.00  0.00     0.074 A 
ATOM     30  C   UNL     1       5.670  -2.724   8.462  1.00  0.00     0.029 A 
ATOM     31  N   UNL     1       3.883  -3.101   9.682  1.00  0.00    -0.354 N 
ATOM     32  N   UNL     1       0.700  -5.819   8.481  1.00  0.00    -0.248 NA
ATOM     33  C   UNL     1      -0.316  -3.865   9.256  1.00  0.00     0.031 C 
ATOM     34  C   UNL     1       5.303  -4.099   8.369  1.00  0.00     0.029 A 
ATOM     35  C   UNL     1       4.038  -4.242   8.944  1.00  0.00     0.049 A 
ATOM     36  H   UNL     1       3.368  -3.010  10.516  1.00  0.00     0.167 HD
ATOM     37  C   UNL     1       1.682  -5.033   9.067  1.00  0.00     0.074 A 
ATOM     38  C   UNL     1       0.969  -3.883   9.621  1.00  0.00     0.031 C 
ATOM     39  C   UNL     1       3.004  -5.240   8.793  1.00  0.00     0.034 A 
BRANCH  26  40
ATOM     40  C   UNL     1       3.447  -0.061  10.114  1.00  0.00     0.023 A 
ATOM     41  C   UNL     1       4.095  -0.331  11.342  1.00  0.00     0.012 A 
ATOM     42  C   UNL     1       2.234   0.664  10.181  1.00  0.00     0.148 A 
ATOM     43  C   UNL     1       3.524   0.022  12.570  1.00  0.00     0.002 A 
ATOM     44  C   UNL     1       1.708   1.076  11.401  1.00  0.00     0.091 A 
ATOM     45  F   UNL     1       1.500   0.852   9.083  1.00  0.00    -0.205 F 
ATOM     46  C   UNL     1       2.328   0.726  12.600  1.00  0.00     0.022 A 
BRANCH  44  47
ATOM     47  S   UNL     1       0.183   2.026  11.487  1.00  0.00     0.127 S 
ATOM     48  O   UNL     1      -0.762   1.009  11.955  1.00  0.00    -0.237 OA
ATOM     49  O   UNL     1       0.527   3.049  12.480  1.00  0.00    -0.237 OA
ATOM     50  O   UNL     1      -0.035   2.541  10.151  1.00  0.00    -0.744 OA
ENDBRANCH  44  47
ENDBRANCH  26  40
BRANCH  27  51
ATOM     51  C   UNL     1      -2.704  -5.138   7.361  1.00  0.00     0.023 A 
ATOM     52  C   UNL     1      -3.240  -5.992   8.346  1.00  0.00     0.012 A 
ATOM     53  C   UNL     1      -3.577  -4.227   6.725  1.00  0.00     0.148 A 
ATOM     54  C   UNL     1      -4.594  -5.925   8.700  1.00  0.00     0.002 A 
ATOM     55  C   UNL     1      -4.924  -4.173   7.071  1.00  0.00     0.091 A 
ATOM     56  F   UNL     1      -3.068  -3.351   5.849  1.00  0.00    -0.205 F 
ATOM     57  C   UNL     1      -5.434  -5.013   8.067  1.00  0.00     0.022 A 
BRANCH  55  58
ATOM     58  S   UNL     1      -6.060  -3.007   6.306  1.00  0.00     0.127 S 
ATOM     59  O   UNL     1      -7.177  -3.877   5.933  1.00  0.00    -0.237 OA
ATOM     60  O   UNL     1      -6.340  -2.091   7.408  1.00  0.00    -0.237 OA
ATOM     61  O   UNL     1      -5.343  -2.436   5.174  1.00  0.00    -0.744 OA
ENDBRANCH  55  58
ENDBRANCH  27  51
BRANCH  39  62
ATOM     62  C   UNL     1       3.383  -6.480   8.024  1.00  0.00     0.023 A 
ATOM     63  C   UNL     1       2.952  -6.702   6.698  1.00  0.00     0.012 A 
ATOM     64  C   UNL     1       4.333  -7.350   8.582  1.00  0.00     0.148 A 
ATOM     65  C   UNL     1       3.438  -7.781   5.956  1.00  0.00     0.002 A 
ATOM     66  C   UNL     1       4.849  -8.395   7.826  1.00  0.00     0.091 A 
ATOM     67  F   UNL     1       4.743  -7.118   9.838  1.00  0.00    -0.205 F 
ATOM     68  C   UNL     1       4.397  -8.621   6.516  1.00  0.00     0.022 A 
BRANCH  66  69
ATOM     69  S   UNL     1       6.179  -9.432   8.437  1.00  0.00     0.127 S 
ATOM     70  O   UNL     1       5.484 -10.688   8.712  1.00  0.00    -0.237 OA
ATOM     71  O   UNL     1       7.093  -9.475   7.294  1.00  0.00    -0.237 OA
ATOM     72  O   UNL     1       6.720  -8.746   9.604  1.00  0.00    -0.744 OA
ENDBRANCH  66  69
ENDBRANCH  39  62
ENDBRANCH  13  14
ENDBRANCH   6   8
ENDBRANCH   3   4
ENDBRANCH   2   3
ENDBRANCH   1   2
BRANCH   1  73
ATOM     73  N   UNL     1       4.574  -2.438  -3.539  1.00  0.00    -0.356 N 
ATOM     74  C   UNL     1       5.220  -3.202  -4.455  1.00  0.00     0.224 C 
ATOM     75  H   UNL     1       4.344  -1.537  -3.862  1.00  0.00     0.163 HD
ATOM     76  O   UNL     1       5.243  -2.750  -5.606  1.00  0.00    -0.275 OA
BRANCH  74  77
ATOM     77  C   UNL     1       6.080  -4.412  -4.085  1.00  0.00     0.098 C 
ATOM     78  C   UNL     1       6.284  -5.333  -5.333  1.00  0.00     0.098 C 
ATOM     79  C   UNL     1       5.630  -5.447  -3.021  1.00  0.00     0.025 C 
ATOM     80  C   UNL     1       5.890  -6.744  -4.822  1.00  0.00     0.025 C 
ATOM     81  C   UNL     1       4.262  -5.971  -3.388  1.00  0.00    -0.027 C 
ATOM     82  C   UNL     1       6.412  -6.721  -3.393  1.00  0.00     0.017 C 
ATOM     83  C   UNL     1       4.413  -6.736  -4.480  1.00  0.00    -0.027 C 
BRANCH  78  84
ATOM     84  C   UNL     1       7.643  -5.333  -6.019  1.00  0.00     0.224 C 
ATOM     85  O   UNL     1       7.703  -5.573  -7.233  1.00  0.00    -0.275 OA
ATOM     86  N   UNL     1       8.844  -5.178  -5.412  1.00  0.00    -0.356 N 
ATOM     87  H   UNL     1       9.600  -5.306  -6.029  1.00  0.00     0.163 HD
BRANCH  86  88
ATOM     88  C   UNL     1       9.273  -4.867  -4.058  1.00  0.00     0.117 C 
BRANCH  88  89
ATOM     89  C   UNL     1      10.459  -5.718  -3.614  1.00  0.00     0.043 C 
BRANCH  89  90
ATOM     90  C   UNL     1      11.774  -5.372  -4.307  1.00  0.00     0.125 C 
BRANCH  90  91
ATOM     91  N   UNL     1      12.275  -4.065  -3.936  1.00  0.00    -0.337 N 
ATOM     92  C   UNL     1      11.870  -2.862  -4.444  1.00  0.00     0.107 A 
ATOM     93  C   UNL     1      13.213  -3.813  -2.976  1.00  0.00     0.199 A 
ATOM     94  C   UNL     1      12.522  -1.921  -3.683  1.00  0.00     0.130 A 
ATOM     95  N   UNL     1      13.373  -2.522  -2.793  1.00  0.00    -0.245 NA
ENDBRANCH  90  91
ENDBRANCH  89  90
ENDBRANCH  88  89
ENDBRANCH  86  88
ENDBRANCH  78  84
ENDBRANCH  74  77
ENDBRANCH   1  73
TORSDOF 18
