REMARK SMILES O=C(NCCCNC(=O)c1ccc(-c2c3nc(c(-c4cccc(S(=O)(=O)[O-])c4F)c4ccc([nH]4)c(-c4cccc(S(=O)(=O)[O-])c4F)c4nc(c(-c5cccc(S(=O)(=O)[O-])c5F)c5ccc2[nH]5)C=C4)C=C3)cc1)C1=Cc2cc(S(F)(F)(F)(F)F)ccc2O[C@@H]1C(F)(F)F
REMARK SMILES IDX 6 1 5 2 4 3 3 4 1 5 2 6 73 8 74 9 88 10 75 11 87 12 76 13
REMARK SMILES IDX 86 14 77 15 85 16 84 17 89 18 90 19 91 20 92 21 78 22 79 23
REMARK SMILES IDX 80 24 81 25 82 26 83 27 7 28 8 29 9 31 10 32 11 33 72 34
REMARK SMILES IDX 12 35 71 36 13 37 14 38 15 39 65 40 16 41 70 42 64 43 66 44
REMARK SMILES IDX 17 45 69 46 63 47 62 48 18 50 50 51 30 52 49 53 31 54 34 55
REMARK SMILES IDX 48 56 67 57 32 58 33 59 47 61 68 62 35 63 19 64 20 65 28 66
REMARK SMILES IDX 21 67 23 68 29 69 22 70 24 71 25 72 26 73 27 74 51 75 52 76
REMARK SMILES IDX 60 77 53 78 55 79 61 80 54 81 56 82 57 83 58 84 59 85 36 86
REMARK SMILES IDX 37 87 45 88 38 89 40 90 46 91 39 92 41 93 42 94 43 95 44 96
REMARK H PARENT 3 7 7 30 66 49 34 60
REMARK Flexibility Score: inf
ROOT
ATOM      1  C   UNL     1       4.553   3.396   1.212  1.00  0.00     0.118 C 
ENDROOT
BRANCH   1   2
ATOM      2  C   UNL     1       5.059   2.305   0.283  1.00  0.00     0.042 C 
BRANCH   2   3
ATOM      3  C   UNL     1       4.553   0.955   0.763  1.00  0.00     0.118 C 
BRANCH   3   4
ATOM      4  N   UNL     1       3.083   0.955   0.763  1.00  0.00    -0.352 N 
ATOM      5  O   UNL     1       1.077  -0.014  -0.063  1.00  0.00    -0.270 OA
ATOM      6  C   UNL     1       2.348  -0.014  -0.063  1.00  0.00     0.251 C 
ATOM      7  H   UNL     1       2.590   1.604   1.316  1.00  0.00     0.163 HD
BRANCH   6   8
ATOM      8  C   UNL     1       3.108  -1.016  -0.916  1.00  0.00     0.067 C 
ATOM      9  C   UNL     1       4.468  -1.016  -0.916  1.00  0.00     0.025 C 
ATOM     10  C   UNL     1       2.348  -2.018  -1.770  1.00  0.00     0.314 C 
ATOM     11  C   UNL     1       5.228  -0.014  -0.063  1.00  0.00     0.019 A 
ATOM     12  O   UNL     1       3.525  -0.364   1.557  1.00  0.00    -0.475 OA
ATOM     13  C   UNL     1       6.386   0.604  -0.507  1.00  0.00     0.036 A 
ATOM     14  C   UNL     1       4.794   0.149   1.182  1.00  0.00     0.128 A 
ATOM     15  C   UNL     1       7.179   1.148   0.531  1.00  0.00     0.107 A 
ATOM     16  C   UNL     1       5.562   0.811   2.109  1.00  0.00     0.048 A 
ATOM     17  C   UNL     1       6.746   1.395   1.754  1.00  0.00     0.028 A 
BRANCH  10  18
ATOM     18  C   UNL     1       2.715  -3.429  -1.342  1.00  0.00     0.429 C 
ATOM     19  F   UNL     1       2.393  -3.603  -0.063  1.00  0.00    -0.167 F 
ATOM     20  F   UNL     1       2.050  -4.306  -2.089  1.00  0.00    -0.167 F 
ATOM     21  F   UNL     1       4.022  -3.615  -1.500  1.00  0.00    -0.167 F 
ENDBRANCH  10  18
BRANCH  15  22
ATOM     22  S   UNL     1       8.907   1.533   0.155  1.00  0.00     0.310 S 
ATOM     23  F   UNL     1       9.305   1.554   1.690  1.00  0.00    -0.094 F 
ATOM     24  F   UNL     1       8.563   3.064   0.295  1.00  0.00    -0.094 F 
ATOM     25  F   UNL     1      10.390   1.868  -0.171  1.00  0.00    -0.094 F 
ATOM     26  F   UNL     1       9.263  -0.005   0.158  1.00  0.00    -0.094 F 
ATOM     27  F   UNL     1       7.431   1.178   0.596  1.00  0.00    -0.094 F 
ENDBRANCH  15  22
ENDBRANCH   6   8
ENDBRANCH   3   4
ENDBRANCH   2   3
ENDBRANCH   1   2
BRANCH   1  28
ATOM     28  N   UNL     1       5.043   3.145   2.575  1.00  0.00    -0.352 N 
ATOM     29  C   UNL     1       5.888   4.143   3.248  1.00  0.00     0.251 C 
ATOM     30  H   UNL     1       4.805   2.309   3.038  1.00  0.00     0.163 HD
ATOM     31  O   UNL     1       6.311   3.926   4.426  1.00  0.00    -0.269 OA
BRANCH  29  32
ATOM     32  C   UNL     1       6.255   5.433   2.534  1.00  0.00     0.039 A 
ATOM     33  C   UNL     1       7.549   5.916   2.434  1.00  0.00     0.014 A 
ATOM     34  C   UNL     1       5.247   6.031   1.910  1.00  0.00     0.014 A 
ATOM     35  C   UNL     1       7.635   7.216   1.881  1.00  0.00     0.010 A 
ATOM     36  C   UNL     1       5.433   7.234   1.273  1.00  0.00     0.010 A 
ATOM     37  C   UNL     1       6.675   7.799   1.187  1.00  0.00    -0.014 A 
BRANCH  37  38
ATOM     38  C   UNL     1       6.937   9.033   0.338  1.00  0.00     0.031 A 
ATOM     39  C   UNL     1       6.205  10.171   0.682  1.00  0.00     0.074 A 
ATOM     40  C   UNL     1       7.750   8.943  -0.779  1.00  0.00     0.049 A 
ATOM     41  N   UNL     1       6.181  11.344   0.048  1.00  0.00    -0.248 NA
ATOM     42  C   UNL     1       5.315  10.257   1.849  1.00  0.00     0.031 C 
ATOM     43  C   UNL     1       8.497   7.802  -1.128  1.00  0.00     0.029 A 
ATOM     44  N   UNL     1       7.983   9.908  -1.734  1.00  0.00    -0.354 N 
ATOM     45  C   UNL     1       5.378  12.197   0.688  1.00  0.00     0.074 A 
ATOM     46  C   UNL     1       4.804  11.508   1.852  1.00  0.00     0.031 C 
ATOM     47  C   UNL     1       9.162   8.070  -2.283  1.00  0.00     0.029 A 
ATOM     48  C   UNL     1       8.842   9.384  -2.674  1.00  0.00     0.049 A 
ATOM     49  H   UNL     1       7.602  10.816  -1.743  1.00  0.00     0.167 HD
ATOM     50  C   UNL     1       5.103  13.523   0.348  1.00  0.00     0.034 A 
ATOM     51  C   UNL     1       9.329  10.000  -3.816  1.00  0.00     0.034 A 
ATOM     52  C   UNL     1       5.624  14.153  -0.771  1.00  0.00     0.049 A 
ATOM     53  C   UNL     1       9.008  11.308  -4.188  1.00  0.00     0.074 A 
ATOM     54  C   UNL     1       5.363  15.491  -1.124  1.00  0.00     0.029 A 
ATOM     55  N   UNL     1       6.464  13.621  -1.724  1.00  0.00    -0.354 N 
ATOM     56  N   UNL     1       8.237  12.172  -3.527  1.00  0.00    -0.248 NA
ATOM     57  C   UNL     1       9.492  11.960  -5.412  1.00  0.00     0.031 C 
ATOM     58  C   UNL     1       6.029  15.759  -2.279  1.00  0.00     0.029 A 
ATOM     59  C   UNL     1       6.715  14.593  -2.667  1.00  0.00     0.049 A 
ATOM     60  H   UNL     1       6.822  12.704  -1.731  1.00  0.00     0.167 HD
ATOM     61  C   UNL     1       8.179  13.333  -4.184  1.00  0.00     0.074 A 
ATOM     62  C   UNL     1       8.980  13.210  -5.410  1.00  0.00     0.031 C 
ATOM     63  C   UNL     1       7.495  14.490  -3.809  1.00  0.00     0.034 A 
BRANCH  50  64
ATOM     64  C   UNL     1       4.180  14.319   1.256  1.00  0.00     0.023 A 
ATOM     65  C   UNL     1       4.522  14.400   2.595  1.00  0.00     0.012 A 
ATOM     66  C   UNL     1       3.044  14.837   0.802  1.00  0.00     0.148 A 
ATOM     67  C   UNL     1       3.457  14.798   3.436  1.00  0.00     0.002 A 
ATOM     68  C   UNL     1       2.105  15.333   1.674  1.00  0.00     0.091 A 
ATOM     69  F   UNL     1       2.814  14.877  -0.507  1.00  0.00    -0.205 F 
ATOM     70  C   UNL     1       2.352  15.389   3.017  1.00  0.00     0.022 A 
BRANCH  68  71
ATOM     71  S   UNL     1       0.516  15.920   1.034  1.00  0.00     0.127 S 
ATOM     72  O   UNL     1      -0.618  15.105   1.660  1.00  0.00    -0.237 OA
ATOM     73  O   UNL     1       0.339  17.398   1.388  1.00  0.00    -0.237 OA
ATOM     74  O   UNL     1       0.482  15.732  -0.665  1.00  0.00    -0.744 OA
ENDBRANCH  68  71
ENDBRANCH  50  64
BRANCH  51  75
ATOM     75  C   UNL     1      10.265   9.208  -4.715  1.00  0.00     0.023 A 
ATOM     76  C   UNL     1      11.556   9.694  -4.841  1.00  0.00     0.012 A 
ATOM     77  C   UNL     1       9.899   8.069  -5.289  1.00  0.00     0.148 A 
ATOM     78  C   UNL     1      12.317   9.046  -5.843  1.00  0.00     0.002 A 
ATOM     79  C   UNL     1      10.745   7.417  -6.154  1.00  0.00     0.091 A 
ATOM     80  F   UNL     1       8.701   7.554  -5.027  1.00  0.00    -0.205 F 
ATOM     81  C   UNL     1      12.015   7.874  -6.372  1.00  0.00     0.022 A 
BRANCH  79  82
ATOM     82  S   UNL     1      10.171   5.933  -7.015  1.00  0.00     0.127 S 
ATOM     83  O   UNL     1      10.233   6.164  -8.527  1.00  0.00    -0.237 OA
ATOM     84  O   UNL     1      11.066   4.749  -6.643  1.00  0.00    -0.237 OA
ATOM     85  O   UNL     1       8.559   5.595  -6.556  1.00  0.00    -0.744 OA
ENDBRANCH  79  82
ENDBRANCH  51  75
BRANCH  63  86
ATOM     86  C   UNL     1       7.611  15.711  -4.706  1.00  0.00     0.023 A 
ATOM     87  C   UNL     1       7.164  15.705  -6.017  1.00  0.00     0.012 A 
ATOM     88  C   UNL     1       8.124  16.806  -4.158  1.00  0.00     0.148 A 
ATOM     89  C   UNL     1       7.570  16.835  -6.766  1.00  0.00     0.002 A 
ATOM     90  C   UNL     1       8.368  17.922  -4.922  1.00  0.00     0.091 A 
ATOM     91  F   UNL     1       8.404  16.823  -2.858  1.00  0.00    -0.205 F 
ATOM     92  C   UNL     1       8.007  17.964  -6.240  1.00  0.00     0.022 A 
BRANCH  90  93
ATOM     93  S   UNL     1       9.181  19.355  -4.173  1.00  0.00     0.127 S 
ATOM     94  O   UNL     1      10.489  19.645  -4.913  1.00  0.00    -0.237 OA
ATOM     95  O   UNL     1       8.259  20.573  -4.271  1.00  0.00    -0.237 OA
ATOM     96  O   UNL     1       9.517  19.026  -2.529  1.00  0.00    -0.744 OA
ENDBRANCH  90  93
ENDBRANCH  63  86
ENDBRANCH  37  38
ENDBRANCH  29  32
ENDBRANCH   1  28
TORSDOF 15
