REMARK SMILES Cc1ccc(C(=O)NCCCNC(=O)c2ccc(-c3c4nc(c(-c5cccc(S(=O)(=O)[O-])c5F)c5ccc([nH]5)c(-c5cccc(S(=O)(=O)[O-])c5F)c5nc(c(-c6cccc(S(=O)(=O)[O-])c6F)c6ccc3[nH]6)C=C5)C=C4)cc2)cc1/[NH+]=C1\NCCS1
REMARK SMILES IDX 11 1 10 2 9 3 8 4 6 5 7 6 5 8 1 9 2 10 3 11 79 12 4 13 78 14
REMARK SMILES IDX 80 15 81 16 82 18 85 19 83 20 84 22 12 23 13 24 14 26 15 27
REMARK SMILES IDX 16 28 77 29 17 30 76 31 18 32 19 33 20 34 70 35 21 36 75 37
REMARK SMILES IDX 69 38 71 39 22 40 74 41 68 42 67 43 23 45 55 46 35 47 54 48
REMARK SMILES IDX 36 49 39 50 53 51 72 52 37 53 38 54 52 56 73 57 40 58 24 59
REMARK SMILES IDX 25 60 33 61 26 62 28 63 34 64 27 65 29 66 30 67 31 68 32 69
REMARK SMILES IDX 56 70 57 71 65 72 58 73 60 74 66 75 59 76 61 77 62 78 63 79
REMARK SMILES IDX 64 80 41 81 42 82 50 83 43 84 45 85 51 86 44 87 46 88 47 89
REMARK SMILES IDX 48 90 49 91
REMARK H PARENT 8 7 80 17 82 21 12 25 71 44 39 55
REMARK Flexibility Score: inf
ROOT
ATOM      1  C   UNL     1      -4.016   4.159  -1.464  1.00  0.00     0.118 C 
ENDROOT
BRANCH   1   2
ATOM      2  C   UNL     1      -2.877   3.463  -0.742  1.00  0.00     0.042 C 
BRANCH   2   3
ATOM      3  C   UNL     1      -3.337   2.664   0.477  1.00  0.00     0.118 C 
BRANCH   3   4
ATOM      4  N   UNL     1      -3.705   1.299   0.135  1.00  0.00    -0.352 N 
ATOM      5  C   UNL     1      -2.978   0.141  -0.007  1.00  0.00     0.251 C 
ATOM      6  O   UNL     1      -3.610  -0.898  -0.207  1.00  0.00    -0.269 OA
ATOM      7  H   UNL     1      -4.669   1.181  -0.029  1.00  0.00     0.163 HD
BRANCH   5   8
ATOM      8  C   UNL     1      -1.484   0.051   0.065  1.00  0.00     0.044 A 
ATOM      9  C   UNL     1       2.814  -0.546   0.234  1.00  0.00     0.049 C 
ATOM     10  C   UNL     1       1.332  -0.315   0.169  1.00  0.00    -0.004 A 
ATOM     11  C   UNL     1       0.467  -1.417   0.167  1.00  0.00     0.008 A 
ATOM     12  C   UNL     1       0.785   0.970   0.073  1.00  0.00     0.129 A 
ATOM     13  C   UNL     1      -0.920  -1.234   0.115  1.00  0.00     0.014 A 
ATOM     14  C   UNL     1      -0.606   1.131   0.038  1.00  0.00     0.065 A 
BRANCH  12  15
ATOM     15  N   UNL     1       1.564   2.136   0.062  1.00  0.00    -0.235 N 
ATOM     16  C   UNL     1       2.169   2.468  -1.022  1.00  0.00     0.309 C 
ATOM     17  H   UNL     1       1.645   2.691   0.871  1.00  0.00     0.313 HD
ATOM     18  N   UNL     1       2.236   1.862  -2.240  1.00  0.00    -0.268 N 
ATOM     19  S   UNL     1       3.130   3.944  -1.028  1.00  0.00    -0.035 SA
ATOM     20  C   UNL     1       2.997   2.524  -3.271  1.00  0.00     0.246 C 
ATOM     21  H   UNL     1       1.783   1.005  -2.410  1.00  0.00     0.305 HD
ATOM     22  C   UNL     1       3.976   3.457  -2.561  1.00  0.00     0.128 C 
ENDBRANCH  12  15
ENDBRANCH   5   8
ENDBRANCH   3   4
ENDBRANCH   2   3
ENDBRANCH   1   2
BRANCH   1  23
ATOM     23  N   UNL     1      -4.031   5.607  -1.285  1.00  0.00    -0.352 N 
ATOM     24  C   UNL     1      -4.913   6.524  -1.835  1.00  0.00     0.251 C 
ATOM     25  H   UNL     1      -3.330   5.979  -0.702  1.00  0.00     0.163 HD
ATOM     26  O   UNL     1      -4.723   7.728  -1.705  1.00  0.00    -0.269 OA
BRANCH  24  27
ATOM     27  C   UNL     1      -6.125   5.998  -2.500  1.00  0.00     0.039 A 
ATOM     28  C   UNL     1      -7.363   6.314  -1.935  1.00  0.00     0.014 A 
ATOM     29  C   UNL     1      -6.003   4.964  -3.425  1.00  0.00     0.014 A 
ATOM     30  C   UNL     1      -8.422   5.426  -2.092  1.00  0.00     0.010 A 
ATOM     31  C   UNL     1      -7.017   4.034  -3.503  1.00  0.00     0.010 A 
ATOM     32  C   UNL     1      -8.197   4.236  -2.778  1.00  0.00    -0.014 A 
BRANCH  32  33
ATOM     33  C   UNL     1      -9.152   3.143  -2.827  1.00  0.00     0.031 A 
ATOM     34  C   UNL     1     -10.204   3.168  -3.854  1.00  0.00     0.074 A 
ATOM     35  C   UNL     1      -9.020   2.085  -2.000  1.00  0.00     0.049 A 
ATOM     36  N   UNL     1     -11.333   2.554  -3.758  1.00  0.00    -0.248 NA
ATOM     37  C   UNL     1     -10.062   3.955  -5.069  1.00  0.00     0.031 C 
ATOM     38  C   UNL     1      -9.666   0.786  -2.125  1.00  0.00     0.029 A 
ATOM     39  N   UNL     1      -8.416   2.053  -0.739  1.00  0.00    -0.354 N 
ATOM     40  C   UNL     1     -11.944   2.633  -4.992  1.00  0.00     0.074 A 
ATOM     41  C   UNL     1     -11.162   3.594  -5.734  1.00  0.00     0.031 C 
ATOM     42  C   UNL     1      -9.666   0.187  -0.924  1.00  0.00     0.029 A 
ATOM     43  C   UNL     1      -9.170   1.154   0.039  1.00  0.00     0.049 A 
ATOM     44  H   UNL     1      -7.622   2.558  -0.453  1.00  0.00     0.167 HD
ATOM     45  C   UNL     1     -12.939   1.751  -5.293  1.00  0.00     0.034 A 
ATOM     46  C   UNL     1      -9.774   1.482   1.219  1.00  0.00     0.034 A 
ATOM     47  C   UNL     1     -13.251   0.900  -4.133  1.00  0.00     0.049 A 
ATOM     48  C   UNL     1     -11.273   1.255   1.201  1.00  0.00     0.074 A 
ATOM     49  C   UNL     1     -12.826  -0.368  -3.769  1.00  0.00     0.029 A 
ATOM     50  N   UNL     1     -13.860   1.447  -3.008  1.00  0.00    -0.354 N 
ATOM     51  N   UNL     1     -11.951   0.920   0.138  1.00  0.00    -0.248 NA
ATOM     52  C   UNL     1     -12.133   1.446   2.366  1.00  0.00     0.031 C 
ATOM     53  C   UNL     1     -13.107  -0.547  -2.390  1.00  0.00     0.029 A 
ATOM     54  C   UNL     1     -13.731   0.596  -1.918  1.00  0.00     0.049 A 
ATOM     55  H   UNL     1     -14.319   2.317  -2.987  1.00  0.00     0.167 HD
ATOM     56  C   UNL     1     -13.293   1.020   0.398  1.00  0.00     0.074 A 
ATOM     57  C   UNL     1     -13.352   1.252   1.832  1.00  0.00     0.031 C 
ATOM     58  C   UNL     1     -14.230   0.986  -0.601  1.00  0.00     0.034 A 
BRANCH  45  59
ATOM     59  C   UNL     1     -13.380   1.402  -6.711  1.00  0.00     0.023 A 
ATOM     60  C   UNL     1     -13.980   0.136  -6.905  1.00  0.00     0.012 A 
ATOM     61  C   UNL     1     -13.183   2.170  -7.882  1.00  0.00     0.148 A 
ATOM     62  C   UNL     1     -14.251  -0.386  -8.175  1.00  0.00     0.002 A 
ATOM     63  C   UNL     1     -13.384   1.624  -9.156  1.00  0.00     0.091 A 
ATOM     64  F   UNL     1     -12.892   3.469  -7.786  1.00  0.00    -0.205 F 
ATOM     65  C   UNL     1     -13.914   0.341  -9.305  1.00  0.00     0.022 A 
BRANCH  63  66
ATOM     66  S   UNL     1     -12.905   2.483 -10.667  1.00  0.00     0.127 S 
ATOM     67  O   UNL     1     -12.078   1.480 -11.343  1.00  0.00    -0.237 OA
ATOM     68  O   UNL     1     -14.193   2.737 -11.306  1.00  0.00    -0.237 OA
ATOM     69  O   UNL     1     -12.169   3.669 -10.243  1.00  0.00    -0.744 OA
ENDBRANCH  63  66
ENDBRANCH  45  59
BRANCH  46  70
ATOM     70  C   UNL     1      -9.088   2.589   1.947  1.00  0.00     0.023 A 
ATOM     71  C   UNL     1      -7.755   2.349   2.356  1.00  0.00     0.012 A 
ATOM     72  C   UNL     1      -9.540   3.914   1.838  1.00  0.00     0.148 A 
ATOM     73  C   UNL     1      -6.846   3.401   2.467  1.00  0.00     0.002 A 
ATOM     74  C   UNL     1      -8.625   4.957   1.952  1.00  0.00     0.091 A 
ATOM     75  F   UNL     1     -10.827   4.136   1.542  1.00  0.00    -0.205 F 
ATOM     76  C   UNL     1      -7.269   4.700   2.210  1.00  0.00     0.022 A 
BRANCH  74  77
ATOM     77  S   UNL     1      -9.128   6.654   1.647  1.00  0.00     0.127 S 
ATOM     78  O   UNL     1      -9.566   7.073   2.974  1.00  0.00    -0.237 OA
ATOM     79  O   UNL     1      -7.887   7.276   1.186  1.00  0.00    -0.237 OA
ATOM     80  O   UNL     1     -10.158   6.549   0.624  1.00  0.00    -0.744 OA
ENDBRANCH  74  77
ENDBRANCH  46  70
BRANCH  58  81
ATOM     81  C   UNL     1     -15.701   1.317  -0.423  1.00  0.00     0.023 A 
ATOM     82  C   UNL     1     -16.170   2.122   0.635  1.00  0.00     0.012 A 
ATOM     83  C   UNL     1     -16.659   0.933  -1.397  1.00  0.00     0.148 A 
ATOM     84  C   UNL     1     -17.523   2.451   0.777  1.00  0.00     0.002 A 
ATOM     85  C   UNL     1     -17.983   1.361  -1.314  1.00  0.00     0.091 A 
ATOM     86  F   UNL     1     -16.298   0.127  -2.406  1.00  0.00    -0.205 F 
ATOM     87  C   UNL     1     -18.428   2.086  -0.208  1.00  0.00     0.022 A 
BRANCH  85  88
ATOM     88  S   UNL     1     -19.121   1.130  -2.688  1.00  0.00     0.127 S 
ATOM     89  O   UNL     1     -19.777  -0.126  -2.333  1.00  0.00    -0.237 OA
ATOM     90  O   UNL     1     -19.979   2.313  -2.590  1.00  0.00    -0.237 OA
ATOM     91  O   UNL     1     -18.278   1.105  -3.876  1.00  0.00    -0.744 OA
ENDBRANCH  85  88
ENDBRANCH  58  81
ENDBRANCH  32  33
ENDBRANCH  24  27
ENDBRANCH   1  23
TORSDOF 14
