REMARK SMILES NC(=O)c1ccc(Oc2cccc(C(=O)NCCCNC(=O)c3ccc(-c4c5nc(c(-c6cccc(S(=O)(=O)[O-])c6F)c6ccc([nH]6)c(-c6cccc(S(=O)(=O)[O-])c6F)c6nc(c(-c7cccc(S(=O)(=O)[O-])c7F)c7ccc4[nH]7)C=C6)C=C5)cc3)c2)nc1
REMARK SMILES IDX 18 1 17 2 16 3 14 4 15 5 13 7 9 8 10 9 86 10 11 11 12 12
REMARK SMILES IDX 8 13 7 14 4 15 5 16 88 17 6 18 87 19 2 20 1 21 3 24 19 25
REMARK SMILES IDX 20 26 21 27 22 29 23 30 24 31 85 32 25 33 84 34 26 35 27 36
REMARK SMILES IDX 28 37 78 38 29 39 83 40 77 41 79 42 30 43 82 44 76 45 75 46
REMARK SMILES IDX 31 48 63 49 43 50 62 51 44 52 47 53 61 54 80 55 45 56 46 57
REMARK SMILES IDX 60 59 81 60 48 61 32 62 33 63 41 64 34 65 36 66 42 67 35 68
REMARK SMILES IDX 37 69 38 70 39 71 40 72 64 73 65 74 73 75 66 76 68 77 74 78
REMARK SMILES IDX 67 79 69 80 70 81 71 82 72 83 49 84 50 85 58 86 51 87 53 88
REMARK SMILES IDX 59 89 52 90 54 91 55 92 56 93 57 94
REMARK H PARENT 16 6 1 22 1 23 20 28 79 47 47 58
REMARK Flexibility Score: inf
ROOT
ATOM      1  C   UNL     1       1.043   2.744   6.962  1.00  0.00     0.042 C 
ENDROOT
BRANCH   1   2
ATOM      2  C   UNL     1       2.334   2.991   6.184  1.00  0.00     0.118 C 
BRANCH   2   3
ATOM      3  N   UNL     1       3.426   3.337   7.076  1.00  0.00    -0.352 N 
ATOM      4  C   UNL     1       4.444   2.613   7.639  1.00  0.00     0.251 C 
ATOM      5  O   UNL     1       5.247   3.229   8.342  1.00  0.00    -0.269 OA
ATOM      6  H   UNL     1       3.438   4.289   7.328  1.00  0.00     0.163 HD
BRANCH   4   7
ATOM      7  C   UNL     1       4.677   1.163   7.380  1.00  0.00     0.043 A 
ATOM      8  C   UNL     1       4.076  -1.020   6.527  1.00  0.00     0.130 A 
ATOM      9  C   UNL     1       5.368  -1.491   6.743  1.00  0.00     0.047 A 
ATOM     10  C   UNL     1       3.708   0.266   6.933  1.00  0.00     0.061 A 
ATOM     11  C   UNL     1       6.321  -0.641   7.296  1.00  0.00     0.005 A 
ATOM     12  C   UNL     1       5.984   0.683   7.586  1.00  0.00     0.014 A 
BRANCH   8  13
ATOM     13  O   UNL     1       3.177  -1.868   5.924  1.00  0.00    -0.439 OA
BRANCH  13  14
ATOM     14  C   UNL     1       2.537  -1.434   4.777  1.00  0.00     0.219 A 
ATOM     15  C   UNL     1       1.132  -0.773   2.493  1.00  0.00     0.058 A 
ATOM     16  C   UNL     1       2.334  -0.121   2.767  1.00  0.00     0.021 A 
ATOM     17  C   UNL     1       0.691  -1.721   3.405  1.00  0.00     0.129 A 
ATOM     18  C   UNL     1       3.055  -0.469   3.912  1.00  0.00     0.070 A 
ATOM     19  N   UNL     1       1.373  -2.070   4.526  1.00  0.00    -0.221 NA
BRANCH  15  20
ATOM     20  C   UNL     1       0.317  -0.507   1.287  1.00  0.00     0.250 C 
ATOM     21  N   UNL     1       0.965  -0.019   0.184  1.00  0.00    -0.366 N 
ATOM     22  H   UNL     1       0.461   0.172  -0.639  1.00  0.00     0.159 HD
ATOM     23  H   UNL     1       1.936   0.141   0.214  1.00  0.00     0.159 HD
ATOM     24  O   UNL     1      -0.878  -0.746   1.254  1.00  0.00    -0.269 OA
ENDBRANCH  15  20
ENDBRANCH  13  14
ENDBRANCH   8  13
ENDBRANCH   4   7
ENDBRANCH   2   3
ENDBRANCH   1   2
BRANCH   1  25
ATOM     25  C   UNL     1       0.379   4.036   7.432  1.00  0.00     0.118 C 
BRANCH  25  26
ATOM     26  N   UNL     1      -0.114   4.827   6.310  1.00  0.00    -0.352 N 
ATOM     27  C   UNL     1      -1.391   5.224   6.004  1.00  0.00     0.251 C 
ATOM     28  H   UNL     1       0.577   5.123   5.674  1.00  0.00     0.163 HD
ATOM     29  O   UNL     1      -1.628   5.668   4.883  1.00  0.00    -0.269 OA
BRANCH  27  30
ATOM     30  C   UNL     1      -2.470   5.129   7.010  1.00  0.00     0.039 A 
ATOM     31  C   UNL     1      -3.747   4.736   6.599  1.00  0.00     0.014 A 
ATOM     32  C   UNL     1      -2.239   5.473   8.344  1.00  0.00     0.014 A 
ATOM     33  C   UNL     1      -4.779   4.645   7.535  1.00  0.00     0.010 A 
ATOM     34  C   UNL     1      -3.247   5.306   9.289  1.00  0.00     0.010 A 
ATOM     35  C   UNL     1      -4.531   4.904   8.893  1.00  0.00    -0.014 A 
BRANCH  35  36
ATOM     36  C   UNL     1      -5.598   4.758   9.916  1.00  0.00     0.031 A 
ATOM     37  C   UNL     1      -6.045   5.947  10.724  1.00  0.00     0.074 A 
ATOM     38  C   UNL     1      -6.100   3.535  10.179  1.00  0.00     0.049 A 
ATOM     39  N   UNL     1      -6.908   6.000  11.705  1.00  0.00    -0.248 NA
ATOM     40  C   UNL     1      -5.417   7.241  10.409  1.00  0.00     0.031 C 
ATOM     41  C   UNL     1      -5.687   2.293   9.521  1.00  0.00     0.029 A 
ATOM     42  N   UNL     1      -7.041   3.130  11.091  1.00  0.00    -0.354 N 
ATOM     43  C   UNL     1      -6.900   7.318  12.148  1.00  0.00     0.074 A 
ATOM     44  C   UNL     1      -5.919   8.024  11.353  1.00  0.00     0.031 C 
ATOM     45  C   UNL     1      -6.370   1.266  10.050  1.00  0.00     0.029 A 
ATOM     46  C   UNL     1      -7.245   1.769  11.105  1.00  0.00     0.049 A 
ATOM     47  H   UNL     1      -7.525   3.753  11.679  1.00  0.00     0.167 HD
ATOM     48  C   UNL     1      -7.660   7.896  13.108  1.00  0.00     0.034 A 
ATOM     49  C   UNL     1      -8.037   1.011  11.887  1.00  0.00     0.034 A 
ATOM     50  C   UNL     1      -8.662   7.197  13.867  1.00  0.00     0.049 A 
ATOM     51  C   UNL     1      -8.904   1.683  12.916  1.00  0.00     0.074 A 
ATOM     52  C   UNL     1      -9.547   7.707  14.801  1.00  0.00     0.029 A 
ATOM     53  N   UNL     1      -8.908   5.835  13.787  1.00  0.00    -0.354 N 
ATOM     54  N   UNL     1      -8.996   2.956  13.212  1.00  0.00    -0.248 NA
ATOM     55  C   UNL     1      -9.804   0.819  13.692  1.00  0.00     0.031 C 
ATOM     56  C   UNL     1     -10.310   6.648  15.304  1.00  0.00     0.029 A 
ATOM     57  C   UNL     1      -9.924   5.484  14.659  1.00  0.00     0.049 A 
ATOM     58  H   UNL     1      -8.430   5.209  13.196  1.00  0.00     0.167 HD
ATOM     59  C   UNL     1      -9.987   3.052  14.182  1.00  0.00     0.074 A 
ATOM     60  C   UNL     1     -10.480   1.708  14.407  1.00  0.00     0.031 C 
ATOM     61  C   UNL     1     -10.438   4.150  14.837  1.00  0.00     0.034 A 
BRANCH  48  62
ATOM     62  C   UNL     1      -7.474   9.372  13.356  1.00  0.00     0.023 A 
ATOM     63  C   UNL     1      -7.899  10.300  12.383  1.00  0.00     0.012 A 
ATOM     64  C   UNL     1      -6.930   9.844  14.566  1.00  0.00     0.148 A 
ATOM     65  C   UNL     1      -7.749  11.670  12.591  1.00  0.00     0.002 A 
ATOM     66  C   UNL     1      -6.827  11.213  14.787  1.00  0.00     0.091 A 
ATOM     67  F   UNL     1      -6.513   8.949  15.473  1.00  0.00    -0.205 F 
ATOM     68  C   UNL     1      -7.223  12.126  13.796  1.00  0.00     0.022 A 
BRANCH  66  69
ATOM     69  S   UNL     1      -6.239  11.905  16.337  1.00  0.00     0.127 S 
ATOM     70  O   UNL     1      -4.943  12.454  15.942  1.00  0.00    -0.237 OA
ATOM     71  O   UNL     1      -7.261  12.910  16.633  1.00  0.00    -0.237 OA
ATOM     72  O   UNL     1      -6.187  10.796  17.279  1.00  0.00    -0.744 OA
ENDBRANCH  66  69
ENDBRANCH  48  62
BRANCH  49  73
ATOM     73  C   UNL     1      -8.088  -0.465  11.682  1.00  0.00     0.023 A 
ATOM     74  C   UNL     1      -9.246  -1.049  11.134  1.00  0.00     0.012 A 
ATOM     75  C   UNL     1      -6.986  -1.284  11.995  1.00  0.00     0.148 A 
ATOM     76  C   UNL     1      -9.319  -2.428  10.931  1.00  0.00     0.002 A 
ATOM     77  C   UNL     1      -7.045  -2.649  11.739  1.00  0.00     0.091 A 
ATOM     78  F   UNL     1      -5.897  -0.710  12.524  1.00  0.00    -0.205 F 
ATOM     79  C   UNL     1      -8.216  -3.226  11.223  1.00  0.00     0.022 A 
BRANCH  77  80
ATOM     80  S   UNL     1      -5.630  -3.733  11.962  1.00  0.00     0.127 S 
ATOM     81  O   UNL     1      -6.043  -4.530  13.114  1.00  0.00    -0.237 OA
ATOM     82  O   UNL     1      -5.601  -4.457  10.691  1.00  0.00    -0.237 OA
ATOM     83  O   UNL     1      -4.490  -2.852  12.178  1.00  0.00    -0.744 OA
ENDBRANCH  77  80
ENDBRANCH  49  73
BRANCH  61  84
ATOM     84  C   UNL     1     -11.549   3.959  15.836  1.00  0.00     0.023 A 
ATOM     85  C   UNL     1     -11.287   3.326  17.068  1.00  0.00     0.012 A 
ATOM     86  C   UNL     1     -12.836   4.473  15.583  1.00  0.00     0.148 A 
ATOM     87  C   UNL     1     -12.297   3.178  18.017  1.00  0.00     0.002 A 
ATOM     88  C   UNL     1     -13.824   4.367  16.555  1.00  0.00     0.091 A 
ATOM     89  F   UNL     1     -13.071   5.055  14.398  1.00  0.00    -0.205 F 
ATOM     90  C   UNL     1     -13.560   3.708  17.766  1.00  0.00     0.022 A 
BRANCH  88  91
ATOM     91  S   UNL     1     -15.449   5.107  16.360  1.00  0.00     0.127 S 
ATOM     92  O   UNL     1     -16.292   3.928  16.170  1.00  0.00    -0.237 OA
ATOM     93  O   UNL     1     -15.635   5.789  17.641  1.00  0.00    -0.237 OA
ATOM     94  O   UNL     1     -15.351   5.996  15.211  1.00  0.00    -0.744 OA
ENDBRANCH  88  91
ENDBRANCH  61  84
ENDBRANCH  35  36
ENDBRANCH  27  30
ENDBRANCH  25  26
ENDBRANCH   1  25
TORSDOF 16
