REMARK SMILES O=C(NCCCNC(=O)c1ccccc1C[N@H+]1CCCC[C@@H]1CCn1cccn1)c1ccc(-c2c3nc(c(-c4cccc(S(=O)(=O)[O-])c4F)c4ccc([nH]4)c(-c4cccc(S(=O)(=O)[O-])c4F)c4nc(c(-c5cccc(S(=O)(=O)[O-])c5F)c5ccc2[nH]5)C=C4)C=C3)cc1
REMARK SMILES IDX 6 1 5 2 4 3 3 4 1 5 2 6 30 8 31 9 92 10 32 11 91 12 33 13
REMARK SMILES IDX 34 14 35 15 85 16 36 17 90 18 84 19 86 20 37 21 89 22 83 23
REMARK SMILES IDX 82 24 38 26 70 27 50 28 69 29 51 30 54 31 68 32 87 33 52 34
REMARK SMILES IDX 53 35 67 37 88 38 55 39 39 40 40 41 48 42 41 43 43 44 49 45
REMARK SMILES IDX 42 46 44 47 45 48 46 49 47 50 71 51 72 52 80 53 73 54 75 55
REMARK SMILES IDX 81 56 74 57 76 58 77 59 78 60 79 61 56 62 57 63 65 64 58 65
REMARK SMILES IDX 60 66 66 67 59 68 61 69 62 70 63 71 64 72 7 73 8 74 9 76
REMARK SMILES IDX 10 77 11 78 15 79 12 80 14 81 13 82 16 83 17 84 18 85 22 86
REMARK SMILES IDX 19 88 21 89 20 90 23 91 24 92 25 93 26 94 29 95 27 96 28 97
REMARK H PARENT 3 7 86 25 54 36 7 75 17 87
REMARK Flexibility Score: inf
ROOT
ATOM      1  C   UNL     1       4.770   1.150  -2.983  1.00  0.00     0.118 C 
ENDROOT
BRANCH   1   2
ATOM      2  C   UNL     1       5.237   0.340  -1.786  1.00  0.00     0.042 C 
BRANCH   2   3
ATOM      3  C   UNL     1       4.711   0.806  -0.429  1.00  0.00     0.118 C 
BRANCH   3   4
ATOM      4  N   UNL     1       3.283   1.045  -0.362  1.00  0.00    -0.352 N 
ATOM      5  O   UNL     1       1.132   0.896   0.082  1.00  0.00    -0.269 OA
ATOM      6  C   UNL     1       2.185   0.275  -0.090  1.00  0.00     0.251 C 
ATOM      7  H   UNL     1       3.048   1.981  -0.557  1.00  0.00     0.163 HD
BRANCH   6   8
ATOM      8  C   UNL     1       2.162  -1.213  -0.048  1.00  0.00     0.039 A 
ATOM      9  C   UNL     1       3.264  -2.042  -0.253  1.00  0.00     0.014 A 
ATOM     10  C   UNL     1       0.906  -1.814   0.158  1.00  0.00     0.014 A 
ATOM     11  C   UNL     1       3.111  -3.422  -0.352  1.00  0.00     0.010 A 
ATOM     12  C   UNL     1       0.750  -3.197   0.099  1.00  0.00     0.010 A 
ATOM     13  C   UNL     1       1.851  -3.998  -0.196  1.00  0.00    -0.014 A 
BRANCH  13  14
ATOM     14  C   UNL     1       1.766  -5.458  -0.226  1.00  0.00     0.031 A 
ATOM     15  C   UNL     1       2.466  -6.173   0.883  1.00  0.00     0.074 A 
ATOM     16  C   UNL     1       0.974  -6.132  -1.084  1.00  0.00     0.049 A 
ATOM     17  N   UNL     1       3.350  -7.118   0.810  1.00  0.00    -0.248 NA
ATOM     18  C   UNL     1       2.188  -5.719   2.255  1.00  0.00     0.031 C 
ATOM     19  C   UNL     1      -0.019  -5.566  -2.000  1.00  0.00     0.029 A 
ATOM     20  N   UNL     1       0.777  -7.480  -1.194  1.00  0.00    -0.354 N 
ATOM     21  C   UNL     1       3.583  -7.520   2.128  1.00  0.00     0.074 A 
ATOM     22  C   UNL     1       2.955  -6.539   2.971  1.00  0.00     0.031 C 
ATOM     23  C   UNL     1      -0.882  -6.539  -2.363  1.00  0.00     0.029 A 
ATOM     24  C   UNL     1      -0.426  -7.803  -1.811  1.00  0.00     0.049 A 
ATOM     25  H   UNL     1       1.419  -8.152  -0.871  1.00  0.00     0.167 HD
ATOM     26  C   UNL     1       4.095  -8.743   2.438  1.00  0.00     0.034 A 
ATOM     27  C   UNL     1      -1.058  -9.000  -1.785  1.00  0.00     0.034 A 
ATOM     28  C   UNL     1       4.762  -9.353   1.320  1.00  0.00     0.049 A 
ATOM     29  C   UNL     1      -0.077 -10.035  -1.397  1.00  0.00     0.074 A 
ATOM     30  C   UNL     1       5.823  -9.027   0.500  1.00  0.00     0.029 A 
ATOM     31  N   UNL     1       4.138 -10.416   0.718  1.00  0.00    -0.354 N 
ATOM     32  N   UNL     1       0.914 -10.426  -2.147  1.00  0.00    -0.248 NA
ATOM     33  C   UNL     1      -0.002 -10.432  -0.002  1.00  0.00     0.031 C 
ATOM     34  C   UNL     1       5.508  -9.607  -0.764  1.00  0.00     0.029 A 
ATOM     35  C   UNL     1       4.280 -10.256  -0.632  1.00  0.00     0.049 A 
ATOM     36  H   UNL     1       3.674 -11.155   1.173  1.00  0.00     0.167 HD
ATOM     37  C   UNL     1       1.927 -10.736  -1.252  1.00  0.00     0.074 A 
ATOM     38  C   UNL     1       1.261 -10.862   0.040  1.00  0.00     0.031 C 
ATOM     39  C   UNL     1       3.241 -10.572  -1.588  1.00  0.00     0.034 A 
BRANCH  26  40
ATOM     40  C   UNL     1       3.707  -9.563   3.656  1.00  0.00     0.023 A 
ATOM     41  C   UNL     1       4.420 -10.765   3.883  1.00  0.00     0.012 A 
ATOM     42  C   UNL     1       2.517  -9.382   4.396  1.00  0.00     0.148 A 
ATOM     43  C   UNL     1       3.933 -11.765   4.733  1.00  0.00     0.002 A 
ATOM     44  C   UNL     1       2.080 -10.346   5.302  1.00  0.00     0.091 A 
ATOM     45  F   UNL     1       1.716  -8.343   4.145  1.00  0.00    -0.205 F 
ATOM     46  C   UNL     1       2.762 -11.553   5.447  1.00  0.00     0.022 A 
BRANCH  44  47
ATOM     47  S   UNL     1       0.606 -10.071   6.293  1.00  0.00     0.127 S 
ATOM     48  O   UNL     1      -0.408 -10.779   5.505  1.00  0.00    -0.237 OA
ATOM     49  O   UNL     1       0.963 -10.725   7.558  1.00  0.00    -0.237 OA
ATOM     50  O   UNL     1       0.474  -8.634   6.386  1.00  0.00    -0.744 OA
ENDBRANCH  44  47
ENDBRANCH  26  40
BRANCH  27  51
ATOM     51  C   UNL     1      -2.508  -9.286  -1.856  1.00  0.00     0.023 A 
ATOM     52  C   UNL     1      -2.951 -10.549  -2.292  1.00  0.00     0.012 A 
ATOM     53  C   UNL     1      -3.453  -8.412  -1.272  1.00  0.00     0.148 A 
ATOM     54  C   UNL     1      -4.287 -10.936  -2.137  1.00  0.00     0.002 A 
ATOM     55  C   UNL     1      -4.784  -8.793  -1.138  1.00  0.00     0.091 A 
ATOM     56  F   UNL     1      -3.029  -7.246  -0.765  1.00  0.00    -0.205 F 
ATOM     57  C   UNL     1      -5.203 -10.060  -1.559  1.00  0.00     0.022 A 
BRANCH  55  58
ATOM     58  S   UNL     1      -6.016  -7.707  -0.407  1.00  0.00     0.127 S 
ATOM     59  O   UNL     1      -7.139  -7.851  -1.335  1.00  0.00    -0.237 OA
ATOM     60  O   UNL     1      -6.223  -8.320   0.902  1.00  0.00    -0.237 OA
ATOM     61  O   UNL     1      -5.417  -6.378  -0.401  1.00  0.00    -0.744 OA
ENDBRANCH  55  58
ENDBRANCH  27  51
BRANCH  39  62
ATOM     62  C   UNL     1       3.591 -10.359  -3.039  1.00  0.00     0.023 A 
ATOM     63  C   UNL     1       3.109  -9.247  -3.760  1.00  0.00     0.012 A 
ATOM     64  C   UNL     1       4.565 -11.182  -3.631  1.00  0.00     0.148 A 
ATOM     65  C   UNL     1       3.564  -8.979  -5.052  1.00  0.00     0.002 A 
ATOM     66  C   UNL     1       5.052 -10.883  -4.899  1.00  0.00     0.091 A 
ATOM     67  F   UNL     1       5.024 -12.231  -2.931  1.00  0.00    -0.205 F 
ATOM     68  C   UNL     1       4.545  -9.789  -5.617  1.00  0.00     0.022 A 
BRANCH  66  69
ATOM     69  S   UNL     1       6.415 -11.801  -5.621  1.00  0.00     0.127 S 
ATOM     70  O   UNL     1       5.729 -12.680  -6.565  1.00  0.00    -0.237 OA
ATOM     71  O   UNL     1       7.216 -10.744  -6.243  1.00  0.00    -0.237 OA
ATOM     72  O   UNL     1       7.080 -12.466  -4.507  1.00  0.00    -0.744 OA
ENDBRANCH  66  69
ENDBRANCH  39  62
ENDBRANCH  13  14
ENDBRANCH   6   8
ENDBRANCH   3   4
ENDBRANCH   2   3
ENDBRANCH   1   2
BRANCH   1  73
ATOM     73  N   UNL     1       5.137   2.557  -2.939  1.00  0.00    -0.352 N 
ATOM     74  C   UNL     1       5.708   3.339  -3.915  1.00  0.00     0.251 C 
ATOM     75  H   UNL     1       4.949   3.015  -2.088  1.00  0.00     0.163 HD
ATOM     76  O   UNL     1       5.917   4.532  -3.711  1.00  0.00    -0.269 OA
BRANCH  74  77
ATOM     77  C   UNL     1       6.159   2.725  -5.185  1.00  0.00     0.048 A 
ATOM     78  C   UNL     1       7.537   2.833  -5.448  1.00  0.00     0.014 A 
ATOM     79  C   UNL     1       5.307   2.029  -6.064  1.00  0.00     0.019 A 
ATOM     80  C   UNL     1       8.101   2.174  -6.536  1.00  0.00     0.001 A 
ATOM     81  C   UNL     1       5.924   1.299  -7.093  1.00  0.00     0.010 A 
ATOM     82  C   UNL     1       7.297   1.378  -7.338  1.00  0.00     0.001 A 
BRANCH  79  83
ATOM     83  C   UNL     1       3.794   2.006  -5.900  1.00  0.00     0.300 C 
BRANCH  83  84
ATOM     84  N   UNL     1       2.970   2.622  -6.963  1.00  0.00    -0.329 N 
ATOM     85  C   UNL     1       3.279   4.058  -7.080  1.00  0.00     0.262 C 
ATOM     86  C   UNL     1       2.940   1.930  -8.270  1.00  0.00     0.186 C 
ATOM     87  H   UNL     1       2.007   2.505  -6.649  1.00  0.00     0.348 HD
ATOM     88  C   UNL     1       2.300   4.784  -7.997  1.00  0.00     0.062 C 
ATOM     89  C   UNL     1       1.930   2.638  -9.203  1.00  0.00     0.065 C 
ATOM     90  C   UNL     1       2.245   4.120  -9.361  1.00  0.00     0.012 C 
BRANCH  86  91
ATOM     91  C   UNL     1       2.567   0.424  -8.168  1.00  0.00     0.088 C 
BRANCH  91  92
ATOM     92  C   UNL     1       2.708  -0.367  -9.477  1.00  0.00     0.150 C 
BRANCH  92  93
ATOM     93  N   UNL     1       4.075  -0.449  -9.962  1.00  0.00    -0.273 N 
ATOM     94  C   UNL     1       4.729   0.453 -10.755  1.00  0.00     0.108 A 
ATOM     95  N   UNL     1       4.850  -1.487  -9.600  1.00  0.00    -0.182 NA
ATOM     96  C   UNL     1       6.012  -0.021 -10.895  1.00  0.00     0.042 A 
ATOM     97  C   UNL     1       6.024  -1.233 -10.182  1.00  0.00     0.135 A 
ENDBRANCH  92  93
ENDBRANCH  91  92
ENDBRANCH  86  91
ENDBRANCH  83  84
ENDBRANCH  79  83
ENDBRANCH  74  77
ENDBRANCH   1  73
TORSDOF 18
