REMARK SMILES CCC(=O)N1CCc2cc(C(=O)NC3(C(=O)NCCCNC(=O)c4ccc(-c5c6nc(c(-c7cccc(S(=O)(=O)[O-])c7F)c7ccc([nH]7)c(-c7cccc(S(=O)(=O)[O-])c7F)c7nc(c(-c8cccc(S(=O)(=O)[O-])c8F)c8ccc5[nH]8)C=C7)C=C6)cc4)CCCC3)ccc21
REMARK SMILES IDX 18 1 17 2 15 3 16 4 14 6 87 7 90 8 88 9 89 10 13 11 11 12
REMARK SMILES IDX 12 13 10 15 5 16 6 17 93 18 7 19 8 20 92 21 9 22 91 23 3 24
REMARK SMILES IDX 4 25 2 26 1 27 19 28 20 29 21 30 22 31 23 33 24 34 25 35
REMARK SMILES IDX 86 36 26 37 85 38 27 39 28 40 29 41 79 42 30 43 84 44 78 45
REMARK SMILES IDX 80 46 31 47 83 48 77 49 76 50 32 52 64 53 44 54 63 55 45 56
REMARK SMILES IDX 48 57 62 58 81 59 46 60 47 61 61 63 82 64 49 65 33 66 34 67
REMARK SMILES IDX 42 68 35 69 37 70 43 71 36 72 38 73 39 74 40 75 41 76 65 77
REMARK SMILES IDX 66 78 74 79 67 80 69 81 75 82 68 83 70 84 71 85 72 86 73 87
REMARK SMILES IDX 50 88 51 89 59 90 52 91 54 92 60 93 53 94 55 95 56 96 57 97
REMARK SMILES IDX 58 98
REMARK H PARENT 17 5 13 14 21 32 80 51 48 62
REMARK Flexibility Score: inf
ROOT
ATOM      1  C   UNL     1       1.881   0.671  -3.872  1.00  0.00     0.117 C 
ENDROOT
BRANCH   1   2
ATOM      2  N   UNL     1       2.577   1.258  -2.742  1.00  0.00    -0.354 N 
ATOM      3  C   UNL     1       3.856   1.724  -2.618  1.00  0.00     0.245 C 
ATOM      4  O   UNL     1       3.979   2.732  -1.907  1.00  0.00    -0.272 OA
ATOM      5  H   UNL     1       2.035   1.334  -1.924  1.00  0.00     0.163 HD
BRANCH   3   6
ATOM      6  C   UNL     1       5.120   1.063  -3.273  1.00  0.00     0.119 C 
ATOM      7  C   UNL     1       5.487   1.877  -4.539  1.00  0.00     0.038 C 
ATOM      8  C   UNL     1       5.035  -0.373  -3.806  1.00  0.00     0.038 C 
ATOM      9  C   UNL     1       4.847   1.163  -5.715  1.00  0.00     0.003 C 
ATOM     10  C   UNL     1       4.798  -0.305  -5.318  1.00  0.00     0.003 C 
BRANCH   6  11
ATOM     11  N   UNL     1       6.289   1.163  -2.332  1.00  0.00    -0.338 N 
ATOM     12  C   UNL     1       6.554   0.838  -1.022  1.00  0.00     0.252 C 
ATOM     13  O   UNL     1       7.733   0.871  -0.663  1.00  0.00    -0.269 OA
ATOM     14  H   UNL     1       7.072   1.570  -2.769  1.00  0.00     0.164 HD
BRANCH  12  15
ATOM     15  C   UNL     1       5.512   0.577   0.006  1.00  0.00     0.040 A 
ATOM     16  N   UNL     1       2.556   0.674   2.975  1.00  0.00    -0.312 N 
ATOM     17  C   UNL     1       3.311   1.211   4.115  1.00  0.00     0.130 C 
ATOM     18  C   UNL     1       3.456   0.442   1.920  1.00  0.00     0.047 A 
ATOM     19  C   UNL     1       4.742   1.481   3.651  1.00  0.00     0.059 C 
ATOM     20  C   UNL     1       4.714   0.955   2.251  1.00  0.00    -0.022 A 
ATOM     21  C   UNL     1       3.263  -0.092   0.665  1.00  0.00     0.027 A 
ATOM     22  C   UNL     1       5.743   1.036   1.313  1.00  0.00     0.019 A 
ATOM     23  C   UNL     1       4.308  -0.069  -0.270  1.00  0.00     0.016 A 
BRANCH  16  24
ATOM     24  C   UNL     1       1.185   0.570   3.079  1.00  0.00     0.226 C 
ATOM     25  O   UNL     1       0.557   1.303   3.854  1.00  0.00    -0.275 OA
BRANCH  24  26
ATOM     26  C   UNL     1       0.442  -0.549   2.382  1.00  0.00     0.097 C 
ATOM     27  C   UNL     1      -0.025  -0.290   0.969  1.00  0.00     0.014 C 
ENDBRANCH  24  26
ENDBRANCH  16  24
ENDBRANCH  12  15
ENDBRANCH   6  11
ENDBRANCH   3   6
ENDBRANCH   1   2
BRANCH   1  28
ATOM     28  C   UNL     1       1.394  -0.762  -3.706  1.00  0.00     0.042 C 
BRANCH  28  29
ATOM     29  C   UNL     1       0.321  -0.972  -2.650  1.00  0.00     0.118 C 
BRANCH  29  30
ATOM     30  N   UNL     1      -0.784  -0.030  -2.732  1.00  0.00    -0.352 N 
ATOM     31  C   UNL     1      -2.135  -0.254  -2.847  1.00  0.00     0.251 C 
ATOM     32  H   UNL     1      -0.522   0.918  -2.699  1.00  0.00     0.163 HD
ATOM     33  O   UNL     1      -2.886   0.686  -3.070  1.00  0.00    -0.269 OA
BRANCH  31  34
ATOM     34  C   UNL     1      -2.675  -1.622  -2.709  1.00  0.00     0.039 A 
ATOM     35  C   UNL     1      -3.636  -2.066  -3.620  1.00  0.00     0.014 A 
ATOM     36  C   UNL     1      -2.249  -2.455  -1.672  1.00  0.00     0.014 A 
ATOM     37  C   UNL     1      -4.124  -3.371  -3.525  1.00  0.00     0.010 A 
ATOM     38  C   UNL     1      -2.680  -3.776  -1.624  1.00  0.00     0.010 A 
ATOM     39  C   UNL     1      -3.626  -4.245  -2.545  1.00  0.00    -0.014 A 
BRANCH  39  40
ATOM     40  C   UNL     1      -4.063  -5.661  -2.482  1.00  0.00     0.031 A 
ATOM     41  C   UNL     1      -4.788  -6.179  -1.271  1.00  0.00     0.074 A 
ATOM     42  C   UNL     1      -3.721  -6.499  -3.480  1.00  0.00     0.049 A 
ATOM     43  N   UNL     1      -5.209  -7.391  -1.021  1.00  0.00    -0.248 NA
ATOM     44  C   UNL     1      -5.047  -5.219  -0.185  1.00  0.00     0.031 C 
ATOM     45  C   UNL     1      -2.940  -6.128  -4.663  1.00  0.00     0.029 A 
ATOM     46  N   UNL     1      -3.960  -7.838  -3.647  1.00  0.00    -0.354 N 
ATOM     47  C   UNL     1      -5.752  -7.348   0.258  1.00  0.00     0.074 A 
ATOM     48  C   UNL     1      -5.570  -6.000   0.749  1.00  0.00     0.031 C 
ATOM     49  C   UNL     1      -2.774  -7.211  -5.437  1.00  0.00     0.029 A 
ATOM     50  C   UNL     1      -3.406  -8.358  -4.794  1.00  0.00     0.049 A 
ATOM     51  H   UNL     1      -4.479  -8.377  -3.008  1.00  0.00     0.167 HD
ATOM     52  C   UNL     1      -6.372  -8.334   0.950  1.00  0.00     0.034 A 
ATOM     53  C   UNL     1      -3.401  -9.618  -5.269  1.00  0.00     0.034 A 
ATOM     54  C   UNL     1      -6.572  -9.664   0.441  1.00  0.00     0.049 A 
ATOM     55  C   UNL     1      -4.125 -10.687  -4.499  1.00  0.00     0.074 A 
ATOM     56  C   UNL     1      -7.267 -10.711   1.020  1.00  0.00     0.029 A 
ATOM     57  N   UNL     1      -6.065 -10.136  -0.760  1.00  0.00    -0.354 N 
ATOM     58  N   UNL     1      -4.779 -10.588  -3.367  1.00  0.00    -0.248 NA
ATOM     59  C   UNL     1      -4.144 -12.033  -5.088  1.00  0.00     0.031 C 
ATOM     60  C   UNL     1      -7.147 -11.827   0.185  1.00  0.00     0.029 A 
ATOM     61  C   UNL     1      -6.414 -11.464  -0.934  1.00  0.00     0.049 A 
ATOM     62  H   UNL     1      -5.534  -9.604  -1.396  1.00  0.00     0.167 HD
ATOM     63  C   UNL     1      -5.316 -11.847  -3.125  1.00  0.00     0.074 A 
ATOM     64  C   UNL     1      -4.928 -12.686  -4.241  1.00  0.00     0.031 C 
ATOM     65  C   UNL     1      -6.055 -12.274  -2.070  1.00  0.00     0.034 A 
BRANCH  52  66
ATOM     66  C   UNL     1      -6.912  -7.997   2.316  1.00  0.00     0.023 A 
ATOM     67  C   UNL     1      -8.014  -7.125   2.438  1.00  0.00     0.012 A 
ATOM     68  C   UNL     1      -6.363  -8.577   3.476  1.00  0.00     0.148 A 
ATOM     69  C   UNL     1      -8.532  -6.801   3.691  1.00  0.00     0.002 A 
ATOM     70  C   UNL     1      -6.916  -8.289   4.719  1.00  0.00     0.091 A 
ATOM     71  F   UNL     1      -5.304  -9.389   3.346  1.00  0.00    -0.205 F 
ATOM     72  C   UNL     1      -7.990  -7.390   4.829  1.00  0.00     0.022 A 
BRANCH  70  73
ATOM     73  S   UNL     1      -6.345  -9.061   6.237  1.00  0.00     0.127 S 
ATOM     74  O   UNL     1      -5.705  -7.935   6.916  1.00  0.00    -0.237 OA
ATOM     75  O   UNL     1      -7.599  -9.506   6.845  1.00  0.00    -0.237 OA
ATOM     76  O   UNL     1      -5.450 -10.135   5.830  1.00  0.00    -0.744 OA
ENDBRANCH  70  73
ENDBRANCH  52  66
BRANCH  53  77
ATOM     77  C   UNL     1      -2.743  -9.918  -6.572  1.00  0.00     0.023 A 
ATOM     78  C   UNL     1      -3.534 -10.247  -7.689  1.00  0.00     0.012 A 
ATOM     79  C   UNL     1      -1.344  -9.845  -6.718  1.00  0.00     0.148 A 
ATOM     80  C   UNL     1      -2.943 -10.530  -8.921  1.00  0.00     0.002 A 
ATOM     81  C   UNL     1      -0.766 -10.071  -7.961  1.00  0.00     0.091 A 
ATOM     82  F   UNL     1      -0.609  -9.535  -5.641  1.00  0.00    -0.205 F 
ATOM     83  C   UNL     1      -1.561 -10.432  -9.060  1.00  0.00     0.022 A 
BRANCH  81  84
ATOM     84  S   UNL     1       0.989  -9.835  -8.266  1.00  0.00     0.127 S 
ATOM     85  O   UNL     1       1.435 -11.202  -8.519  1.00  0.00    -0.237 OA
ATOM     86  O   UNL     1       0.974  -8.962  -9.441  1.00  0.00    -0.237 OA
ATOM     87  O   UNL     1       1.518  -9.210  -7.061  1.00  0.00    -0.744 OA
ENDBRANCH  81  84
ENDBRANCH  53  77
BRANCH  65  88
ATOM     88  C   UNL     1      -6.527 -13.704  -2.084  1.00  0.00     0.023 A 
ATOM     89  C   UNL     1      -5.608 -14.753  -1.885  1.00  0.00     0.012 A 
ATOM     90  C   UNL     1      -7.897 -14.002  -2.223  1.00  0.00     0.148 A 
ATOM     91  C   UNL     1      -6.040 -16.078  -1.860  1.00  0.00     0.002 A 
ATOM     92  C   UNL     1      -8.327 -15.320  -2.142  1.00  0.00     0.091 A 
ATOM     93  F   UNL     1      -8.754 -12.991  -2.429  1.00  0.00    -0.205 F 
ATOM     94  C   UNL     1      -7.399 -16.361  -1.976  1.00  0.00     0.022 A 
BRANCH  92  95
ATOM     95  S   UNL     1     -10.065 -15.771  -2.180  1.00  0.00     0.127 S 
ATOM     96  O   UNL     1     -10.173 -16.432  -3.479  1.00  0.00    -0.237 OA
ATOM     97  O   UNL     1     -10.176 -16.667  -1.028  1.00  0.00    -0.237 OA
ATOM     98  O   UNL     1     -10.808 -14.525  -2.051  1.00  0.00    -0.744 OA
ENDBRANCH  92  95
ENDBRANCH  65  88
ENDBRANCH  39  40
ENDBRANCH  31  34
ENDBRANCH  29  30
ENDBRANCH  28  29
ENDBRANCH   1  28
TORSDOF 17
