REMARK SMILES O=C(CCn1c(N2CC[NH2+]CC2)nc2ccccc2c1=O)NCCCNC(=O)c1ccc(-c2c3nc(c(-c4cccc(S(=O)(=O)[O-])c4F)c4ccc([nH]4)c(-c4cccc(S(=O)(=O)[O-])c4F)c4nc(c(-c5cccc(S(=O)(=O)[O-])c5F)c5ccc2[nH]5)C=C4)C=C3)cc1
REMARK SMILES IDX 24 1 23 2 22 3 1 4 2 5 3 7 4 8 5 9 6 10 20 11 13 12 19 13
REMARK SMILES IDX 21 14 14 15 18 16 15 17 17 18 16 19 7 20 8 21 12 22 9 23
REMARK SMILES IDX 11 24 10 25 25 28 26 29 27 30 28 32 29 33 30 34 91 35 31 36
REMARK SMILES IDX 90 37 32 38 33 39 34 40 84 41 35 42 89 43 83 44 85 45 36 46
REMARK SMILES IDX 88 47 82 48 81 49 37 51 69 52 49 53 68 54 50 55 53 56 67 57
REMARK SMILES IDX 86 58 51 59 52 60 66 62 87 63 54 64 38 65 39 66 47 67 40 68
REMARK SMILES IDX 42 69 48 70 41 71 43 72 44 73 45 74 46 75 70 76 71 77 79 78
REMARK SMILES IDX 72 79 74 80 80 81 73 82 75 83 76 84 77 85 78 86 55 87 56 88
REMARK SMILES IDX 64 89 57 90 59 91 65 92 58 93 60 94 61 95 62 96 63 97
REMARK H PARENT 22 6 10 26 10 27 26 31 85 50 53 61
REMARK Flexibility Score: inf
ROOT
ATOM      1  C   UNL     1       2.154   1.169  -3.290  1.00  0.00     0.042 C 
ENDROOT
BRANCH   1   2
ATOM      2  C   UNL     1       2.030  -0.054  -2.388  1.00  0.00     0.117 C 
BRANCH   2   3
ATOM      3  N   UNL     1       2.644   0.163  -1.093  1.00  0.00    -0.356 N 
ATOM      4  O   UNL     1       1.137  -1.034   0.168  1.00  0.00    -0.275 OA
ATOM      5  C   UNL     1       2.143  -0.337   0.085  1.00  0.00     0.221 C 
ATOM      6  H   UNL     1       3.468   0.701  -1.055  1.00  0.00     0.163 HD
BRANCH   5   7
ATOM      7  C   UNL     1       2.966   0.041   1.296  1.00  0.00     0.122 C 
BRANCH   7   8
ATOM      8  C   UNL     1       4.130  -0.925   1.539  1.00  0.00     0.139 C 
BRANCH   8   9
ATOM      9  N   UNL     1       5.079  -1.047   0.424  1.00  0.00    -0.278 N 
ATOM     10  C   UNL     1       5.393  -2.273  -0.161  1.00  0.00     0.209 A 
ATOM     11  C   UNL     1       5.777   0.106   0.073  1.00  0.00     0.262 A 
ATOM     12  N   UNL     1       6.177  -2.364  -1.197  1.00  0.00    -0.214 NA
ATOM     13  C   UNL     1       6.627   0.030  -1.119  1.00  0.00     0.066 A 
ATOM     14  O   UNL     1       5.681   1.175   0.673  1.00  0.00    -0.269 OA
ATOM     15  C   UNL     1       6.738  -1.206  -1.742  1.00  0.00     0.080 A 
ATOM     16  C   UNL     1       7.255   1.170  -1.635  1.00  0.00     0.016 A 
ATOM     17  C   UNL     1       7.469  -1.289  -2.929  1.00  0.00     0.029 A 
ATOM     18  C   UNL     1       7.992   1.072  -2.812  1.00  0.00     0.001 A 
ATOM     19  C   UNL     1       8.087  -0.155  -3.466  1.00  0.00     0.002 A 
BRANCH  10  20
ATOM     20  N   UNL     1       4.945  -3.435   0.423  1.00  0.00    -0.331 N 
ATOM     21  C   UNL     1       5.924  -4.487   0.734  1.00  0.00     0.181 C 
ATOM     22  C   UNL     1       3.594  -3.963   0.196  1.00  0.00     0.181 C 
ATOM     23  C   UNL     1       5.452  -5.277   1.970  1.00  0.00     0.282 C 
ATOM     24  C   UNL     1       3.150  -4.790   1.429  1.00  0.00     0.282 C 
ATOM     25  N   UNL     1       4.101  -5.860   1.815  1.00  0.00    -0.343 N 
ATOM     26  H   UNL     1       3.805  -6.276   2.699  1.00  0.00     0.346 HD
ATOM     27  H   UNL     1       4.119  -6.580   1.093  1.00  0.00     0.346 HD
ENDBRANCH  10  20
ENDBRANCH   8   9
ENDBRANCH   7   8
ENDBRANCH   5   7
ENDBRANCH   2   3
ENDBRANCH   1   2
BRANCH   1  28
ATOM     28  C   UNL     1       3.584   1.577  -3.637  1.00  0.00     0.118 C 
BRANCH  28  29
ATOM     29  N   UNL     1       4.296   0.604  -4.451  1.00  0.00    -0.352 N 
ATOM     30  C   UNL     1       5.074   0.818  -5.568  1.00  0.00     0.251 C 
ATOM     31  H   UNL     1       4.212  -0.334  -4.165  1.00  0.00     0.163 HD
ATOM     32  O   UNL     1       5.526  -0.134  -6.197  1.00  0.00    -0.269 OA
BRANCH  30  33
ATOM     33  C   UNL     1       5.325   2.202  -6.032  1.00  0.00     0.039 A 
ATOM     34  C   UNL     1       5.737   3.192  -5.136  1.00  0.00     0.014 A 
ATOM     35  C   UNL     1       5.104   2.520  -7.375  1.00  0.00     0.014 A 
ATOM     36  C   UNL     1       5.773   4.522  -5.544  1.00  0.00     0.010 A 
ATOM     37  C   UNL     1       5.198   3.850  -7.797  1.00  0.00     0.010 A 
ATOM     38  C   UNL     1       5.478   4.868  -6.872  1.00  0.00    -0.014 A 
BRANCH  38  39
ATOM     39  C   UNL     1       5.425   6.300  -7.260  1.00  0.00     0.031 A 
ATOM     40  C   UNL     1       4.113   6.946  -7.618  1.00  0.00     0.074 A 
ATOM     41  C   UNL     1       6.552   7.038  -7.236  1.00  0.00     0.049 A 
ATOM     42  N   UNL     1       3.871   8.191  -7.940  1.00  0.00    -0.248 NA
ATOM     43  C   UNL     1       2.915   6.089  -7.611  1.00  0.00     0.031 C 
ATOM     44  C   UNL     1       7.884   6.527  -6.910  1.00  0.00     0.029 A 
ATOM     45  N   UNL     1       6.755   8.373  -7.478  1.00  0.00    -0.354 N 
ATOM     46  C   UNL     1       2.509   8.260  -8.205  1.00  0.00     0.074 A 
ATOM     47  C   UNL     1       1.972   6.931  -8.011  1.00  0.00     0.031 C 
ATOM     48  C   UNL     1       8.761   7.542  -6.941  1.00  0.00     0.029 A 
ATOM     49  C   UNL     1       8.063   8.766  -7.324  1.00  0.00     0.049 A 
ATOM     50  H   UNL     1       6.033   8.990  -7.738  1.00  0.00     0.167 HD
ATOM     51  C   UNL     1       1.768   9.337  -8.556  1.00  0.00     0.034 A 
ATOM     52  C   UNL     1       8.639   9.975  -7.474  1.00  0.00     0.034 A 
ATOM     53  C   UNL     1       2.287  10.669  -8.698  1.00  0.00     0.049 A 
ATOM     54  C   UNL     1       7.792  11.155  -7.855  1.00  0.00     0.074 A 
ATOM     55  C   UNL     1       1.599  11.827  -9.019  1.00  0.00     0.029 A 
ATOM     56  N   UNL     1       3.614  11.025  -8.523  1.00  0.00    -0.354 N 
ATOM     57  N   UNL     1       6.494  11.210  -8.031  1.00  0.00    -0.248 NA
ATOM     58  C   UNL     1       8.481  12.441  -8.042  1.00  0.00     0.031 C 
ATOM     59  C   UNL     1       2.512  12.885  -9.035  1.00  0.00     0.029 A 
ATOM     60  C   UNL     1       3.766  12.385  -8.724  1.00  0.00     0.049 A 
ATOM     61  H   UNL     1       4.340  10.403  -8.290  1.00  0.00     0.167 HD
ATOM     62  C   UNL     1       6.209  12.535  -8.337  1.00  0.00     0.074 A 
ATOM     63  C   UNL     1       7.465  13.255  -8.303  1.00  0.00     0.031 C 
ATOM     64  C   UNL     1       5.014  13.097  -8.638  1.00  0.00     0.034 A 
BRANCH  51  65
ATOM     65  C   UNL     1       0.291   9.142  -8.758  1.00  0.00     0.023 A 
ATOM     66  C   UNL     1      -0.556   9.118  -7.633  1.00  0.00     0.012 A 
ATOM     67  C   UNL     1      -0.264   9.084 -10.051  1.00  0.00     0.148 A 
ATOM     68  C   UNL     1      -1.938   9.034  -7.791  1.00  0.00     0.002 A 
ATOM     69  C   UNL     1      -1.645   9.026 -10.201  1.00  0.00     0.091 A 
ATOM     70  F   UNL     1       0.566   9.093 -11.103  1.00  0.00    -0.205 F 
ATOM     71  C   UNL     1      -2.482   8.998  -9.072  1.00  0.00     0.022 A 
BRANCH  69  72
ATOM     72  S   UNL     1      -2.451   9.026 -11.806  1.00  0.00     0.127 S 
ATOM     73  O   UNL     1      -3.033   7.684 -11.842  1.00  0.00    -0.237 OA
ATOM     74  O   UNL     1      -3.424  10.109 -11.661  1.00  0.00    -0.237 OA
ATOM     75  O   UNL     1      -1.402   9.273 -12.784  1.00  0.00    -0.744 OA
ENDBRANCH  69  72
ENDBRANCH  51  65
BRANCH  52  76
ATOM     76  C   UNL     1      10.092  10.124  -7.197  1.00  0.00     0.023 A 
ATOM     77  C   UNL     1      10.504  10.748  -6.004  1.00  0.00     0.012 A 
ATOM     78  C   UNL     1      11.059   9.579  -8.063  1.00  0.00     0.148 A 
ATOM     79  C   UNL     1      11.858  10.828  -5.679  1.00  0.00     0.002 A 
ATOM     80  C   UNL     1      12.403   9.622  -7.711  1.00  0.00     0.091 A 
ATOM     81  F   UNL     1      10.639   9.000  -9.196  1.00  0.00    -0.205 F 
ATOM     82  C   UNL     1      12.805  10.255  -6.524  1.00  0.00     0.022 A 
BRANCH  80  83
ATOM     83  S   UNL     1      13.681   8.808  -8.674  1.00  0.00     0.127 S 
ATOM     84  O   UNL     1      14.456   9.946  -9.163  1.00  0.00    -0.237 OA
ATOM     85  O   UNL     1      14.351   7.997  -7.657  1.00  0.00    -0.237 OA
ATOM     86  O   UNL     1      12.981   8.040  -9.694  1.00  0.00    -0.744 OA
ENDBRANCH  80  83
ENDBRANCH  52  76
BRANCH  64  87
ATOM     87  C   UNL     1       4.983  14.565  -8.956  1.00  0.00     0.023 A 
ATOM     88  C   UNL     1       5.341  14.993 -10.249  1.00  0.00     0.012 A 
ATOM     89  C   UNL     1       4.482  15.496  -8.027  1.00  0.00     0.148 A 
ATOM     90  C   UNL     1       5.203  16.332 -10.612  1.00  0.00     0.002 A 
ATOM     91  C   UNL     1       4.319  16.823  -8.405  1.00  0.00     0.091 A 
ATOM     92  F   UNL     1       4.159  15.062  -6.800  1.00  0.00    -0.205 F 
ATOM     93  C   UNL     1       4.682  17.243  -9.696  1.00  0.00     0.022 A 
BRANCH  91  94
ATOM     94  S   UNL     1       3.588  18.056  -7.322  1.00  0.00     0.127 S 
ATOM     95  O   UNL     1       4.735  18.917  -7.036  1.00  0.00    -0.237 OA
ATOM     96  O   UNL     1       2.571  18.660  -8.182  1.00  0.00    -0.237 OA
ATOM     97  O   UNL     1       3.059  17.326  -6.178  1.00  0.00    -0.744 OA
ENDBRANCH  91  94
ENDBRANCH  64  87
ENDBRANCH  38  39
ENDBRANCH  30  33
ENDBRANCH  28  29
ENDBRANCH   1  28
TORSDOF 16
