REMARK SMILES CC(C)(C)OC(=O)N1CC[C@@H]([NH2+]Cc2cccc(Br)c2)[C@@H](C(=O)NCCCNC(=O)c2ccc(-c3c4nc(c(-c5cccc(S(=O)(=O)[O-])c5F)c5ccc([nH]5)c(-c5cccc(S(=O)(=O)[O-])c5F)c5nc(c(-c6cccc(S(=O)(=O)[O-])c6F)c6ccc3[nH]6)C=C5)C=C4)cc2)C1
REMARK SMILES IDX 26 1 25 2 24 3 22 4 23 5 21 7 8 8 9 9 94 10 10 11 11 12 6 13
REMARK SMILES IDX 7 14 5 15 2 16 1 17 3 18 4 19 12 20 13 23 14 24 15 25 20 26
REMARK SMILES IDX 16 27 18 28 17 29 19 30 27 31 28 32 29 33 30 35 31 36 32 37
REMARK SMILES IDX 93 38 33 39 92 40 34 41 35 42 36 43 86 44 37 45 91 46 85 47
REMARK SMILES IDX 87 48 38 49 90 50 84 51 83 52 39 54 71 55 51 56 70 57 52 58
REMARK SMILES IDX 55 59 69 60 88 61 53 62 54 63 68 65 89 66 56 67 40 68 41 69
REMARK SMILES IDX 49 70 42 71 44 72 50 73 43 74 45 75 46 76 47 77 48 78 72 79
REMARK SMILES IDX 73 80 81 81 74 82 76 83 82 84 75 85 77 86 78 87 79 88 80 89
REMARK SMILES IDX 57 90 58 91 66 92 59 93 61 94 67 95 60 96 62 97 63 98 64 99
REMARK SMILES IDX 65 100
REMARK H PARENT 24 6 12 21 12 22 28 34 87 53 55 64
REMARK Flexibility Score: inf
ROOT
ATOM      1  C   UNL     1       5.918  -1.266   4.543  1.00  0.00     0.042 C 
ENDROOT
BRANCH   1   2
ATOM      2  C   UNL     1       4.959  -2.169   3.784  1.00  0.00     0.117 C 
BRANCH   2   3
ATOM      3  N   UNL     1       5.078  -3.568   4.158  1.00  0.00    -0.356 N 
ATOM      4  C   UNL     1       4.122  -4.440   4.588  1.00  0.00     0.230 C 
ATOM      5  O   UNL     1       4.473  -5.594   4.843  1.00  0.00    -0.274 OA
ATOM      6  H   UNL     1       5.986  -3.943   4.091  1.00  0.00     0.163 HD
BRANCH   4   7
ATOM      7  C   UNL     1       2.689  -3.959   4.767  1.00  0.00     0.156 C 
ATOM      8  N   UNL     1       0.668  -3.067   3.716  1.00  0.00    -0.307 N 
ATOM      9  C   UNL     1      -0.217  -3.891   4.528  1.00  0.00     0.129 C 
ATOM     10  C   UNL     1       1.992  -3.629   3.432  1.00  0.00     0.142 C 
ATOM     11  C   UNL     1       0.456  -4.306   5.830  1.00  0.00     0.087 C 
ATOM     12  C   UNL     1       1.816  -4.977   5.562  1.00  0.00     0.198 C 
BRANCH   8  13
ATOM     13  C   UNL     1       0.245  -1.818   3.313  1.00  0.00     0.410 C 
ATOM     14  O   UNL     1      -0.707  -1.242   3.827  1.00  0.00    -0.224 OA
BRANCH  13  15
ATOM     15  O   UNL     1       0.953  -1.341   2.258  1.00  0.00    -0.444 OA
BRANCH  15  16
ATOM     16  C   UNL     1       0.555  -0.102   1.610  1.00  0.00     0.106 C 
ATOM     17  C   UNL     1       1.295  -0.097   0.263  1.00  0.00     0.056 C 
ATOM     18  C   UNL     1       1.025   1.088   2.449  1.00  0.00     0.056 C 
ATOM     19  C   UNL     1      -0.952  -0.030   1.310  1.00  0.00     0.056 C 
ENDBRANCH  15  16
ENDBRANCH  13  15
ENDBRANCH   8  13
BRANCH  12  20
ATOM     20  N   UNL     1       1.703  -6.229   4.792  1.00  0.00    -0.339 N 
ATOM     21  H   UNL     1       2.642  -6.611   4.679  1.00  0.00     0.346 HD
ATOM     22  H   UNL     1       1.246  -5.969   3.917  1.00  0.00     0.346 HD
BRANCH  20  23
ATOM     23  C   UNL     1       0.868  -7.269   5.372  1.00  0.00     0.297 C 
BRANCH  23  24
ATOM     24  C   UNL     1       0.934  -8.503   4.497  1.00  0.00     0.007 A 
ATOM     25  C   UNL     1       2.081  -9.312   4.508  1.00  0.00     0.009 A 
ATOM     26  C   UNL     1      -0.110  -8.816   3.614  1.00  0.00     0.025 A 
ATOM     27  C   UNL     1       2.182 -10.415   3.659  1.00  0.00     0.002 A 
ATOM     28  C   UNL     1      -0.006  -9.927   2.775  1.00  0.00     0.018 A 
ATOM     29  C   UNL     1       1.135 -10.727   2.793  1.00  0.00     0.016 A 
ATOM     30  Br  UNL     1      -1.423 -10.346   1.593  1.00  0.00    -0.051 Br
ENDBRANCH  23  24
ENDBRANCH  20  23
ENDBRANCH  12  20
ENDBRANCH   4   7
ENDBRANCH   2   3
ENDBRANCH   1   2
BRANCH   1  31
ATOM     31  C   UNL     1       7.391  -1.607   4.372  1.00  0.00     0.118 C 
BRANCH  31  32
ATOM     32  N   UNL     1       7.839  -1.548   2.987  1.00  0.00    -0.352 N 
ATOM     33  C   UNL     1       8.771  -0.738   2.385  1.00  0.00     0.251 C 
ATOM     34  H   UNL     1       7.402  -2.194   2.385  1.00  0.00     0.163 HD
ATOM     35  O   UNL     1       8.879  -0.754   1.161  1.00  0.00    -0.269 OA
BRANCH  33  36
ATOM     36  C   UNL     1       9.626   0.163   3.191  1.00  0.00     0.039 A 
ATOM     37  C   UNL     1       9.891   1.450   2.712  1.00  0.00     0.014 A 
ATOM     38  C   UNL     1      10.182  -0.256   4.401  1.00  0.00     0.014 A 
ATOM     39  C   UNL     1      10.657   2.333   3.479  1.00  0.00     0.010 A 
ATOM     40  C   UNL     1      10.857   0.655   5.207  1.00  0.00     0.010 A 
ATOM     41  C   UNL     1      11.119   1.954   4.750  1.00  0.00    -0.014 A 
BRANCH  41  42
ATOM     42  C   UNL     1      11.880   2.894   5.613  1.00  0.00     0.031 A 
ATOM     43  C   UNL     1      13.279   2.557   6.057  1.00  0.00     0.074 A 
ATOM     44  C   UNL     1      11.276   4.002   6.088  1.00  0.00     0.049 A 
ATOM     45  N   UNL     1      14.072   3.219   6.859  1.00  0.00    -0.248 NA
ATOM     46  C   UNL     1      13.846   1.288   5.570  1.00  0.00     0.031 C 
ATOM     47  C   UNL     1       9.888   4.386   5.827  1.00  0.00     0.029 A 
ATOM     48  N   UNL     1      11.743   4.989   6.920  1.00  0.00    -0.354 N 
ATOM     49  C   UNL     1      15.204   2.426   7.013  1.00  0.00     0.074 A 
ATOM     50  C   UNL     1      14.979   1.217   6.252  1.00  0.00     0.031 C 
ATOM     51  C   UNL     1       9.614   5.521   6.489  1.00  0.00     0.029 A 
ATOM     52  C   UNL     1      10.797   5.935   7.237  1.00  0.00     0.049 A 
ATOM     53  H   UNL     1      12.667   5.016   7.258  1.00  0.00     0.167 HD
ATOM     54  C   UNL     1      16.342   2.692   7.697  1.00  0.00     0.034 A 
ATOM     55  C   UNL     1      10.869   7.013   8.043  1.00  0.00     0.034 A 
ATOM     56  C   UNL     1      16.590   3.923   8.396  1.00  0.00     0.049 A 
ATOM     57  C   UNL     1      12.176   7.342   8.710  1.00  0.00     0.074 A 
ATOM     58  C   UNL     1      17.757   4.348   9.006  1.00  0.00     0.029 A 
ATOM     59  N   UNL     1      15.652   4.927   8.585  1.00  0.00    -0.354 N 
ATOM     60  N   UNL     1      13.305   6.677   8.681  1.00  0.00    -0.248 NA
ATOM     61  C   UNL     1      12.235   8.592   9.480  1.00  0.00     0.031 C 
ATOM     62  C   UNL     1      17.518   5.601   9.580  1.00  0.00     0.029 A 
ATOM     63  C   UNL     1      16.208   5.966   9.310  1.00  0.00     0.049 A 
ATOM     64  H   UNL     1      14.726   4.903   8.251  1.00  0.00     0.167 HD
ATOM     65  C   UNL     1      14.216   7.438   9.405  1.00  0.00     0.074 A 
ATOM     66  C   UNL     1      13.512   8.627   9.839  1.00  0.00     0.031 C 
ATOM     67  C   UNL     1      15.512   7.167   9.697  1.00  0.00     0.034 A 
BRANCH  54  68
ATOM     68  C   UNL     1      17.430   1.649   7.669  1.00  0.00     0.023 A 
ATOM     69  C   UNL     1      18.137   1.410   6.472  1.00  0.00     0.012 A 
ATOM     70  C   UNL     1      17.774   0.926   8.828  1.00  0.00     0.148 A 
ATOM     71  C   UNL     1      19.134   0.437   6.416  1.00  0.00     0.002 A 
ATOM     72  C   UNL     1      18.802  -0.009   8.776  1.00  0.00     0.091 A 
ATOM     73  F   UNL     1      17.078   1.146   9.953  1.00  0.00    -0.205 F 
ATOM     74  C   UNL     1      19.473  -0.265   7.569  1.00  0.00     0.022 A 
BRANCH  72  75
ATOM     75  S   UNL     1      19.363  -0.902  10.231  1.00  0.00     0.127 S 
ATOM     76  O   UNL     1      18.749  -2.213  10.027  1.00  0.00    -0.237 OA
ATOM     77  O   UNL     1      20.817  -0.879  10.070  1.00  0.00    -0.237 OA
ATOM     78  O   UNL     1      18.872  -0.144  11.373  1.00  0.00    -0.744 OA
ENDBRANCH  72  75
ENDBRANCH  54  68
BRANCH  55  79
ATOM     79  C   UNL     1       9.677   7.894   8.192  1.00  0.00     0.023 A 
ATOM     80  C   UNL     1       9.665   9.156   7.567  1.00  0.00     0.012 A 
ATOM     81  C   UNL     1       8.532   7.458   8.887  1.00  0.00     0.148 A 
ATOM     82  C   UNL     1       8.541   9.978   7.649  1.00  0.00     0.002 A 
ATOM     83  C   UNL     1       7.396   8.259   8.917  1.00  0.00     0.091 A 
ATOM     84  F   UNL     1       8.569   6.257   9.480  1.00  0.00    -0.205 F 
ATOM     85  C   UNL     1       7.404   9.525   8.312  1.00  0.00     0.022 A 
BRANCH  83  86
ATOM     86  S   UNL     1       5.841   7.700   9.623  1.00  0.00     0.127 S 
ATOM     87  O   UNL     1       5.721   8.557  10.799  1.00  0.00    -0.237 OA
ATOM     88  O   UNL     1       4.898   7.997   8.544  1.00  0.00    -0.237 OA
ATOM     89  O   UNL     1       6.018   6.279   9.891  1.00  0.00    -0.744 OA
ENDBRANCH  83  86
ENDBRANCH  55  79
BRANCH  67  90
ATOM     90  C   UNL     1      16.273   8.182  10.509  1.00  0.00     0.023 A 
ATOM     91  C   UNL     1      16.001   8.322  11.885  1.00  0.00     0.012 A 
ATOM     92  C   UNL     1      17.307   8.941   9.928  1.00  0.00     0.148 A 
ATOM     93  C   UNL     1      16.727   9.222  12.663  1.00  0.00     0.002 A 
ATOM     94  C   UNL     1      18.058   9.803  10.720  1.00  0.00     0.091 A 
ATOM     95  F   UNL     1      17.537   8.811   8.614  1.00  0.00    -0.205 F 
ATOM     96  C   UNL     1      17.763   9.953  12.085  1.00  0.00     0.022 A 
BRANCH  94  97
ATOM     97  S   UNL     1      19.471  10.708  10.077  1.00  0.00     0.127 S 
ATOM     98  O   UNL     1      18.926  12.058   9.948  1.00  0.00    -0.237 OA
ATOM     99  O   UNL     1      20.458  10.549  11.145  1.00  0.00    -0.237 OA
ATOM    100  O   UNL     1      19.828  10.052   8.826  1.00  0.00    -0.744 OA
ENDBRANCH  94  97
ENDBRANCH  67  90
ENDBRANCH  41  42
ENDBRANCH  33  36
ENDBRANCH  31  32
ENDBRANCH   1  31
TORSDOF 19
