REMARK SMILES CC(C)C(=O)Nc1ccc2c([C@@H](C(=O)NCCCNC(=O)c3ccc(-c4c5nc(c(-c6cccc(S(=O)(=O)[O-])c6F)c6ccc([nH]6)c(-c6cccc(S(=O)(=O)[O-])c6F)c6nc(c(-c7cccc(S(=O)(=O)[O-])c7F)c7ccc4[nH]7)C=C6)C=C5)cc3)[NH+]3CC[NH+](Cc4ccccc4)CC3)c[nH]c2c1
REMARK SMILES IDX 17 1 16 2 15 3 13 4 14 5 12 7 11 8 7 9 8 10 101 11 9 12
REMARK SMILES IDX 100 13 10 14 99 15 98 16 6 18 4 19 5 20 2 22 1 23 3 24 85 25
REMARK SMILES IDX 86 26 97 27 87 29 96 30 88 31 89 33 90 34 91 35 95 36 92 37
REMARK SMILES IDX 94 38 93 39 18 40 19 41 20 42 21 44 22 45 23 46 84 47 24 48
REMARK SMILES IDX 83 49 25 50 26 51 27 52 77 53 28 54 82 55 76 56 78 57 29 58
REMARK SMILES IDX 81 59 75 60 74 61 30 63 62 64 42 65 61 66 43 67 46 68 60 69
REMARK SMILES IDX 79 70 44 71 45 72 59 74 80 75 47 76 31 77 32 78 40 79 33 80
REMARK SMILES IDX 35 81 41 82 34 83 36 84 37 85 38 86 39 87 63 88 64 89 72 90
REMARK SMILES IDX 65 91 67 92 73 93 66 94 68 95 69 96 70 97 71 98 48 99 49 100
REMARK SMILES IDX 57 101 50 102 52 103 58 104 51 105 53 106 54 107 55 108
REMARK SMILES IDX 56 109
REMARK H PARENT 15 6 99 17 6 21 85 28 88 32 19 43 78 62 46 73
REMARK Flexibility Score: inf
ROOT
ATOM      1  C   UNL     1      -1.110   1.451   6.186  1.00  0.00     0.042 C 
ENDROOT
BRANCH   1   2
ATOM      2  C   UNL     1       0.368   1.815   6.215  1.00  0.00     0.118 C 
BRANCH   2   3
ATOM      3  N   UNL     1       1.061   1.205   7.331  1.00  0.00    -0.351 N 
ATOM      4  C   UNL     1       1.759   0.024   7.376  1.00  0.00     0.283 C 
ATOM      5  O   UNL     1       2.241  -0.270   8.474  1.00  0.00    -0.268 OA
ATOM      6  H   UNL     1       1.027   1.709   8.176  1.00  0.00     0.163 HD
BRANCH   4   7
ATOM      7  C   UNL     1       1.971  -0.788   6.064  1.00  0.00     0.308 C 
BRANCH   7   8
ATOM      8  C   UNL     1       0.724  -1.423   5.500  1.00  0.00     0.044 A 
ATOM      9  C   UNL     1      -1.117  -1.177   1.729  1.00  0.00     0.043 A 
ATOM     10  C   UNL     1      -0.173  -0.200   2.007  1.00  0.00     0.027 A 
ATOM     11  C   UNL     1      -1.566  -2.035   2.741  1.00  0.00     0.052 A 
ATOM     12  C   UNL     1       0.527  -0.200   3.206  1.00  0.00     0.013 A 
ATOM     13  C   UNL     1      -0.881  -1.995   3.968  1.00  0.00     0.048 A 
ATOM     14  C   UNL     1       0.187  -1.132   4.201  1.00  0.00     0.009 A 
ATOM     15  N   UNL     1      -1.050  -2.735   5.115  1.00  0.00    -0.361 N 
ATOM     16  C   UNL     1      -0.097  -2.394   6.044  1.00  0.00     0.094 A 
ATOM     17  H   UNL     1      -1.753  -3.411   5.251  1.00  0.00     0.166 HD
BRANCH   9  18
ATOM     18  N   UNL     1      -1.644  -1.296   0.440  1.00  0.00    -0.326 N 
ATOM     19  C   UNL     1      -1.017  -1.154  -0.770  1.00  0.00     0.226 C 
ATOM     20  O   UNL     1      -1.716  -0.976  -1.775  1.00  0.00    -0.274 OA
ATOM     21  H   UNL     1      -2.603  -1.514   0.395  1.00  0.00     0.169 HD
BRANCH  19  22
ATOM     22  C   UNL     1       0.508  -1.318  -0.948  1.00  0.00     0.072 C 
ATOM     23  C   UNL     1       1.354  -0.068  -0.729  1.00  0.00     0.018 C 
ATOM     24  C   UNL     1       1.090  -2.546  -0.251  1.00  0.00     0.018 C 
ENDBRANCH  19  22
ENDBRANCH   9  18
ENDBRANCH   7   8
BRANCH   7  25
ATOM     25  N   UNL     1       3.073  -1.763   6.133  1.00  0.00    -0.312 N 
ATOM     26  C   UNL     1       3.050  -2.742   7.218  1.00  0.00     0.325 C 
ATOM     27  C   UNL     1       3.526  -2.260   4.833  1.00  0.00     0.325 C 
ATOM     28  H   UNL     1       3.840  -1.174   6.458  1.00  0.00     0.349 HD
ATOM     29  C   UNL     1       2.976  -4.247   6.861  1.00  0.00     0.324 C 
ATOM     30  C   UNL     1       3.257  -3.749   4.529  1.00  0.00     0.324 C 
ATOM     31  N   UNL     1       3.582  -4.688   5.604  1.00  0.00    -0.322 N 
ATOM     32  H   UNL     1       3.145  -5.577   5.360  1.00  0.00     0.348 HD
BRANCH  31  33
ATOM     33  C   UNL     1       4.978  -5.128   5.681  1.00  0.00     0.299 C 
BRANCH  33  34
ATOM     34  C   UNL     1       6.036  -4.073   5.910  1.00  0.00     0.006 A 
ATOM     35  C   UNL     1       6.721  -3.503   4.826  1.00  0.00     0.009 A 
ATOM     36  C   UNL     1       6.303  -3.596   7.200  1.00  0.00     0.009 A 
ATOM     37  C   UNL     1       7.572  -2.413   5.020  1.00  0.00     0.001 A 
ATOM     38  C   UNL     1       7.143  -2.499   7.392  1.00  0.00     0.001 A 
ATOM     39  C   UNL     1       7.763  -1.897   6.300  1.00  0.00     0.000 A 
ENDBRANCH  33  34
ENDBRANCH  31  33
ENDBRANCH   7  25
ENDBRANCH   4   7
ENDBRANCH   2   3
ENDBRANCH   1   2
BRANCH   1  40
ATOM     40  C   UNL     1      -1.884   2.011   7.369  1.00  0.00     0.118 C 
BRANCH  40  41
ATOM     41  N   UNL     1      -1.863   3.467   7.393  1.00  0.00    -0.352 N 
ATOM     42  C   UNL     1      -2.901   4.354   7.306  1.00  0.00     0.251 C 
ATOM     43  H   UNL     1      -0.970   3.873   7.485  1.00  0.00     0.163 HD
ATOM     44  O   UNL     1      -2.667   5.544   7.087  1.00  0.00    -0.269 OA
BRANCH  42  45
ATOM     45  C   UNL     1      -4.290   3.886   7.473  1.00  0.00     0.039 A 
ATOM     46  C   UNL     1      -5.289   4.411   6.651  1.00  0.00     0.014 A 
ATOM     47  C   UNL     1      -4.610   2.945   8.456  1.00  0.00     0.014 A 
ATOM     48  C   UNL     1      -6.601   3.957   6.784  1.00  0.00     0.010 A 
ATOM     49  C   UNL     1      -5.897   2.427   8.525  1.00  0.00     0.010 A 
ATOM     50  C   UNL     1      -6.910   2.941   7.704  1.00  0.00    -0.014 A 
BRANCH  50  51
ATOM     51  C   UNL     1      -8.288   2.406   7.828  1.00  0.00     0.031 A 
ATOM     52  C   UNL     1      -9.036   2.539   9.127  1.00  0.00     0.074 A 
ATOM     53  C   UNL     1      -8.828   1.724   6.800  1.00  0.00     0.049 A 
ATOM     54  N   UNL     1     -10.223   2.092   9.443  1.00  0.00    -0.248 NA
ATOM     55  C   UNL     1      -8.349   3.239  10.226  1.00  0.00     0.031 C 
ATOM     56  C   UNL     1      -8.168   1.461   5.519  1.00  0.00     0.029 A 
ATOM     57  N   UNL     1     -10.047   1.106   6.678  1.00  0.00    -0.354 N 
ATOM     58  C   UNL     1     -10.408   2.417  10.781  1.00  0.00     0.074 A 
ATOM     59  C   UNL     1      -9.197   3.068  11.229  1.00  0.00     0.031 C 
ATOM     60  C   UNL     1      -8.993   0.747   4.737  1.00  0.00     0.029 A 
ATOM     61  C   UNL     1     -10.224   0.471   5.471  1.00  0.00     0.049 A 
ATOM     62  H   UNL     1     -10.730   1.117   7.387  1.00  0.00     0.167 HD
ATOM     63  C   UNL     1     -11.497   2.216  11.560  1.00  0.00     0.034 A 
ATOM     64  C   UNL     1     -11.260  -0.257   5.010  1.00  0.00     0.034 A 
ATOM     65  C   UNL     1     -12.713   1.607  11.095  1.00  0.00     0.049 A 
ATOM     66  C   UNL     1     -12.473  -0.430   5.882  1.00  0.00     0.074 A 
ATOM     67  C   UNL     1     -13.909   1.449  11.771  1.00  0.00     0.029 A 
ATOM     68  N   UNL     1     -12.886   1.045   9.839  1.00  0.00    -0.354 N 
ATOM     69  N   UNL     1     -12.693   0.029   7.090  1.00  0.00    -0.248 NA
ATOM     70  C   UNL     1     -13.594  -1.192   5.315  1.00  0.00     0.031 C 
ATOM     71  C   UNL     1     -14.794   0.759  10.937  1.00  0.00     0.029 A 
ATOM     72  C   UNL     1     -14.162   0.522   9.726  1.00  0.00     0.049 A 
ATOM     73  H   UNL     1     -12.201   1.021   9.132  1.00  0.00     0.167 HD
ATOM     74  C   UNL     1     -13.990  -0.354   7.413  1.00  0.00     0.074 A 
ATOM     75  C   UNL     1     -14.511  -1.067   6.265  1.00  0.00     0.031 C 
ATOM     76  C   UNL     1     -14.683  -0.144   8.559  1.00  0.00     0.034 A 
BRANCH  63  77
ATOM     77  C   UNL     1     -11.436   2.693  12.988  1.00  0.00     0.023 A 
ATOM     78  C   UNL     1     -11.433   4.076  13.266  1.00  0.00     0.012 A 
ATOM     79  C   UNL     1     -11.436   1.776  14.057  1.00  0.00     0.148 A 
ATOM     80  C   UNL     1     -11.389   4.538  14.581  1.00  0.00     0.002 A 
ATOM     81  C   UNL     1     -11.442   2.244  15.366  1.00  0.00     0.091 A 
ATOM     82  F   UNL     1     -11.417   0.466  13.775  1.00  0.00    -0.205 F 
ATOM     83  C   UNL     1     -11.405   3.623  15.629  1.00  0.00     0.022 A 
BRANCH  81  84
ATOM     84  S   UNL     1     -11.546   1.148  16.785  1.00  0.00     0.127 S 
ATOM     85  O   UNL     1     -10.204   1.271  17.352  1.00  0.00    -0.237 OA
ATOM     86  O   UNL     1     -12.603   1.774  17.580  1.00  0.00    -0.237 OA
ATOM     87  O   UNL     1     -11.882  -0.166  16.255  1.00  0.00    -0.744 OA
ENDBRANCH  81  84
ENDBRANCH  63  77
BRANCH  64  88
ATOM     88  C   UNL     1     -11.218  -0.818   3.631  1.00  0.00     0.023 A 
ATOM     89  C   UNL     1     -12.065  -0.281   2.641  1.00  0.00     0.012 A 
ATOM     90  C   UNL     1     -10.327  -1.852   3.286  1.00  0.00     0.148 A 
ATOM     91  C   UNL     1     -12.049  -0.786   1.341  1.00  0.00     0.002 A 
ATOM     92  C   UNL     1     -10.275  -2.312   1.975  1.00  0.00     0.091 A 
ATOM     93  F   UNL     1      -9.535  -2.353   4.244  1.00  0.00    -0.205 F 
ATOM     94  C   UNL     1     -11.148  -1.794   1.006  1.00  0.00     0.022 A 
BRANCH  92  95
ATOM     95  S   UNL     1      -9.057  -3.512   1.424  1.00  0.00     0.127 S 
ATOM     96  O   UNL     1      -9.889  -4.683   1.159  1.00  0.00    -0.237 OA
ATOM     97  O   UNL     1      -8.510  -2.860   0.234  1.00  0.00    -0.237 OA
ATOM     98  O   UNL     1      -8.108  -3.646   2.521  1.00  0.00    -0.744 OA
ENDBRANCH  92  95
ENDBRANCH  64  88
BRANCH  76  99
ATOM     99  C   UNL     1     -16.099  -0.654   8.623  1.00  0.00     0.023 A 
ATOM    100  C   UNL     1     -16.346  -2.037   8.718  1.00  0.00     0.012 A 
ATOM    101  C   UNL     1     -17.182   0.247   8.666  1.00  0.00     0.148 A 
ATOM    102  C   UNL     1     -17.651  -2.518   8.819  1.00  0.00     0.002 A 
ATOM    103  C   UNL     1     -18.475  -0.236   8.820  1.00  0.00     0.091 A 
ATOM    104  F   UNL     1     -16.927   1.559   8.556  1.00  0.00    -0.205 F 
ATOM    105  C   UNL     1     -18.713  -1.619   8.882  1.00  0.00     0.022 A 
BRANCH 103 106
ATOM    106  S   UNL     1     -19.892   0.850   9.013  1.00  0.00     0.127 S 
ATOM    107  O   UNL     1     -20.581   0.670   7.736  1.00  0.00    -0.237 OA
ATOM    108  O   UNL     1     -20.577   0.262  10.165  1.00  0.00    -0.237 OA
ATOM    109  O   UNL     1     -19.350   2.181   9.247  1.00  0.00    -0.744 OA
ENDBRANCH 103 106
ENDBRANCH  76  99
ENDBRANCH  50  51
ENDBRANCH  42  45
ENDBRANCH  40  41
ENDBRANCH   1  40
TORSDOF 19
