REMARK SMILES Cc1occc1C(=O)N[C@@H]1CCCCC[C@@H]1C(=O)NCCCNC(=O)c1ccc(-c2c3nc(c(-c4cccc(S(=O)(=O)[O-])c4F)c4ccc([nH]4)c(-c4cccc(S(=O)(=O)[O-])c4F)c4nc(c(-c5cccc(S(=O)(=O)[O-])c5F)c5ccc2[nH]5)C=C4)C=C3)cc1
REMARK SMILES IDX 21 1 20 2 19 3 17 4 18 5 16 7 10 8 9 9 7 10 8 11 6 13 1 14
REMARK SMILES IDX 2 15 3 16 4 17 5 18 11 19 12 20 15 22 14 23 13 24 22 26
REMARK SMILES IDX 23 27 24 28 25 30 26 31 27 32 88 33 28 34 87 35 29 36 30 37
REMARK SMILES IDX 31 38 81 39 32 40 86 41 80 42 82 43 33 44 85 45 79 46 78 47
REMARK SMILES IDX 34 49 66 50 46 51 65 52 47 53 50 54 64 55 83 56 48 57 49 58
REMARK SMILES IDX 63 60 84 61 51 62 35 63 36 64 44 65 37 66 39 67 45 68 38 69
REMARK SMILES IDX 40 70 41 71 42 72 43 73 67 74 68 75 76 76 69 77 71 78 77 79
REMARK SMILES IDX 70 80 72 81 73 82 74 83 75 84 52 85 53 86 61 87 54 88 56 89
REMARK SMILES IDX 62 90 55 91 57 92 58 93 59 94 60 95
REMARK H PARENT 19 6 9 12 23 29 82 48 50 59
REMARK Flexibility Score: 100.00
ROOT
ATOM      1  C   UNL     1      -1.840  -2.287  -0.373  1.00  0.00     0.042 C 
ENDROOT
BRANCH   1   2
ATOM      2  C   UNL     1      -0.670  -2.802  -1.237  1.00  0.00     0.117 C 
BRANCH   2   3
ATOM      3  N   UNL     1       0.043  -1.817  -2.068  1.00  0.00    -0.356 N 
ATOM      4  C   UNL     1       1.307  -1.358  -2.260  1.00  0.00     0.225 C 
ATOM      5  O   UNL     1       1.487  -0.994  -3.439  1.00  0.00    -0.275 OA
ATOM      6  H   UNL     1      -0.586  -1.351  -2.664  1.00  0.00     0.163 HD
BRANCH   4   7
ATOM      7  C   UNL     1       2.494  -1.086  -1.270  1.00  0.00     0.101 C 
BRANCH   7   8
ATOM      8  C   UNL     1       2.698  -1.978  -0.034  1.00  0.00     0.094 C 
BRANCH   8   9
ATOM      9  N   UNL     1       1.538  -2.353   0.755  1.00  0.00    -0.348 N 
ATOM     10  C   UNL     1       0.679  -1.646   1.546  1.00  0.00     0.255 C 
ATOM     11  O   UNL     1       0.037  -2.292   2.373  1.00  0.00    -0.269 OA
ATOM     12  H   UNL     1       1.328  -3.314   0.711  1.00  0.00     0.164 HD
BRANCH  10  13
ATOM     13  C   UNL     1       0.500  -0.221   1.387  1.00  0.00     0.080 A 
ATOM     14  C   UNL     1       1.415   0.581   3.699  1.00  0.00     0.088 C 
ATOM     15  C   UNL     1       0.795   0.703   2.369  1.00  0.00     0.113 A 
ATOM     16  O   UNL     1       0.408   1.952   1.993  1.00  0.00    -0.469 OA
ATOM     17  C   UNL     1      -0.201   1.839   0.790  1.00  0.00     0.196 A 
ATOM     18  C   UNL     1      -0.161   0.534   0.366  1.00  0.00     0.056 A 
ENDBRANCH  10  13
ENDBRANCH   8   9
BRANCH   8  19
ATOM     19  C   UNL     1       3.841  -1.736   0.982  1.00  0.00     0.026 C 
BRANCH  19  20
ATOM     20  C   UNL     1       4.994  -0.811   0.655  1.00  0.00     0.002 CG0
ATOM     21  G   UNL     1       4.558   0.640   0.607  1.00  0.00     0.000 G0
ENDBRANCH  19  20
ENDBRANCH   8  19
ENDBRANCH   7   8
BRANCH   7  22
ATOM     22  C   UNL     1       2.705   0.450  -1.165  1.00  0.00     0.015 C 
BRANCH  22  23
ATOM     23  C   UNL     1       4.067   1.020  -0.775  1.00  0.00     0.001 C 
BRANCH  23  24
ATOM     24  C   UNL     1       4.558   0.640   0.607  1.00  0.00     0.000 CG0
ATOM     25  G   UNL     1       4.994  -0.811   0.655  1.00  0.00     0.000 G0
ENDBRANCH  23  24
ENDBRANCH  22  23
ENDBRANCH   7  22
ENDBRANCH   4   7
ENDBRANCH   2   3
ENDBRANCH   1   2
BRANCH   1  26
ATOM     26  C   UNL     1      -3.006  -1.618  -1.107  1.00  0.00     0.118 C 
BRANCH  26  27
ATOM     27  N   UNL     1      -4.095  -2.566  -1.280  1.00  0.00    -0.352 N 
ATOM     28  C   UNL     1      -5.318  -2.580  -0.650  1.00  0.00     0.251 C 
ATOM     29  H   UNL     1      -3.937  -3.288  -1.931  1.00  0.00     0.163 HD
ATOM     30  O   UNL     1      -5.891  -3.658  -0.497  1.00  0.00    -0.269 OA
BRANCH  28  31
ATOM     31  C   UNL     1      -5.981  -1.324  -0.211  1.00  0.00     0.039 A 
ATOM     32  C   UNL     1      -6.825  -1.354   0.907  1.00  0.00     0.014 A 
ATOM     33  C   UNL     1      -5.902  -0.158  -0.980  1.00  0.00     0.014 A 
ATOM     34  C   UNL     1      -7.596  -0.233   1.240  1.00  0.00     0.010 A 
ATOM     35  C   UNL     1      -6.635   0.976  -0.618  1.00  0.00     0.010 A 
ATOM     36  C   UNL     1      -7.518   0.941   0.472  1.00  0.00    -0.014 A 
BRANCH  36  37
ATOM     37  C   UNL     1      -8.386   2.114   0.773  1.00  0.00     0.031 A 
ATOM     38  C   UNL     1      -9.451   2.546  -0.206  1.00  0.00     0.074 A 
ATOM     39  C   UNL     1      -8.181   2.827   1.898  1.00  0.00     0.049 A 
ATOM     40  N   UNL     1     -10.296   3.542  -0.124  1.00  0.00    -0.248 NA
ATOM     41  C   UNL     1      -9.562   1.774  -1.455  1.00  0.00     0.031 C 
ATOM     42  C   UNL     1      -7.129   2.564   2.881  1.00  0.00     0.029 A 
ATOM     43  N   UNL     1      -8.831   3.930   2.393  1.00  0.00    -0.354 N 
ATOM     44  C   UNL     1     -11.009   3.541  -1.319  1.00  0.00     0.074 A 
ATOM     45  C   UNL     1     -10.475   2.464  -2.124  1.00  0.00     0.031 C 
ATOM     46  C   UNL     1      -7.206   3.477   3.862  1.00  0.00     0.029 A 
ATOM     47  C   UNL     1      -8.301   4.399   3.574  1.00  0.00     0.049 A 
ATOM     48  H   UNL     1      -9.602   4.347   1.946  1.00  0.00     0.167 HD
ATOM     49  C   UNL     1     -12.036   4.340  -1.702  1.00  0.00     0.034 A 
ATOM     50  C   UNL     1      -8.662   5.448   4.339  1.00  0.00     0.034 A 
ATOM     51  C   UNL     1     -12.597   5.376  -0.875  1.00  0.00     0.049 A 
ATOM     52  C   UNL     1      -9.854   6.271   3.931  1.00  0.00     0.074 A 
ATOM     53  C   UNL     1     -13.697   6.177  -1.123  1.00  0.00     0.029 A 
ATOM     54  N   UNL     1     -12.098   5.755   0.362  1.00  0.00    -0.354 N 
ATOM     55  N   UNL     1     -10.623   6.144   2.876  1.00  0.00    -0.248 NA
ATOM     56  C   UNL     1     -10.257   7.353   4.840  1.00  0.00     0.031 C 
ATOM     57  C   UNL     1     -13.852   7.054  -0.043  1.00  0.00     0.029 A 
ATOM     58  C   UNL     1     -12.862   6.783   0.888  1.00  0.00     0.049 A 
ATOM     59  H   UNL     1     -11.315   5.353   0.802  1.00  0.00     0.167 HD
ATOM     60  C   UNL     1     -11.614   7.110   3.007  1.00  0.00     0.074 A 
ATOM     61  C   UNL     1     -11.367   7.792   4.262  1.00  0.00     0.031 C 
ATOM     62  C   UNL     1     -12.626   7.421   2.158  1.00  0.00     0.034 A 
BRANCH  49  63
ATOM     63  C   UNL     1     -12.660   4.088  -3.053  1.00  0.00     0.023 A 
ATOM     64  C   UNL     1     -13.431   2.924  -3.256  1.00  0.00     0.012 A 
ATOM     65  C   UNL     1     -12.534   5.019  -4.104  1.00  0.00     0.148 A 
ATOM     66  C   UNL     1     -14.031   2.670  -4.489  1.00  0.00     0.002 A 
ATOM     67  C   UNL     1     -13.172   4.781  -5.317  1.00  0.00     0.091 A 
ATOM     68  F   UNL     1     -11.786   6.114  -3.902  1.00  0.00    -0.205 F 
ATOM     69  C   UNL     1     -13.909   3.602  -5.516  1.00  0.00     0.022 A 
BRANCH  67  70
ATOM     70  S   UNL     1     -13.143   5.953  -6.680  1.00  0.00     0.127 S 
ATOM     71  O   UNL     1     -12.306   5.252  -7.653  1.00  0.00    -0.237 OA
ATOM     72  O   UNL     1     -14.558   6.037  -7.043  1.00  0.00    -0.237 OA
ATOM     73  O   UNL     1     -12.579   7.182  -6.142  1.00  0.00    -0.744 OA
ENDBRANCH  67  70
ENDBRANCH  49  63
BRANCH  50  74
ATOM     74  C   UNL     1      -7.936   5.724   5.613  1.00  0.00     0.023 A 
ATOM     75  C   UNL     1      -8.583   5.485   6.842  1.00  0.00     0.012 A 
ATOM     76  C   UNL     1      -6.606   6.184   5.617  1.00  0.00     0.148 A 
ATOM     77  C   UNL     1      -7.930   5.729   8.050  1.00  0.00     0.002 A 
ATOM     78  C   UNL     1      -5.942   6.372   6.825  1.00  0.00     0.091 A 
ATOM     79  F   UNL     1      -6.011   6.420   4.439  1.00  0.00    -0.205 F 
ATOM     80  C   UNL     1      -6.607   6.161   8.043  1.00  0.00     0.022 A 
BRANCH  78  81
ATOM     81  S   UNL     1      -4.198   6.800   6.908  1.00  0.00     0.127 S 
ATOM     82  O   UNL     1      -4.252   8.193   7.340  1.00  0.00    -0.237 OA
ATOM     83  O   UNL     1      -3.703   5.862   7.915  1.00  0.00    -0.237 OA
ATOM     84  O   UNL     1      -3.676   6.569   5.568  1.00  0.00    -0.744 OA
ENDBRANCH  78  81
ENDBRANCH  50  74
BRANCH  62  85
ATOM     85  C   UNL     1     -13.550   8.539   2.565  1.00  0.00     0.023 A 
ATOM     86  C   UNL     1     -13.089   9.871   2.539  1.00  0.00     0.012 A 
ATOM     87  C   UNL     1     -14.888   8.278   2.920  1.00  0.00     0.148 A 
ATOM     88  C   UNL     1     -13.931  10.921   2.901  1.00  0.00     0.002 A 
ATOM     89  C   UNL     1     -15.737   9.335   3.231  1.00  0.00     0.091 A 
ATOM     90  F   UNL     1     -15.305   7.004   2.958  1.00  0.00    -0.205 F 
ATOM     91  C   UNL     1     -15.257  10.654   3.236  1.00  0.00     0.022 A 
BRANCH  89  92
ATOM     92  S   UNL     1     -17.482   9.090   3.579  1.00  0.00     0.127 S 
ATOM     93  O   UNL     1     -17.520   9.238   5.033  1.00  0.00    -0.237 OA
ATOM     94  O   UNL     1     -18.106  10.188   2.839  1.00  0.00    -0.237 OA
ATOM     95  O   UNL     1     -17.806   7.763   3.073  1.00  0.00    -0.744 OA
ENDBRANCH  89  92
ENDBRANCH  62  85
ENDBRANCH  36  37
ENDBRANCH  28  31
ENDBRANCH  26  27
ENDBRANCH   1  26
TORSDOF 15
