REMARK SMILES Cc1ncccc1OC1(C(=O)NCCCNC(=O)c2ccc(-c3c4nc(c(-c5cccc(S(=O)(=O)[O-])c5F)c5ccc([nH]5)c(-c5cccc(S(=O)(=O)[O-])c5F)c5nc(c(-c6cccc(S(=O)(=O)[O-])c6F)c6ccc3[nH]6)C=C5)C=C4)cc2)CCN(C(=O)c2ccc(O)nn2)CC1
REMARK SMILES IDX 14 1 13 2 12 3 10 4 11 5 9 7 82 8 95 9 83 10 94 11 84 12
REMARK SMILES IDX 85 13 86 14 8 15 7 16 1 17 2 18 3 19 4 20 6 21 5 22 87 23
REMARK SMILES IDX 88 24 93 25 89 26 92 27 90 28 91 29 15 31 16 32 17 33 18 35
REMARK SMILES IDX 19 36 20 37 81 38 21 39 80 40 22 41 23 42 24 43 74 44 25 45
REMARK SMILES IDX 79 46 73 47 75 48 26 49 78 50 72 51 71 52 27 54 59 55 39 56
REMARK SMILES IDX 58 57 40 58 43 59 57 60 76 61 41 62 42 63 56 65 77 66 44 67
REMARK SMILES IDX 28 68 29 69 37 70 30 71 32 72 38 73 31 74 33 75 34 76 35 77
REMARK SMILES IDX 36 78 60 79 61 80 69 81 62 82 64 83 70 84 63 85 65 86 66 87
REMARK SMILES IDX 67 88 68 89 45 90 46 91 54 92 47 93 49 94 55 95 48 96 50 97
REMARK SMILES IDX 51 98 52 99 53 100
REMARK H PARENT 12 6 91 30 16 34 75 53 43 64
REMARK Flexibility Score: inf
ROOT
ATOM      1  C   UNL     1       5.904  -3.500   1.159  1.00  0.00     0.042 C 
ENDROOT
BRANCH   1   2
ATOM      2  C   UNL     1       5.020  -3.448  -0.080  1.00  0.00     0.118 C 
BRANCH   2   3
ATOM      3  N   UNL     1       3.725  -4.067   0.114  1.00  0.00    -0.353 N 
ATOM      4  C   UNL     1       2.454  -3.564   0.132  1.00  0.00     0.264 C 
ATOM      5  O   UNL     1       1.568  -4.425   0.204  1.00  0.00    -0.270 OA
ATOM      6  H   UNL     1       3.769  -5.040   0.263  1.00  0.00     0.163 HD
BRANCH   4   7
ATOM      7  C   UNL     1       2.125  -2.020   0.059  1.00  0.00     0.190 C 
ATOM      8  C   UNL     1       2.625  -1.370   1.345  1.00  0.00     0.080 C 
ATOM      9  C   UNL     1       2.590  -1.495  -1.294  1.00  0.00     0.080 C 
ATOM     10  C   UNL     1       3.860  -0.496   1.233  1.00  0.00     0.124 C 
ATOM     11  C   UNL     1       3.690  -0.448  -1.310  1.00  0.00     0.124 C 
ATOM     12  N   UNL     1       4.114   0.152  -0.048  1.00  0.00    -0.337 N 
ATOM     13  C   UNL     1       5.048   1.209  -0.018  1.00  0.00     0.274 C 
ATOM     14  O   UNL     1       5.607   1.584   1.011  1.00  0.00    -0.267 OA
BRANCH   7  15
ATOM     15  O   UNL     1       0.671  -2.062   0.073  1.00  0.00    -0.475 OA
BRANCH  15  16
ATOM     16  C   UNL     1      -0.281  -1.095   0.031  1.00  0.00     0.142 A 
ATOM     17  C   UNL     1       0.929   1.194  -0.026  1.00  0.00     0.071 C 
ATOM     18  C   UNL     1      -0.259   0.302  -0.014  1.00  0.00     0.079 A 
ATOM     19  N   UNL     1      -1.404   1.054  -0.049  1.00  0.00    -0.258 NA
ATOM     20  C   UNL     1      -2.595   0.435  -0.022  1.00  0.00     0.111 A 
ATOM     21  C   UNL     1      -1.556  -1.688   0.045  1.00  0.00     0.050 A 
ATOM     22  C   UNL     1      -2.723  -0.931   0.023  1.00  0.00     0.024 A 
ENDBRANCH  15  16
ENDBRANCH   7  15
BRANCH  13  23
ATOM     23  C   UNL     1       5.458   1.844  -1.292  1.00  0.00     0.151 A 
ATOM     24  C   UNL     1       6.784   1.783  -1.688  1.00  0.00     0.042 A 
ATOM     25  N   UNL     1       4.481   2.396  -2.057  1.00  0.00    -0.142 NA
ATOM     26  C   UNL     1       7.106   2.285  -2.941  1.00  0.00     0.072 A 
ATOM     27  N   UNL     1       4.802   2.890  -3.281  1.00  0.00    -0.112 NA
ATOM     28  C   UNL     1       6.083   2.821  -3.692  1.00  0.00     0.230 A 
BRANCH  28  29
ATOM     29  O   UNL     1       6.319   3.308  -4.937  1.00  0.00    -0.492 OA
ATOM     30  H   UNL     1       7.188   3.292  -5.289  1.00  0.00     0.295 HD
ENDBRANCH  28  29
ENDBRANCH  13  23
ENDBRANCH   4   7
ENDBRANCH   2   3
ENDBRANCH   1   2
BRANCH   1  31
ATOM     31  C   UNL     1       6.630  -4.825   1.350  1.00  0.00     0.118 C 
BRANCH  31  32
ATOM     32  N   UNL     1       7.635  -5.063   0.319  1.00  0.00    -0.352 N 
ATOM     33  C   UNL     1       9.003  -5.167   0.401  1.00  0.00     0.251 C 
ATOM     34  H   UNL     1       7.271  -5.166  -0.590  1.00  0.00     0.163 HD
ATOM     35  O   UNL     1       9.657  -5.172  -0.640  1.00  0.00    -0.269 OA
BRANCH  33  36
ATOM     36  C   UNL     1       9.696  -5.260   1.708  1.00  0.00     0.039 A 
ATOM     37  C   UNL     1      10.932  -4.622   1.863  1.00  0.00     0.014 A 
ATOM     38  C   UNL     1       9.169  -6.004   2.765  1.00  0.00     0.014 A 
ATOM     39  C   UNL     1      11.599  -4.674   3.092  1.00  0.00     0.010 A 
ATOM     40  C   UNL     1       9.791  -5.987   4.011  1.00  0.00     0.010 A 
ATOM     41  C   UNL     1      11.016  -5.328   4.189  1.00  0.00    -0.014 A 
BRANCH  41  42
ATOM     42  C   UNL     1      11.657  -5.329   5.531  1.00  0.00     0.031 A 
ATOM     43  C   UNL     1      12.068  -6.626   6.177  1.00  0.00     0.074 A 
ATOM     44  C   UNL     1      11.767  -4.175   6.218  1.00  0.00     0.049 A 
ATOM     45  N   UNL     1      12.546  -6.835   7.376  1.00  0.00    -0.248 NA
ATOM     46  C   UNL     1      11.889  -7.854   5.383  1.00  0.00     0.031 C 
ATOM     47  C   UNL     1      11.327  -2.861   5.741  1.00  0.00     0.029 A 
ATOM     48  N   UNL     1      12.252  -3.924   7.477  1.00  0.00    -0.354 N 
ATOM     49  C   UNL     1      12.676  -8.213   7.501  1.00  0.00     0.074 A 
ATOM     50  C   UNL     1      12.205  -8.794   6.262  1.00  0.00     0.031 C 
ATOM     51  C   UNL     1      11.563  -1.946   6.694  1.00  0.00     0.029 A 
ATOM     52  C   UNL     1      12.146  -2.606   7.858  1.00  0.00     0.049 A 
ATOM     53  H   UNL     1      12.640  -4.621   8.054  1.00  0.00     0.167 HD
ATOM     54  C   UNL     1      13.170  -8.931   8.538  1.00  0.00     0.034 A 
ATOM     55  C   UNL     1      12.476  -1.997   9.014  1.00  0.00     0.034 A 
ATOM     56  C   UNL     1      13.708  -8.349   9.737  1.00  0.00     0.049 A 
ATOM     57  C   UNL     1      13.096  -2.807  10.119  1.00  0.00     0.074 A 
ATOM     58  C   UNL     1      14.335  -8.985  10.795  1.00  0.00     0.029 A 
ATOM     59  N   UNL     1      13.689  -6.996  10.038  1.00  0.00    -0.354 N 
ATOM     60  N   UNL     1      13.364  -4.090  10.150  1.00  0.00    -0.248 NA
ATOM     61  C   UNL     1      13.494  -2.081  11.335  1.00  0.00     0.031 C 
ATOM     62  C   UNL     1      14.690  -8.015  11.739  1.00  0.00     0.029 A 
ATOM     63  C   UNL     1      14.291  -6.776  11.265  1.00  0.00     0.049 A 
ATOM     64  H   UNL     1      13.304  -6.295   9.464  1.00  0.00     0.167 HD
ATOM     65  C   UNL     1      13.989  -4.319  11.370  1.00  0.00     0.074 A 
ATOM     66  C   UNL     1      14.079  -3.039  12.042  1.00  0.00     0.031 C 
ATOM     67  C   UNL     1      14.430  -5.489  11.895  1.00  0.00     0.034 A 
BRANCH  54  68
ATOM     68  C   UNL     1      13.221 -10.428   8.392  1.00  0.00     0.023 A 
ATOM     69  C   UNL     1      14.184 -11.006   7.540  1.00  0.00     0.012 A 
ATOM     70  C   UNL     1      12.366 -11.264   9.136  1.00  0.00     0.148 A 
ATOM     71  C   UNL     1      14.276 -12.391   7.406  1.00  0.00     0.002 A 
ATOM     72  C   UNL     1      12.490 -12.645   9.027  1.00  0.00     0.091 A 
ATOM     73  F   UNL     1      11.441 -10.697   9.923  1.00  0.00    -0.205 F 
ATOM     74  C   UNL     1      13.437 -13.209   8.156  1.00  0.00     0.022 A 
BRANCH  72  75
ATOM     75  S   UNL     1      11.502 -13.782  10.007  1.00  0.00     0.127 S 
ATOM     76  O   UNL     1      10.543 -14.269   9.017  1.00  0.00    -0.237 OA
ATOM     77  O   UNL     1      12.495 -14.771  10.431  1.00  0.00    -0.237 OA
ATOM     78  O   UNL     1      10.941 -12.988  11.091  1.00  0.00    -0.744 OA
ENDBRANCH  72  75
ENDBRANCH  54  68
BRANCH  55  79
ATOM     79  C   UNL     1      12.305  -0.523   9.147  1.00  0.00     0.023 A 
ATOM     80  C   UNL     1      13.447   0.301   9.136  1.00  0.00     0.012 A 
ATOM     81  C   UNL     1      11.031   0.068   9.238  1.00  0.00     0.148 A 
ATOM     82  C   UNL     1      13.325   1.687   9.236  1.00  0.00     0.002 A 
ATOM     83  C   UNL     1      10.913   1.452   9.287  1.00  0.00     0.091 A 
ATOM     84  F   UNL     1       9.957  -0.735   9.262  1.00  0.00    -0.205 F 
ATOM     85  C   UNL     1      12.059   2.263   9.300  1.00  0.00     0.022 A 
BRANCH  83  86
ATOM     86  S   UNL     1       9.320   2.281   9.239  1.00  0.00     0.127 S 
ATOM     87  O   UNL     1       9.168   2.717  10.625  1.00  0.00    -0.237 OA
ATOM     88  O   UNL     1       9.565   3.357   8.278  1.00  0.00    -0.237 OA
ATOM     89  O   UNL     1       8.373   1.274   8.780  1.00  0.00    -0.744 OA
ENDBRANCH  83  86
ENDBRANCH  55  79
BRANCH  67  90
ATOM     90  C   UNL     1      15.077  -5.446  13.253  1.00  0.00     0.023 A 
ATOM     91  C   UNL     1      14.275  -5.285  14.400  1.00  0.00     0.012 A 
ATOM     92  C   UNL     1      16.463  -5.649  13.400  1.00  0.00     0.148 A 
ATOM     93  C   UNL     1      14.845  -5.304  15.672  1.00  0.00     0.002 A 
ATOM     94  C   UNL     1      17.019  -5.708  14.673  1.00  0.00     0.091 A 
ATOM     95  F   UNL     1      17.213  -5.777  12.296  1.00  0.00    -0.205 F 
ATOM     96  C   UNL     1      16.214  -5.527  15.809  1.00  0.00     0.022 A 
BRANCH  94  97
ATOM     97  S   UNL     1      18.756  -6.082  14.940  1.00  0.00     0.127 S 
ATOM     98  O   UNL     1      19.306  -4.759  15.229  1.00  0.00    -0.237 OA
ATOM     99  O   UNL     1      18.711  -6.988  16.089  1.00  0.00    -0.237 OA
ATOM    100  O   UNL     1      19.221  -6.702  13.707  1.00  0.00    -0.744 OA
ENDBRANCH  94  97
ENDBRANCH  67  90
ENDBRANCH  41  42
ENDBRANCH  33  36
ENDBRANCH  31  32
ENDBRANCH   1  31
TORSDOF 17
