REMARK SMILES O=C(NCCCNC(=O)[C@H]1Cc2cc(O)ccc2C[NH2+]1)c1ccc(-c2c3nc(c(-c4cccc(S(=O)(=O)[O-])c4F)c4ccc([nH]4)c(-c4cccc(S(=O)(=O)[O-])c4F)c4nc(c(-c5cccc(S(=O)(=O)[O-])c5F)c5ccc2[nH]5)C=C4)C=C3)cc1
REMARK SMILES IDX 4 1 3 2 1 3 2 4 21 6 22 7 83 8 23 9 82 10 24 11 25 12 26 13
REMARK SMILES IDX 76 14 27 15 81 16 75 17 77 18 28 19 80 20 74 21 73 22 29 24
REMARK SMILES IDX 61 25 41 26 60 27 42 28 45 29 59 30 78 31 43 32 44 33 58 35
REMARK SMILES IDX 79 36 46 37 30 38 31 39 39 40 32 41 34 42 40 43 33 44 35 45
REMARK SMILES IDX 36 46 37 47 38 48 62 49 63 50 71 51 64 52 66 53 72 54 65 55
REMARK SMILES IDX 67 56 68 57 69 58 70 59 47 60 48 61 56 62 49 63 51 64 57 65
REMARK SMILES IDX 50 66 52 67 53 68 54 69 55 70 5 71 6 72 7 73 8 74 9 76 10 77
REMARK SMILES IDX 11 78 20 79 12 80 19 81 13 84 18 85 14 86 17 87 16 88 15 89
REMARK H PARENT 3 5 77 23 45 34 7 75 20 82 20 83 15 90
REMARK Flexibility Score: inf
ROOT
ATOM      1  C   UNL     1       4.380  -0.713  -1.271  1.00  0.00     0.118 C 
ENDROOT
BRANCH   1   2
ATOM      2  N   UNL     1       2.969  -0.388  -1.154  1.00  0.00    -0.352 N 
ATOM      3  O   UNL     1       1.021   0.061  -0.147  1.00  0.00    -0.269 OA
ATOM      4  C   UNL     1       2.248   0.065  -0.078  1.00  0.00     0.251 C 
ATOM      5  H   UNL     1       2.447  -0.511  -1.979  1.00  0.00     0.163 HD
BRANCH   4   6
ATOM      6  C   UNL     1       2.916   0.558   1.151  1.00  0.00     0.039 A 
ATOM      7  C   UNL     1       2.281   0.354   2.381  1.00  0.00     0.014 A 
ATOM      8  C   UNL     1       4.102   1.295   1.103  1.00  0.00     0.014 A 
ATOM      9  C   UNL     1       2.830   0.889   3.549  1.00  0.00     0.010 A 
ATOM     10  C   UNL     1       4.701   1.742   2.279  1.00  0.00     0.010 A 
ATOM     11  C   UNL     1       4.044   1.593   3.507  1.00  0.00    -0.014 A 
BRANCH  11  12
ATOM     12  C   UNL     1       4.576   2.270   4.718  1.00  0.00     0.031 A 
ATOM     13  C   UNL     1       4.685   3.774   4.745  1.00  0.00     0.074 A 
ATOM     14  C   UNL     1       4.975   1.548   5.782  1.00  0.00     0.049 A 
ATOM     15  N   UNL     1       5.106   4.550   5.710  1.00  0.00    -0.248 NA
ATOM     16  C   UNL     1       4.296   4.505   3.525  1.00  0.00     0.031 C 
ATOM     17  C   UNL     1       4.976   0.086   5.861  1.00  0.00     0.029 A 
ATOM     18  N   UNL     1       5.457   1.947   7.004  1.00  0.00    -0.354 N 
ATOM     19  C   UNL     1       5.080   5.841   5.198  1.00  0.00     0.074 A 
ATOM     20  C   UNL     1       4.630   5.750   3.830  1.00  0.00     0.031 C 
ATOM     21  C   UNL     1       5.399  -0.287   7.080  1.00  0.00     0.029 A 
ATOM     22  C   UNL     1       5.719   0.905   7.862  1.00  0.00     0.049 A 
ATOM     23  H   UNL     1       5.600   2.891   7.244  1.00  0.00     0.167 HD
ATOM     24  C   UNL     1       5.364   7.006   5.822  1.00  0.00     0.034 A 
ATOM     25  C   UNL     1       6.151   0.908   9.139  1.00  0.00     0.034 A 
ATOM     26  C   UNL     1       5.709   7.110   7.209  1.00  0.00     0.049 A 
ATOM     27  C   UNL     1       6.406   2.218   9.831  1.00  0.00     0.074 A 
ATOM     28  C   UNL     1       5.884   8.255   7.963  1.00  0.00     0.029 A 
ATOM     29  N   UNL     1       5.926   6.032   8.050  1.00  0.00    -0.354 N 
ATOM     30  N   UNL     1       6.234   3.434   9.372  1.00  0.00    -0.248 NA
ATOM     31  C   UNL     1       6.891   2.163  11.218  1.00  0.00     0.031 C 
ATOM     32  C   UNL     1       6.222   7.870   9.262  1.00  0.00     0.029 A 
ATOM     33  C   UNL     1       6.249   6.484   9.314  1.00  0.00     0.049 A 
ATOM     34  H   UNL     1       5.859   5.085   7.787  1.00  0.00     0.167 HD
ATOM     35  C   UNL     1       6.571   4.287  10.416  1.00  0.00     0.074 A 
ATOM     36  C   UNL     1       6.948   3.452  11.537  1.00  0.00     0.031 C 
ATOM     37  C   UNL     1       6.576   5.642  10.435  1.00  0.00     0.034 A 
BRANCH  24  38
ATOM     38  C   UNL     1       5.240   8.280   5.034  1.00  0.00     0.023 A 
ATOM     39  C   UNL     1       3.961   8.814   4.780  1.00  0.00     0.012 A 
ATOM     40  C   UNL     1       6.386   8.989   4.627  1.00  0.00     0.148 A 
ATOM     41  C   UNL     1       3.823  10.031   4.116  1.00  0.00     0.002 A 
ATOM     42  C   UNL     1       6.241  10.218   3.994  1.00  0.00     0.091 A 
ATOM     43  F   UNL     1       7.589   8.450   4.867  1.00  0.00    -0.205 F 
ATOM     44  C   UNL     1       4.961  10.737   3.733  1.00  0.00     0.022 A 
BRANCH  42  45
ATOM     45  S   UNL     1       7.640  11.234   3.510  1.00  0.00     0.127 S 
ATOM     46  O   UNL     1       7.530  11.211   2.051  1.00  0.00    -0.237 OA
ATOM     47  O   UNL     1       7.313  12.519   4.126  1.00  0.00    -0.237 OA
ATOM     48  O   UNL     1       8.823  10.579   4.051  1.00  0.00    -0.744 OA
ENDBRANCH  42  45
ENDBRANCH  24  38
BRANCH  25  49
ATOM     49  C   UNL     1       6.263  -0.385   9.868  1.00  0.00     0.023 A 
ATOM     50  C   UNL     1       5.252  -0.739  10.781  1.00  0.00     0.012 A 
ATOM     51  C   UNL     1       7.303  -1.295   9.599  1.00  0.00     0.148 A 
ATOM     52  C   UNL     1       5.273  -1.980  11.417  1.00  0.00     0.002 A 
ATOM     53  C   UNL     1       7.300  -2.544  10.211  1.00  0.00     0.091 A 
ATOM     54  F   UNL     1       8.250  -0.933   8.723  1.00  0.00    -0.205 F 
ATOM     55  C   UNL     1       6.291  -2.885  11.126  1.00  0.00     0.022 A 
BRANCH  53  56
ATOM     56  S   UNL     1       8.511  -3.815   9.833  1.00  0.00     0.127 S 
ATOM     57  O   UNL     1       9.129  -4.038  11.140  1.00  0.00    -0.237 OA
ATOM     58  O   UNL     1       7.657  -4.907   9.364  1.00  0.00    -0.237 OA
ATOM     59  O   UNL     1       9.386  -3.246   8.821  1.00  0.00    -0.744 OA
ENDBRANCH  53  56
ENDBRANCH  25  49
BRANCH  37  60
ATOM     60  C   UNL     1       6.999   6.347  11.692  1.00  0.00     0.023 A 
ATOM     61  C   UNL     1       8.372   6.525  11.943  1.00  0.00     0.012 A 
ATOM     62  C   UNL     1       6.049   7.002  12.500  1.00  0.00     0.148 A 
ATOM     63  C   UNL     1       8.796   7.357  12.978  1.00  0.00     0.002 A 
ATOM     64  C   UNL     1       6.479   7.855  13.508  1.00  0.00     0.091 A 
ATOM     65  F   UNL     1       4.748   6.816  12.231  1.00  0.00    -0.205 F 
ATOM     66  C   UNL     1       7.852   8.032  13.749  1.00  0.00     0.022 A 
BRANCH  64  67
ATOM     67  S   UNL     1       5.347   8.839  14.497  1.00  0.00     0.127 S 
ATOM     68  O   UNL     1       5.619   8.341  15.845  1.00  0.00    -0.237 OA
ATOM     69  O   UNL     1       5.819  10.199  14.241  1.00  0.00    -0.237 OA
ATOM     70  O   UNL     1       4.011   8.549  13.995  1.00  0.00    -0.744 OA
ENDBRANCH  64  67
ENDBRANCH  37  60
ENDBRANCH  11  12
ENDBRANCH   4   6
ENDBRANCH   1   2
BRANCH   1  71
ATOM     71  C   UNL     1       4.613  -2.193  -1.540  1.00  0.00     0.042 C 
BRANCH  71  72
ATOM     72  C   UNL     1       4.116  -2.668  -2.902  1.00  0.00     0.118 C 
BRANCH  72  73
ATOM     73  N   UNL     1       4.805  -2.010  -4.001  1.00  0.00    -0.351 N 
ATOM     74  C   UNL     1       5.720  -2.499  -4.886  1.00  0.00     0.278 C 
ATOM     75  H   UNL     1       4.575  -1.061  -4.125  1.00  0.00     0.163 HD
ATOM     76  O   UNL     1       6.138  -1.729  -5.758  1.00  0.00    -0.268 OA
BRANCH  74  77
ATOM     77  C   UNL     1       6.202  -3.960  -4.844  1.00  0.00     0.277 C 
ATOM     78  C   UNL     1       7.024  -4.256  -3.582  1.00  0.00     0.111 C 
ATOM     79  N   UNL     1       5.048  -4.872  -5.027  1.00  0.00    -0.332 N 
ATOM     80  C   UNL     1       7.171  -5.729  -3.295  1.00  0.00    -0.029 A 
ATOM     81  C   UNL     1       5.521  -6.252  -5.148  1.00  0.00     0.298 C 
ATOM     82  H   UNL     1       4.542  -4.612  -5.874  1.00  0.00     0.347 HD
ATOM     83  H   UNL     1       4.429  -4.798  -4.220  1.00  0.00     0.347 HD
ATOM     84  C   UNL     1       8.014  -6.150  -2.257  1.00  0.00     0.050 A 
ATOM     85  C   UNL     1       6.421  -6.677  -4.014  1.00  0.00     0.010 A 
ATOM     86  C   UNL     1       8.124  -7.501  -1.956  1.00  0.00     0.115 A 
ATOM     87  C   UNL     1       6.564  -8.039  -3.707  1.00  0.00     0.013 A 
ATOM     88  C   UNL     1       7.411  -8.452  -2.676  1.00  0.00     0.046 A 
BRANCH  86  89
ATOM     89  O   UNL     1       8.952  -7.856  -0.933  1.00  0.00    -0.508 OA
ATOM     90  H   UNL     1       9.423  -7.197  -0.462  1.00  0.00     0.293 HD
ENDBRANCH  86  89
ENDBRANCH  74  77
ENDBRANCH  72  73
ENDBRANCH  71  72
ENDBRANCH   1  71
TORSDOF 14
