REMARK SMILES [NH3+][C@H](C(=O)NCCCNC(=O)c1ccc(-c2c3nc(c(-c4cccc(S(=O)(=O)[O-])c4F)c4ccc([nH]4)c(-c4cccc(S(=O)(=O)[O-])c4F)c4nc(c(-c5cccc(S(=O)(=O)[O-])c5F)c5ccc2[nH]5)C=C4)C=C3)cc1)c1cccc(OCc2ccc(F)cc2)c1
REMARK SMILES IDX 6 1 5 2 3 3 4 4 2 6 1 7 75 11 76 12 89 13 77 14 79 15 78 16
REMARK SMILES IDX 80 17 81 18 82 19 83 20 88 21 84 22 87 23 85 24 86 25 7 26
REMARK SMILES IDX 8 27 9 28 10 29 11 31 12 32 13 33 74 34 14 35 73 36 15 37
REMARK SMILES IDX 16 38 17 39 67 40 18 41 72 42 66 43 68 44 19 45 71 46 65 47
REMARK SMILES IDX 64 48 20 50 52 51 32 52 51 53 33 54 36 55 50 56 69 57 34 58
REMARK SMILES IDX 35 59 49 61 70 62 37 63 21 64 22 65 30 66 23 67 25 68 31 69
REMARK SMILES IDX 24 70 26 71 27 72 28 73 29 74 53 75 54 76 62 77 55 78 57 79
REMARK SMILES IDX 63 80 56 81 58 82 59 83 60 84 61 85 38 86 39 87 47 88 40 89
REMARK SMILES IDX 42 90 48 91 41 92 43 93 44 94 45 95 46 96
REMARK H PARENT 5 5 1 8 1 9 1 10 9 30 68 49 36 60
REMARK Flexibility Score: inf
ROOT
ATOM      1  C   UNL     1       1.435  -2.549   0.631  1.00  0.00     0.118 C 
ENDROOT
BRANCH   1   2
ATOM      2  N   UNL     1       1.311  -1.329  -0.157  1.00  0.00    -0.351 N 
ATOM      3  C   UNL     1       0.908  -0.068   0.177  1.00  0.00     0.283 C 
ATOM      4  O   UNL     1       0.927   0.783  -0.723  1.00  0.00    -0.268 OA
ATOM      5  H   UNL     1       1.564  -1.434  -1.103  1.00  0.00     0.163 HD
BRANCH   3   6
ATOM      6  C   UNL     1       0.541   0.327   1.637  1.00  0.00     0.302 C 
BRANCH   6   7
ATOM      7  N   UNL     1       1.262   1.591   1.954  1.00  0.00    -0.343 N 
ATOM      8  H   UNL     1       1.042   1.878   2.907  1.00  0.00     0.345 HD
ATOM      9  H   UNL     1       0.970   2.321   1.303  1.00  0.00     0.345 HD
ATOM     10  H   UNL     1       2.267   1.441   1.867  1.00  0.00     0.345 HD
ENDBRANCH   6   7
BRANCH   6  11
ATOM     11  C   UNL     1      -0.964   0.460   1.827  1.00  0.00     0.023 A 
ATOM     12  C   UNL     1      -1.654   1.669   1.616  1.00  0.00     0.011 A 
ATOM     13  C   UNL     1      -1.717  -0.681   2.159  1.00  0.00     0.057 A 
ATOM     14  C   UNL     1      -3.041   1.746   1.762  1.00  0.00     0.004 A 
ATOM     15  C   UNL     1      -3.112  -0.615   2.228  1.00  0.00     0.120 A 
ATOM     16  C   UNL     1      -3.766   0.606   2.077  1.00  0.00     0.046 A 
BRANCH  15  17
ATOM     17  O   UNL     1      -3.954  -1.684   2.318  1.00  0.00    -0.489 OA
BRANCH  17  18
ATOM     18  C   UNL     1      -3.523  -2.938   1.788  1.00  0.00     0.265 C 
BRANCH  18  19
ATOM     19  C   UNL     1      -3.293  -3.047   0.285  1.00  0.00    -0.011 A 
ATOM     20  C   UNL     1      -3.260  -4.336  -0.262  1.00  0.00     0.010 A 
ATOM     21  C   UNL     1      -3.031  -1.963  -0.575  1.00  0.00     0.010 A 
ATOM     22  C   UNL     1      -2.953  -4.526  -1.605  1.00  0.00     0.039 A 
ATOM     23  C   UNL     1      -2.666  -2.161  -1.909  1.00  0.00     0.039 A 
ATOM     24  C   UNL     1      -2.624  -3.446  -2.412  1.00  0.00     0.123 A 
ATOM     25  F   UNL     1      -2.221  -3.651  -3.673  1.00  0.00    -0.207 F 
ENDBRANCH  18  19
ENDBRANCH  17  18
ENDBRANCH  15  17
ENDBRANCH   6  11
ENDBRANCH   3   6
ENDBRANCH   1   2
BRANCH   1  26
ATOM     26  C   UNL     1       0.532  -3.673   0.113  1.00  0.00     0.042 C 
BRANCH  26  27
ATOM     27  C   UNL     1       0.896  -4.217  -1.275  1.00  0.00     0.118 C 
BRANCH  27  28
ATOM     28  N   UNL     1       1.702  -5.428  -1.220  1.00  0.00    -0.352 N 
ATOM     29  C   UNL     1       1.398  -6.736  -1.526  1.00  0.00     0.251 C 
ATOM     30  H   UNL     1       2.626  -5.287  -0.909  1.00  0.00     0.163 HD
ATOM     31  O   UNL     1       2.233  -7.603  -1.268  1.00  0.00    -0.269 OA
BRANCH  29  32
ATOM     32  C   UNL     1       0.098  -7.147  -2.119  1.00  0.00     0.039 A 
ATOM     33  C   UNL     1      -0.535  -8.286  -1.605  1.00  0.00     0.014 A 
ATOM     34  C   UNL     1      -0.473  -6.503  -3.216  1.00  0.00     0.014 A 
ATOM     35  C   UNL     1      -1.762  -8.728  -2.130  1.00  0.00     0.010 A 
ATOM     36  C   UNL     1      -1.726  -6.918  -3.705  1.00  0.00     0.010 A 
ATOM     37  C   UNL     1      -2.407  -8.023  -3.158  1.00  0.00    -0.014 A 
BRANCH  37  38
ATOM     38  C   UNL     1      -3.784  -8.410  -3.629  1.00  0.00     0.031 A 
ATOM     39  C   UNL     1      -4.063  -8.679  -5.091  1.00  0.00     0.074 A 
ATOM     40  C   UNL     1      -4.829  -8.457  -2.770  1.00  0.00     0.049 A 
ATOM     41  N   UNL     1      -5.197  -8.978  -5.678  1.00  0.00    -0.248 NA
ATOM     42  C   UNL     1      -2.927  -8.573  -6.018  1.00  0.00     0.031 C 
ATOM     43  C   UNL     1      -4.771  -8.148  -1.340  1.00  0.00     0.029 A 
ATOM     44  N   UNL     1      -6.159  -8.761  -2.980  1.00  0.00    -0.354 N 
ATOM     45  C   UNL     1      -4.922  -9.045  -7.039  1.00  0.00     0.074 A 
ATOM     46  C   UNL     1      -3.521  -8.715  -7.194  1.00  0.00     0.031 C 
ATOM     47  C   UNL     1      -5.996  -8.280  -0.805  1.00  0.00     0.029 A 
ATOM     48  C   UNL     1      -6.945  -8.651  -1.852  1.00  0.00     0.049 A 
ATOM     49  H   UNL     1      -6.515  -9.031  -3.857  1.00  0.00     0.167 HD
ATOM     50  C   UNL     1      -5.734  -9.382  -8.072  1.00  0.00     0.034 A 
ATOM     51  C   UNL     1      -8.274  -8.813  -1.667  1.00  0.00     0.034 A 
ATOM     52  C   UNL     1      -7.114  -9.765  -7.941  1.00  0.00     0.049 A 
ATOM     53  C   UNL     1      -9.156  -9.221  -2.819  1.00  0.00     0.074 A 
ATOM     54  C   UNL     1      -7.974 -10.224  -8.925  1.00  0.00     0.029 A 
ATOM     55  N   UNL     1      -7.845  -9.720  -6.766  1.00  0.00    -0.354 N 
ATOM     56  N   UNL     1      -8.828  -9.451  -4.066  1.00  0.00    -0.248 NA
ATOM     57  C   UNL     1     -10.586  -9.427  -2.533  1.00  0.00     0.031 C 
ATOM     58  C   UNL     1      -9.234 -10.422  -8.352  1.00  0.00     0.029 A 
ATOM     59  C   UNL     1      -9.149 -10.126  -7.003  1.00  0.00     0.049 A 
ATOM     60  H   UNL     1      -7.491  -9.441  -5.890  1.00  0.00     0.167 HD
ATOM     61  C   UNL     1      -9.998  -9.860  -4.701  1.00  0.00     0.074 A 
ATOM     62  C   UNL     1     -11.041  -9.864  -3.700  1.00  0.00     0.031 C 
ATOM     63  C   UNL     1     -10.183 -10.191  -6.003  1.00  0.00     0.034 A 
BRANCH  50  64
ATOM     64  C   UNL     1      -5.127  -9.399  -9.453  1.00  0.00     0.023 A 
ATOM     65  C   UNL     1      -4.175 -10.385  -9.786  1.00  0.00     0.012 A 
ATOM     66  C   UNL     1      -5.525  -8.466 -10.432  1.00  0.00     0.148 A 
ATOM     67  C   UNL     1      -3.585 -10.407 -11.048  1.00  0.00     0.002 A 
ATOM     68  C   UNL     1      -4.971  -8.528 -11.705  1.00  0.00     0.091 A 
ATOM     69  F   UNL     1      -6.424  -7.529 -10.097  1.00  0.00    -0.205 F 
ATOM     70  C   UNL     1      -3.989  -9.484 -12.009  1.00  0.00     0.022 A 
BRANCH  68  71
ATOM     71  S   UNL     1      -5.491  -7.444 -13.039  1.00  0.00     0.127 S 
ATOM     72  O   UNL     1      -4.350  -6.538 -13.145  1.00  0.00    -0.237 OA
ATOM     73  O   UNL     1      -5.636  -8.376 -14.157  1.00  0.00    -0.237 OA
ATOM     74  O   UNL     1      -6.739  -6.834 -12.595  1.00  0.00    -0.744 OA
ENDBRANCH  68  71
ENDBRANCH  50  64
BRANCH  51  75
ATOM     75  C   UNL     1      -8.863  -8.621  -0.307  1.00  0.00     0.023 A 
ATOM     76  C   UNL     1      -9.356  -9.732   0.406  1.00  0.00     0.012 A 
ATOM     77  C   UNL     1      -8.923  -7.345   0.285  1.00  0.00     0.148 A 
ATOM     78  C   UNL     1      -9.926  -9.571   1.670  1.00  0.00     0.002 A 
ATOM     79  C   UNL     1      -9.435  -7.201   1.569  1.00  0.00     0.091 A 
ATOM     80  F   UNL     1      -8.460  -6.300  -0.414  1.00  0.00    -0.205 F 
ATOM     81  C   UNL     1      -9.956  -8.309   2.256  1.00  0.00     0.022 A 
BRANCH  79  82
ATOM     82  S   UNL     1      -9.386  -5.642   2.459  1.00  0.00     0.127 S 
ATOM     83  O   UNL     1     -10.806  -5.327   2.591  1.00  0.00    -0.237 OA
ATOM     84  O   UNL     1      -8.722  -6.032   3.704  1.00  0.00    -0.237 OA
ATOM     85  O   UNL     1      -8.612  -4.735   1.624  1.00  0.00    -0.744 OA
ENDBRANCH  79  82
ENDBRANCH  51  75
BRANCH  63  86
ATOM     86  C   UNL     1     -11.554 -10.641  -6.444  1.00  0.00     0.023 A 
ATOM     87  C   UNL     1     -12.602  -9.708  -6.562  1.00  0.00     0.012 A 
ATOM     88  C   UNL     1     -11.771 -11.975  -6.849  1.00  0.00     0.148 A 
ATOM     89  C   UNL     1     -13.848 -10.098  -7.058  1.00  0.00     0.002 A 
ATOM     90  C   UNL     1     -12.998 -12.345  -7.388  1.00  0.00     0.091 A 
ATOM     91  F   UNL     1     -10.767 -12.854  -6.713  1.00  0.00    -0.205 F 
ATOM     92  C   UNL     1     -14.041 -11.410  -7.484  1.00  0.00     0.022 A 
BRANCH  90  93
ATOM     93  S   UNL     1     -13.309 -13.985  -8.054  1.00  0.00     0.127 S 
ATOM     94  O   UNL     1     -14.286 -14.512  -7.103  1.00  0.00    -0.237 OA
ATOM     95  O   UNL     1     -13.850 -13.683  -9.379  1.00  0.00    -0.237 OA
ATOM     96  O   UNL     1     -12.023 -14.668  -8.065  1.00  0.00    -0.744 OA
ENDBRANCH  90  93
ENDBRANCH  63  86
ENDBRANCH  37  38
ENDBRANCH  29  32
ENDBRANCH  27  28
ENDBRANCH  26  27
ENDBRANCH   1  26
TORSDOF 18
