REMARK SMILES C[NH+]1CCC2(CC1)OC[C@H](C(=O)NCCCNC(=O)c1ccc(-c3c4nc(c(-c5cccc(S(=O)(=O)[O-])c5F)c5ccc([nH]5)c(-c5cccc(S(=O)(=O)[O-])c5F)c5nc(c(-c6cccc(S(=O)(=O)[O-])c6F)c6ccc3[nH]6)C=C5)C=C4)cc1)N2C(=O)c1cc(C(F)(F)F)cc(C(F)(F)F)c1
REMARK SMILES IDX 15 1 14 2 13 3 11 4 12 5 10 7 1 8 2 9 3 10 7 11 4 13 6 14
REMARK SMILES IDX 5 15 8 16 83 17 9 18 84 19 85 20 86 21 87 22 99 23 88 24
REMARK SMILES IDX 94 25 93 26 89 27 90 28 91 29 92 30 95 31 96 32 97 33 98 34
REMARK SMILES IDX 16 35 17 36 18 37 19 39 20 40 21 41 82 42 22 43 81 44 23 45
REMARK SMILES IDX 24 46 25 47 75 48 26 49 80 50 74 51 76 52 27 53 79 54 73 55
REMARK SMILES IDX 72 56 28 58 60 59 40 60 59 61 41 62 44 63 58 64 77 65 42 66
REMARK SMILES IDX 43 67 57 69 78 70 45 71 29 72 30 73 38 74 31 75 33 76 39 77
REMARK SMILES IDX 32 78 34 79 35 80 36 81 37 82 61 83 62 84 70 85 63 86 65 87
REMARK SMILES IDX 71 88 64 89 66 90 67 91 68 92 69 93 46 94 47 95 55 96 48 97
REMARK SMILES IDX 50 98 56 99 49 100 51 101 52 102 53 103 54 104
REMARK H PARENT 13 6 2 12 17 38 76 57 44 68
REMARK Flexibility Score: inf
ROOT
ATOM      1  C   UNL     1      -0.973  -3.648   2.150  1.00  0.00     0.042 C 
ENDROOT
BRANCH   1   2
ATOM      2  C   UNL     1      -1.656  -4.144   0.875  1.00  0.00     0.117 C 
BRANCH   2   3
ATOM      3  N   UNL     1      -3.097  -4.195   1.021  1.00  0.00    -0.354 N 
ATOM      4  C   UNL     1      -4.119  -3.496   0.468  1.00  0.00     0.245 C 
ATOM      5  O   UNL     1      -5.250  -3.865   0.825  1.00  0.00    -0.273 OA
ATOM      6  H   UNL     1      -3.398  -4.883   1.657  1.00  0.00     0.163 HD
BRANCH   4   7
ATOM      7  C   UNL     1      -4.011  -2.269  -0.477  1.00  0.00     0.203 C 
ATOM      8  C   UNL     1       1.315   1.183   0.180  1.00  0.00     0.332 C 
ATOM      9  N   UNL     1       0.493   0.226  -0.558  1.00  0.00    -0.337 N 
ATOM     10  C   UNL     1      -0.021  -0.811   0.324  1.00  0.00     0.267 C 
ATOM     11  C   UNL     1      -0.441   0.836  -1.500  1.00  0.00     0.267 C 
ATOM     12  H   UNL     1       1.095  -0.278  -1.210  1.00  0.00     0.347 HD
ATOM     13  C   UNL     1      -1.451  -0.598   0.763  1.00  0.00     0.120 C 
ATOM     14  C   UNL     1      -1.947   0.707  -1.269  1.00  0.00     0.120 C 
ATOM     15  C   UNL     1      -2.403  -0.480  -0.423  1.00  0.00     0.155 C 
ATOM     16  O   UNL     1      -3.648  -0.013   0.169  1.00  0.00    -0.352 OA
ATOM     17  N   UNL     1      -2.785  -1.757  -1.075  1.00  0.00    -0.295 N 
ATOM     18  C   UNL     1      -4.600  -1.073   0.241  1.00  0.00     0.198 C 
BRANCH  17  19
ATOM     19  C   UNL     1      -2.365  -2.430  -2.221  1.00  0.00     0.256 C 
ATOM     20  O   UNL     1      -2.958  -3.414  -2.666  1.00  0.00    -0.269 OA
BRANCH  19  21
ATOM     21  C   UNL     1      -1.161  -2.055  -2.971  1.00  0.00     0.041 A 
ATOM     22  C   UNL     1      -1.244  -1.351  -4.177  1.00  0.00     0.027 A 
ATOM     23  C   UNL     1       0.068  -2.545  -2.534  1.00  0.00     0.027 A 
ATOM     24  C   UNL     1      -0.066  -1.013  -4.873  1.00  0.00     0.057 A 
ATOM     25  C   UNL     1       1.256  -2.131  -3.143  1.00  0.00     0.057 A 
ATOM     26  C   UNL     1       1.179  -1.378  -4.325  1.00  0.00     0.026 A 
BRANCH  24  27
ATOM     27  C   UNL     1      -0.137  -0.244  -6.172  1.00  0.00     0.416 C 
ATOM     28  F   UNL     1      -0.709  -0.970  -7.172  1.00  0.00    -0.166 F 
ATOM     29  F   UNL     1      -0.874   0.895  -6.067  1.00  0.00    -0.166 F 
ATOM     30  F   UNL     1       1.082   0.140  -6.644  1.00  0.00    -0.166 F 
ENDBRANCH  24  27
BRANCH  25  31
ATOM     31  C   UNL     1       2.586  -2.433  -2.493  1.00  0.00     0.416 C 
ATOM     32  F   UNL     1       3.356  -3.257  -3.256  1.00  0.00    -0.166 F 
ATOM     33  F   UNL     1       3.329  -1.313  -2.284  1.00  0.00    -0.166 F 
ATOM     34  F   UNL     1       2.466  -3.042  -1.282  1.00  0.00    -0.166 F 
ENDBRANCH  25  31
ENDBRANCH  19  21
ENDBRANCH  17  19
ENDBRANCH   4   7
ENDBRANCH   2   3
ENDBRANCH   1   2
BRANCH   1  35
ATOM     35  C   UNL     1      -0.299  -4.723   2.987  1.00  0.00     0.118 C 
BRANCH  35  36
ATOM     36  N   UNL     1       0.896  -5.256   2.345  1.00  0.00    -0.352 N 
ATOM     37  C   UNL     1       2.241  -5.012   2.502  1.00  0.00     0.251 C 
ATOM     38  H   UNL     1       0.701  -5.931   1.655  1.00  0.00     0.163 HD
ATOM     39  O   UNL     1       3.005  -5.494   1.665  1.00  0.00    -0.269 OA
BRANCH  37  40
ATOM     40  C   UNL     1       2.806  -4.200   3.614  1.00  0.00     0.039 A 
ATOM     41  C   UNL     1       4.038  -3.557   3.416  1.00  0.00     0.014 A 
ATOM     42  C   UNL     1       2.215  -4.122   4.873  1.00  0.00     0.014 A 
ATOM     43  C   UNL     1       4.635  -2.819   4.448  1.00  0.00     0.010 A 
ATOM     44  C   UNL     1       2.742  -3.285   5.857  1.00  0.00     0.010 A 
ATOM     45  C   UNL     1       3.975  -2.647   5.674  1.00  0.00    -0.014 A 
BRANCH  45  46
ATOM     46  C   UNL     1       4.559  -1.843   6.787  1.00  0.00     0.031 A 
ATOM     47  C   UNL     1       4.773  -2.468   8.148  1.00  0.00     0.074 A 
ATOM     48  C   UNL     1       4.805  -0.528   6.613  1.00  0.00     0.049 A 
ATOM     49  N   UNL     1       5.154  -1.905   9.266  1.00  0.00    -0.248 NA
ATOM     50  C   UNL     1       4.482  -3.907   8.279  1.00  0.00     0.031 C 
ATOM     51  C   UNL     1       4.567   0.222   5.378  1.00  0.00     0.029 A 
ATOM     52  N   UNL     1       5.277   0.421   7.488  1.00  0.00    -0.354 N 
ATOM     53  C   UNL     1       5.089  -2.900  10.238  1.00  0.00     0.074 A 
ATOM     54  C   UNL     1       4.600  -4.093   9.585  1.00  0.00     0.031 C 
ATOM     55  C   UNL     1       4.897   1.508   5.571  1.00  0.00     0.029 A 
ATOM     56  C   UNL     1       5.330   1.688   6.953  1.00  0.00     0.049 A 
ATOM     57  H   UNL     1       5.551   0.214   8.411  1.00  0.00     0.167 HD
ATOM     58  C   UNL     1       5.433  -2.838  11.547  1.00  0.00     0.034 A 
ATOM     59  C   UNL     1       5.671   2.866   7.513  1.00  0.00     0.034 A 
ATOM     60  C   UNL     1       5.988  -1.672  12.177  1.00  0.00     0.049 A 
ATOM     61  C   UNL     1       6.112   2.893   8.951  1.00  0.00     0.074 A 
ATOM     62  C   UNL     1       6.476  -1.541  13.466  1.00  0.00     0.029 A 
ATOM     63  N   UNL     1       6.128  -0.435  11.569  1.00  0.00    -0.354 N 
ATOM     64  N   UNL     1       6.192   1.904   9.808  1.00  0.00    -0.248 NA
ATOM     65  C   UNL     1       6.546   4.190   9.491  1.00  0.00     0.031 C 
ATOM     66  C   UNL     1       6.882  -0.216  13.646  1.00  0.00     0.029 A 
ATOM     67  C   UNL     1       6.682   0.469  12.458  1.00  0.00     0.049 A 
ATOM     68  H   UNL     1       5.871  -0.230  10.641  1.00  0.00     0.167 HD
ATOM     69  C   UNL     1       6.718   2.450  10.973  1.00  0.00     0.074 A 
ATOM     70  C   UNL     1       6.959   3.853  10.705  1.00  0.00     0.031 C 
ATOM     71  C   UNL     1       6.967   1.849  12.162  1.00  0.00     0.034 A 
BRANCH  58  72
ATOM     72  C   UNL     1       5.270  -4.084  12.383  1.00  0.00     0.023 A 
ATOM     73  C   UNL     1       6.120  -5.189  12.170  1.00  0.00     0.012 A 
ATOM     74  C   UNL     1       4.324  -4.134  13.426  1.00  0.00     0.148 A 
ATOM     75  C   UNL     1       6.007  -6.336  12.955  1.00  0.00     0.002 A 
ATOM     76  C   UNL     1       4.251  -5.261  14.237  1.00  0.00     0.091 A 
ATOM     77  F   UNL     1       3.512  -3.082  13.605  1.00  0.00    -0.205 F 
ATOM     78  C   UNL     1       5.082  -6.367  13.994  1.00  0.00     0.022 A 
BRANCH  76  79
ATOM     79  S   UNL     1       3.153  -5.367  15.655  1.00  0.00     0.127 S 
ATOM     80  O   UNL     1       2.198  -6.385  15.211  1.00  0.00    -0.237 OA
ATOM     81  O   UNL     1       4.063  -5.810  16.713  1.00  0.00    -0.237 OA
ATOM     82  O   UNL     1       2.602  -4.037  15.841  1.00  0.00    -0.744 OA
ENDBRANCH  76  79
ENDBRANCH  58  72
BRANCH  59  83
ATOM     83  C   UNL     1       5.657   4.113   6.694  1.00  0.00     0.023 A 
ATOM     84  C   UNL     1       6.875   4.738   6.358  1.00  0.00     0.012 A 
ATOM     85  C   UNL     1       4.450   4.669   6.228  1.00  0.00     0.148 A 
ATOM     86  C   UNL     1       6.888   5.913   5.606  1.00  0.00     0.002 A 
ATOM     87  C   UNL     1       4.474   5.806   5.428  1.00  0.00     0.091 A 
ATOM     88  F   UNL     1       3.301   4.067   6.566  1.00  0.00    -0.205 F 
ATOM     89  C   UNL     1       5.690   6.441   5.133  1.00  0.00     0.022 A 
BRANCH  87  90
ATOM     90  S   UNL     1       2.994   6.470   4.658  1.00  0.00     0.127 S 
ATOM     91  O   UNL     1       2.792   7.705   5.411  1.00  0.00    -0.237 OA
ATOM     92  O   UNL     1       3.430   6.655   3.273  1.00  0.00    -0.237 OA
ATOM     93  O   UNL     1       1.970   5.448   4.829  1.00  0.00    -0.744 OA
ENDBRANCH  87  90
ENDBRANCH  59  83
BRANCH  71  94
ATOM     94  C   UNL     1       7.572   2.685  13.258  1.00  0.00     0.023 A 
ATOM     95  C   UNL     1       6.795   3.660  13.912  1.00  0.00     0.012 A 
ATOM     96  C   UNL     1       8.892   2.446  13.692  1.00  0.00     0.148 A 
ATOM     97  C   UNL     1       7.332   4.409  14.959  1.00  0.00     0.002 A 
ATOM     98  C   UNL     1       9.402   3.159  14.769  1.00  0.00     0.091 A 
ATOM     99  F   UNL     1       9.620   1.525  13.044  1.00  0.00    -0.205 F 
ATOM    100  C   UNL     1       8.630   4.150  15.395  1.00  0.00     0.022 A 
BRANCH  98 101
ATOM    101  S   UNL     1      11.024   2.823  15.463  1.00  0.00     0.127 S 
ATOM    102  O   UNL     1      11.775   4.009  15.054  1.00  0.00    -0.237 OA
ATOM    103  O   UNL     1      10.738   2.746  16.896  1.00  0.00    -0.237 OA
ATOM    104  O   UNL     1      11.466   1.569  14.867  1.00  0.00    -0.744 OA
ENDBRANCH  98 101
ENDBRANCH  71  94
ENDBRANCH  45  46
ENDBRANCH  37  40
ENDBRANCH  35  36
ENDBRANCH   1  35
TORSDOF 17
