REMARK SMILES CCN(C(=O)Cc1c(C(=O)NCCCNC(=O)c2ccc(-c3c4nc(c(-c5cccc(S(=O)(=O)[O-])c5F)c5ccc([nH]5)c(-c5cccc(S(=O)(=O)[O-])c5F)c5nc(c(-c6cccc(S(=O)(=O)[O-])c6F)c6ccc3[nH]6)C=C5)C=C4)cc2)[nH]c2ccc(Cl)cc12)c1ccc(C)c(C)c1
REMARK SMILES IDX 12 1 11 2 9 3 10 4 8 6 7 7 88 8 81 9 82 10 87 11 83 13 85 14
REMARK SMILES IDX 84 15 86 16 6 17 4 18 5 19 3 20 2 21 1 22 89 23 90 24 96 25
REMARK SMILES IDX 91 26 94 27 92 28 95 29 93 30 13 31 14 32 15 33 16 34 17 36
REMARK SMILES IDX 18 37 19 38 80 39 20 40 79 41 21 42 22 43 23 44 73 45 24 46
REMARK SMILES IDX 78 47 72 48 74 49 25 50 77 51 71 52 70 53 26 55 58 56 38 57
REMARK SMILES IDX 57 58 39 59 42 60 56 61 75 62 40 63 41 64 55 66 76 67 43 68
REMARK SMILES IDX 27 69 28 70 36 71 29 72 31 73 37 74 30 75 32 76 33 77 34 78
REMARK SMILES IDX 35 79 59 80 60 81 68 82 61 83 63 84 69 85 62 86 64 87 65 88
REMARK SMILES IDX 66 89 67 90 44 91 45 92 53 93 46 94 48 95 54 96 47 97 49 98
REMARK SMILES IDX 50 99 51 100 52 101
REMARK H PARENT 11 5 81 12 15 35 74 54 42 65
REMARK Flexibility Score: inf
ROOT
ATOM      1  C   UNL     1      -1.655   0.920  -3.175  1.00  0.00     0.118 C 
ENDROOT
BRANCH   1   2
ATOM      2  N   UNL     1      -2.398   1.199  -1.968  1.00  0.00    -0.351 N 
ATOM      3  C   UNL     1      -2.703   0.564  -0.803  1.00  0.00     0.268 C 
ATOM      4  O   UNL     1      -3.263   1.298   0.021  1.00  0.00    -0.268 OA
ATOM      5  H   UNL     1      -2.795   2.100  -1.996  1.00  0.00     0.163 HD
BRANCH   3   6
ATOM      6  C   UNL     1      -2.421  -0.817  -0.434  1.00  0.00     0.109 A 
ATOM      7  C   UNL     1      -1.872  -1.991  -0.966  1.00  0.00    -0.000 A 
ATOM      8  C   UNL     1      -2.086  -3.046  -0.000  1.00  0.00     0.005 A 
ATOM      9  N   UNL     1      -2.767  -1.146   0.873  1.00  0.00    -0.350 N 
ATOM     10  C   UNL     1      -2.604  -2.471   1.149  1.00  0.00     0.046 A 
ATOM     11  C   UNL     1      -1.889  -4.445  -0.018  1.00  0.00     0.031 A 
ATOM     12  H   UNL     1      -3.096  -0.490   1.530  1.00  0.00     0.167 HD
ATOM     13  C   UNL     1      -2.896  -3.195   2.309  1.00  0.00     0.028 A 
ATOM     14  C   UNL     1      -2.220  -5.193   1.116  1.00  0.00     0.041 A 
ATOM     15  C   UNL     1      -2.700  -4.578   2.269  1.00  0.00     0.022 A 
ATOM     16  Cl  UNL     1      -2.040  -6.906   1.085  1.00  0.00    -0.084 Cl
BRANCH   7  17
ATOM     17  C   UNL     1      -1.248  -2.285  -2.288  1.00  0.00     0.139 C 
BRANCH  17  18
ATOM     18  C   UNL     1       0.268  -2.523  -2.301  1.00  0.00     0.231 C 
ATOM     19  O   UNL     1       0.653  -3.566  -2.853  1.00  0.00    -0.274 OA
BRANCH  18  20
ATOM     20  N   UNL     1       1.181  -1.594  -1.774  1.00  0.00    -0.312 N 
BRANCH  20  21
ATOM     21  C   UNL     1       0.849  -0.316  -1.122  1.00  0.00     0.122 C 
ATOM     22  C   UNL     1       1.027  -0.209   0.383  1.00  0.00     0.028 C 
ENDBRANCH  20  21
BRANCH  20  23
ATOM     23  C   UNL     1       2.580  -1.782  -2.034  1.00  0.00     0.044 A 
ATOM     24  C   UNL     1       3.050  -2.049  -3.321  1.00  0.00     0.026 A 
ATOM     25  C   UNL     1       3.512  -1.644  -1.004  1.00  0.00     0.030 A 
ATOM     26  C   UNL     1       4.422  -2.163  -3.561  1.00  0.00     0.006 A 
ATOM     27  C   UNL     1       4.894  -1.733  -1.227  1.00  0.00    -0.046 A 
ATOM     28  C   UNL     1       5.357  -2.009  -2.523  1.00  0.00    -0.048 A 
ATOM     29  C   UNL     1       5.811  -1.561  -0.049  1.00  0.00     0.044 C 
ATOM     30  C   UNL     1       6.811  -2.206  -2.846  1.00  0.00     0.044 C 
ENDBRANCH  20  23
ENDBRANCH  18  20
ENDBRANCH  17  18
ENDBRANCH   7  17
ENDBRANCH   3   6
ENDBRANCH   1   2
BRANCH   1  31
ATOM     31  C   UNL     1      -2.535   0.472  -4.327  1.00  0.00     0.042 C 
BRANCH  31  32
ATOM     32  C   UNL     1      -2.534   1.500  -5.438  1.00  0.00     0.118 C 
BRANCH  32  33
ATOM     33  N   UNL     1      -1.211   1.673  -6.038  1.00  0.00    -0.352 N 
ATOM     34  C   UNL     1      -0.877   1.797  -7.364  1.00  0.00     0.251 C 
ATOM     35  H   UNL     1      -0.458   1.706  -5.405  1.00  0.00     0.163 HD
ATOM     36  O   UNL     1       0.303   1.822  -7.703  1.00  0.00    -0.269 OA
BRANCH  34  37
ATOM     37  C   UNL     1      -1.954   1.859  -8.370  1.00  0.00     0.039 A 
ATOM     38  C   UNL     1      -1.848   1.088  -9.529  1.00  0.00     0.014 A 
ATOM     39  C   UNL     1      -3.096   2.624  -8.128  1.00  0.00     0.014 A 
ATOM     40  C   UNL     1      -2.925   1.033 -10.412  1.00  0.00     0.010 A 
ATOM     41  C   UNL     1      -4.207   2.468  -8.940  1.00  0.00     0.010 A 
ATOM     42  C   UNL     1      -4.126   1.691 -10.103  1.00  0.00    -0.014 A 
BRANCH  42  43
ATOM     43  C   UNL     1      -5.312   1.611 -10.988  1.00  0.00     0.031 A 
ATOM     44  C   UNL     1      -5.886   2.874 -11.572  1.00  0.00     0.074 A 
ATOM     45  C   UNL     1      -5.926   0.427 -11.175  1.00  0.00     0.049 A 
ATOM     46  N   UNL     1      -6.965   3.033 -12.291  1.00  0.00    -0.248 NA
ATOM     47  C   UNL     1      -5.178   4.132 -11.273  1.00  0.00     0.031 C 
ATOM     48  C   UNL     1      -5.516  -0.847 -10.578  1.00  0.00     0.029 A 
ATOM     49  N   UNL     1      -7.045   0.107 -11.901  1.00  0.00    -0.354 N 
ATOM     50  C   UNL     1      -7.090   4.403 -12.485  1.00  0.00     0.074 A 
ATOM     51  C   UNL     1      -6.008   5.037 -11.769  1.00  0.00     0.031 C 
ATOM     52  C   UNL     1      -6.363  -1.812 -10.973  1.00  0.00     0.029 A 
ATOM     53  C   UNL     1      -7.391  -1.222 -11.823  1.00  0.00     0.049 A 
ATOM     54  H   UNL     1      -7.552   0.766 -12.427  1.00  0.00     0.167 HD
ATOM     55  C   UNL     1      -8.003   5.073 -13.226  1.00  0.00     0.034 A 
ATOM     56  C   UNL     1      -8.425  -1.886 -12.375  1.00  0.00     0.034 A 
ATOM     57  C   UNL     1      -9.033   4.428 -13.990  1.00  0.00     0.049 A 
ATOM     58  C   UNL     1      -9.383  -1.129 -13.254  1.00  0.00     0.074 A 
ATOM     59  C   UNL     1      -9.943   4.997 -14.861  1.00  0.00     0.029 A 
ATOM     60  N   UNL     1      -9.287   3.065 -13.975  1.00  0.00    -0.354 N 
ATOM     61  N   UNL     1      -9.389   0.147 -13.560  1.00  0.00    -0.248 NA
ATOM     62  C   UNL     1     -10.453  -1.905 -13.894  1.00  0.00     0.031 C 
ATOM     63  C   UNL     1     -10.762   3.979 -15.359  1.00  0.00     0.029 A 
ATOM     64  C   UNL     1     -10.345   2.773 -14.817  1.00  0.00     0.049 A 
ATOM     65  H   UNL     1      -8.789   2.403 -13.444  1.00  0.00     0.167 HD
ATOM     66  C   UNL     1     -10.438   0.319 -14.455  1.00  0.00     0.074 A 
ATOM     67  C   UNL     1     -11.031  -0.987 -14.658  1.00  0.00     0.031 C 
ATOM     68  C   UNL     1     -10.882   1.456 -15.045  1.00  0.00     0.034 A 
BRANCH  55  69
ATOM     69  C   UNL     1      -7.884   6.573 -13.294  1.00  0.00     0.023 A 
ATOM     70  C   UNL     1      -6.806   7.157 -13.992  1.00  0.00     0.012 A 
ATOM     71  C   UNL     1      -8.858   7.404 -12.708  1.00  0.00     0.148 A 
ATOM     72  C   UNL     1      -6.677   8.542 -14.072  1.00  0.00     0.002 A 
ATOM     73  C   UNL     1      -8.748   8.785 -12.833  1.00  0.00     0.091 A 
ATOM     74  F   UNL     1      -9.862   6.833 -12.027  1.00  0.00    -0.205 F 
ATOM     75  C   UNL     1      -7.653   9.355 -13.503  1.00  0.00     0.022 A 
BRANCH  73  76
ATOM     76  S   UNL     1      -9.994   9.916 -12.206  1.00  0.00     0.127 S 
ATOM     77  O   UNL     1      -9.288  10.541 -11.088  1.00  0.00    -0.237 OA
ATOM     78  O   UNL     1     -10.216  10.796 -13.354  1.00  0.00    -0.237 OA
ATOM     79  O   UNL     1     -11.138   9.093 -11.840  1.00  0.00    -0.744 OA
ENDBRANCH  73  76
ENDBRANCH  55  69
BRANCH  56  80
ATOM     80  C   UNL     1      -8.559  -3.357 -12.177  1.00  0.00     0.023 A 
ATOM     81  C   UNL     1      -8.316  -4.224 -13.261  1.00  0.00     0.012 A 
ATOM     82  C   UNL     1      -8.891  -3.903 -10.923  1.00  0.00     0.148 A 
ATOM     83  C   UNL     1      -8.434  -5.606 -13.108  1.00  0.00     0.002 A 
ATOM     84  C   UNL     1      -8.954  -5.283 -10.764  1.00  0.00     0.091 A 
ATOM     85  F   UNL     1      -9.127  -3.062  -9.906  1.00  0.00    -0.205 F 
ATOM     86  C   UNL     1      -8.743  -6.136 -11.858  1.00  0.00     0.022 A 
BRANCH  84  87
ATOM     87  S   UNL     1      -9.217  -6.056  -9.163  1.00  0.00     0.127 S 
ATOM     88  O   UNL     1     -10.576  -6.573  -9.302  1.00  0.00    -0.237 OA
ATOM     89  O   UNL     1      -8.168  -7.076  -9.144  1.00  0.00    -0.237 OA
ATOM     90  O   UNL     1      -9.039  -4.994  -8.182  1.00  0.00    -0.744 OA
ENDBRANCH  84  87
ENDBRANCH  56  80
BRANCH  68  91
ATOM     91  C   UNL     1     -12.042   1.340 -15.997  1.00  0.00     0.023 A 
ATOM     92  C   UNL     1     -13.337   1.104 -15.498  1.00  0.00     0.012 A 
ATOM     93  C   UNL     1     -11.857   1.549 -17.378  1.00  0.00     0.148 A 
ATOM     94  C   UNL     1     -14.428   1.046 -16.363  1.00  0.00     0.002 A 
ATOM     95  C   UNL     1     -12.956   1.540 -18.227  1.00  0.00     0.091 A 
ATOM     96  F   UNL     1     -10.612   1.754 -17.833  1.00  0.00    -0.205 F 
ATOM     97  C   UNL     1     -14.240   1.277 -17.724  1.00  0.00     0.022 A 
BRANCH  95  98
ATOM     98  S   UNL     1     -12.821   1.928 -19.976  1.00  0.00     0.127 S 
ATOM     99  O   UNL     1     -13.013   0.614 -20.587  1.00  0.00    -0.237 OA
ATOM    100  O   UNL     1     -13.930   2.862 -20.173  1.00  0.00    -0.237 OA
ATOM    101  O   UNL     1     -11.499   2.515 -20.156  1.00  0.00    -0.744 OA
ENDBRANCH  95  98
ENDBRANCH  68  91
ENDBRANCH  42  43
ENDBRANCH  34  37
ENDBRANCH  32  33
ENDBRANCH  31  32
ENDBRANCH   1  31
TORSDOF 18
