REMARK SMILES CC(=O)[C@]1(C)CC[C@@H](C(=O)NCCCNC(=O)c2ccc(-c3c4nc(c(-c5cccc(S(=O)(=O)[O-])c5F)c5ccc([nH]5)c(-c5cccc(S(=O)(=O)[O-])c5F)c5nc(c(-c6cccc(S(=O)(=O)[O-])c6F)c6ccc3[nH]6)C=C5)C=C4)cc2)C1(C)C
REMARK SMILES IDX 14 1 13 2 12 3 11 4 9 5 10 6 8 8 4 9 6 10 81 11 5 12 7 13
REMARK SMILES IDX 82 14 83 15 2 16 1 17 3 18 15 19 16 20 17 22 18 23 19 24
REMARK SMILES IDX 80 25 20 26 79 27 21 28 22 29 23 30 73 31 24 32 78 33 72 34
REMARK SMILES IDX 74 35 25 36 77 37 71 38 70 39 26 41 58 42 38 43 57 44 39 45
REMARK SMILES IDX 42 46 56 47 75 48 40 49 41 50 55 52 76 53 43 54 27 55 28 56
REMARK SMILES IDX 36 57 29 58 31 59 37 60 30 61 32 62 33 63 34 64 35 65 59 66
REMARK SMILES IDX 60 67 68 68 61 69 63 70 69 71 62 72 64 73 65 74 66 75 67 76
REMARK SMILES IDX 44 77 45 78 53 79 46 80 48 81 54 82 47 83 49 84 50 85 51 86
REMARK SMILES IDX 52 87
REMARK H PARENT 11 7 15 21 74 40 42 51
REMARK Flexibility Score: inf
ROOT
ATOM      1  C   UNL     1      -0.893  -2.510   5.596  1.00  0.00     0.118 C 
ENDROOT
BRANCH   1   2
ATOM      2  C   UNL     1      -0.138  -2.169   4.324  1.00  0.00     0.042 C 
BRANCH   2   3
ATOM      3  C   UNL     1       0.812  -3.265   3.864  1.00  0.00     0.117 C 
BRANCH   3   4
ATOM      4  N   UNL     1       0.150  -4.519   3.566  1.00  0.00    -0.356 N 
ATOM      5  C   UNL     1       0.033  -5.258   2.440  1.00  0.00     0.223 C 
ATOM      6  O   UNL     1      -0.606  -6.312   2.552  1.00  0.00    -0.275 OA
ATOM      7  H   UNL     1      -0.308  -4.914   4.342  1.00  0.00     0.163 HD
BRANCH   5   8
ATOM      8  C   UNL     1       0.615  -4.884   1.072  1.00  0.00     0.085 C 
ATOM      9  C   UNL     1       0.947  -2.709  -0.183  1.00  0.00     0.032 C 
ATOM     10  C   UNL     1       2.227  -3.110   0.616  1.00  0.00     0.016 C 
ATOM     11  C   UNL     1      -0.131  -3.848   0.165  1.00  0.00    -0.012 C 
ATOM     12  C   UNL     1       0.514  -1.303   0.308  1.00  0.00     0.020 C 
ATOM     13  C   UNL     1       2.094  -4.559   1.032  1.00  0.00     0.015 C 
ATOM     14  C   UNL     1      -1.420  -3.317   0.835  1.00  0.00     0.013 C 
ATOM     15  C   UNL     1      -0.667  -4.649  -1.044  1.00  0.00     0.013 C 
BRANCH   9  16
ATOM     16  C   UNL     1       1.436  -2.442  -1.643  1.00  0.00     0.136 C 
ATOM     17  C   UNL     1       0.545  -2.629  -2.833  1.00  0.00     0.088 C 
ATOM     18  O   UNL     1       2.564  -1.973  -1.854  1.00  0.00    -0.299 OA
ENDBRANCH   9  16
ENDBRANCH   5   8
ENDBRANCH   3   4
ENDBRANCH   2   3
ENDBRANCH   1   2
BRANCH   1  19
ATOM     19  N   UNL     1      -0.061  -2.336   6.775  1.00  0.00    -0.352 N 
ATOM     20  C   UNL     1      -0.076  -1.320   7.701  1.00  0.00     0.251 C 
ATOM     21  H   UNL     1       0.605  -3.044   6.933  1.00  0.00     0.163 HD
ATOM     22  O   UNL     1       0.873  -1.186   8.468  1.00  0.00    -0.269 OA
BRANCH  20  23
ATOM     23  C   UNL     1      -1.225  -0.387   7.765  1.00  0.00     0.039 A 
ATOM     24  C   UNL     1      -0.992   0.972   7.994  1.00  0.00     0.014 A 
ATOM     25  C   UNL     1      -2.535  -0.853   7.629  1.00  0.00     0.014 A 
ATOM     26  C   UNL     1      -2.069   1.863   8.043  1.00  0.00     0.010 A 
ATOM     27  C   UNL     1      -3.592   0.047   7.569  1.00  0.00     0.010 A 
ATOM     28  C   UNL     1      -3.378   1.411   7.809  1.00  0.00    -0.014 A 
BRANCH  28  29
ATOM     29  C   UNL     1      -4.543   2.332   7.848  1.00  0.00     0.031 A 
ATOM     30  C   UNL     1      -5.655   2.101   8.839  1.00  0.00     0.074 A 
ATOM     31  C   UNL     1      -4.656   3.312   6.931  1.00  0.00     0.049 A 
ATOM     32  N   UNL     1      -6.784   2.746   8.979  1.00  0.00    -0.248 NA
ATOM     33  C   UNL     1      -5.496   0.969   9.768  1.00  0.00     0.031 C 
ATOM     34  C   UNL     1      -3.702   3.576   5.853  1.00  0.00     0.029 A 
ATOM     35  N   UNL     1      -5.643   4.247   6.738  1.00  0.00    -0.354 N 
ATOM     36  C   UNL     1      -7.489   2.067   9.966  1.00  0.00     0.074 A 
ATOM     37  C   UNL     1      -6.679   0.938  10.362  1.00  0.00     0.031 C 
ATOM     38  C   UNL     1      -4.149   4.602   5.112  1.00  0.00     0.029 A 
ATOM     39  C   UNL     1      -5.432   5.053   5.645  1.00  0.00     0.049 A 
ATOM     40  H   UNL     1      -6.427   4.332   7.327  1.00  0.00     0.167 HD
ATOM     41  C   UNL     1      -8.686   2.373  10.522  1.00  0.00     0.034 A 
ATOM     42  C   UNL     1      -6.187   6.041   5.125  1.00  0.00     0.034 A 
ATOM     43  C   UNL     1      -9.455   3.537  10.176  1.00  0.00     0.049 A 
ATOM     44  C   UNL     1      -7.468   6.424   5.813  1.00  0.00     0.074 A 
ATOM     45  C   UNL     1     -10.611   4.012  10.768  1.00  0.00     0.029 A 
ATOM     46  N   UNL     1      -9.148   4.407   9.141  1.00  0.00    -0.354 N 
ATOM     47  N   UNL     1      -8.028   5.885   6.869  1.00  0.00    -0.248 NA
ATOM     48  C   UNL     1      -8.200   7.575   5.266  1.00  0.00     0.031 C 
ATOM     49  C   UNL     1     -11.015   5.160  10.076  1.00  0.00     0.029 A 
ATOM     50  C   UNL     1     -10.098   5.410   9.067  1.00  0.00     0.049 A 
ATOM     51  H   UNL     1      -8.368   4.322   8.545  1.00  0.00     0.167 HD
ATOM     52  C   UNL     1      -9.162   6.645   7.130  1.00  0.00     0.074 A 
ATOM     53  C   UNL     1      -9.197   7.697   6.134  1.00  0.00     0.031 C 
ATOM     54  C   UNL     1     -10.098   6.478   8.098  1.00  0.00     0.034 A 
BRANCH  41  55
ATOM     55  C   UNL     1      -9.203   1.461  11.605  1.00  0.00     0.023 A 
ATOM     56  C   UNL     1      -8.557   1.430  12.859  1.00  0.00     0.012 A 
ATOM     57  C   UNL     1     -10.337   0.653  11.395  1.00  0.00     0.148 A 
ATOM     58  C   UNL     1      -8.998   0.574  13.867  1.00  0.00     0.002 A 
ATOM     59  C   UNL     1     -10.800  -0.163  12.422  1.00  0.00     0.091 A 
ATOM     60  F   UNL     1     -10.926   0.674  10.191  1.00  0.00    -0.205 F 
ATOM     61  C   UNL     1     -10.124  -0.215  13.652  1.00  0.00     0.022 A 
BRANCH  59  62
ATOM     62  S   UNL     1     -12.292  -1.151  12.262  1.00  0.00     0.127 S 
ATOM     63  O   UNL     1     -11.740  -2.484  12.028  1.00  0.00    -0.237 OA
ATOM     64  O   UNL     1     -12.924  -0.976  13.571  1.00  0.00    -0.237 OA
ATOM     65  O   UNL     1     -13.034  -0.569  11.153  1.00  0.00    -0.744 OA
ENDBRANCH  59  62
ENDBRANCH  41  55
BRANCH  42  66
ATOM     66  C   UNL     1      -5.695   6.779   3.928  1.00  0.00     0.023 A 
ATOM     67  C   UNL     1      -5.203   8.090   4.079  1.00  0.00     0.012 A 
ATOM     68  C   UNL     1      -5.636   6.163   2.663  1.00  0.00     0.148 A 
ATOM     69  C   UNL     1      -4.675   8.780   2.988  1.00  0.00     0.002 A 
ATOM     70  C   UNL     1      -5.060   6.835   1.593  1.00  0.00     0.091 A 
ATOM     71  F   UNL     1      -6.117   4.917   2.543  1.00  0.00    -0.205 F 
ATOM     72  C   UNL     1      -4.592   8.150   1.749  1.00  0.00     0.022 A 
BRANCH  70  73
ATOM     73  S   UNL     1      -4.779   6.056  -0.002  1.00  0.00     0.127 S 
ATOM     74  O   UNL     1      -5.691   6.802  -0.865  1.00  0.00    -0.237 OA
ATOM     75  O   UNL     1      -3.359   6.326  -0.222  1.00  0.00    -0.237 OA
ATOM     76  O   UNL     1      -5.101   4.646   0.185  1.00  0.00    -0.744 OA
ENDBRANCH  70  73
ENDBRANCH  42  66
BRANCH  54  77
ATOM     77  C   UNL     1     -11.237   7.461   8.149  1.00  0.00     0.023 A 
ATOM     78  C   UNL     1     -12.256   7.399   7.178  1.00  0.00     0.012 A 
ATOM     79  C   UNL     1     -11.342   8.388   9.205  1.00  0.00     0.148 A 
ATOM     80  C   UNL     1     -13.348   8.263   7.242  1.00  0.00     0.002 A 
ATOM     81  C   UNL     1     -12.458   9.213   9.288  1.00  0.00     0.091 A 
ATOM     82  F   UNL     1     -10.353   8.444  10.108  1.00  0.00    -0.205 F 
ATOM     83  C   UNL     1     -13.456   9.160   8.302  1.00  0.00     0.022 A 
BRANCH  81  84
ATOM     84  S   UNL     1     -12.725  10.329  10.671  1.00  0.00     0.127 S 
ATOM     85  O   UNL     1     -12.436  11.628  10.065  1.00  0.00    -0.237 OA
ATOM     86  O   UNL     1     -14.136  10.104  10.986  1.00  0.00    -0.237 OA
ATOM     87  O   UNL     1     -11.800   9.903  11.713  1.00  0.00    -0.744 OA
ENDBRANCH  81  84
ENDBRANCH  54  77
ENDBRANCH  28  29
ENDBRANCH  20  23
ENDBRANCH   1  19
TORSDOF 14
