REMARK SMILES C[C@H](c1ccncc1)N1C[C@H](C(=O)NCCCNC(=O)c2ccc(-c3c4nc(c(-c5cccc(S(=O)(=O)[O-])c5F)c5ccc([nH]5)c(-c5cccc(S(=O)(=O)[O-])c5F)c5nc(c(-c6cccc(S(=O)(=O)[O-])c6F)c6ccc3[nH]6)C=C5)C=C4)cc2)CC1=O
REMARK SMILES IDX 16 1 15 2 14 3 12 4 13 5 11 7 9 8 10 9 85 10 84 11 86 12
REMARK SMILES IDX 2 13 1 14 3 15 4 16 8 17 5 18 7 19 6 20 17 21 18 22 19 23
REMARK SMILES IDX 20 25 21 26 22 27 83 28 23 29 82 30 24 31 25 32 26 33 76 34
REMARK SMILES IDX 27 35 81 36 75 37 77 38 28 39 80 40 74 41 73 42 29 44 61 45
REMARK SMILES IDX 41 46 60 47 42 48 45 49 59 50 78 51 43 52 44 53 58 55 79 56
REMARK SMILES IDX 46 57 30 58 31 59 39 60 32 61 34 62 40 63 33 64 35 65 36 66
REMARK SMILES IDX 37 67 38 68 62 69 63 70 71 71 64 72 66 73 72 74 65 75 67 76
REMARK SMILES IDX 68 77 69 78 70 79 47 80 48 81 56 82 49 83 51 84 57 85 50 86
REMARK SMILES IDX 52 87 53 88 54 89 55 90
REMARK H PARENT 14 6 18 24 77 43 45 54
REMARK Flexibility Score: inf
ROOT
ATOM      1  C   UNL     1      -6.846  -1.106  -1.842  1.00  0.00     0.042 C 
ENDROOT
BRANCH   1   2
ATOM      2  C   UNL     1      -6.044  -2.370  -1.558  1.00  0.00     0.117 C 
BRANCH   2   3
ATOM      3  N   UNL     1      -4.810  -2.440  -2.325  1.00  0.00    -0.356 N 
ATOM      4  C   UNL     1      -3.523  -2.523  -1.880  1.00  0.00     0.225 C 
ATOM      5  O   UNL     1      -2.623  -2.677  -2.704  1.00  0.00    -0.275 OA
ATOM      6  H   UNL     1      -4.919  -2.425  -3.304  1.00  0.00     0.163 HD
BRANCH   4   7
ATOM      7  C   UNL     1      -3.267  -2.450  -0.384  1.00  0.00     0.107 C 
ATOM      8  N   UNL     1      -1.209  -1.400   0.043  1.00  0.00    -0.335 N 
ATOM      9  C   UNL     1      -1.816  -2.709  -0.023  1.00  0.00     0.134 C 
ATOM     10  C   UNL     1      -2.172  -0.400   0.089  1.00  0.00     0.223 C 
ATOM     11  C   UNL     1      -3.526  -1.046   0.138  1.00  0.00     0.115 C 
ATOM     12  O   UNL     1      -2.029   0.811   0.139  1.00  0.00    -0.275 OA
BRANCH   8  13
ATOM     13  C   UNL     1       0.256  -1.246   0.011  1.00  0.00     0.112 C 
ATOM     14  C   UNL     1       0.926  -2.048   1.136  1.00  0.00     0.036 C 
BRANCH  13  15
ATOM     15  C   UNL     1       0.712   0.200  -0.023  1.00  0.00    -0.023 A 
ATOM     16  C   UNL     1       0.758   0.989   1.133  1.00  0.00     0.026 A 
ATOM     17  C   UNL     1       0.936   0.827  -1.254  1.00  0.00     0.026 A 
ATOM     18  C   UNL     1       1.002   2.348   1.004  1.00  0.00     0.111 A 
ATOM     19  C   UNL     1       1.183   2.191  -1.275  1.00  0.00     0.111 A 
ATOM     20  N   UNL     1       1.244   2.965  -0.171  1.00  0.00    -0.265 NA
ENDBRANCH  13  15
ENDBRANCH   8  13
ENDBRANCH   4   7
ENDBRANCH   2   3
ENDBRANCH   1   2
BRANCH   1  21
ATOM     21  C   UNL     1      -7.307  -0.958  -3.288  1.00  0.00     0.118 C 
BRANCH  21  22
ATOM     22  N   UNL     1      -8.116  -2.080  -3.739  1.00  0.00    -0.352 N 
ATOM     23  C   UNL     1      -9.398  -2.120  -4.228  1.00  0.00     0.251 C 
ATOM     24  H   UNL     1      -7.670  -2.956  -3.685  1.00  0.00     0.163 HD
ATOM     25  O   UNL     1      -9.942  -3.213  -4.371  1.00  0.00    -0.269 OA
BRANCH  23  26
ATOM     26  C   UNL     1     -10.131  -0.879  -4.564  1.00  0.00     0.039 A 
ATOM     27  C   UNL     1     -11.499  -0.820  -4.284  1.00  0.00     0.014 A 
ATOM     28  C   UNL     1      -9.504   0.207  -5.181  1.00  0.00     0.014 A 
ATOM     29  C   UNL     1     -12.217   0.344  -4.565  1.00  0.00     0.010 A 
ATOM     30  C   UNL     1     -10.201   1.398  -5.379  1.00  0.00     0.010 A 
ATOM     31  C   UNL     1     -11.568   1.480  -5.078  1.00  0.00    -0.014 A 
BRANCH  31  32
ATOM     32  C   UNL     1     -12.310   2.757  -5.254  1.00  0.00     0.031 A 
ATOM     33  C   UNL     1     -12.473   3.387  -6.611  1.00  0.00     0.074 A 
ATOM     34  C   UNL     1     -12.806   3.378  -4.165  1.00  0.00     0.049 A 
ATOM     35  N   UNL     1     -13.131   4.469  -6.941  1.00  0.00    -0.248 NA
ATOM     36  C   UNL     1     -11.794   2.734  -7.742  1.00  0.00     0.031 C 
ATOM     37  C   UNL     1     -12.634   2.923  -2.783  1.00  0.00     0.029 A 
ATOM     38  N   UNL     1     -13.543   4.529  -4.044  1.00  0.00    -0.354 N 
ATOM     39  C   UNL     1     -12.927   4.642  -8.305  1.00  0.00     0.074 A 
ATOM     40  C   UNL     1     -12.052   3.573  -8.736  1.00  0.00     0.031 C 
ATOM     41  C   UNL     1     -13.270   3.769  -1.958  1.00  0.00     0.029 A 
ATOM     42  C   UNL     1     -13.866   4.843  -2.745  1.00  0.00     0.049 A 
ATOM     43  H   UNL     1     -13.816   5.077  -4.815  1.00  0.00     0.167 HD
ATOM     44  C   UNL     1     -13.442   5.586  -9.130  1.00  0.00     0.034 A 
ATOM     45  C   UNL     1     -14.563   5.879  -2.239  1.00  0.00     0.034 A 
ATOM     46  C   UNL     1     -14.328   6.637  -8.702  1.00  0.00     0.049 A 
ATOM     47  C   UNL     1     -15.158   6.888  -3.182  1.00  0.00     0.074 A 
ATOM     48  C   UNL     1     -14.969   7.590  -9.475  1.00  0.00     0.029 A 
ATOM     49  N   UNL     1     -14.686   6.888  -7.386  1.00  0.00    -0.354 N 
ATOM     50  N   UNL     1     -15.096   6.933  -4.491  1.00  0.00    -0.248 NA
ATOM     51  C   UNL     1     -15.955   7.965  -2.579  1.00  0.00     0.031 C 
ATOM     52  C   UNL     1     -15.684   8.439  -8.623  1.00  0.00     0.029 A 
ATOM     53  C   UNL     1     -15.525   7.989  -7.322  1.00  0.00     0.049 A 
ATOM     54  H   UNL     1     -14.388   6.361  -6.611  1.00  0.00     0.167 HD
ATOM     55  C   UNL     1     -15.869   8.025  -4.870  1.00  0.00     0.074 A 
ATOM     56  C   UNL     1     -16.418   8.588  -3.653  1.00  0.00     0.031 C 
ATOM     57  C   UNL     1     -16.091   8.526  -6.111  1.00  0.00     0.034 A 
BRANCH  44  58
ATOM     58  C   UNL     1     -13.093   5.503 -10.596  1.00  0.00     0.023 A 
ATOM     59  C   UNL     1     -13.615   4.453 -11.380  1.00  0.00     0.012 A 
ATOM     60  C   UNL     1     -12.303   6.494 -11.212  1.00  0.00     0.148 A 
ATOM     61  C   UNL     1     -13.329   4.370 -12.742  1.00  0.00     0.002 A 
ATOM     62  C   UNL     1     -12.062   6.431 -12.580  1.00  0.00     0.091 A 
ATOM     63  F   UNL     1     -11.800   7.475 -10.450  1.00  0.00    -0.205 F 
ATOM     64  C   UNL     1     -12.562   5.364 -13.343  1.00  0.00     0.022 A 
BRANCH  62  65
ATOM     65  S   UNL     1     -11.159   7.706 -13.467  1.00  0.00     0.127 S 
ATOM     66  O   UNL     1      -9.934   6.996 -13.835  1.00  0.00    -0.237 OA
ATOM     67  O   UNL     1     -12.055   7.994 -14.587  1.00  0.00    -0.237 OA
ATOM     68  O   UNL     1     -10.984   8.804 -12.528  1.00  0.00    -0.744 OA
ENDBRANCH  62  65
ENDBRANCH  44  58
BRANCH  45  69
ATOM     69  C   UNL     1     -14.789   5.979  -0.769  1.00  0.00     0.023 A 
ATOM     70  C   UNL     1     -16.085   5.795  -0.249  1.00  0.00     0.012 A 
ATOM     71  C   UNL     1     -13.724   6.235   0.115  1.00  0.00     0.148 A 
ATOM     72  C   UNL     1     -16.324   5.904   1.121  1.00  0.00     0.002 A 
ATOM     73  C   UNL     1     -13.958   6.280   1.484  1.00  0.00     0.091 A 
ATOM     74  F   UNL     1     -12.500   6.415  -0.401  1.00  0.00    -0.205 F 
ATOM     75  C   UNL     1     -15.260   6.136   1.988  1.00  0.00     0.022 A 
BRANCH  73  76
ATOM     76  S   UNL     1     -12.629   6.433   2.682  1.00  0.00     0.127 S 
ATOM     77  O   UNL     1     -12.865   7.770   3.220  1.00  0.00    -0.237 OA
ATOM     78  O   UNL     1     -12.928   5.335   3.603  1.00  0.00    -0.237 OA
ATOM     79  O   UNL     1     -11.396   6.263   1.927  1.00  0.00    -0.744 OA
ENDBRANCH  73  76
ENDBRANCH  45  69
BRANCH  57  80
ATOM     80  C   UNL     1     -16.992   9.732  -6.216  1.00  0.00     0.023 A 
ATOM     81  C   UNL     1     -16.566  10.977  -5.709  1.00  0.00     0.012 A 
ATOM     82  C   UNL     1     -18.254   9.636  -6.834  1.00  0.00     0.148 A 
ATOM     83  C   UNL     1     -17.404  12.090  -5.762  1.00  0.00     0.002 A 
ATOM     84  C   UNL     1     -19.061  10.764  -6.935  1.00  0.00     0.091 A 
ATOM     85  F   UNL     1     -18.654   8.443  -7.297  1.00  0.00    -0.205 F 
ATOM     86  C   UNL     1     -18.646  11.986  -6.382  1.00  0.00     0.022 A 
BRANCH  84  87
ATOM     87  S   UNL     1     -20.633  10.746  -7.803  1.00  0.00     0.127 S 
ATOM     88  O   UNL     1     -21.586  10.774  -6.695  1.00  0.00    -0.237 OA
ATOM     89  O   UNL     1     -20.570  11.982  -8.585  1.00  0.00    -0.237 OA
ATOM     90  O   UNL     1     -20.634   9.528  -8.602  1.00  0.00    -0.744 OA
ENDBRANCH  84  87
ENDBRANCH  57  80
ENDBRANCH  31  32
ENDBRANCH  23  26
ENDBRANCH  21  22
ENDBRANCH   1  21
TORSDOF 15
