REMARK SMILES Cc1ccc(-n2cnnn2)cc1OCC(=O)NCCCNC(=O)c1ccc(-c2c3nc(c(-c4cccc(S(=O)(=O)[O-])c4F)c4ccc([nH]4)c(-c4cccc(S(=O)(=O)[O-])c4F)c4nc(c(-c5cccc(S(=O)(=O)[O-])c5F)c5ccc2[nH]5)C=C4)C=C3)cc1
REMARK SMILES IDX 19 1 18 2 17 3 15 4 16 5 14 7 13 8 12 9 1 10 2 11 3 12 4 13
REMARK SMILES IDX 11 14 5 15 6 16 7 17 10 18 8 19 9 20 20 21 21 22 22 23 23 25
REMARK SMILES IDX 24 26 25 27 86 28 26 29 85 30 27 31 28 32 29 33 79 34 30 35
REMARK SMILES IDX 84 36 78 37 80 38 31 39 83 40 77 41 76 42 32 44 64 45 44 46
REMARK SMILES IDX 63 47 45 48 48 49 62 50 81 51 46 52 47 53 61 55 82 56 49 57
REMARK SMILES IDX 33 58 34 59 42 60 35 61 37 62 43 63 36 64 38 65 39 66 40 67
REMARK SMILES IDX 41 68 65 69 66 70 74 71 67 72 69 73 75 74 68 75 70 76 71 77
REMARK SMILES IDX 72 78 73 79 50 80 51 81 59 82 52 83 54 84 60 85 53 86 55 87
REMARK SMILES IDX 56 88 57 89 58 90
REMARK H PARENT 17 6 21 24 80 43 48 54
REMARK Flexibility Score: inf
ROOT
ATOM      1  C   UNL     1       0.363   3.868   2.392  1.00  0.00     0.042 C 
ENDROOT
BRANCH   1   2
ATOM      2  C   UNL     1       1.826   4.202   2.149  1.00  0.00     0.117 C 
BRANCH   2   3
ATOM      3  N   UNL     1       2.685   3.032   2.123  1.00  0.00    -0.353 N 
ATOM      4  C   UNL     1       3.058   2.259   1.062  1.00  0.00     0.257 C 
ATOM      5  O   UNL     1       3.970   1.445   1.225  1.00  0.00    -0.271 OA
ATOM      6  H   UNL     1       3.050   2.757   2.995  1.00  0.00     0.163 HD
BRANCH   4   7
ATOM      7  C   UNL     1       2.414   2.465  -0.317  1.00  0.00     0.329 C 
BRANCH   7   8
ATOM      8  O   UNL     1       1.048   2.187  -0.533  1.00  0.00    -0.483 OA
BRANCH   8   9
ATOM      9  C   UNL     1       0.480   0.960  -0.347  1.00  0.00     0.125 A 
ATOM     10  C   UNL     1       2.509  -0.666  -0.365  1.00  0.00     0.048 C 
ATOM     11  C   UNL     1       1.059  -0.309  -0.214  1.00  0.00    -0.009 A 
ATOM     12  C   UNL     1       0.216  -1.403   0.097  1.00  0.00     0.009 A 
ATOM     13  C   UNL     1      -1.170  -1.277   0.172  1.00  0.00     0.029 A 
ATOM     14  C   UNL     1      -0.929   1.066  -0.325  1.00  0.00     0.075 A 
ATOM     15  C   UNL     1      -1.754  -0.043  -0.089  1.00  0.00     0.072 A 
BRANCH  15  16
ATOM     16  N   UNL     1      -3.163   0.068  -0.133  1.00  0.00    -0.200 N 
ATOM     17  C   UNL     1      -3.939   1.104  -0.589  1.00  0.00     0.252 A 
ATOM     18  N   UNL     1      -3.992  -0.936   0.233  1.00  0.00    -0.040 NA
ATOM     19  N   UNL     1      -5.208   0.782  -0.482  1.00  0.00    -0.117 NA
ATOM     20  N   UNL     1      -5.224  -0.483   0.044  1.00  0.00    -0.024 NA
ENDBRANCH  15  16
ENDBRANCH   8   9
ENDBRANCH   7   8
ENDBRANCH   4   7
ENDBRANCH   2   3
ENDBRANCH   1   2
BRANCH   1  21
ATOM     21  C   UNL     1       0.085   3.357   3.798  1.00  0.00     0.118 C 
BRANCH  21  22
ATOM     22  N   UNL     1      -0.192   4.408   4.762  1.00  0.00    -0.352 N 
ATOM     23  C   UNL     1      -0.525   4.323   6.101  1.00  0.00     0.251 C 
ATOM     24  H   UNL     1      -0.134   5.324   4.406  1.00  0.00     0.163 HD
ATOM     25  O   UNL     1      -0.900   5.356   6.657  1.00  0.00    -0.269 OA
BRANCH  23  26
ATOM     26  C   UNL     1      -0.325   3.069   6.877  1.00  0.00     0.039 A 
ATOM     27  C   UNL     1       0.090   3.178   8.214  1.00  0.00     0.014 A 
ATOM     28  C   UNL     1      -0.375   1.811   6.283  1.00  0.00     0.014 A 
ATOM     29  C   UNL     1       0.680   2.088   8.857  1.00  0.00     0.010 A 
ATOM     30  C   UNL     1       0.263   0.749   6.885  1.00  0.00     0.010 A 
ATOM     31  C   UNL     1       0.860   0.914   8.136  1.00  0.00    -0.014 A 
BRANCH  31  32
ATOM     32  C   UNL     1       1.762  -0.163   8.509  1.00  0.00     0.031 A 
ATOM     33  C   UNL     1       1.295  -1.340   9.253  1.00  0.00     0.074 A 
ATOM     34  C   UNL     1       2.970  -0.167   7.904  1.00  0.00     0.049 A 
ATOM     35  N   UNL     1       2.074  -2.179   9.845  1.00  0.00    -0.248 NA
ATOM     36  C   UNL     1      -0.118  -1.656   9.383  1.00  0.00     0.031 C 
ATOM     37  C   UNL     1       3.870  -1.293   7.708  1.00  0.00     0.029 A 
ATOM     38  N   UNL     1       3.711   0.944   7.486  1.00  0.00    -0.354 N 
ATOM     39  C   UNL     1       1.314  -3.288  10.155  1.00  0.00     0.074 A 
ATOM     40  C   UNL     1      -0.053  -2.867   9.943  1.00  0.00     0.031 C 
ATOM     41  C   UNL     1       5.104  -0.817   7.476  1.00  0.00     0.029 A 
ATOM     42  C   UNL     1       5.056   0.617   7.712  1.00  0.00     0.049 A 
ATOM     43  H   UNL     1       3.359   1.783   7.109  1.00  0.00     0.167 HD
ATOM     44  C   UNL     1       1.940  -4.482  10.375  1.00  0.00     0.034 A 
ATOM     45  C   UNL     1       5.856   1.309   8.576  1.00  0.00     0.034 A 
ATOM     46  C   UNL     1       3.404  -4.330  10.308  1.00  0.00     0.049 A 
ATOM     47  C   UNL     1       6.429   0.438   9.680  1.00  0.00     0.074 A 
ATOM     48  C   UNL     1       4.329  -4.596   9.310  1.00  0.00     0.029 A 
ATOM     49  N   UNL     1       4.072  -3.577  11.267  1.00  0.00    -0.354 N 
ATOM     50  N   UNL     1       6.092  -0.805   9.884  1.00  0.00    -0.248 NA
ATOM     51  C   UNL     1       7.394   0.913  10.669  1.00  0.00     0.031 C 
ATOM     52  C   UNL     1       5.535  -3.919   9.634  1.00  0.00     0.029 A 
ATOM     53  C   UNL     1       5.355  -3.263  10.840  1.00  0.00     0.049 A 
ATOM     54  H   UNL     1       3.688  -3.303  12.131  1.00  0.00     0.167 HD
ATOM     55  C   UNL     1       6.621  -1.241  11.071  1.00  0.00     0.074 A 
ATOM     56  C   UNL     1       7.508  -0.162  11.470  1.00  0.00     0.031 C 
ATOM     57  C   UNL     1       6.219  -2.413  11.655  1.00  0.00     0.034 A 
BRANCH  44  58
ATOM     58  C   UNL     1       1.260  -5.846  10.294  1.00  0.00     0.023 A 
ATOM     59  C   UNL     1       2.080  -6.966  10.020  1.00  0.00     0.012 A 
ATOM     60  C   UNL     1      -0.124  -6.116  10.389  1.00  0.00     0.148 A 
ATOM     61  C   UNL     1       1.561  -8.234   9.728  1.00  0.00     0.002 A 
ATOM     62  C   UNL     1      -0.652  -7.361  10.026  1.00  0.00     0.091 A 
ATOM     63  F   UNL     1      -0.943  -5.212  10.932  1.00  0.00    -0.205 F 
ATOM     64  C   UNL     1       0.190  -8.421   9.686  1.00  0.00     0.022 A 
BRANCH  62  65
ATOM     65  S   UNL     1      -2.425  -7.649   9.877  1.00  0.00     0.127 S 
ATOM     66  O   UNL     1      -2.526  -8.287   8.562  1.00  0.00    -0.237 OA
ATOM     67  O   UNL     1      -2.695  -8.538  11.004  1.00  0.00    -0.237 OA
ATOM     68  O   UNL     1      -3.051  -6.334   9.945  1.00  0.00    -0.744 OA
ENDBRANCH  62  65
ENDBRANCH  44  58
BRANCH  45  69
ATOM     69  C   UNL     1       5.468   2.745   8.729  1.00  0.00     0.023 A 
ATOM     70  C   UNL     1       5.547   3.557   7.571  1.00  0.00     0.012 A 
ATOM     71  C   UNL     1       4.680   3.182   9.808  1.00  0.00     0.148 A 
ATOM     72  C   UNL     1       4.755   4.699   7.438  1.00  0.00     0.002 A 
ATOM     73  C   UNL     1       3.895   4.327   9.669  1.00  0.00     0.091 A 
ATOM     74  F   UNL     1       4.641   2.438  10.920  1.00  0.00    -0.205 F 
ATOM     75  C   UNL     1       3.901   5.063   8.473  1.00  0.00     0.022 A 
BRANCH  73  76
ATOM     76  S   UNL     1       2.750   4.832  10.961  1.00  0.00     0.127 S 
ATOM     77  O   UNL     1       3.581   5.734  11.752  1.00  0.00    -0.237 OA
ATOM     78  O   UNL     1       1.681   5.484  10.206  1.00  0.00    -0.237 OA
ATOM     79  O   UNL     1       2.349   3.587  11.601  1.00  0.00    -0.744 OA
ENDBRANCH  73  76
ENDBRANCH  45  69
BRANCH  57  80
ATOM     80  C   UNL     1       6.577  -2.858  13.061  1.00  0.00     0.023 A 
ATOM     81  C   UNL     1       6.941  -1.947  14.071  1.00  0.00     0.012 A 
ATOM     82  C   UNL     1       6.412  -4.212  13.456  1.00  0.00     0.148 A 
ATOM     83  C   UNL     1       7.192  -2.357  15.385  1.00  0.00     0.002 A 
ATOM     84  C   UNL     1       6.555  -4.596  14.788  1.00  0.00     0.091 A 
ATOM     85  F   UNL     1       6.132  -5.147  12.536  1.00  0.00    -0.205 F 
ATOM     86  C   UNL     1       6.977  -3.678  15.750  1.00  0.00     0.022 A 
BRANCH  84  87
ATOM     87  S   UNL     1       6.051  -6.236  15.330  1.00  0.00     0.127 S 
ATOM     88  O   UNL     1       7.283  -7.004  15.171  1.00  0.00    -0.237 OA
ATOM     89  O   UNL     1       5.655  -6.005  16.721  1.00  0.00    -0.237 OA
ATOM     90  O   UNL     1       4.946  -6.594  14.451  1.00  0.00    -0.744 OA
ENDBRANCH  84  87
ENDBRANCH  57  80
ENDBRANCH  31  32
ENDBRANCH  23  26
ENDBRANCH  21  22
ENDBRANCH   1  21
TORSDOF 16
