REMARK SMILES Nc1c(Nc2ccc(I)cc2)ncnc1Nc1ccc(C(=O)NCCCNC(=O)c2ccc(-c3c4nc(c(-c5cccc(S(=O)(=O)[O-])c5F)c5ccc([nH]5)c(-c5cccc(S(=O)(=O)[O-])c5F)c5nc(c(-c6cccc(S(=O)(=O)[O-])c6F)c6ccc3[nH]6)C=C5)C=C4)cc2)cc1
REMARK SMILES IDX 24 1 23 2 21 3 22 4 20 6 17 7 18 8 94 9 19 10 93 11 16 12
REMARK SMILES IDX 15 14 2 15 3 16 12 17 14 18 13 19 1 20 4 23 5 25 6 26 11 27
REMARK SMILES IDX 7 28 10 29 8 30 9 31 25 32 26 33 27 34 28 35 29 37 30 38
REMARK SMILES IDX 31 39 92 40 32 41 91 42 33 43 34 44 35 45 85 46 36 47 90 48
REMARK SMILES IDX 84 49 86 50 37 51 89 52 83 53 82 54 38 56 70 57 50 58 69 59
REMARK SMILES IDX 51 60 54 61 68 62 87 63 52 64 53 65 67 67 88 68 55 69 39 70
REMARK SMILES IDX 40 71 48 72 41 73 43 74 49 75 42 76 44 77 45 78 46 79 47 80
REMARK SMILES IDX 71 81 72 82 80 83 73 84 75 85 81 86 74 87 76 88 77 89 78 90
REMARK SMILES IDX 79 91 56 92 57 93 65 94 58 95 60 96 66 97 59 98 61 99 62 100
REMARK SMILES IDX 63 101 64 102
REMARK H PARENT 23 5 16 13 1 21 1 22 4 24 27 36 86 55 54 66
REMARK Flexibility Score: inf
ROOT
ATOM      1  C   UNL     1       2.657  -9.073  -0.447  1.00  0.00     0.118 C 
ENDROOT
BRANCH   1   2
ATOM      2  N   UNL     1       2.874  -9.032   0.988  1.00  0.00    -0.352 N 
ATOM      3  C   UNL     1       2.913  -8.007   1.897  1.00  0.00     0.251 C 
ATOM      4  O   UNL     1       3.086  -8.314   3.079  1.00  0.00    -0.269 OA
ATOM      5  H   UNL     1       3.022  -9.918   1.389  1.00  0.00     0.163 HD
BRANCH   3   6
ATOM      6  C   UNL     1       2.688  -6.574   1.551  1.00  0.00     0.039 A 
ATOM      7  C   UNL     1       2.009  -3.872   1.058  1.00  0.00     0.040 A 
ATOM      8  C   UNL     1       1.889  -4.407   2.341  1.00  0.00     0.027 A 
ATOM      9  C   UNL     1       2.531  -4.681   0.044  1.00  0.00     0.027 A 
ATOM     10  C   UNL     1       2.216  -5.745   2.582  1.00  0.00     0.016 A 
ATOM     11  C   UNL     1       2.905  -6.006   0.296  1.00  0.00     0.016 A 
BRANCH   7  12
ATOM     12  N   UNL     1       1.478  -2.605   0.766  1.00  0.00    -0.338 N 
ATOM     13  H   UNL     1       1.873  -1.828   1.224  1.00  0.00     0.168 HD
BRANCH  12  14
ATOM     14  C   UNL     1       0.414  -2.367  -0.141  1.00  0.00     0.159 A 
ATOM     15  C   UNL     1       0.117  -1.043  -0.492  1.00  0.00     0.118 A 
ATOM     16  C   UNL     1      -0.980  -0.885  -1.351  1.00  0.00     0.159 A 
ATOM     17  N   UNL     1      -1.713  -1.927  -1.788  1.00  0.00    -0.217 NA
ATOM     18  N   UNL     1      -0.277  -3.418  -0.623  1.00  0.00    -0.217 NA
ATOM     19  C   UNL     1      -1.312  -3.143  -1.415  1.00  0.00     0.226 A 
BRANCH  15  20
ATOM     20  N   UNL     1       0.838   0.038   0.030  1.00  0.00    -0.393 N 
ATOM     21  H   UNL     1       0.608   0.958  -0.235  1.00  0.00     0.156 HD
ATOM     22  H   UNL     1       1.576  -0.122   0.662  1.00  0.00     0.156 HD
ENDBRANCH  15  20
BRANCH  16  23
ATOM     23  N   UNL     1      -1.303   0.417  -1.812  1.00  0.00    -0.338 N 
ATOM     24  H   UNL     1      -0.669   1.137  -1.590  1.00  0.00     0.168 HD
BRANCH  23  25
ATOM     25  C   UNL     1      -2.442   0.780  -2.554  1.00  0.00     0.040 A 
ATOM     26  C   UNL     1      -2.293   1.522  -3.733  1.00  0.00     0.027 A 
ATOM     27  C   UNL     1      -3.723   0.339  -2.199  1.00  0.00     0.027 A 
ATOM     28  C   UNL     1      -3.395   1.800  -4.548  1.00  0.00     0.017 A 
ATOM     29  C   UNL     1      -4.832   0.624  -3.002  1.00  0.00     0.017 A 
ATOM     30  C   UNL     1      -4.660   1.347  -4.180  1.00  0.00     0.013 A 
ATOM     31  I   UNL     1      -6.293   1.726  -5.408  1.00  0.00    -0.044 I 
ENDBRANCH  23  25
ENDBRANCH  16  23
ENDBRANCH  12  14
ENDBRANCH   7  12
ENDBRANCH   3   6
ENDBRANCH   1   2
BRANCH   1  32
ATOM     32  C   UNL     1       3.984  -9.159  -1.199  1.00  0.00     0.042 C 
BRANCH  32  33
ATOM     33  C   UNL     1       4.651 -10.529  -1.083  1.00  0.00     0.118 C 
BRANCH  33  34
ATOM     34  N   UNL     1       3.899 -11.558  -1.790  1.00  0.00    -0.352 N 
ATOM     35  C   UNL     1       4.253 -12.315  -2.878  1.00  0.00     0.251 C 
ATOM     36  H   UNL     1       2.999 -11.738  -1.432  1.00  0.00     0.163 HD
ATOM     37  O   UNL     1       3.390 -12.946  -3.482  1.00  0.00    -0.269 OA
BRANCH  35  38
ATOM     38  C   UNL     1       5.662 -12.375  -3.324  1.00  0.00     0.039 A 
ATOM     39  C   UNL     1       5.941 -12.349  -4.693  1.00  0.00     0.014 A 
ATOM     40  C   UNL     1       6.703 -12.508  -2.399  1.00  0.00     0.014 A 
ATOM     41  C   UNL     1       7.265 -12.412  -5.133  1.00  0.00     0.010 A 
ATOM     42  C   UNL     1       8.025 -12.500  -2.835  1.00  0.00     0.010 A 
ATOM     43  C   UNL     1       8.319 -12.466  -4.206  1.00  0.00    -0.014 A 
BRANCH  43  44
ATOM     44  C   UNL     1       9.735 -12.500  -4.653  1.00  0.00     0.031 A 
ATOM     45  C   UNL     1      10.586 -13.709  -4.373  1.00  0.00     0.074 A 
ATOM     46  C   UNL     1      10.269 -11.418  -5.252  1.00  0.00     0.049 A 
ATOM     47  N   UNL     1      11.850 -13.906  -4.643  1.00  0.00    -0.248 NA
ATOM     48  C   UNL     1       9.941 -14.839  -3.680  1.00  0.00     0.031 C 
ATOM     49  C   UNL     1       9.558 -10.165  -5.520  1.00  0.00     0.029 A 
ATOM     50  N   UNL     1      11.536 -11.187  -5.727  1.00  0.00    -0.354 N 
ATOM     51  C   UNL     1      12.157 -15.163  -4.135  1.00  0.00     0.074 A 
ATOM     52  C   UNL     1      10.959 -15.670  -3.505  1.00  0.00     0.031 C 
ATOM     53  C   UNL     1      10.395  -9.304  -6.120  1.00  0.00     0.029 A 
ATOM     54  C   UNL     1      11.709  -9.927  -6.253  1.00  0.00     0.049 A 
ATOM     55  H   UNL     1      12.254 -11.860  -5.694  1.00  0.00     0.167 HD
ATOM     56  C   UNL     1      13.322 -15.847  -4.219  1.00  0.00     0.034 A 
ATOM     57  C   UNL     1      12.802  -9.341  -6.780  1.00  0.00     0.034 A 
ATOM     58  C   UNL     1      14.495 -15.356  -4.889  1.00  0.00     0.049 A 
ATOM     59  C   UNL     1      14.078 -10.135  -6.878  1.00  0.00     0.074 A 
ATOM     60  C   UNL     1      15.700 -16.004  -5.091  1.00  0.00     0.029 A 
ATOM     61  N   UNL     1      14.611 -14.102  -5.467  1.00  0.00    -0.354 N 
ATOM     62  N   UNL     1      14.306 -11.376  -6.521  1.00  0.00    -0.248 NA
ATOM     63  C   UNL     1      15.238  -9.463  -7.482  1.00  0.00     0.031 C 
ATOM     64  C   UNL     1      16.554 -15.133  -5.772  1.00  0.00     0.029 A 
ATOM     65  C   UNL     1      15.872 -13.952  -6.019  1.00  0.00     0.049 A 
ATOM     66  H   UNL     1      13.903 -13.419  -5.483  1.00  0.00     0.167 HD
ATOM     67  C   UNL     1      15.622 -11.642  -6.882  1.00  0.00     0.074 A 
ATOM     68  C   UNL     1      16.133 -10.442  -7.511  1.00  0.00     0.031 C 
ATOM     69  C   UNL     1      16.348 -12.771  -6.691  1.00  0.00     0.034 A 
BRANCH  56  70
ATOM     70  C   UNL     1      13.374 -17.237  -3.638  1.00  0.00     0.023 A 
ATOM     71  C   UNL     1      12.699 -18.284  -4.297  1.00  0.00     0.012 A 
ATOM     72  C   UNL     1      14.175 -17.528  -2.516  1.00  0.00     0.148 A 
ATOM     73  C   UNL     1      12.803 -19.596  -3.840  1.00  0.00     0.002 A 
ATOM     74  C   UNL     1      14.312 -18.846  -2.094  1.00  0.00     0.091 A 
ATOM     75  F   UNL     1      14.797 -16.516  -1.895  1.00  0.00    -0.205 F 
ATOM     76  C   UNL     1      13.619 -19.879  -2.748  1.00  0.00     0.022 A 
BRANCH  74  77
ATOM     77  S   UNL     1      15.405 -19.332  -0.753  1.00  0.00     0.127 S 
ATOM     78  O   UNL     1      14.452 -19.828   0.240  1.00  0.00    -0.237 OA
ATOM     79  O   UNL     1      16.221 -20.369  -1.386  1.00  0.00    -0.237 OA
ATOM     80  O   UNL     1      16.132 -18.131  -0.368  1.00  0.00    -0.744 OA
ENDBRANCH  74  77
ENDBRANCH  56  70
BRANCH  57  81
ATOM     81  C   UNL     1      12.713  -7.955  -7.327  1.00  0.00     0.023 A 
ATOM     82  C   UNL     1      12.813  -7.757  -8.718  1.00  0.00     0.012 A 
ATOM     83  C   UNL     1      12.489  -6.843  -6.491  1.00  0.00     0.148 A 
ATOM     84  C   UNL     1      12.721  -6.476  -9.264  1.00  0.00     0.002 A 
ATOM     85  C   UNL     1      12.338  -5.577  -7.048  1.00  0.00     0.091 A 
ATOM     86  F   UNL     1      12.409  -7.047  -5.169  1.00  0.00    -0.205 F 
ATOM     87  C   UNL     1      12.471  -5.389  -8.432  1.00  0.00     0.022 A 
BRANCH  85  88
ATOM     88  S   UNL     1      11.872  -4.143  -6.069  1.00  0.00     0.127 S 
ATOM     89  O   UNL     1      13.106  -3.361  -6.078  1.00  0.00    -0.237 OA
ATOM     90  O   UNL     1      10.779  -3.579  -6.861  1.00  0.00    -0.237 OA
ATOM     91  O   UNL     1      11.463  -4.668  -4.774  1.00  0.00    -0.744 OA
ENDBRANCH  85  88
ENDBRANCH  57  81
BRANCH  69  92
ATOM     92  C   UNL     1      17.775 -12.786  -7.176  1.00  0.00     0.023 A 
ATOM     93  C   UNL     1      18.753 -12.051  -6.478  1.00  0.00     0.012 A 
ATOM     94  C   UNL     1      18.166 -13.623  -8.241  1.00  0.00     0.148 A 
ATOM     95  C   UNL     1      20.095 -12.131  -6.845  1.00  0.00     0.002 A 
ATOM     96  C   UNL     1      19.512 -13.738  -8.567  1.00  0.00     0.091 A 
ATOM     97  F   UNL     1      17.217 -14.303  -8.901  1.00  0.00    -0.205 F 
ATOM     98  C   UNL     1      20.476 -12.985  -7.878  1.00  0.00     0.022 A 
BRANCH  96  99
ATOM     99  S   UNL     1      20.110 -14.892  -9.807  1.00  0.00     0.127 S 
ATOM    100  O   UNL     1      20.543 -13.988 -10.871  1.00  0.00    -0.237 OA
ATOM    101  O   UNL     1      21.199 -15.568  -9.100  1.00  0.00    -0.237 OA
ATOM    102  O   UNL     1      18.980 -15.749 -10.140  1.00  0.00    -0.744 OA
ENDBRANCH  96  99
ENDBRANCH  69  92
ENDBRANCH  43  44
ENDBRANCH  35  38
ENDBRANCH  33  34
ENDBRANCH  32  33
ENDBRANCH   1  32
TORSDOF 18
