REMARK SMILES O=C(NCCCNC(=O)[C@H]1CC[NH2+][C@@H]1c1cccc(F)c1)c1ccc(-c2c3nc(c(-c4cccc(S(=O)(=O)[O-])c4F)c4ccc([nH]4)c(-c4cccc(S(=O)(=O)[O-])c4F)c4nc(c(-c5cccc(S(=O)(=O)[O-])c5F)c5ccc2[nH]5)C=C4)C=C3)cc1
REMARK SMILES IDX 4 1 3 2 1 3 2 4 22 6 23 7 84 8 24 9 83 10 25 11 26 12 27 13
REMARK SMILES IDX 77 14 28 15 82 16 76 17 78 18 29 19 81 20 75 21 74 22 30 24
REMARK SMILES IDX 62 25 42 26 61 27 43 28 46 29 60 30 79 31 44 32 45 33 59 35
REMARK SMILES IDX 80 36 47 37 31 38 32 39 40 40 33 41 35 42 41 43 34 44 36 45
REMARK SMILES IDX 37 46 38 47 39 48 63 49 64 50 72 51 65 52 67 53 73 54 66 55
REMARK SMILES IDX 68 56 69 57 70 58 71 59 48 60 49 61 57 62 50 63 52 64 58 65
REMARK SMILES IDX 51 66 53 67 54 68 55 69 56 70 5 71 6 72 7 73 8 74 9 76 10 77
REMARK SMILES IDX 11 78 14 79 12 80 13 81 15 84 16 85 21 86 17 87 19 88 18 89
REMARK SMILES IDX 20 90
REMARK H PARENT 3 5 78 23 46 34 7 75 13 82 13 83
REMARK Flexibility Score: inf
ROOT
ATOM      1  C   UNL     1       8.397  -5.902   2.072  1.00  0.00     0.118 C 
ENDROOT
BRANCH   1   2
ATOM      2  N   UNL     1       8.407  -7.057   2.958  1.00  0.00    -0.352 N 
ATOM      3  O   UNL     1       9.236  -8.490   4.474  1.00  0.00    -0.269 OA
ATOM      4  C   UNL     1       9.263  -7.366   3.990  1.00  0.00     0.251 C 
ATOM      5  H   UNL     1       7.694  -7.716   2.793  1.00  0.00     0.163 HD
BRANCH   4   6
ATOM      6  C   UNL     1      10.221  -6.353   4.492  1.00  0.00     0.039 A 
ATOM      7  C   UNL     1       9.831  -5.024   4.667  1.00  0.00     0.014 A 
ATOM      8  C   UNL     1      11.524  -6.745   4.811  1.00  0.00     0.014 A 
ATOM      9  C   UNL     1      10.780  -4.063   5.001  1.00  0.00     0.010 A 
ATOM     10  C   UNL     1      12.454  -5.790   5.236  1.00  0.00     0.010 A 
ATOM     11  C   UNL     1      12.103  -4.433   5.293  1.00  0.00    -0.014 A 
BRANCH  11  12
ATOM     12  C   UNL     1      13.079  -3.384   5.691  1.00  0.00     0.031 A 
ATOM     13  C   UNL     1      14.292  -3.089   4.849  1.00  0.00     0.074 A 
ATOM     14  C   UNL     1      12.847  -2.670   6.810  1.00  0.00     0.049 A 
ATOM     15  N   UNL     1      15.203  -2.165   5.021  1.00  0.00    -0.248 NA
ATOM     16  C   UNL     1      14.523  -3.938   3.668  1.00  0.00     0.031 C 
ATOM     17  C   UNL     1      11.729  -2.892   7.730  1.00  0.00     0.029 A 
ATOM     18  N   UNL     1      13.522  -1.610   7.361  1.00  0.00    -0.354 N 
ATOM     19  C   UNL     1      16.127  -2.340   3.999  1.00  0.00     0.074 A 
ATOM     20  C   UNL     1      15.678  -3.469   3.214  1.00  0.00     0.031 C 
ATOM     21  C   UNL     1      11.772  -1.976   8.707  1.00  0.00     0.029 A 
ATOM     22  C   UNL     1      12.946  -1.131   8.515  1.00  0.00     0.049 A 
ATOM     23  H   UNL     1      14.341  -1.230   6.969  1.00  0.00     0.167 HD
ATOM     24  C   UNL     1      17.234  -1.611   3.724  1.00  0.00     0.034 A 
ATOM     25  C   UNL     1      13.320  -0.129   9.335  1.00  0.00     0.034 A 
ATOM     26  C   UNL     1      17.648  -0.457   4.477  1.00  0.00     0.049 A 
ATOM     27  C   UNL     1      14.543   0.674   8.994  1.00  0.00     0.074 A 
ATOM     28  C   UNL     1      18.713   0.391   4.226  1.00  0.00     0.029 A 
ATOM     29  N   UNL     1      17.026   0.009   5.625  1.00  0.00    -0.354 N 
ATOM     30  N   UNL     1      15.325   0.576   7.946  1.00  0.00    -0.248 NA
ATOM     31  C   UNL     1      14.928   1.738   9.933  1.00  0.00     0.031 C 
ATOM     32  C   UNL     1      18.749   1.357   5.235  1.00  0.00     0.029 A 
ATOM     33  C   UNL     1      17.695   1.123   6.103  1.00  0.00     0.049 A 
ATOM     34  H   UNL     1      16.228  -0.392   6.038  1.00  0.00     0.167 HD
ATOM     35  C   UNL     1      16.284   1.570   8.092  1.00  0.00     0.074 A 
ATOM     36  C   UNL     1      15.968   2.281   9.313  1.00  0.00     0.031 C 
ATOM     37  C   UNL     1      17.345   1.851   7.296  1.00  0.00     0.034 A 
BRANCH  24  38
ATOM     38  C   UNL     1      18.061  -1.989   2.524  1.00  0.00     0.023 A 
ATOM     39  C   UNL     1      17.592  -1.669   1.234  1.00  0.00     0.012 A 
ATOM     40  C   UNL     1      19.348  -2.545   2.675  1.00  0.00     0.148 A 
ATOM     41  C   UNL     1      18.384  -1.909   0.112  1.00  0.00     0.002 A 
ATOM     42  C   UNL     1      20.146  -2.745   1.555  1.00  0.00     0.091 A 
ATOM     43  F   UNL     1      19.768  -2.854   3.910  1.00  0.00    -0.205 F 
ATOM     44  C   UNL     1      19.663  -2.434   0.273  1.00  0.00     0.022 A 
BRANCH  42  45
ATOM     45  S   UNL     1      21.838  -3.343   1.658  1.00  0.00     0.127 S 
ATOM     46  O   UNL     1      21.724  -4.657   1.026  1.00  0.00    -0.237 OA
ATOM     47  O   UNL     1      22.563  -2.348   0.868  1.00  0.00    -0.237 OA
ATOM     48  O   UNL     1      22.174  -3.362   3.074  1.00  0.00    -0.744 OA
ENDBRANCH  42  45
ENDBRANCH  24  38
BRANCH  25  49
ATOM     49  C   UNL     1      12.487   0.192  10.528  1.00  0.00     0.023 A 
ATOM     50  C   UNL     1      11.747   1.389  10.555  1.00  0.00     0.012 A 
ATOM     51  C   UNL     1      12.366  -0.715  11.600  1.00  0.00     0.148 A 
ATOM     52  C   UNL     1      10.911   1.683  11.634  1.00  0.00     0.002 A 
ATOM     53  C   UNL     1      11.486  -0.445  12.640  1.00  0.00     0.091 A 
ATOM     54  F   UNL     1      13.095  -1.840  11.564  1.00  0.00    -0.205 F 
ATOM     55  C   UNL     1      10.768   0.760  12.667  1.00  0.00     0.022 A 
BRANCH  53  56
ATOM     56  S   UNL     1      11.127  -1.646  13.928  1.00  0.00     0.127 S 
ATOM     57  O   UNL     1      11.799  -1.056  15.082  1.00  0.00    -0.237 OA
ATOM     58  O   UNL     1       9.665  -1.607  13.979  1.00  0.00    -0.237 OA
ATOM     59  O   UNL     1      11.675  -2.908  13.450  1.00  0.00    -0.744 OA
ENDBRANCH  53  56
ENDBRANCH  25  49
BRANCH  37  60
ATOM     60  C   UNL     1      18.261   2.972   7.708  1.00  0.00     0.023 A 
ATOM     61  C   UNL     1      19.168   2.767   8.765  1.00  0.00     0.012 A 
ATOM     62  C   UNL     1      18.314   4.170   6.968  1.00  0.00     0.148 A 
ATOM     63  C   UNL     1      20.109   3.743   9.089  1.00  0.00     0.002 A 
ATOM     64  C   UNL     1      19.285   5.118   7.266  1.00  0.00     0.091 A 
ATOM     65  F   UNL     1      17.432   4.347   5.974  1.00  0.00    -0.205 F 
ATOM     66  C   UNL     1      20.178   4.910   8.331  1.00  0.00     0.022 A 
BRANCH  64  67
ATOM     67  S   UNL     1      19.519   6.606   6.287  1.00  0.00     0.127 S 
ATOM     68  O   UNL     1      19.119   7.649   7.231  1.00  0.00    -0.237 OA
ATOM     69  O   UNL     1      20.952   6.563   5.997  1.00  0.00    -0.237 OA
ATOM     70  O   UNL     1      18.658   6.462   5.121  1.00  0.00    -0.744 OA
ENDBRANCH  64  67
ENDBRANCH  37  60
ENDBRANCH  11  12
ENDBRANCH   4   6
ENDBRANCH   1   2
BRANCH   1  71
ATOM     71  C   UNL     1       8.609  -6.291   0.612  1.00  0.00     0.042 C 
BRANCH  71  72
ATOM     72  C   UNL     1       7.417  -7.024   0.002  1.00  0.00     0.117 C 
BRANCH  72  73
ATOM     73  N   UNL     1       6.271  -6.141  -0.111  1.00  0.00    -0.356 N 
ATOM     74  C   UNL     1       5.835  -5.346  -1.120  1.00  0.00     0.229 C 
ATOM     75  H   UNL     1       5.705  -6.115   0.694  1.00  0.00     0.163 HD
ATOM     76  O   UNL     1       4.900  -4.583  -0.855  1.00  0.00    -0.275 OA
BRANCH  74  77
ATOM     77  C   UNL     1       6.340  -5.440  -2.548  1.00  0.00     0.147 C 
ATOM     78  C   UNL     1       7.829  -5.409  -2.846  1.00  0.00     0.081 C 
ATOM     79  C   UNL     1       5.799  -6.720  -3.213  1.00  0.00     0.226 C 
ATOM     80  C   UNL     1       7.927  -6.228  -4.116  1.00  0.00     0.262 C 
ATOM     81  N   UNL     1       6.964  -7.314  -3.921  1.00  0.00    -0.339 N 
ATOM     82  H   UNL     1       7.379  -8.056  -3.358  1.00  0.00     0.346 HD
ATOM     83  H   UNL     1       6.686  -7.724  -4.812  1.00  0.00     0.346 HD
BRANCH  79  84
ATOM     84  C   UNL     1       4.606  -6.571  -4.156  1.00  0.00     0.013 A 
ATOM     85  C   UNL     1       4.199  -7.687  -4.917  1.00  0.00     0.010 A 
ATOM     86  C   UNL     1       3.842  -5.399  -4.271  1.00  0.00     0.049 A 
ATOM     87  C   UNL     1       3.103  -7.622  -5.785  1.00  0.00     0.004 A 
ATOM     88  C   UNL     1       2.763  -5.338  -5.151  1.00  0.00     0.123 A 
ATOM     89  C   UNL     1       2.388  -6.437  -5.910  1.00  0.00     0.039 A 
ATOM     90  F   UNL     1       2.071  -4.196  -5.264  1.00  0.00    -0.207 F 
ENDBRANCH  79  84
ENDBRANCH  74  77
ENDBRANCH  72  73
ENDBRANCH  71  72
ENDBRANCH   1  71
TORSDOF 14
