REMARK SMILES Cc1cc(C(=O)NCCCNC(=O)c2ccc(-c3c4nc(c(-c5cccc(S(=O)(=O)[O-])c5F)c5ccc([nH]5)c(-c5cccc(S(=O)(=O)[O-])c5F)c5nc(c(-c6cccc(S(=O)(=O)[O-])c6F)c6ccc3[nH]6)C=C5)C=C4)cc2)c([N+](=O)[O-])cc1[N+](=O)[O-]
REMARK SMILES IDX 10 1 9 2 8 3 7 4 5 5 6 6 4 8 1 9 2 10 3 11 82 12 81 13 77 14
REMARK SMILES IDX 83 15 84 16 85 17 78 18 79 19 80 20 11 21 12 22 13 24 14 25
REMARK SMILES IDX 15 26 76 27 16 28 75 29 17 30 18 31 19 32 69 33 20 34 74 35
REMARK SMILES IDX 68 36 70 37 21 38 73 39 67 40 66 41 22 43 54 44 34 45 53 46
REMARK SMILES IDX 35 47 38 48 52 49 71 50 36 51 37 52 51 54 72 55 39 56 23 57
REMARK SMILES IDX 24 58 32 59 25 60 27 61 33 62 26 63 28 64 29 65 30 66 31 67
REMARK SMILES IDX 55 68 56 69 64 70 57 71 59 72 65 73 58 74 60 75 61 76 62 77
REMARK SMILES IDX 63 78 40 79 41 80 49 81 42 82 44 83 50 84 43 85 45 86 46 87
REMARK SMILES IDX 47 88 48 89
REMARK H PARENT 7 7 11 23 70 42 38 53
REMARK Flexibility Score: inf
ROOT
ATOM      1  C   UNL     1      -6.164  -1.428  -1.075  1.00  0.00     0.118 C 
ENDROOT
BRANCH   1   2
ATOM      2  C   UNL     1      -4.906  -0.699  -0.637  1.00  0.00     0.042 C 
BRANCH   2   3
ATOM      3  C   UNL     1      -4.130  -1.310   0.525  1.00  0.00     0.118 C 
BRANCH   3   4
ATOM      4  N   UNL     1      -3.019  -2.110   0.046  1.00  0.00    -0.352 N 
ATOM      5  C   UNL     1      -1.704  -1.887  -0.254  1.00  0.00     0.258 C 
ATOM      6  O   UNL     1      -1.084  -2.870  -0.673  1.00  0.00    -0.269 OA
ATOM      7  H   UNL     1      -3.276  -3.049  -0.100  1.00  0.00     0.163 HD
BRANCH   5   8
ATOM      8  C   UNL     1      -0.910  -0.632  -0.052  1.00  0.00     0.118 A 
ATOM      9  C   UNL     1       2.888  -0.263   0.158  1.00  0.00     0.052 C 
ATOM     10  C   UNL     1       1.451   0.179   0.197  1.00  0.00     0.028 A 
ATOM     11  C   UNL     1       0.481  -0.855   0.114  1.00  0.00     0.031 A 
ATOM     12  C   UNL     1       0.997   1.504   0.240  1.00  0.00     0.279 A 
ATOM     13  C   UNL     1      -0.367   1.765   0.095  1.00  0.00     0.172 A 
ATOM     14  C   UNL     1      -1.280   0.707  -0.106  1.00  0.00     0.289 A 
BRANCH  12  15
ATOM     15  N   UNL     1       1.883   2.670   0.370  1.00  0.00     0.063 N 
ATOM     16  O   UNL     1       1.474   3.746  -0.092  1.00  0.00    -0.258 OA
ATOM     17  O   UNL     1       2.957   2.531   0.966  1.00  0.00    -0.258 OA
ENDBRANCH  12  15
BRANCH  14  18
ATOM     18  N   UNL     1      -2.531   1.163  -0.629  1.00  0.00     0.063 N 
ATOM     19  O   UNL     1      -2.687   1.059  -1.850  1.00  0.00    -0.258 OA
ATOM     20  O   UNL     1      -3.269   1.768   0.160  1.00  0.00    -0.258 OA
ENDBRANCH  14  18
ENDBRANCH   5   8
ENDBRANCH   3   4
ENDBRANCH   2   3
ENDBRANCH   1   2
BRANCH   1  21
ATOM     21  N   UNL     1      -7.253  -0.463  -1.287  1.00  0.00    -0.352 N 
ATOM     22  C   UNL     1      -8.393  -0.570  -2.058  1.00  0.00     0.251 C 
ATOM     23  H   UNL     1      -7.154   0.390  -0.805  1.00  0.00     0.163 HD
ATOM     24  O   UNL     1      -9.196   0.353  -2.135  1.00  0.00    -0.269 OA
BRANCH  22  25
ATOM     25  C   UNL     1      -8.639  -1.869  -2.699  1.00  0.00     0.039 A 
ATOM     26  C   UNL     1      -9.577  -2.694  -2.075  1.00  0.00     0.014 A 
ATOM     27  C   UNL     1      -7.647  -2.380  -3.534  1.00  0.00     0.014 A 
ATOM     28  C   UNL     1      -9.348  -4.061  -2.053  1.00  0.00     0.010 A 
ATOM     29  C   UNL     1      -7.379  -3.730  -3.448  1.00  0.00     0.010 A 
ATOM     30  C   UNL     1      -8.179  -4.545  -2.634  1.00  0.00    -0.014 A 
BRANCH  30  31
ATOM     31  C   UNL     1      -7.715  -5.909  -2.457  1.00  0.00     0.031 A 
ATOM     32  C   UNL     1      -8.183  -6.929  -3.402  1.00  0.00     0.074 A 
ATOM     33  C   UNL     1      -6.868  -6.243  -1.460  1.00  0.00     0.049 A 
ATOM     34  N   UNL     1      -8.184  -8.193  -3.162  1.00  0.00    -0.248 NA
ATOM     35  C   UNL     1      -8.773  -6.567  -4.681  1.00  0.00     0.031 C 
ATOM     36  C   UNL     1      -6.106  -7.479  -1.327  1.00  0.00     0.029 A 
ATOM     37  N   UNL     1      -6.727  -5.618  -0.219  1.00  0.00    -0.354 N 
ATOM     38  C   UNL     1      -8.502  -8.827  -4.341  1.00  0.00     0.074 A 
ATOM     39  C   UNL     1      -8.974  -7.775  -5.208  1.00  0.00     0.031 C 
ATOM     40  C   UNL     1      -5.819  -7.673  -0.032  1.00  0.00     0.029 A 
ATOM     41  C   UNL     1      -6.522  -6.650   0.721  1.00  0.00     0.049 A 
ATOM     42  H   UNL     1      -6.763  -4.651  -0.036  1.00  0.00     0.167 HD
ATOM     43  C   UNL     1      -8.172 -10.141  -4.480  1.00  0.00     0.034 A 
ATOM     44  C   UNL     1      -7.320  -6.861   1.810  1.00  0.00     0.034 A 
ATOM     45  C   UNL     1      -7.711 -10.710  -3.199  1.00  0.00     0.049 A 
ATOM     46  C   UNL     1      -7.922  -8.261   1.859  1.00  0.00     0.074 A 
ATOM     47  C   UNL     1      -6.468 -11.004  -2.659  1.00  0.00     0.029 A 
ATOM     48  N   UNL     1      -8.610 -10.795  -2.143  1.00  0.00    -0.354 N 
ATOM     49  N   UNL     1      -7.696  -9.210   0.993  1.00  0.00    -0.248 NA
ATOM     50  C   UNL     1      -8.946  -8.635   2.832  1.00  0.00     0.031 C 
ATOM     51  C   UNL     1      -6.631 -11.251  -1.262  1.00  0.00     0.029 A 
ATOM     52  C   UNL     1      -7.975 -11.130  -0.955  1.00  0.00     0.049 A 
ATOM     53  H   UNL     1      -9.578 -10.638  -2.228  1.00  0.00     0.167 HD
ATOM     54  C   UNL     1      -8.631 -10.209   1.151  1.00  0.00     0.074 A 
ATOM     55  C   UNL     1      -9.380  -9.801   2.329  1.00  0.00     0.031 C 
ATOM     56  C   UNL     1      -8.777 -11.244   0.260  1.00  0.00     0.034 A 
BRANCH  43  57
ATOM     57  C   UNL     1      -7.972 -10.835  -5.824  1.00  0.00     0.023 A 
ATOM     58  C   UNL     1      -7.191 -12.012  -5.831  1.00  0.00     0.012 A 
ATOM     59  C   UNL     1      -8.399 -10.382  -7.095  1.00  0.00     0.148 A 
ATOM     60  C   UNL     1      -6.766 -12.628  -7.016  1.00  0.00     0.002 A 
ATOM     61  C   UNL     1      -7.923 -10.951  -8.279  1.00  0.00     0.091 A 
ATOM     62  F   UNL     1      -9.346  -9.451  -7.192  1.00  0.00    -0.205 F 
ATOM     63  C   UNL     1      -7.099 -12.075  -8.242  1.00  0.00     0.022 A 
BRANCH  61  64
ATOM     64  S   UNL     1      -8.268 -10.239  -9.901  1.00  0.00     0.127 S 
ATOM     65  O   UNL     1      -6.923 -10.065 -10.451  1.00  0.00    -0.237 OA
ATOM     66  O   UNL     1      -9.056 -11.289 -10.543  1.00  0.00    -0.237 OA
ATOM     67  O   UNL     1      -8.977  -8.988  -9.658  1.00  0.00    -0.744 OA
ENDBRANCH  61  64
ENDBRANCH  43  57
BRANCH  44  68
ATOM     68  C   UNL     1      -8.017  -5.620   2.271  1.00  0.00     0.023 A 
ATOM     69  C   UNL     1      -7.206  -4.513   2.623  1.00  0.00     0.012 A 
ATOM     70  C   UNL     1      -9.369  -5.396   1.966  1.00  0.00     0.148 A 
ATOM     71  C   UNL     1      -7.682  -3.208   2.475  1.00  0.00     0.002 A 
ATOM     72  C   UNL     1      -9.841  -4.093   1.848  1.00  0.00     0.091 A 
ATOM     73  F   UNL     1     -10.165  -6.440   1.711  1.00  0.00    -0.205 F 
ATOM     74  C   UNL     1      -8.987  -2.999   2.042  1.00  0.00     0.022 A 
BRANCH  72  75
ATOM     75  S   UNL     1     -11.532  -3.806   1.319  1.00  0.00     0.127 S 
ATOM     76  O   UNL     1     -12.254  -3.924   2.581  1.00  0.00    -0.237 OA
ATOM     77  O   UNL     1     -11.469  -2.454   0.768  1.00  0.00    -0.237 OA
ATOM     78  O   UNL     1     -11.772  -4.845   0.327  1.00  0.00    -0.744 OA
ENDBRANCH  72  75
ENDBRANCH  44  68
BRANCH  56  79
ATOM     79  C   UNL     1      -9.753 -12.414   0.414  1.00  0.00     0.023 A 
ATOM     80  C   UNL     1     -10.335 -12.749   1.653  1.00  0.00     0.012 A 
ATOM     81  C   UNL     1     -10.065 -13.286  -0.666  1.00  0.00     0.148 A 
ATOM     82  C   UNL     1     -11.286 -13.768   1.787  1.00  0.00     0.002 A 
ATOM     83  C   UNL     1     -10.986 -14.323  -0.527  1.00  0.00     0.091 A 
ATOM     84  F   UNL     1      -9.426 -13.159  -1.833  1.00  0.00    -0.205 F 
ATOM     85  C   UNL     1     -11.629 -14.543   0.691  1.00  0.00     0.022 A 
BRANCH  83  86
ATOM     86  S   UNL     1     -11.376 -15.458  -1.868  1.00  0.00     0.127 S 
ATOM     87  O   UNL     1     -10.757 -16.695  -1.392  1.00  0.00    -0.237 OA
ATOM     88  O   UNL     1     -12.839 -15.462  -1.845  1.00  0.00    -0.237 OA
ATOM     89  O   UNL     1     -10.788 -14.888  -3.070  1.00  0.00    -0.744 OA
ENDBRANCH  83  86
ENDBRANCH  56  79
ENDBRANCH  30  31
ENDBRANCH  22  25
ENDBRANCH   1  21
TORSDOF 15
