REMARK SMILES Nc1nn(-c2ccc(Cl)cc2)nc1C(=O)NCCCNC(=O)c1ccc(-c2c3nc(c(-c4cccc(S(=O)(=O)[O-])c4F)c4ccc([nH]4)c(-c4cccc(S(=O)(=O)[O-])c4F)c4nc(c(-c5cccc(S(=O)(=O)[O-])c5F)c5ccc2[nH]5)C=C4)C=C3)cc1
REMARK SMILES IDX 19 1 18 2 17 3 16 4 14 5 15 6 13 8 2 9 3 10 4 11 12 12 1 13
REMARK SMILES IDX 5 16 6 17 11 18 7 19 10 20 8 21 9 22 20 23 21 24 22 26 23 27
REMARK SMILES IDX 24 28 85 29 25 30 84 31 26 32 27 33 28 34 78 35 29 36 83 37
REMARK SMILES IDX 77 38 79 39 30 40 82 41 76 42 75 43 31 45 63 46 43 47 62 48
REMARK SMILES IDX 44 49 47 50 61 51 80 52 45 53 46 54 60 56 81 57 48 58 32 59
REMARK SMILES IDX 33 60 41 61 34 62 36 63 42 64 35 65 37 66 38 67 39 68 40 69
REMARK SMILES IDX 64 70 65 71 73 72 66 73 68 74 74 75 67 76 69 77 70 78 71 79
REMARK SMILES IDX 72 80 49 81 50 82 58 83 51 84 53 85 59 86 52 87 54 88 55 89
REMARK SMILES IDX 56 90 57 91
REMARK H PARENT 16 7 1 14 1 15 20 25 79 44 47 55
REMARK Flexibility Score: inf
ROOT
ATOM      1  C   UNL     1       3.630  -0.807   2.609  1.00  0.00     0.118 C 
ENDROOT
BRANCH   1   2
ATOM      2  C   UNL     1       2.487  -0.551   1.635  1.00  0.00     0.042 C 
BRANCH   2   3
ATOM      3  C   UNL     1       2.881  -0.969   0.216  1.00  0.00     0.118 C 
BRANCH   3   4
ATOM      4  N   UNL     1       2.502  -2.327  -0.086  1.00  0.00    -0.350 N 
ATOM      5  C   UNL     1       1.426  -2.892  -0.719  1.00  0.00     0.275 C 
ATOM      6  O   UNL     1       1.530  -4.112  -0.882  1.00  0.00    -0.267 OA
ATOM      7  H   UNL     1       3.158  -2.990   0.230  1.00  0.00     0.163 HD
BRANCH   5   8
ATOM      8  C   UNL     1       0.252  -2.167  -1.238  1.00  0.00     0.194 A 
ATOM      9  C   UNL     1      -0.209  -0.816  -1.283  1.00  0.00     0.179 A 
ATOM     10  N   UNL     1      -1.280  -0.715  -2.069  1.00  0.00    -0.130 NA
ATOM     11  N   UNL     1      -1.549  -2.005  -2.338  1.00  0.00    -0.149 N 
ATOM     12  N   UNL     1      -0.714  -2.912  -1.827  1.00  0.00    -0.141 NA
BRANCH   9  13
ATOM     13  N   UNL     1       0.261   0.290  -0.681  1.00  0.00    -0.380 N 
ATOM     14  H   UNL     1      -0.185   1.156  -0.824  1.00  0.00     0.158 HD
ATOM     15  H   UNL     1       1.051   0.234  -0.096  1.00  0.00     0.158 HD
ENDBRANCH   9  13
BRANCH  11  16
ATOM     16  C   UNL     1      -2.644  -2.390  -3.142  1.00  0.00     0.086 A 
ATOM     17  C   UNL     1      -3.324  -3.582  -2.856  1.00  0.00     0.032 A 
ATOM     18  C   UNL     1      -3.026  -1.593  -4.227  1.00  0.00     0.032 A 
ATOM     19  C   UNL     1      -4.415  -3.957  -3.642  1.00  0.00     0.023 A 
ATOM     20  C   UNL     1      -4.077  -2.009  -5.047  1.00  0.00     0.023 A 
ATOM     21  C   UNL     1      -4.777  -3.178  -4.741  1.00  0.00     0.041 A 
ATOM     22  Cl  UNL     1      -6.097  -3.662  -5.734  1.00  0.00    -0.084 Cl
ENDBRANCH  11  16
ENDBRANCH   5   8
ENDBRANCH   3   4
ENDBRANCH   2   3
ENDBRANCH   1   2
BRANCH   1  23
ATOM     23  N   UNL     1       4.766   0.098   2.365  1.00  0.00    -0.352 N 
ATOM     24  C   UNL     1       5.993   0.149   3.002  1.00  0.00     0.251 C 
ATOM     25  H   UNL     1       4.633   0.759   1.648  1.00  0.00     0.163 HD
ATOM     26  O   UNL     1       6.711   1.129   2.905  1.00  0.00    -0.269 OA
BRANCH  24  27
ATOM     27  C   UNL     1       6.412  -1.019   3.794  1.00  0.00     0.039 A 
ATOM     28  C   UNL     1       6.996  -0.879   5.058  1.00  0.00     0.014 A 
ATOM     29  C   UNL     1       6.143  -2.272   3.259  1.00  0.00     0.014 A 
ATOM     30  C   UNL     1       7.218  -2.023   5.821  1.00  0.00     0.010 A 
ATOM     31  C   UNL     1       6.187  -3.365   4.075  1.00  0.00     0.010 A 
ATOM     32  C   UNL     1       6.785  -3.260   5.329  1.00  0.00    -0.014 A 
BRANCH  32  33
ATOM     33  C   UNL     1       6.780  -4.462   6.157  1.00  0.00     0.031 A 
ATOM     34  C   UNL     1       5.961  -4.333   7.398  1.00  0.00     0.074 A 
ATOM     35  C   UNL     1       7.225  -5.637   5.653  1.00  0.00     0.049 A 
ATOM     36  N   UNL     1       6.356  -4.465   8.621  1.00  0.00    -0.248 NA
ATOM     37  C   UNL     1       4.577  -3.834   7.282  1.00  0.00     0.031 C 
ATOM     38  C   UNL     1       7.778  -5.873   4.309  1.00  0.00     0.029 A 
ATOM     39  N   UNL     1       7.095  -6.902   6.138  1.00  0.00    -0.354 N 
ATOM     40  C   UNL     1       5.207  -4.338   9.401  1.00  0.00     0.074 A 
ATOM     41  C   UNL     1       4.223  -3.712   8.563  1.00  0.00     0.031 C 
ATOM     42  C   UNL     1       7.651  -7.178   3.991  1.00  0.00     0.029 A 
ATOM     43  C   UNL     1       7.162  -7.893   5.152  1.00  0.00     0.049 A 
ATOM     44  H   UNL     1       6.965  -7.102   7.093  1.00  0.00     0.167 HD
ATOM     45  C   UNL     1       5.067  -5.039  10.561  1.00  0.00     0.034 A 
ATOM     46  C   UNL     1       6.777  -9.191   5.259  1.00  0.00     0.034 A 
ATOM     47  C   UNL     1       6.338  -5.567  10.996  1.00  0.00     0.049 A 
ATOM     48  C   UNL     1       6.701  -9.503   6.703  1.00  0.00     0.074 A 
ATOM     49  C   UNL     1       7.570  -5.020  11.293  1.00  0.00     0.029 A 
ATOM     50  N   UNL     1       6.558  -6.905  10.770  1.00  0.00    -0.354 N 
ATOM     51  N   UNL     1       7.747  -9.528   7.480  1.00  0.00    -0.248 NA
ATOM     52  C   UNL     1       5.425  -9.311   7.371  1.00  0.00     0.031 C 
ATOM     53  C   UNL     1       8.515  -5.942  10.757  1.00  0.00     0.029 A 
ATOM     54  C   UNL     1       7.817  -7.042  10.255  1.00  0.00     0.049 A 
ATOM     55  H   UNL     1       5.921  -7.635  10.948  1.00  0.00     0.167 HD
ATOM     56  C   UNL     1       7.327  -8.863   8.623  1.00  0.00     0.074 A 
ATOM     57  C   UNL     1       5.865  -8.863   8.550  1.00  0.00     0.031 C 
ATOM     58  C   UNL     1       8.199  -8.100   9.347  1.00  0.00     0.034 A 
BRANCH  45  59
ATOM     59  C   UNL     1       3.767  -5.617  11.090  1.00  0.00     0.023 A 
ATOM     60  C   UNL     1       3.819  -6.252  12.353  1.00  0.00     0.012 A 
ATOM     61  C   UNL     1       2.602  -5.836  10.319  1.00  0.00     0.148 A 
ATOM     62  C   UNL     1       2.813  -7.123  12.784  1.00  0.00     0.002 A 
ATOM     63  C   UNL     1       1.569  -6.645  10.783  1.00  0.00     0.091 A 
ATOM     64  F   UNL     1       2.521  -5.375   9.070  1.00  0.00    -0.205 F 
ATOM     65  C   UNL     1       1.686  -7.320  11.998  1.00  0.00     0.022 A 
BRANCH  63  66
ATOM     66  S   UNL     1       0.070  -6.904   9.823  1.00  0.00     0.127 S 
ATOM     67  O   UNL     1       0.246  -8.283   9.376  1.00  0.00    -0.237 OA
ATOM     68  O   UNL     1      -0.968  -6.705  10.835  1.00  0.00    -0.237 OA
ATOM     69  O   UNL     1       0.089  -5.886   8.780  1.00  0.00    -0.744 OA
ENDBRANCH  63  66
ENDBRANCH  45  59
BRANCH  46  70
ATOM     70  C   UNL     1       6.246 -10.120   4.230  1.00  0.00     0.023 A 
ATOM     71  C   UNL     1       6.265 -11.512   4.457  1.00  0.00     0.012 A 
ATOM     72  C   UNL     1       5.473  -9.639   3.150  1.00  0.00     0.148 A 
ATOM     73  C   UNL     1       5.519 -12.389   3.656  1.00  0.00     0.002 A 
ATOM     74  C   UNL     1       4.742 -10.515   2.352  1.00  0.00     0.091 A 
ATOM     75  F   UNL     1       5.377  -8.316   2.966  1.00  0.00    -0.205 F 
ATOM     76  C   UNL     1       4.752 -11.890   2.608  1.00  0.00     0.022 A 
BRANCH  74  77
ATOM     77  S   UNL     1       3.709  -9.930   1.001  1.00  0.00     0.127 S 
ATOM     78  O   UNL     1       4.077 -10.845  -0.080  1.00  0.00    -0.237 OA
ATOM     79  O   UNL     1       2.368 -10.129   1.544  1.00  0.00    -0.237 OA
ATOM     80  O   UNL     1       4.108  -8.546   0.777  1.00  0.00    -0.744 OA
ENDBRANCH  74  77
ENDBRANCH  46  70
BRANCH  58  81
ATOM     81  C   UNL     1       9.668  -8.184   9.009  1.00  0.00     0.023 A 
ATOM     82  C   UNL     1      10.191  -7.777   7.763  1.00  0.00     0.012 A 
ATOM     83  C   UNL     1      10.560  -8.504  10.044  1.00  0.00     0.148 A 
ATOM     84  C   UNL     1      11.571  -7.709   7.550  1.00  0.00     0.002 A 
ATOM     85  C   UNL     1      11.929  -8.387   9.846  1.00  0.00     0.091 A 
ATOM     86  F   UNL     1      10.048  -8.885  11.224  1.00  0.00    -0.205 F 
ATOM     87  C   UNL     1      12.441  -8.000   8.597  1.00  0.00     0.022 A 
BRANCH  85  88
ATOM     88  S   UNL     1      13.086  -8.618  11.195  1.00  0.00     0.127 S 
ATOM     89  O   UNL     1      13.652  -9.930  10.890  1.00  0.00    -0.237 OA
ATOM     90  O   UNL     1      14.008  -7.495  11.014  1.00  0.00    -0.237 OA
ATOM     91  O   UNL     1      12.296  -8.543  12.418  1.00  0.00    -0.744 OA
ENDBRANCH  85  88
ENDBRANCH  58  81
ENDBRANCH  32  33
ENDBRANCH  24  27
ENDBRANCH   1  23
TORSDOF 15
