REMARK SMILES CCCc1cc(C(N)=O)c(NC(=O)[C@H]2CC(C)=C(C)C[C@@H]2C(=O)NCCCNC(=O)c2ccc(-c3c4nc(c(-c5cccc(S(=O)(=O)[O-])c5F)c5ccc([nH]5)c(-c5cccc(S(=O)(=O)[O-])c5F)c5nc(c(-c6cccc(S(=O)(=O)[O-])c6F)c6ccc3[nH]6)C=C5)C=C4)cc2)s1
REMARK SMILES IDX 25 1 24 2 22 3 23 4 21 6 14 7 15 8 16 9 20 10 17 11 18 12
REMARK SMILES IDX 19 13 12 14 11 15 13 17 10 18 4 19 5 20 94 21 6 22 3 23 2 24
REMARK SMILES IDX 1 25 7 26 8 27 9 28 26 31 27 32 28 33 29 34 30 36 31 37
REMARK SMILES IDX 32 38 93 39 33 40 92 41 34 42 35 43 36 44 86 45 37 46 91 47
REMARK SMILES IDX 85 48 87 49 38 50 90 51 84 52 83 53 39 55 71 56 51 57 70 58
REMARK SMILES IDX 52 59 55 60 69 61 88 62 53 63 54 64 68 66 89 67 56 68 40 69
REMARK SMILES IDX 41 70 49 71 42 72 44 73 50 74 43 75 45 76 46 77 47 78 48 79
REMARK SMILES IDX 72 80 73 81 81 82 74 83 76 84 82 85 75 86 77 87 78 88 79 89
REMARK SMILES IDX 80 90 57 91 58 92 66 93 59 94 61 95 67 96 60 97 62 98 63 99
REMARK SMILES IDX 64 100 65 101
REMARK H PARENT 24 5 11 16 8 29 8 30 28 35 87 54 55 65
REMARK Flexibility Score: inf
ROOT
ATOM      1  C   UNL     1       5.600   8.450   1.453  1.00  0.00     0.117 C 
ENDROOT
BRANCH   1   2
ATOM      2  N   UNL     1       5.437   7.780   2.736  1.00  0.00    -0.356 N 
ATOM      3  C   UNL     1       4.690   6.674   3.049  1.00  0.00     0.224 C 
ATOM      4  O   UNL     1       4.818   6.193   4.175  1.00  0.00    -0.275 OA
ATOM      5  H   UNL     1       5.935   8.178   3.486  1.00  0.00     0.163 HD
BRANCH   3   6
ATOM      6  C   UNL     1       3.743   6.099   1.992  1.00  0.00     0.095 C 
ATOM      7  C   UNL     1       2.673   5.146   2.628  1.00  0.00     0.095 C 
ATOM      8  C   UNL     1       2.771   3.705   2.121  1.00  0.00     0.045 C 
ATOM      9  C   UNL     1       3.911   3.226   1.277  1.00  0.00    -0.074 C 
ATOM     10  C   UNL     1       4.561   5.553   0.801  1.00  0.00     0.045 C 
ATOM     11  C   UNL     1       3.978   1.729   1.143  1.00  0.00     0.039 C 
ATOM     12  C   UNL     1       4.713   4.080   0.632  1.00  0.00    -0.074 C 
ATOM     13  C   UNL     1       5.758   3.643  -0.358  1.00  0.00     0.039 C 
BRANCH   7  14
ATOM     14  C   UNL     1       1.282   5.833   2.540  1.00  0.00     0.229 C 
ATOM     15  N   UNL     1       0.052   5.261   2.457  1.00  0.00    -0.317 N 
ATOM     16  H   UNL     1      -0.656   5.920   2.273  1.00  0.00     0.170 HD
ATOM     17  O   UNL     1       1.227   7.075   2.543  1.00  0.00    -0.274 OA
BRANCH  15  18
ATOM     18  C   UNL     1      -0.439   3.981   2.567  1.00  0.00     0.108 A 
ATOM     19  C   UNL     1      -0.402   1.554   2.701  1.00  0.00     0.008 A 
ATOM     20  C   UNL     1      -1.506   2.014   2.011  1.00  0.00     0.031 A 
ATOM     21  S   UNL     1       0.242   2.845   3.634  1.00  0.00    -0.122 S 
ATOM     22  C   UNL     1      -1.581   3.454   1.979  1.00  0.00     0.074 A 
BRANCH  19  23
ATOM     23  C   UNL     1       0.212   0.186   2.772  1.00  0.00     0.046 C 
BRANCH  23  24
ATOM     24  C   UNL     1      -0.059  -0.689   1.539  1.00  0.00     0.002 C 
ATOM     25  C   UNL     1       0.607  -0.196   0.259  1.00  0.00     0.004 C 
ENDBRANCH  23  24
ENDBRANCH  19  23
BRANCH  22  26
ATOM     26  C   UNL     1      -2.599   4.184   1.235  1.00  0.00     0.251 C 
ATOM     27  N   UNL     1      -2.895   5.437   1.690  1.00  0.00    -0.366 N 
ATOM     28  O   UNL     1      -3.210   3.700   0.291  1.00  0.00    -0.269 OA
ATOM     29  H   UNL     1      -2.397   5.816   2.450  1.00  0.00     0.159 HD
ATOM     30  H   UNL     1      -3.607   5.962   1.258  1.00  0.00     0.159 HD
ENDBRANCH  22  26
ENDBRANCH  15  18
ENDBRANCH   7  14
ENDBRANCH   3   6
ENDBRANCH   1   2
BRANCH   1  31
ATOM     31  C   UNL     1       5.357   9.946   1.504  1.00  0.00     0.042 C 
BRANCH  31  32
ATOM     32  C   UNL     1       6.285  10.702   2.439  1.00  0.00     0.118 C 
BRANCH  32  33
ATOM     33  N   UNL     1       7.695  10.557   2.094  1.00  0.00    -0.352 N 
ATOM     34  C   UNL     1       8.609  11.493   1.670  1.00  0.00     0.251 C 
ATOM     35  H   UNL     1       8.049   9.643   2.179  1.00  0.00     0.163 HD
ATOM     36  O   UNL     1       9.717  11.127   1.287  1.00  0.00    -0.269 OA
BRANCH  34  37
ATOM     37  C   UNL     1       8.253  12.928   1.649  1.00  0.00     0.039 A 
ATOM     38  C   UNL     1       8.635  13.708   0.553  1.00  0.00     0.014 A 
ATOM     39  C   UNL     1       7.543  13.507   2.702  1.00  0.00     0.014 A 
ATOM     40  C   UNL     1       8.231  15.044   0.478  1.00  0.00     0.010 A 
ATOM     41  C   UNL     1       7.057  14.802   2.579  1.00  0.00     0.010 A 
ATOM     42  C   UNL     1       7.402  15.589   1.472  1.00  0.00    -0.014 A 
BRANCH  42  43
ATOM     43  C   UNL     1       6.889  16.981   1.391  1.00  0.00     0.031 A 
ATOM     44  C   UNL     1       7.241  17.970   2.471  1.00  0.00     0.074 A 
ATOM     45  C   UNL     1       6.030  17.324   0.411  1.00  0.00     0.049 A 
ATOM     46  N   UNL     1       6.804  19.189   2.648  1.00  0.00    -0.248 NA
ATOM     47  C   UNL     1       8.181  17.516   3.511  1.00  0.00     0.031 C 
ATOM     48  C   UNL     1       5.550  16.433  -0.649  1.00  0.00     0.029 A 
ATOM     49  N   UNL     1       5.386  18.510   0.161  1.00  0.00    -0.354 N 
ATOM     50  C   UNL     1       7.380  19.630   3.834  1.00  0.00     0.074 A 
ATOM     51  C   UNL     1       8.165  18.535   4.357  1.00  0.00     0.031 C 
ATOM     52  C   UNL     1       4.697  17.107  -1.439  1.00  0.00     0.029 A 
ATOM     53  C   UNL     1       4.548  18.466  -0.930  1.00  0.00     0.049 A 
ATOM     54  H   UNL     1       5.511  19.317   0.712  1.00  0.00     0.167 HD
ATOM     55  C   UNL     1       7.298  20.850   4.416  1.00  0.00     0.034 A 
ATOM     56  C   UNL     1       3.753  19.416  -1.459  1.00  0.00     0.034 A 
ATOM     57  C   UNL     1       6.575  21.959   3.857  1.00  0.00     0.049 A 
ATOM     58  C   UNL     1       3.735  20.783  -0.829  1.00  0.00     0.074 A 
ATOM     59  C   UNL     1       6.482  23.254   4.333  1.00  0.00     0.029 A 
ATOM     60  N   UNL     1       5.836  21.907   2.686  1.00  0.00    -0.354 N 
ATOM     61  N   UNL     1       4.393  21.218   0.218  1.00  0.00    -0.248 NA
ATOM     62  C   UNL     1       2.894  21.802  -1.475  1.00  0.00     0.031 C 
ATOM     63  C   UNL     1       5.692  23.989   3.442  1.00  0.00     0.029 A 
ATOM     64  C   UNL     1       5.296  23.150   2.413  1.00  0.00     0.049 A 
ATOM     65  H   UNL     1       5.713  21.103   2.131  1.00  0.00     0.167 HD
ATOM     66  C   UNL     1       4.078  22.567   0.333  1.00  0.00     0.074 A 
ATOM     67  C   UNL     1       3.185  22.883  -0.763  1.00  0.00     0.031 C 
ATOM     68  C   UNL     1       4.473  23.460   1.273  1.00  0.00     0.034 A 
BRANCH  55  69
ATOM     69  C   UNL     1       8.086  21.072   5.679  1.00  0.00     0.023 A 
ATOM     70  C   UNL     1       9.489  21.190   5.597  1.00  0.00     0.012 A 
ATOM     71  C   UNL     1       7.453  21.213   6.928  1.00  0.00     0.148 A 
ATOM     72  C   UNL     1      10.253  21.413   6.741  1.00  0.00     0.002 A 
ATOM     73  C   UNL     1       8.218  21.475   8.060  1.00  0.00     0.091 A 
ATOM     74  F   UNL     1       6.121  21.075   6.991  1.00  0.00    -0.205 F 
ATOM     75  C   UNL     1       9.617  21.565   7.970  1.00  0.00     0.022 A 
BRANCH  73  76
ATOM     76  S   UNL     1       7.490  21.757   9.678  1.00  0.00     0.127 S 
ATOM     77  O   UNL     1       7.833  20.519  10.377  1.00  0.00    -0.237 OA
ATOM     78  O   UNL     1       8.215  22.940  10.143  1.00  0.00    -0.237 OA
ATOM     79  O   UNL     1       6.068  21.972   9.445  1.00  0.00    -0.744 OA
ENDBRANCH  73  76
ENDBRANCH  55  69
BRANCH  56  80
ATOM     80  C   UNL     1       2.987  19.142  -2.708  1.00  0.00     0.023 A 
ATOM     81  C   UNL     1       3.393  19.762  -3.907  1.00  0.00     0.012 A 
ATOM     82  C   UNL     1       1.883  18.269  -2.729  1.00  0.00     0.148 A 
ATOM     83  C   UNL     1       2.695  19.544  -5.095  1.00  0.00     0.002 A 
ATOM     84  C   UNL     1       1.222  18.017  -3.928  1.00  0.00     0.091 A 
ATOM     85  F   UNL     1       1.496  17.700  -1.578  1.00  0.00    -0.205 F 
ATOM     86  C   UNL     1       1.616  18.665  -5.108  1.00  0.00     0.022 A 
BRANCH  84  87
ATOM     87  S   UNL     1      -0.092  16.797  -4.043  1.00  0.00     0.127 S 
ATOM     88  O   UNL     1      -1.287  17.632  -3.954  1.00  0.00    -0.237 OA
ATOM     89  O   UNL     1       0.147  16.203  -5.360  1.00  0.00    -0.237 OA
ATOM     90  O   UNL     1       0.140  15.884  -2.931  1.00  0.00    -0.744 OA
ENDBRANCH  84  87
ENDBRANCH  56  80
BRANCH  68  91
ATOM     91  C   UNL     1       3.980  24.875   1.140  1.00  0.00     0.023 A 
ATOM     92  C   UNL     1       2.649  25.181   1.484  1.00  0.00     0.012 A 
ATOM     93  C   UNL     1       4.854  25.910   0.755  1.00  0.00     0.148 A 
ATOM     94  C   UNL     1       2.188  26.495   1.423  1.00  0.00     0.002 A 
ATOM     95  C   UNL     1       4.398  27.223   0.736  1.00  0.00     0.091 A 
ATOM     96  F   UNL     1       6.111  25.593   0.410  1.00  0.00    -0.205 F 
ATOM     97  C   UNL     1       3.064  27.516   1.061  1.00  0.00     0.022 A 
BRANCH  95  98
ATOM     98  S   UNL     1       5.486  28.605   0.368  1.00  0.00     0.127 S 
ATOM     99  O   UNL     1       5.128  28.905  -1.017  1.00  0.00    -0.237 OA
ATOM    100  O   UNL     1       5.056  29.611   1.340  1.00  0.00    -0.237 OA
ATOM    101  O   UNL     1       6.839  28.109   0.577  1.00  0.00    -0.744 OA
ENDBRANCH  95  98
ENDBRANCH  68  91
ENDBRANCH  42  43
ENDBRANCH  34  37
ENDBRANCH  32  33
ENDBRANCH  31  32
ENDBRANCH   1  31
TORSDOF 18
