REMARK SMILES C[C@@H](C(=O)NCCCNC(=O)c1ccc(-c2c3nc(c(-c4cccc(S(=O)(=O)[O-])c4F)c4ccc([nH]4)c(-c4cccc(S(=O)(=O)[O-])c4F)c4nc(c(-c5cccc(S(=O)(=O)[O-])c5F)c5ccc2[nH]5)C=C4)C=C3)cc1)c1cccc(C(=O)c2ccccc2)c1
REMARK SMILES IDX 7 1 6 2 5 3 3 4 4 5 2 7 1 8 75 9 76 10 88 11 77 12 79 13
REMARK SMILES IDX 78 14 80 15 81 16 82 17 83 18 87 19 84 20 86 21 85 22 8 23
REMARK SMILES IDX 9 24 10 25 11 27 12 28 13 29 74 30 14 31 73 32 15 33 16 34
REMARK SMILES IDX 17 35 67 36 18 37 72 38 66 39 68 40 19 41 71 42 65 43 64 44
REMARK SMILES IDX 20 46 52 47 32 48 51 49 33 50 36 51 50 52 69 53 34 54 35 55
REMARK SMILES IDX 49 57 70 58 37 59 21 60 22 61 30 62 23 63 25 64 31 65 24 66
REMARK SMILES IDX 26 67 27 68 28 69 29 70 53 71 54 72 62 73 55 74 57 75 63 76
REMARK SMILES IDX 56 77 58 78 59 79 60 80 61 81 38 82 39 83 47 84 40 85 42 86
REMARK SMILES IDX 48 87 41 88 43 89 44 90 45 91 46 92
REMARK H PARENT 5 6 9 26 68 45 36 56
REMARK Flexibility Score: inf
ROOT
ATOM      1  C   UNL     1       4.435  -0.580  -1.087  1.00  0.00     0.042 C 
ENDROOT
BRANCH   1   2
ATOM      2  C   UNL     1       3.583   0.376  -1.921  1.00  0.00     0.117 C 
BRANCH   2   3
ATOM      3  N   UNL     1       2.522  -0.312  -2.630  1.00  0.00    -0.356 N 
ATOM      4  C   UNL     1       1.175  -0.335  -2.419  1.00  0.00     0.227 C 
ATOM      5  O   UNL     1       0.513  -0.989  -3.228  1.00  0.00    -0.274 OA
ATOM      6  H   UNL     1       2.825  -0.854  -3.393  1.00  0.00     0.163 HD
BRANCH   4   7
ATOM      7  C   UNL     1       0.545   0.457  -1.256  1.00  0.00     0.105 C 
ATOM      8  C   UNL     1       0.994  -0.052   0.120  1.00  0.00     0.023 C 
BRANCH   7   9
ATOM      9  C   UNL     1      -0.984   0.433  -1.268  1.00  0.00    -0.035 A 
ATOM     10  C   UNL     1      -1.725   1.619  -1.195  1.00  0.00     0.004 A 
ATOM     11  C   UNL     1      -1.674  -0.792  -1.258  1.00  0.00     0.016 A 
ATOM     12  C   UNL     1      -3.119   1.577  -1.102  1.00  0.00     0.001 A 
ATOM     13  C   UNL     1      -3.066  -0.847  -1.133  1.00  0.00     0.023 A 
ATOM     14  C   UNL     1      -3.786   0.350  -1.065  1.00  0.00     0.012 A 
BRANCH  13  15
ATOM     15  C   UNL     1      -3.805  -2.144  -1.098  1.00  0.00     0.193 C 
ATOM     16  O   UNL     1      -5.027  -2.164  -1.221  1.00  0.00    -0.289 OA
BRANCH  15  17
ATOM     17  C   UNL     1      -3.084  -3.433  -0.960  1.00  0.00     0.022 A 
ATOM     18  C   UNL     1      -3.321  -4.431  -1.909  1.00  0.00     0.012 A 
ATOM     19  C   UNL     1      -2.170  -3.651   0.079  1.00  0.00     0.012 A 
ATOM     20  C   UNL     1      -2.603  -5.626  -1.852  1.00  0.00     0.001 A 
ATOM     21  C   UNL     1      -1.449  -4.845   0.126  1.00  0.00     0.001 A 
ATOM     22  C   UNL     1      -1.661  -5.827  -0.843  1.00  0.00     0.000 A 
ENDBRANCH  15  17
ENDBRANCH  13  15
ENDBRANCH   7   9
ENDBRANCH   4   7
ENDBRANCH   2   3
ENDBRANCH   1   2
BRANCH   1  23
ATOM     23  C   UNL     1       5.163  -1.660  -1.887  1.00  0.00     0.118 C 
BRANCH  23  24
ATOM     24  N   UNL     1       6.073  -1.111  -2.880  1.00  0.00    -0.352 N 
ATOM     25  C   UNL     1       7.416  -1.310  -3.072  1.00  0.00     0.251 C 
ATOM     26  H   UNL     1       5.654  -0.492  -3.521  1.00  0.00     0.163 HD
ATOM     27  O   UNL     1       8.007  -0.592  -3.877  1.00  0.00    -0.269 OA
BRANCH  25  28
ATOM     28  C   UNL     1       8.164  -2.353  -2.331  1.00  0.00     0.039 A 
ATOM     29  C   UNL     1       9.473  -2.066  -1.928  1.00  0.00     0.014 A 
ATOM     30  C   UNL     1       7.629  -3.620  -2.082  1.00  0.00     0.014 A 
ATOM     31  C   UNL     1      10.220  -3.024  -1.238  1.00  0.00     0.010 A 
ATOM     32  C   UNL     1       8.351  -4.552  -1.331  1.00  0.00     0.010 A 
ATOM     33  C   UNL     1       9.656  -4.268  -0.907  1.00  0.00    -0.014 A 
BRANCH  33  34
ATOM     34  C   UNL     1      10.421  -5.248  -0.091  1.00  0.00     0.031 A 
ATOM     35  C   UNL     1      10.826  -6.584  -0.654  1.00  0.00     0.074 A 
ATOM     36  C   UNL     1      10.713  -4.948   1.190  1.00  0.00     0.049 A 
ATOM     37  N   UNL     1      11.525  -7.536  -0.090  1.00  0.00    -0.248 NA
ATOM     38  C   UNL     1      10.371  -6.905  -2.016  1.00  0.00     0.031 C 
ATOM     39  C   UNL     1      10.295  -3.729   1.886  1.00  0.00     0.029 A 
ATOM     40  N   UNL     1      11.413  -5.649   2.140  1.00  0.00    -0.354 N 
ATOM     41  C   UNL     1      11.576  -8.574  -1.013  1.00  0.00     0.074 A 
ATOM     42  C   UNL     1      10.805  -8.150  -2.162  1.00  0.00     0.031 C 
ATOM     43  C   UNL     1      10.757  -3.761   3.146  1.00  0.00     0.029 A 
ATOM     44  C   UNL     1      11.487  -5.008   3.355  1.00  0.00     0.049 A 
ATOM     45  H   UNL     1      11.824  -6.527   1.969  1.00  0.00     0.167 HD
ATOM     46  C   UNL     1      12.232  -9.757  -0.930  1.00  0.00     0.034 A 
ATOM     47  C   UNL     1      12.080  -5.376   4.507  1.00  0.00     0.034 A 
ATOM     48  C   UNL     1      13.030 -10.163   0.198  1.00  0.00     0.049 A 
ATOM     49  C   UNL     1      12.853  -6.665   4.553  1.00  0.00     0.074 A 
ATOM     50  C   UNL     1      13.801 -11.303   0.342  1.00  0.00     0.029 A 
ATOM     51  N   UNL     1      13.154  -9.448   1.379  1.00  0.00    -0.354 N 
ATOM     52  N   UNL     1      13.036  -7.551   3.604  1.00  0.00    -0.248 NA
ATOM     53  C   UNL     1      13.538  -6.984   5.814  1.00  0.00     0.031 C 
ATOM     54  C   UNL     1      14.379 -11.285   1.617  1.00  0.00     0.029 A 
ATOM     55  C   UNL     1      13.983 -10.124   2.260  1.00  0.00     0.049 A 
ATOM     56  H   UNL     1      12.718  -8.585   1.565  1.00  0.00     0.167 HD
ATOM     57  C   UNL     1      13.875  -8.520   4.144  1.00  0.00     0.074 A 
ATOM     58  C   UNL     1      14.192  -8.091   5.492  1.00  0.00     0.031 C 
ATOM     59  C   UNL     1      14.324  -9.670   3.584  1.00  0.00     0.034 A 
BRANCH  46  60
ATOM     60  C   UNL     1      12.172 -10.676  -2.123  1.00  0.00     0.023 A 
ATOM     61  C   UNL     1      12.880 -10.334  -3.294  1.00  0.00     0.012 A 
ATOM     62  C   UNL     1      11.476 -11.900  -2.072  1.00  0.00     0.148 A 
ATOM     63  C   UNL     1      12.871 -11.177  -4.405  1.00  0.00     0.002 A 
ATOM     64  C   UNL     1      11.505 -12.755  -3.169  1.00  0.00     0.091 A 
ATOM     65  F   UNL     1      10.791 -12.201  -0.960  1.00  0.00    -0.205 F 
ATOM     66  C   UNL     1      12.193 -12.390  -4.339  1.00  0.00     0.022 A 
BRANCH  64  67
ATOM     67  S   UNL     1      10.727 -14.374  -3.158  1.00  0.00     0.127 S 
ATOM     68  O   UNL     1       9.585 -14.159  -4.046  1.00  0.00    -0.237 OA
ATOM     69  O   UNL     1      11.779 -15.226  -3.715  1.00  0.00    -0.237 OA
ATOM     70  O   UNL     1      10.396 -14.650  -1.768  1.00  0.00    -0.744 OA
ENDBRANCH  64  67
ENDBRANCH  46  60
BRANCH  47  71
ATOM     71  C   UNL     1      12.031  -4.468   5.687  1.00  0.00     0.023 A 
ATOM     72  C   UNL     1      13.201  -3.800   6.097  1.00  0.00     0.012 A 
ATOM     73  C   UNL     1      10.826  -4.230   6.377  1.00  0.00     0.148 A 
ATOM     74  C   UNL     1      13.179  -2.935   7.192  1.00  0.00     0.002 A 
ATOM     75  C   UNL     1      10.800  -3.322   7.429  1.00  0.00     0.091 A 
ATOM     76  F   UNL     1       9.726  -4.886   5.981  1.00  0.00    -0.205 F 
ATOM     77  C   UNL     1      11.978  -2.687   7.850  1.00  0.00     0.022 A 
BRANCH  75  78
ATOM     78  S   UNL     1       9.268  -2.837   8.234  1.00  0.00     0.127 S 
ATOM     79  O   UNL     1       9.374  -3.526   9.519  1.00  0.00    -0.237 OA
ATOM     80  O   UNL     1       9.409  -1.381   8.303  1.00  0.00    -0.237 OA
ATOM     81  O   UNL     1       8.203  -3.292   7.353  1.00  0.00    -0.744 OA
ENDBRANCH  75  78
ENDBRANCH  47  71
BRANCH  59  82
ATOM     82  C   UNL     1      15.216 -10.546   4.426  1.00  0.00     0.023 A 
ATOM     83  C   UNL     1      14.667 -11.259   5.512  1.00  0.00     0.012 A 
ATOM     84  C   UNL     1      16.582 -10.700   4.120  1.00  0.00     0.148 A 
ATOM     85  C   UNL     1      15.472 -12.076   6.304  1.00  0.00     0.002 A 
ATOM     86  C   UNL     1      17.368 -11.554   4.886  1.00  0.00     0.091 A 
ATOM     87  F   UNL     1      17.093 -10.000   3.097  1.00  0.00    -0.205 F 
ATOM     88  C   UNL     1      16.818 -12.232   5.986  1.00  0.00     0.022 A 
BRANCH  86  89
ATOM     89  S   UNL     1      19.090 -11.882   4.490  1.00  0.00     0.127 S 
ATOM     90  O   UNL     1      19.785 -11.057   5.477  1.00  0.00    -0.237 OA
ATOM     91  O   UNL     1      19.196 -13.324   4.717  1.00  0.00    -0.237 OA
ATOM     92  O   UNL     1      19.259 -11.479   3.100  1.00  0.00    -0.744 OA
ENDBRANCH  86  89
ENDBRANCH  59  82
ENDBRANCH  33  34
ENDBRANCH  25  28
ENDBRANCH  23  24
ENDBRANCH   1  23
TORSDOF 16
