REMARK SMILES O=C(Cc1ccccc1C(=O)NCCCNC(=O)c1ccc(-c2c3nc(c(-c4cccc(S(=O)(=O)[O-])c4F)c4ccc([nH]4)c(-c4cccc(S(=O)(=O)[O-])c4F)c4nc(c(-c5cccc(S(=O)(=O)[O-])c5F)c5ccc2[nH]5)C=C4)C=C3)cc1)Nc1cccc(OC[C@@H]2CCCO2)c1
REMARK SMILES IDX 10 1 11 2 12 3 9 5 4 6 5 7 6 8 8 9 7 10 3 11 2 12 1 13 82 14
REMARK SMILES IDX 83 16 84 17 95 18 85 19 87 20 86 21 88 22 89 23 90 24 91 25
REMARK SMILES IDX 94 26 92 27 93 28 13 29 14 30 15 31 16 32 17 33 18 35 19 36
REMARK SMILES IDX 20 37 81 38 21 39 80 40 22 41 23 42 24 43 74 44 25 45 79 46
REMARK SMILES IDX 73 47 75 48 26 49 78 50 72 51 71 52 27 54 59 55 39 56 58 57
REMARK SMILES IDX 40 58 43 59 57 60 76 61 41 62 42 63 56 65 77 66 44 67 28 68
REMARK SMILES IDX 29 69 37 70 30 71 32 72 38 73 31 74 33 75 34 76 35 77 36 78
REMARK SMILES IDX 60 79 61 80 69 81 62 82 64 83 70 84 63 85 65 86 66 87 67 88
REMARK SMILES IDX 68 89 45 90 46 91 54 92 47 93 49 94 55 95 48 96 50 97 51 98
REMARK SMILES IDX 52 99 53 100
REMARK H PARENT 12 4 82 15 16 34 75 53 43 64
REMARK Flexibility Score: inf
ROOT
ATOM      1  C   UNL     1       5.533  -0.235  -0.581  1.00  0.00     0.251 C 
ATOM      2  O   UNL     1       6.103   0.185  -1.586  1.00  0.00    -0.269 OA
ATOM      3  N   UNL     1       5.454   0.558   0.533  1.00  0.00    -0.352 N 
ATOM      4  H   UNL     1       6.252   0.631   1.106  1.00  0.00     0.163 HD
ENDROOT
BRANCH   1   5
ATOM      5  C   UNL     1       5.181  -1.685  -0.516  1.00  0.00     0.043 A 
ATOM      6  C   UNL     1       3.939  -2.273  -0.205  1.00  0.00    -0.026 A 
ATOM      7  C   UNL     1       3.833  -3.685  -0.263  1.00  0.00     0.005 A 
ATOM      8  C   UNL     1       4.896  -4.491  -0.658  1.00  0.00     0.000 A 
ATOM      9  C   UNL     1       6.241  -2.521  -0.931  1.00  0.00     0.014 A 
ATOM     10  C   UNL     1       6.102  -3.907  -1.003  1.00  0.00     0.001 A 
BRANCH   6  11
ATOM     11  C   UNL     1       2.692  -1.564   0.239  1.00  0.00     0.136 C 
BRANCH  11  12
ATOM     12  C   UNL     1       1.954  -0.644  -0.716  1.00  0.00     0.228 C 
ATOM     13  O   UNL     1       0.751  -0.464  -0.519  1.00  0.00    -0.274 OA
ATOM     14  N   UNL     1       2.678   0.023  -1.686  1.00  0.00    -0.326 N 
ATOM     15  H   UNL     1       3.545  -0.359  -1.954  1.00  0.00     0.169 HD
BRANCH  14  16
ATOM     16  C   UNL     1       2.261   1.218  -2.321  1.00  0.00     0.044 A 
ATOM     17  C   UNL     1       2.784   1.520  -3.578  1.00  0.00     0.026 A 
ATOM     18  C   UNL     1       1.335   2.092  -1.738  1.00  0.00     0.072 A 
ATOM     19  C   UNL     1       2.274   2.602  -4.298  1.00  0.00     0.006 A 
ATOM     20  C   UNL     1       0.757   3.120  -2.480  1.00  0.00     0.121 A 
ATOM     21  C   UNL     1       1.240   3.372  -3.764  1.00  0.00     0.046 A 
BRANCH  20  22
ATOM     22  O   UNL     1      -0.321   3.875  -2.116  1.00  0.00    -0.491 OA
BRANCH  22  23
ATOM     23  C   UNL     1      -0.765   3.908  -0.753  1.00  0.00     0.261 C 
BRANCH  23  24
ATOM     24  C   UNL     1      -1.893   2.922  -0.398  1.00  0.00     0.156 C 
ATOM     25  C   UNL     1      -1.500   1.461  -0.321  1.00  0.00     0.038 C 
ATOM     26  O   UNL     1      -2.999   2.975  -1.328  1.00  0.00    -0.375 OA
ATOM     27  C   UNL     1      -2.807   0.751  -0.523  1.00  0.00     0.031 C 
ATOM     28  C   UNL     1      -3.415   1.623  -1.599  1.00  0.00     0.161 C 
ENDBRANCH  23  24
ENDBRANCH  22  23
ENDBRANCH  20  22
ENDBRANCH  14  16
ENDBRANCH  11  12
ENDBRANCH   6  11
ENDBRANCH   1   5
BRANCH   3  29
ATOM     29  C   UNL     1       4.270   1.298   0.920  1.00  0.00     0.118 C 
BRANCH  29  30
ATOM     30  C   UNL     1       4.154   1.457   2.422  1.00  0.00     0.042 C 
BRANCH  30  31
ATOM     31  C   UNL     1       3.835   2.889   2.805  1.00  0.00     0.118 C 
BRANCH  31  32
ATOM     32  N   UNL     1       2.591   3.398   2.239  1.00  0.00    -0.352 N 
ATOM     33  C   UNL     1       1.658   4.242   2.809  1.00  0.00     0.251 C 
ATOM     34  H   UNL     1       2.389   3.099   1.323  1.00  0.00     0.163 HD
ATOM     35  O   UNL     1       0.630   4.511   2.218  1.00  0.00    -0.269 OA
BRANCH  33  36
ATOM     36  C   UNL     1       1.897   4.775   4.171  1.00  0.00     0.039 A 
ATOM     37  C   UNL     1       0.829   4.817   5.070  1.00  0.00     0.014 A 
ATOM     38  C   UNL     1       3.170   5.176   4.573  1.00  0.00     0.014 A 
ATOM     39  C   UNL     1       1.063   5.177   6.397  1.00  0.00     0.010 A 
ATOM     40  C   UNL     1       3.424   5.401   5.916  1.00  0.00     0.010 A 
ATOM     41  C   UNL     1       2.372   5.422   6.841  1.00  0.00    -0.014 A 
BRANCH  41  42
ATOM     42  C   UNL     1       2.673   5.715   8.263  1.00  0.00     0.031 A 
ATOM     43  C   UNL     1       3.368   7.000   8.628  1.00  0.00     0.074 A 
ATOM     44  C   UNL     1       2.430   4.776   9.199  1.00  0.00     0.049 A 
ATOM     45  N   UNL     1       3.805   7.397   9.793  1.00  0.00    -0.248 NA
ATOM     46  C   UNL     1       3.660   7.941   7.531  1.00  0.00     0.031 C 
ATOM     47  C   UNL     1       1.873   3.443   8.943  1.00  0.00     0.029 A 
ATOM     48  N   UNL     1       2.647   4.785  10.553  1.00  0.00    -0.354 N 
ATOM     49  C   UNL     1       4.475   8.592   9.558  1.00  0.00     0.074 A 
ATOM     50  C   UNL     1       4.427   8.835   8.136  1.00  0.00     0.031 C 
ATOM     51  C   UNL     1       1.780   2.772  10.102  1.00  0.00     0.029 A 
ATOM     52  C   UNL     1       2.292   3.612  11.178  1.00  0.00     0.049 A 
ATOM     53  H   UNL     1       3.022   5.559  11.032  1.00  0.00     0.167 HD
ATOM     54  C   UNL     1       5.045   9.432  10.452  1.00  0.00     0.034 A 
ATOM     55  C   UNL     1       2.368   3.260  12.476  1.00  0.00     0.034 A 
ATOM     56  C   UNL     1       4.999   9.225  11.873  1.00  0.00     0.049 A 
ATOM     57  C   UNL     1       2.879   4.272  13.465  1.00  0.00     0.074 A 
ATOM     58  C   UNL     1       5.421  10.073  12.880  1.00  0.00     0.029 A 
ATOM     59  N   UNL     1       4.489   8.092  12.486  1.00  0.00    -0.354 N 
ATOM     60  N   UNL     1       3.343   5.479  13.243  1.00  0.00    -0.248 NA
ATOM     61  C   UNL     1       2.834   3.897  14.884  1.00  0.00     0.031 C 
ATOM     62  C   UNL     1       5.174   9.444  14.106  1.00  0.00     0.029 A 
ATOM     63  C   UNL     1       4.582   8.215  13.859  1.00  0.00     0.049 A 
ATOM     64  H   UNL     1       4.116   7.313  12.012  1.00  0.00     0.167 HD
ATOM     65  C   UNL     1       3.612   6.020  14.494  1.00  0.00     0.074 A 
ATOM     66  C   UNL     1       3.234   5.018  15.470  1.00  0.00     0.031 C 
ATOM     67  C   UNL     1       4.142   7.227  14.809  1.00  0.00     0.034 A 
BRANCH  54  68
ATOM     68  C   UNL     1       5.700  10.682   9.926  1.00  0.00     0.023 A 
ATOM     69  C   UNL     1       4.903  11.716   9.391  1.00  0.00     0.012 A 
ATOM     70  C   UNL     1       7.095  10.857  10.003  1.00  0.00     0.148 A 
ATOM     71  C   UNL     1       5.486  12.886   8.906  1.00  0.00     0.002 A 
ATOM     72  C   UNL     1       7.665  12.046   9.563  1.00  0.00     0.091 A 
ATOM     73  F   UNL     1       7.839   9.854  10.492  1.00  0.00    -0.205 F 
ATOM     74  C   UNL     1       6.864  13.055   9.002  1.00  0.00     0.022 A 
BRANCH  72  75
ATOM     75  S   UNL     1       9.420  12.396   9.717  1.00  0.00     0.127 S 
ATOM     76  O   UNL     1       9.853  12.356   8.321  1.00  0.00    -0.237 OA
ATOM     77  O   UNL     1       9.415  13.732  10.315  1.00  0.00    -0.237 OA
ATOM     78  O   UNL     1       9.966  11.350  10.570  1.00  0.00    -0.744 OA
ENDBRANCH  72  75
ENDBRANCH  54  68
BRANCH  55  79
ATOM     79  C   UNL     1       1.863   1.929  12.921  1.00  0.00     0.023 A 
ATOM     80  C   UNL     1       0.674   1.859  13.674  1.00  0.00     0.012 A 
ATOM     81  C   UNL     1       2.528   0.736  12.578  1.00  0.00     0.148 A 
ATOM     82  C   UNL     1       0.178   0.630  14.109  1.00  0.00     0.002 A 
ATOM     83  C   UNL     1       1.998  -0.489  12.968  1.00  0.00     0.091 A 
ATOM     84  F   UNL     1       3.662   0.821  11.869  1.00  0.00    -0.205 F 
ATOM     85  C   UNL     1       0.833  -0.544  13.749  1.00  0.00     0.022 A 
BRANCH  83  86
ATOM     86  S   UNL     1       2.703  -2.051  12.429  1.00  0.00     0.127 S 
ATOM     87  O   UNL     1       3.391  -2.502  13.635  1.00  0.00    -0.237 OA
ATOM     88  O   UNL     1       1.509  -2.821  12.076  1.00  0.00    -0.237 OA
ATOM     89  O   UNL     1       3.554  -1.720  11.293  1.00  0.00    -0.744 OA
ENDBRANCH  83  86
ENDBRANCH  55  79
BRANCH  67  90
ATOM     90  C   UNL     1       4.312   7.548  16.269  1.00  0.00     0.023 A 
ATOM     91  C   UNL     1       5.327   6.914  17.011  1.00  0.00     0.012 A 
ATOM     92  C   UNL     1       3.513   8.531  16.884  1.00  0.00     0.148 A 
ATOM     93  C   UNL     1       5.521   7.228  18.355  1.00  0.00     0.002 A 
ATOM     94  C   UNL     1       3.746   8.875  18.209  1.00  0.00     0.091 A 
ATOM     95  F   UNL     1       2.538   9.108  16.165  1.00  0.00    -0.205 F 
ATOM     96  C   UNL     1       4.740   8.216  18.950  1.00  0.00     0.022 A 
BRANCH  94  97
ATOM     97  S   UNL     1       2.852  10.207  19.017  1.00  0.00     0.127 S 
ATOM     98  O   UNL     1       1.882   9.470  19.823  1.00  0.00    -0.237 OA
ATOM     99  O   UNL     1       3.906  10.870  19.787  1.00  0.00    -0.237 OA
ATOM    100  O   UNL     1       2.295  11.018  17.943  1.00  0.00    -0.744 OA
ENDBRANCH  94  97
ENDBRANCH  67  90
ENDBRANCH  41  42
ENDBRANCH  33  36
ENDBRANCH  31  32
ENDBRANCH  30  31
ENDBRANCH  29  30
ENDBRANCH   3  29
TORSDOF 19
