REMARK SMILES NC(=O)c1ccc(NC(=O)Cc2ccccc2C(=O)NCCCNC(=O)c2ccc(-c3c4nc(c(-c5cccc(S(=O)(=O)[O-])c5F)c5ccc([nH]5)c(-c5cccc(S(=O)(=O)[O-])c5F)c5nc(c(-c6cccc(S(=O)(=O)[O-])c6F)c6ccc3[nH]6)C=C5)C=C4)cc2)cc1
REMARK SMILES IDX 21 1 20 2 18 3 19 4 17 6 12 7 13 8 14 9 16 10 15 11 11 12
REMARK SMILES IDX 9 13 8 14 10 16 7 17 4 18 5 19 91 20 6 21 90 22 2 23 1 24
REMARK SMILES IDX 3 27 22 28 23 29 24 30 25 31 26 33 27 34 28 35 89 36 29 37
REMARK SMILES IDX 88 38 30 39 31 40 32 41 82 42 33 43 87 44 81 45 83 46 34 47
REMARK SMILES IDX 86 48 80 49 79 50 35 52 67 53 47 54 66 55 48 56 51 57 65 58
REMARK SMILES IDX 84 59 49 60 50 61 64 63 85 64 52 65 36 66 37 67 45 68 38 69
REMARK SMILES IDX 40 70 46 71 39 72 41 73 42 74 43 75 44 76 68 77 69 78 77 79
REMARK SMILES IDX 70 80 72 81 78 82 71 83 73 84 74 85 75 86 76 87 53 88 54 89
REMARK SMILES IDX 62 90 55 91 57 92 63 93 56 94 58 95 59 96 60 97 61 98
REMARK H PARENT 20 5 8 15 1 25 1 26 24 32 83 51 51 62
REMARK Flexibility Score: inf
ROOT
ATOM      1  C   UNL     1       0.213  -9.020   1.501  1.00  0.00     0.118 C 
ENDROOT
BRANCH   1   2
ATOM      2  N   UNL     1      -0.571  -9.257   2.700  1.00  0.00    -0.352 N 
ATOM      3  C   UNL     1      -1.228  -8.453   3.595  1.00  0.00     0.251 C 
ATOM      4  O   UNL     1      -1.923  -9.034   4.434  1.00  0.00    -0.269 OA
ATOM      5  H   UNL     1      -0.649 -10.213   2.921  1.00  0.00     0.163 HD
BRANCH   3   6
ATOM      6  C   UNL     1      -1.236  -6.955   3.610  1.00  0.00     0.043 A 
ATOM      7  C   UNL     1      -0.111  -6.093   3.605  1.00  0.00    -0.026 A 
ATOM      8  C   UNL     1      -0.331  -4.719   3.833  1.00  0.00     0.005 A 
ATOM      9  C   UNL     1      -1.605  -4.197   4.056  1.00  0.00     0.000 A 
ATOM     10  C   UNL     1      -2.514  -6.408   3.865  1.00  0.00     0.014 A 
ATOM     11  C   UNL     1      -2.701  -5.043   4.079  1.00  0.00     0.001 A 
BRANCH   7  12
ATOM     12  C   UNL     1       1.282  -6.614   3.354  1.00  0.00     0.136 C 
BRANCH  12  13
ATOM     13  C   UNL     1       2.504  -5.898   3.869  1.00  0.00     0.228 C 
ATOM     14  N   UNL     1       3.054  -4.794   3.288  1.00  0.00    -0.326 N 
ATOM     15  H   UNL     1       3.953  -4.579   3.625  1.00  0.00     0.169 HD
ATOM     16  O   UNL     1       3.079  -6.337   4.872  1.00  0.00    -0.274 OA
BRANCH  14  17
ATOM     17  C   UNL     1       2.596  -3.902   2.305  1.00  0.00     0.041 A 
ATOM     18  C   UNL     1       1.381  -1.855   0.818  1.00  0.00     0.039 A 
ATOM     19  C   UNL     1       1.099  -3.195   0.538  1.00  0.00     0.016 A 
ATOM     20  C   UNL     1       2.347  -1.540   1.777  1.00  0.00     0.016 A 
ATOM     21  C   UNL     1       1.719  -4.216   1.268  1.00  0.00     0.027 A 
ATOM     22  C   UNL     1       2.969  -2.564   2.495  1.00  0.00     0.027 A 
BRANCH  18  23
ATOM     23  C   UNL     1       0.583  -0.802   0.148  1.00  0.00     0.248 C 
ATOM     24  N   UNL     1       1.188   0.398  -0.075  1.00  0.00    -0.366 N 
ATOM     25  H   UNL     1       0.692   1.124  -0.518  1.00  0.00     0.159 HD
ATOM     26  H   UNL     1       2.120   0.539   0.207  1.00  0.00     0.159 HD
ATOM     27  O   UNL     1      -0.580  -1.002  -0.199  1.00  0.00    -0.270 OA
ENDBRANCH  18  23
ENDBRANCH  14  17
ENDBRANCH  12  13
ENDBRANCH   7  12
ENDBRANCH   3   6
ENDBRANCH   1   2
BRANCH   1  28
ATOM     28  C   UNL     1       1.690  -9.377   1.708  1.00  0.00     0.042 C 
BRANCH  28  29
ATOM     29  C   UNL     1       1.993 -10.871   1.751  1.00  0.00     0.118 C 
BRANCH  29  30
ATOM     30  N   UNL     1       2.239 -11.412   0.426  1.00  0.00    -0.352 N 
ATOM     31  C   UNL     1       3.395 -11.906  -0.131  1.00  0.00     0.251 C 
ATOM     32  H   UNL     1       1.453 -11.427  -0.167  1.00  0.00     0.163 HD
ATOM     33  O   UNL     1       3.425 -12.085  -1.348  1.00  0.00    -0.269 OA
BRANCH  31  34
ATOM     34  C   UNL     1       4.598 -12.218   0.686  1.00  0.00     0.039 A 
ATOM     35  C   UNL     1       5.861 -12.033   0.109  1.00  0.00     0.014 A 
ATOM     36  C   UNL     1       4.513 -12.761   1.971  1.00  0.00     0.014 A 
ATOM     37  C   UNL     1       7.022 -12.356   0.824  1.00  0.00     0.010 A 
ATOM     38  C   UNL     1       5.672 -13.003   2.715  1.00  0.00     0.010 A 
ATOM     39  C   UNL     1       6.940 -12.828   2.144  1.00  0.00    -0.014 A 
BRANCH  39  40
ATOM     40  C   UNL     1       8.165 -13.165   2.921  1.00  0.00     0.031 A 
ATOM     41  C   UNL     1       8.407 -14.579   3.393  1.00  0.00     0.074 A 
ATOM     42  C   UNL     1       9.036 -12.193   3.259  1.00  0.00     0.049 A 
ATOM     43  N   UNL     1       9.400 -15.055   4.101  1.00  0.00    -0.248 NA
ATOM     44  C   UNL     1       7.390 -15.584   3.043  1.00  0.00     0.031 C 
ATOM     45  C   UNL     1       8.886 -10.774   2.934  1.00  0.00     0.029 A 
ATOM     46  N   UNL     1      10.211 -12.246   3.969  1.00  0.00    -0.354 N 
ATOM     47  C   UNL     1       9.110 -16.398   4.313  1.00  0.00     0.074 A 
ATOM     48  C   UNL     1       7.831 -16.655   3.687  1.00  0.00     0.031 C 
ATOM     49  C   UNL     1       9.930 -10.094   3.433  1.00  0.00     0.029 A 
ATOM     50  C   UNL     1      10.813 -11.020   4.136  1.00  0.00     0.049 A 
ATOM     51  H   UNL     1      10.588 -13.083   4.326  1.00  0.00     0.167 HD
ATOM     52  C   UNL     1       9.851 -17.344   4.940  1.00  0.00     0.034 A 
ATOM     53  C   UNL     1      11.947 -10.678   4.780  1.00  0.00     0.034 A 
ATOM     54  C   UNL     1      11.147 -17.103   5.515  1.00  0.00     0.049 A 
ATOM     55  C   UNL     1      12.778 -11.756   5.424  1.00  0.00     0.074 A 
ATOM     56  C   UNL     1      12.015 -18.012   6.094  1.00  0.00     0.029 A 
ATOM     57  N   UNL     1      11.763 -15.863   5.586  1.00  0.00    -0.354 N 
ATOM     58  N   UNL     1      12.562 -13.048   5.472  1.00  0.00    -0.248 NA
ATOM     59  C   UNL     1      14.030 -11.334   6.070  1.00  0.00     0.031 C 
ATOM     60  C   UNL     1      13.150 -17.319   6.528  1.00  0.00     0.029 A 
ATOM     61  C   UNL     1      12.997 -15.982   6.202  1.00  0.00     0.049 A 
ATOM     62  H   UNL     1      11.379 -15.022   5.247  1.00  0.00     0.167 HD
ATOM     63  C   UNL     1      13.663 -13.597   6.120  1.00  0.00     0.074 A 
ATOM     64  C   UNL     1      14.557 -12.499   6.426  1.00  0.00     0.031 C 
ATOM     65  C   UNL     1      13.904 -14.890   6.449  1.00  0.00     0.034 A 
BRANCH  52  66
ATOM     66  C   UNL     1       9.308 -18.750   4.978  1.00  0.00     0.023 A 
ATOM     67  C   UNL     1       9.285 -19.515   3.793  1.00  0.00     0.012 A 
ATOM     68  C   UNL     1       8.878 -19.336   6.185  1.00  0.00     0.148 A 
ATOM     69  C   UNL     1       8.811 -20.826   3.800  1.00  0.00     0.002 A 
ATOM     70  C   UNL     1       8.447 -20.659   6.192  1.00  0.00     0.091 A 
ATOM     71  F   UNL     1       8.888 -18.590   7.298  1.00  0.00    -0.205 F 
ATOM     72  C   UNL     1       8.402 -21.401   5.000  1.00  0.00     0.022 A 
BRANCH  70  73
ATOM     73  S   UNL     1       7.973 -21.517   7.698  1.00  0.00     0.127 S 
ATOM     74  O   UNL     1       6.522 -21.614   7.538  1.00  0.00    -0.237 OA
ATOM     75  O   UNL     1       8.686 -22.788   7.568  1.00  0.00    -0.237 OA
ATOM     76  O   UNL     1       8.427 -20.677   8.797  1.00  0.00    -0.744 OA
ENDBRANCH  70  73
ENDBRANCH  52  66
BRANCH  53  77
ATOM     77  C   UNL     1      12.409  -9.260   4.771  1.00  0.00     0.023 A 
ATOM     78  C   UNL     1      13.547  -8.912   4.017  1.00  0.00     0.012 A 
ATOM     79  C   UNL     1      11.718  -8.253   5.472  1.00  0.00     0.148 A 
ATOM     80  C   UNL     1      14.007  -7.595   3.985  1.00  0.00     0.002 A 
ATOM     81  C   UNL     1      12.149  -6.932   5.391  1.00  0.00     0.091 A 
ATOM     82  F   UNL     1      10.646  -8.604   6.197  1.00  0.00    -0.205 F 
ATOM     83  C   UNL     1      13.302  -6.604   4.662  1.00  0.00     0.022 A 
BRANCH  81  84
ATOM     84  S   UNL     1      11.228  -5.572   6.119  1.00  0.00     0.127 S 
ATOM     85  O   UNL     1      12.084  -5.196   7.240  1.00  0.00    -0.237 OA
ATOM     86  O   UNL     1      11.194  -4.605   5.019  1.00  0.00    -0.237 OA
ATOM     87  O   UNL     1       9.926  -6.122   6.469  1.00  0.00    -0.744 OA
ENDBRANCH  81  84
ENDBRANCH  53  77
BRANCH  65  88
ATOM     88  C   UNL     1      15.199 -15.204   7.151  1.00  0.00     0.023 A 
ATOM     89  C   UNL     1      15.367 -14.840   8.502  1.00  0.00     0.012 A 
ATOM     90  C   UNL     1      16.220 -15.922   6.497  1.00  0.00     0.148 A 
ATOM     91  C   UNL     1      16.542 -15.158   9.181  1.00  0.00     0.002 A 
ATOM     92  C   UNL     1      17.369 -16.276   7.194  1.00  0.00     0.091 A 
ATOM     93  F   UNL     1      16.051 -16.243   5.206  1.00  0.00    -0.205 F 
ATOM     94  C   UNL     1      17.537 -15.885   8.532  1.00  0.00     0.022 A 
BRANCH  92  95
ATOM     95  S   UNL     1      18.659 -17.292   6.465  1.00  0.00     0.127 S 
ATOM     96  O   UNL     1      19.707 -16.306   6.209  1.00  0.00    -0.237 OA
ATOM     97  O   UNL     1      18.961 -18.236   7.543  1.00  0.00    -0.237 OA
ATOM     98  O   UNL     1      18.067 -17.901   5.282  1.00  0.00    -0.744 OA
ENDBRANCH  92  95
ENDBRANCH  65  88
ENDBRANCH  39  40
ENDBRANCH  31  34
ENDBRANCH  29  30
ENDBRANCH  28  29
ENDBRANCH   1  28
TORSDOF 17
