REMARK SMILES Cc1ccc(/C=C/C(=O)N[C@@H](CO)C(=O)NCCCNC(=O)c2ccc(-c3c4nc(c(-c5cccc(S(=O)(=O)[O-])c5F)c5ccc([nH]5)c(-c5cccc(S(=O)(=O)[O-])c5F)c5nc(c(-c6cccc(S(=O)(=O)[O-])c6F)c6ccc3[nH]6)C=C5)C=C4)cc2)o1
REMARK SMILES IDX 18 1 17 2 16 3 14 4 15 5 11 7 10 8 8 9 9 10 7 12 6 13 5 14
REMARK SMILES IDX 1 15 2 16 3 17 86 18 4 19 12 20 13 21 19 23 20 24 21 25
REMARK SMILES IDX 22 27 23 28 24 29 85 30 25 31 84 32 26 33 27 34 28 35 78 36
REMARK SMILES IDX 29 37 83 38 77 39 79 40 30 41 82 42 76 43 75 44 31 46 63 47
REMARK SMILES IDX 43 48 62 49 44 50 47 51 61 52 80 53 45 54 46 55 60 57 81 58
REMARK SMILES IDX 48 59 32 60 33 61 41 62 34 63 36 64 42 65 35 66 37 67 38 68
REMARK SMILES IDX 39 69 40 70 64 71 65 72 73 73 66 74 68 75 74 76 67 77 69 78
REMARK SMILES IDX 70 79 71 80 72 81 49 82 50 83 58 84 51 85 53 86 59 87 52 88
REMARK SMILES IDX 54 89 55 90 56 91 57 92
REMARK H PARENT 16 6 10 11 13 22 20 26 79 45 47 56
REMARK Flexibility Score: inf
ROOT
ATOM      1  C   UNL     1      -8.008   4.830  -1.184  1.00  0.00     0.042 C 
ENDROOT
BRANCH   1   2
ATOM      2  C   UNL     1      -7.775   3.576  -0.359  1.00  0.00     0.117 C 
BRANCH   2   3
ATOM      3  N   UNL     1      -7.148   2.506  -1.113  1.00  0.00    -0.354 N 
ATOM      4  C   UNL     1      -6.066   1.734  -0.819  1.00  0.00     0.244 C 
ATOM      5  O   UNL     1      -5.801   0.805  -1.590  1.00  0.00    -0.273 OA
ATOM      6  H   UNL     1      -7.574   2.305  -1.978  1.00  0.00     0.163 HD
BRANCH   4   7
ATOM      7  C   UNL     1      -5.182   1.982   0.416  1.00  0.00     0.197 C 
BRANCH   7   8
ATOM      8  N   UNL     1      -4.529   3.289   0.332  1.00  0.00    -0.339 N 
ATOM      9  C   UNL     1      -3.229   3.644   0.149  1.00  0.00     0.244 C 
ATOM     10  O   UNL     1      -2.955   4.838   0.045  1.00  0.00    -0.270 OA
ATOM     11  H   UNL     1      -5.144   4.053   0.425  1.00  0.00     0.164 HD
BRANCH   9  12
ATOM     12  C   UNL     1      -2.123   2.662   0.209  1.00  0.00     0.075 C 
ATOM     13  C   UNL     1      -2.101   1.472  -0.404  1.00  0.00     0.053 C 
BRANCH  13  14
ATOM     14  C   UNL     1      -1.018   0.572  -0.224  1.00  0.00     0.127 A 
ATOM     15  C   UNL     1       2.519   0.001   0.053  1.00  0.00     0.087 C 
ATOM     16  C   UNL     1       1.057  -0.186  -0.003  1.00  0.00     0.101 A 
ATOM     17  C   UNL     1       0.249  -1.298  -0.010  1.00  0.00     0.046 A 
ATOM     18  O   UNL     1       0.301   0.943  -0.091  1.00  0.00    -0.462 OA
ATOM     19  C   UNL     1      -1.071  -0.816  -0.157  1.00  0.00     0.050 A 
ENDBRANCH  13  14
ENDBRANCH   9  12
ENDBRANCH   7   8
BRANCH   7  20
ATOM     20  C   UNL     1      -5.849   1.656   1.760  1.00  0.00     0.191 C 
BRANCH  20  21
ATOM     21  O   UNL     1      -6.695   2.668   2.286  1.00  0.00    -0.394 OA
ATOM     22  H   UNL     1      -6.171   3.463   2.473  1.00  0.00     0.210 HD
ENDBRANCH  20  21
ENDBRANCH   7  20
ENDBRANCH   4   7
ENDBRANCH   2   3
ENDBRANCH   1   2
BRANCH   1  23
ATOM     23  C   UNL     1      -8.943   4.639  -2.366  1.00  0.00     0.118 C 
BRANCH  23  24
ATOM     24  N   UNL     1     -10.282   4.218  -1.971  1.00  0.00    -0.352 N 
ATOM     25  C   UNL     1     -11.483   4.883  -2.072  1.00  0.00     0.251 C 
ATOM     26  H   UNL     1     -10.335   3.320  -1.570  1.00  0.00     0.163 HD
ATOM     27  O   UNL     1     -12.478   4.436  -1.518  1.00  0.00    -0.269 OA
BRANCH  25  28
ATOM     28  C   UNL     1     -11.557   6.149  -2.833  1.00  0.00     0.039 A 
ATOM     29  C   UNL     1     -12.260   7.231  -2.297  1.00  0.00     0.014 A 
ATOM     30  C   UNL     1     -10.915   6.271  -4.066  1.00  0.00     0.014 A 
ATOM     31  C   UNL     1     -12.247   8.460  -2.962  1.00  0.00     0.010 A 
ATOM     32  C   UNL     1     -10.812   7.518  -4.668  1.00  0.00     0.010 A 
ATOM     33  C   UNL     1     -11.486   8.625  -4.131  1.00  0.00    -0.014 A 
BRANCH  33  34
ATOM     34  C   UNL     1     -11.380   9.934  -4.826  1.00  0.00     0.031 A 
ATOM     35  C   UNL     1     -11.820  10.050  -6.262  1.00  0.00     0.074 A 
ATOM     36  C   UNL     1     -10.783  10.975  -4.211  1.00  0.00     0.049 A 
ATOM     37  N   UNL     1     -11.686  11.056  -7.086  1.00  0.00    -0.248 NA
ATOM     38  C   UNL     1     -12.461   8.868  -6.865  1.00  0.00     0.031 C 
ATOM     39  C   UNL     1     -10.242  10.962  -2.849  1.00  0.00     0.029 A 
ATOM     40  N   UNL     1     -10.494  12.238  -4.667  1.00  0.00    -0.354 N 
ATOM     41  C   UNL     1     -12.172  10.611  -8.310  1.00  0.00     0.074 A 
ATOM     42  C   UNL     1     -12.580   9.237  -8.132  1.00  0.00     0.031 C 
ATOM     43  C   UNL     1      -9.684  12.154  -2.584  1.00  0.00     0.029 A 
ATOM     44  C   UNL     1      -9.789  13.003  -3.765  1.00  0.00     0.049 A 
ATOM     45  H   UNL     1     -10.765  12.566  -5.555  1.00  0.00     0.167 HD
ATOM     46  C   UNL     1     -12.291  11.294  -9.472  1.00  0.00     0.034 A 
ATOM     47  C   UNL     1      -9.267  14.241  -3.885  1.00  0.00     0.034 A 
ATOM     48  C   UNL     1     -11.944  12.680  -9.625  1.00  0.00     0.049 A 
ATOM     49  C   UNL     1      -9.468  14.995  -5.173  1.00  0.00     0.074 A 
ATOM     50  C   UNL     1     -12.128  13.492 -10.729  1.00  0.00     0.029 A 
ATOM     51  N   UNL     1     -11.339  13.455  -8.650  1.00  0.00    -0.354 N 
ATOM     52  N   UNL     1     -10.075  14.608  -6.268  1.00  0.00    -0.248 NA
ATOM     53  C   UNL     1      -8.946  16.368  -5.231  1.00  0.00     0.031 C 
ATOM     54  C   UNL     1     -11.606  14.753 -10.432  1.00  0.00     0.029 A 
ATOM     55  C   UNL     1     -11.135  14.736  -9.129  1.00  0.00     0.049 A 
ATOM     56  H   UNL     1     -11.091  13.141  -7.751  1.00  0.00     0.167 HD
ATOM     57  C   UNL     1     -10.052  15.703  -7.123  1.00  0.00     0.074 A 
ATOM     58  C   UNL     1      -9.380  16.773  -6.417  1.00  0.00     0.031 C 
ATOM     59  C   UNL     1     -10.534  15.810  -8.385  1.00  0.00     0.034 A 
BRANCH  46  60
ATOM     60  C   UNL     1     -12.867  10.578 -10.664  1.00  0.00     0.023 A 
ATOM     61  C   UNL     1     -14.241  10.264 -10.695  1.00  0.00     0.012 A 
ATOM     62  C   UNL     1     -12.068  10.304 -11.791  1.00  0.00     0.148 A 
ATOM     63  C   UNL     1     -14.806   9.667 -11.821  1.00  0.00     0.002 A 
ATOM     64  C   UNL     1     -12.649   9.754 -12.927  1.00  0.00     0.091 A 
ATOM     65  F   UNL     1     -10.761  10.593 -11.733  1.00  0.00    -0.205 F 
ATOM     66  C   UNL     1     -14.014   9.425 -12.940  1.00  0.00     0.022 A 
BRANCH  64  67
ATOM     67  S   UNL     1     -11.736   9.484 -14.451  1.00  0.00     0.127 S 
ATOM     68  O   UNL     1     -11.742   8.025 -14.543  1.00  0.00    -0.237 OA
ATOM     69  O   UNL     1     -12.580  10.161 -15.436  1.00  0.00    -0.237 OA
ATOM     70  O   UNL     1     -10.426  10.087 -14.250  1.00  0.00    -0.744 OA
ENDBRANCH  64  67
ENDBRANCH  46  60
BRANCH  47  71
ATOM     71  C   UNL     1      -8.541  14.868  -2.742  1.00  0.00     0.023 A 
ATOM     72  C   UNL     1      -9.109  15.975  -2.082  1.00  0.00     0.012 A 
ATOM     73  C   UNL     1      -7.294  14.379  -2.310  1.00  0.00     0.148 A 
ATOM     74  C   UNL     1      -8.428  16.613  -1.044  1.00  0.00     0.002 A 
ATOM     75  C   UNL     1      -6.647  14.983  -1.237  1.00  0.00     0.091 A 
ATOM     76  F   UNL     1      -6.762  13.332  -2.957  1.00  0.00    -0.205 F 
ATOM     77  C   UNL     1      -7.201  16.113  -0.617  1.00  0.00     0.022 A 
BRANCH  75  78
ATOM     78  S   UNL     1      -5.131  14.322  -0.537  1.00  0.00     0.127 S 
ATOM     79  O   UNL     1      -4.140  15.287  -1.005  1.00  0.00    -0.237 OA
ATOM     80  O   UNL     1      -5.412  14.373   0.898  1.00  0.00    -0.237 OA
ATOM     81  O   UNL     1      -5.010  12.973  -1.075  1.00  0.00    -0.744 OA
ENDBRANCH  75  78
ENDBRANCH  47  71
BRANCH  59  82
ATOM     82  C   UNL     1     -10.431  17.146  -9.071  1.00  0.00     0.023 A 
ATOM     83  C   UNL     1      -9.188  17.607  -9.542  1.00  0.00     0.012 A 
ATOM     84  C   UNL     1     -11.597  17.892  -9.338  1.00  0.00     0.148 A 
ATOM     85  C   UNL     1      -9.102  18.806 -10.250  1.00  0.00     0.002 A 
ATOM     86  C   UNL     1     -11.511  19.056 -10.089  1.00  0.00     0.091 A 
ATOM     87  F   UNL     1     -12.767  17.440  -8.865  1.00  0.00    -0.205 F 
ATOM     88  C   UNL     1     -10.264  19.521 -10.535  1.00  0.00     0.022 A 
BRANCH  86  89
ATOM     89  S   UNL     1     -12.963  19.984 -10.595  1.00  0.00     0.127 S 
ATOM     90  O   UNL     1     -12.832  21.201  -9.795  1.00  0.00    -0.237 OA
ATOM     91  O   UNL     1     -12.729  20.168 -12.028  1.00  0.00    -0.237 OA
ATOM     92  O   UNL     1     -14.111  19.148 -10.271  1.00  0.00    -0.744 OA
ENDBRANCH  86  89
ENDBRANCH  59  82
ENDBRANCH  33  34
ENDBRANCH  25  28
ENDBRANCH  23  24
ENDBRANCH   1  23
TORSDOF 18
