REMARK SMILES N#Cc1ccc(C(F)(F)F)nc1N1CCOC[C@H]1C(=O)NCCCNC(=O)c1ccc(-c2c3nc(c(-c4cccc(S(=O)(=O)[O-])c4F)c4ccc([nH]4)c(-c4cccc(S(=O)(=O)[O-])c4F)c4nc(c(-c5cccc(S(=O)(=O)[O-])c5F)c5ccc2[nH]5)C=C4)C=C3)cc1
REMARK SMILES IDX 23 1 22 2 21 3 19 4 20 5 18 7 13 8 14 9 15 10 17 11 16 12
REMARK SMILES IDX 12 13 3 14 4 15 5 16 11 17 6 18 2 19 1 20 7 21 8 22 9 23
REMARK SMILES IDX 10 24 24 25 25 26 26 27 27 29 28 30 29 31 90 32 30 33 89 34
REMARK SMILES IDX 31 35 32 36 33 37 83 38 34 39 88 40 82 41 84 42 35 43 87 44
REMARK SMILES IDX 81 45 80 46 36 48 68 49 48 50 67 51 49 52 52 53 66 54 85 55
REMARK SMILES IDX 50 56 51 57 65 59 86 60 53 61 37 62 38 63 46 64 39 65 41 66
REMARK SMILES IDX 47 67 40 68 42 69 43 70 44 71 45 72 69 73 70 74 78 75 71 76
REMARK SMILES IDX 73 77 79 78 72 79 74 80 75 81 76 82 77 83 54 84 55 85 63 86
REMARK SMILES IDX 56 87 58 88 64 89 57 90 59 91 60 92 61 93 62 94
REMARK H PARENT 21 6 25 28 84 47 52 58
REMARK Flexibility Score: inf
ROOT
ATOM      1  C   UNL     1       0.944  -4.377   3.409  1.00  0.00     0.042 C 
ENDROOT
BRANCH   1   2
ATOM      2  C   UNL     1       1.058  -5.187   2.124  1.00  0.00     0.117 C 
BRANCH   2   3
ATOM      3  N   UNL     1      -0.137  -5.091   1.311  1.00  0.00    -0.354 N 
ATOM      4  C   UNL     1      -0.476  -4.380   0.201  1.00  0.00     0.245 C 
ATOM      5  O   UNL     1      -1.602  -4.654  -0.247  1.00  0.00    -0.273 OA
ATOM      6  H   UNL     1      -0.866  -5.669   1.633  1.00  0.00     0.163 HD
BRANCH   4   7
ATOM      7  C   UNL     1       0.422  -3.381  -0.574  1.00  0.00     0.199 C 
ATOM      8  N   UNL     1       0.740  -2.092   0.081  1.00  0.00    -0.339 N 
ATOM      9  C   UNL     1       1.865  -2.094   1.007  1.00  0.00     0.147 C 
ATOM     10  C   UNL     1       3.096  -2.735   0.359  1.00  0.00     0.181 C 
ATOM     11  C   UNL     1       1.719  -4.021  -1.116  1.00  0.00     0.195 C 
ATOM     12  O   UNL     1       2.825  -4.029  -0.200  1.00  0.00    -0.377 OA
BRANCH   8  13
ATOM     13  C   UNL     1      -0.029  -0.960  -0.093  1.00  0.00     0.148 A 
ATOM     14  C   UNL     1       0.531   0.327  -0.204  1.00  0.00     0.095 A 
ATOM     15  C   UNL     1      -0.292   1.454  -0.178  1.00  0.00     0.025 A 
ATOM     16  C   UNL     1      -1.665   1.292  -0.115  1.00  0.00     0.035 A 
ATOM     17  N   UNL     1      -1.376  -1.109  -0.120  1.00  0.00    -0.225 NA
ATOM     18  C   UNL     1      -2.187   0.001  -0.124  1.00  0.00     0.146 A 
BRANCH  14  19
ATOM     19  C   UNL     1       1.932   0.541  -0.426  1.00  0.00     0.103 C 
ATOM     20  N   UNL     1       3.063   0.712  -0.610  1.00  0.00    -0.192 NA
ENDBRANCH  14  19
BRANCH  18  21
ATOM     21  C   UNL     1      -3.707  -0.165  -0.148  1.00  0.00     0.433 C 
ATOM     22  F   UNL     1      -4.157  -0.816  -1.259  1.00  0.00    -0.165 F 
ATOM     23  F   UNL     1      -4.202  -0.840   0.924  1.00  0.00    -0.165 F 
ATOM     24  F   UNL     1      -4.369   1.036  -0.155  1.00  0.00    -0.165 F 
ENDBRANCH  18  21
ENDBRANCH   8  13
ENDBRANCH   4   7
ENDBRANCH   2   3
ENDBRANCH   1   2
BRANCH   1  25
ATOM     25  C   UNL     1       0.450  -5.183   4.588  1.00  0.00     0.118 C 
BRANCH  25  26
ATOM     26  N   UNL     1       1.424  -6.182   5.004  1.00  0.00    -0.352 N 
ATOM     27  C   UNL     1       2.077  -6.339   6.199  1.00  0.00     0.251 C 
ATOM     28  H   UNL     1       1.649  -6.852   4.318  1.00  0.00     0.163 HD
ATOM     29  O   UNL     1       3.035  -7.105   6.256  1.00  0.00    -0.269 OA
BRANCH  27  30
ATOM     30  C   UNL     1       1.647  -5.593   7.403  1.00  0.00     0.039 A 
ATOM     31  C   UNL     1       2.610  -5.239   8.349  1.00  0.00     0.014 A 
ATOM     32  C   UNL     1       0.305  -5.273   7.627  1.00  0.00     0.014 A 
ATOM     33  C   UNL     1       2.227  -4.550   9.497  1.00  0.00     0.010 A 
ATOM     34  C   UNL     1      -0.052  -4.463   8.697  1.00  0.00     0.010 A 
ATOM     35  C   UNL     1       0.896  -4.131   9.668  1.00  0.00    -0.014 A 
BRANCH  35  36
ATOM     36  C   UNL     1       0.496  -3.376  10.879  1.00  0.00     0.031 A 
ATOM     37  C   UNL     1      -0.547  -3.924  11.816  1.00  0.00     0.074 A 
ATOM     38  C   UNL     1       1.071  -2.183  11.123  1.00  0.00     0.049 A 
ATOM     39  N   UNL     1      -0.954  -3.442  12.961  1.00  0.00    -0.248 NA
ATOM     40  C   UNL     1      -1.242  -5.159  11.412  1.00  0.00     0.031 C 
ATOM     41  C   UNL     1       2.023  -1.507  10.236  1.00  0.00     0.029 A 
ATOM     42  N   UNL     1       0.945  -1.328  12.186  1.00  0.00    -0.354 N 
ATOM     43  C   UNL     1      -1.964  -4.291  13.396  1.00  0.00     0.074 A 
ATOM     44  C   UNL     1      -2.146  -5.292  12.371  1.00  0.00     0.031 C 
ATOM     45  C   UNL     1       2.428  -0.366  10.813  1.00  0.00     0.029 A 
ATOM     46  C   UNL     1       1.733  -0.206  12.085  1.00  0.00     0.049 A 
ATOM     47  H   UNL     1       0.348  -1.501  12.950  1.00  0.00     0.167 HD
ATOM     48  C   UNL     1      -2.660  -4.258  14.556  1.00  0.00     0.034 A 
ATOM     49  C   UNL     1       1.877   0.837  12.922  1.00  0.00     0.034 A 
ATOM     50  C   UNL     1      -2.461  -3.266  15.577  1.00  0.00     0.049 A 
ATOM     51  C   UNL     1       1.120   0.831  14.219  1.00  0.00     0.074 A 
ATOM     52  C   UNL     1      -3.053  -3.185  16.824  1.00  0.00     0.029 A 
ATOM     53  N   UNL     1      -1.623  -2.168  15.459  1.00  0.00    -0.354 N 
ATOM     54  N   UNL     1       0.281  -0.064  14.681  1.00  0.00    -0.248 NA
ATOM     55  C   UNL     1       1.363   1.957  15.129  1.00  0.00     0.031 C 
ATOM     56  C   UNL     1      -2.617  -2.006  17.437  1.00  0.00     0.029 A 
ATOM     57  C   UNL     1      -1.698  -1.390  16.602  1.00  0.00     0.049 A 
ATOM     58  H   UNL     1      -1.057  -1.971  14.678  1.00  0.00     0.167 HD
ATOM     59  C   UNL     1      -0.077   0.370  15.951  1.00  0.00     0.074 A 
ATOM     60  C   UNL     1       0.659   1.595  16.192  1.00  0.00     0.031 C 
ATOM     61  C   UNL     1      -0.941  -0.188  16.836  1.00  0.00     0.034 A 
BRANCH  48  62
ATOM     62  C   UNL     1      -3.691  -5.334  14.789  1.00  0.00     0.023 A 
ATOM     63  C   UNL     1      -3.289  -6.673  14.980  1.00  0.00     0.012 A 
ATOM     64  C   UNL     1      -5.059  -5.008  14.867  1.00  0.00     0.148 A 
ATOM     65  C   UNL     1      -4.234  -7.675  15.204  1.00  0.00     0.002 A 
ATOM     66  C   UNL     1      -5.989  -6.002  15.146  1.00  0.00     0.091 A 
ATOM     67  F   UNL     1      -5.425  -3.736  14.661  1.00  0.00    -0.205 F 
ATOM     68  C   UNL     1      -5.581  -7.337  15.299  1.00  0.00     0.022 A 
BRANCH  66  69
ATOM     69  S   UNL     1      -7.736  -5.656  15.373  1.00  0.00     0.127 S 
ATOM     70  O   UNL     1      -8.323  -6.328  14.214  1.00  0.00    -0.237 OA
ATOM     71  O   UNL     1      -8.010  -6.302  16.656  1.00  0.00    -0.237 OA
ATOM     72  O   UNL     1      -7.864  -4.206  15.380  1.00  0.00    -0.744 OA
ENDBRANCH  66  69
ENDBRANCH  48  62
BRANCH  49  73
ATOM     73  C   UNL     1       2.803   1.949  12.572  1.00  0.00     0.023 A 
ATOM     74  C   UNL     1       3.981   2.150  13.316  1.00  0.00     0.012 A 
ATOM     75  C   UNL     1       2.525   2.797  11.483  1.00  0.00     0.148 A 
ATOM     76  C   UNL     1       4.846   3.200  13.006  1.00  0.00     0.002 A 
ATOM     77  C   UNL     1       3.420   3.801  11.141  1.00  0.00     0.091 A 
ATOM     78  F   UNL     1       1.395   2.589  10.791  1.00  0.00    -0.205 F 
ATOM     79  C   UNL     1       4.570   4.019  11.914  1.00  0.00     0.022 A 
BRANCH  77  80
ATOM     80  S   UNL     1       3.212   4.812   9.672  1.00  0.00     0.127 S 
ATOM     81  O   UNL     1       2.961   6.130  10.250  1.00  0.00    -0.237 OA
ATOM     82  O   UNL     1       4.512   4.660   9.018  1.00  0.00    -0.237 OA
ATOM     83  O   UNL     1       2.099   4.223   8.939  1.00  0.00    -0.744 OA
ENDBRANCH  77  80
ENDBRANCH  49  73
BRANCH  61  84
ATOM     84  C   UNL     1      -1.094   0.493  18.172  1.00  0.00     0.023 A 
ATOM     85  C   UNL     1      -1.701   1.761  18.264  1.00  0.00     0.012 A 
ATOM     86  C   UNL     1      -0.651  -0.148  19.346  1.00  0.00     0.148 A 
ATOM     87  C   UNL     1      -1.807   2.407  19.495  1.00  0.00     0.002 A 
ATOM     88  C   UNL     1      -0.819   0.474  20.576  1.00  0.00     0.091 A 
ATOM     89  F   UNL     1      -0.064  -1.349  19.238  1.00  0.00    -0.205 F 
ATOM     90  C   UNL     1      -1.375   1.760  20.650  1.00  0.00     0.022 A 
BRANCH  88  91
ATOM     91  S   UNL     1      -0.388  -0.328  22.123  1.00  0.00     0.127 S 
ATOM     92  O   UNL     1       0.795   0.429  22.530  1.00  0.00    -0.237 OA
ATOM     93  O   UNL     1      -1.579  -0.085  22.938  1.00  0.00    -0.237 OA
ATOM     94  O   UNL     1      -0.153  -1.729  21.799  1.00  0.00    -0.744 OA
ENDBRANCH  88  91
ENDBRANCH  61  84
ENDBRANCH  35  36
ENDBRANCH  27  30
ENDBRANCH  25  26
ENDBRANCH   1  25
TORSDOF 16
