REMARK SMILES CC(C)(C)OC(=O)N1CCN(C(=O)c2ccc3c(c2)OCO3)[C@H](C(=O)NCCCNC(=O)c2ccc(-c3c4nc(c(-c5cccc(S(=O)(=O)[O-])c5F)c5ccc([nH]5)c(-c5cccc(S(=O)(=O)[O-])c5F)c5nc(c(-c6cccc(S(=O)(=O)[O-])c6F)c6ccc3[nH]6)C=C5)C=C4)cc2)C1
REMARK SMILES IDX 28 1 27 2 26 3 24 4 25 5 23 7 8 8 9 9 96 10 10 11 11 12 6 13
REMARK SMILES IDX 7 14 5 15 2 16 1 17 3 18 4 19 12 20 13 21 14 22 15 23 19 24
REMARK SMILES IDX 16 25 18 26 17 27 20 28 22 29 21 30 29 31 30 32 31 33 32 35
REMARK SMILES IDX 33 36 34 37 95 38 35 39 94 40 36 41 37 42 38 43 88 44 39 45
REMARK SMILES IDX 93 46 87 47 89 48 40 49 92 50 86 51 85 52 41 54 73 55 53 56
REMARK SMILES IDX 72 57 54 58 57 59 71 60 90 61 55 62 56 63 70 65 91 66 58 67
REMARK SMILES IDX 42 68 43 69 51 70 44 71 46 72 52 73 45 74 47 75 48 76 49 77
REMARK SMILES IDX 50 78 74 79 75 80 83 81 76 82 78 83 84 84 77 85 79 86 80 87
REMARK SMILES IDX 81 88 82 89 59 90 60 91 68 92 61 93 63 94 69 95 62 96 64 97
REMARK SMILES IDX 65 98 66 99 67 100
REMARK H PARENT 26 6 30 34 89 53 57 64
REMARK Flexibility Score: inf
ROOT
ATOM      1  C   UNL     1       4.827   4.794  -5.811  1.00  0.00     0.042 C 
ENDROOT
BRANCH   1   2
ATOM      2  C   UNL     1       4.424   3.930  -4.622  1.00  0.00     0.117 C 
BRANCH   2   3
ATOM      3  N   UNL     1       5.036   4.306  -3.360  1.00  0.00    -0.354 N 
ATOM      4  C   UNL     1       4.492   4.729  -2.183  1.00  0.00     0.244 C 
ATOM      5  O   UNL     1       5.232   4.726  -1.193  1.00  0.00    -0.273 OA
ATOM      6  H   UNL     1       6.019   4.245  -3.352  1.00  0.00     0.163 HD
BRANCH   4   7
ATOM      7  C   UNL     1       2.996   5.066  -2.024  1.00  0.00     0.194 C 
ATOM      8  N   UNL     1       0.967   3.601  -2.692  1.00  0.00    -0.304 N 
ATOM      9  C   UNL     1       0.627   4.593  -3.699  1.00  0.00     0.144 C 
ATOM     10  C   UNL     1       2.275   3.692  -2.053  1.00  0.00     0.158 C 
ATOM     11  C   UNL     1       1.020   5.996  -3.260  1.00  0.00     0.142 C 
ATOM     12  N   UNL     1       2.427   6.144  -2.872  1.00  0.00    -0.323 N 
BRANCH   8  13
ATOM     13  C   UNL     1       0.238   2.423  -2.618  1.00  0.00     0.410 C 
ATOM     14  O   UNL     1      -0.711   2.152  -3.337  1.00  0.00    -0.224 OA
BRANCH  13  15
ATOM     15  O   UNL     1       0.736   1.609  -1.655  1.00  0.00    -0.444 OA
BRANCH  15  16
ATOM     16  C   UNL     1       0.253   0.265  -1.417  1.00  0.00     0.106 C 
ATOM     17  C   UNL     1       0.890  -0.121  -0.073  1.00  0.00     0.056 C 
ATOM     18  C   UNL     1       0.778  -0.669  -2.510  1.00  0.00     0.056 C 
ATOM     19  C   UNL     1      -1.269   0.182  -1.279  1.00  0.00     0.056 C 
ENDBRANCH  15  16
ENDBRANCH  13  15
ENDBRANCH   8  13
BRANCH  12  20
ATOM     20  C   UNL     1       2.801   7.497  -2.662  1.00  0.00     0.254 C 
ATOM     21  O   UNL     1       2.004   8.429  -2.752  1.00  0.00    -0.269 OA
BRANCH  20  22
ATOM     22  C   UNL     1       4.201   7.845  -2.327  1.00  0.00     0.044 A 
ATOM     23  C   UNL     1       5.228   7.481  -3.214  1.00  0.00     0.018 A 
ATOM     24  C   UNL     1       4.488   8.622  -1.199  1.00  0.00     0.064 A 
ATOM     25  C   UNL     1       6.564   7.757  -2.923  1.00  0.00     0.051 A 
ATOM     26  C   UNL     1       5.816   8.914  -0.953  1.00  0.00     0.166 A 
ATOM     27  C   UNL     1       6.825   8.470  -1.777  1.00  0.00     0.165 A 
ATOM     28  O   UNL     1       6.296   9.649   0.087  1.00  0.00    -0.454 OA
ATOM     29  O   UNL     1       8.059   8.838  -1.346  1.00  0.00    -0.454 OA
ATOM     30  C   UNL     1       7.713   9.634  -0.197  1.00  0.00     0.468 C 
ENDBRANCH  20  22
ENDBRANCH  12  20
ENDBRANCH   4   7
ENDBRANCH   2   3
ENDBRANCH   1   2
BRANCH   1  31
ATOM     31  C   UNL     1       6.307   5.138  -5.912  1.00  0.00     0.118 C 
BRANCH  31  32
ATOM     32  N   UNL     1       7.167   3.997  -6.166  1.00  0.00    -0.352 N 
ATOM     33  C   UNL     1       8.204   3.899  -7.066  1.00  0.00     0.251 C 
ATOM     34  H   UNL     1       6.986   3.193  -5.628  1.00  0.00     0.163 HD
ATOM     35  O   UNL     1       8.804   2.837  -7.196  1.00  0.00    -0.269 OA
BRANCH  33  36
ATOM     36  C   UNL     1       8.555   5.064  -7.907  1.00  0.00     0.039 A 
ATOM     37  C   UNL     1       8.616   4.891  -9.292  1.00  0.00     0.014 A 
ATOM     38  C   UNL     1       8.786   6.324  -7.344  1.00  0.00     0.014 A 
ATOM     39  C   UNL     1       8.853   5.992 -10.118  1.00  0.00     0.010 A 
ATOM     40  C   UNL     1       8.956   7.432  -8.174  1.00  0.00     0.010 A 
ATOM     41  C   UNL     1       8.998   7.277  -9.569  1.00  0.00    -0.014 A 
BRANCH  41  42
ATOM     42  C   UNL     1       9.201   8.461 -10.446  1.00  0.00     0.031 A 
ATOM     43  C   UNL     1      10.488   9.238 -10.385  1.00  0.00     0.074 A 
ATOM     44  C   UNL     1       8.207   8.873 -11.259  1.00  0.00     0.049 A 
ATOM     45  N   UNL     1      10.843  10.299 -11.063  1.00  0.00    -0.248 NA
ATOM     46  C   UNL     1      11.501   8.777  -9.421  1.00  0.00     0.031 C 
ATOM     47  C   UNL     1       6.883   8.255 -11.358  1.00  0.00     0.029 A 
ATOM     48  N   UNL     1       8.148   9.923 -12.142  1.00  0.00    -0.354 N 
ATOM     49  C   UNL     1      12.101  10.652 -10.587  1.00  0.00     0.074 A 
ATOM     50  C   UNL     1      12.433   9.712  -9.539  1.00  0.00     0.031 C 
ATOM     51  C   UNL     1       6.146   8.932 -12.253  1.00  0.00     0.029 A 
ATOM     52  C   UNL     1       6.933  10.046 -12.777  1.00  0.00     0.049 A 
ATOM     53  H   UNL     1       8.904  10.532 -12.306  1.00  0.00     0.167 HD
ATOM     54  C   UNL     1      12.921  11.645 -11.005  1.00  0.00     0.034 A 
ATOM     55  C   UNL     1       6.501  10.951 -13.677  1.00  0.00     0.034 A 
ATOM     56  C   UNL     1      12.611  12.550 -12.079  1.00  0.00     0.049 A 
ATOM     57  C   UNL     1       7.447  12.021 -14.154  1.00  0.00     0.074 A 
ATOM     58  C   UNL     1      13.412  13.530 -12.636  1.00  0.00     0.029 A 
ATOM     59  N   UNL     1      11.401  12.591 -12.754  1.00  0.00    -0.354 N 
ATOM     60  N   UNL     1       8.695  12.231 -13.812  1.00  0.00    -0.248 NA
ATOM     61  C   UNL     1       6.939  12.955 -15.170  1.00  0.00     0.031 C 
ATOM     62  C   UNL     1      12.679  14.179 -13.635  1.00  0.00     0.029 A 
ATOM     63  C   UNL     1      11.430  13.586 -13.716  1.00  0.00     0.049 A 
ATOM     64  H   UNL     1      10.634  12.000 -12.576  1.00  0.00     0.167 HD
ATOM     65  C   UNL     1       9.131  13.296 -14.593  1.00  0.00     0.074 A 
ATOM     66  C   UNL     1       8.021  13.672 -15.443  1.00  0.00     0.031 C 
ATOM     67  C   UNL     1      10.337  13.915 -14.596  1.00  0.00     0.034 A 
BRANCH  54  68
ATOM     68  C   UNL     1      14.264  11.769 -10.335  1.00  0.00     0.023 A 
ATOM     69  C   UNL     1      15.258  10.801 -10.589  1.00  0.00     0.012 A 
ATOM     70  C   UNL     1      14.564  12.864  -9.502  1.00  0.00     0.148 A 
ATOM     71  C   UNL     1      16.516  10.901  -9.997  1.00  0.00     0.002 A 
ATOM     72  C   UNL     1      15.835  12.980  -8.950  1.00  0.00     0.091 A 
ATOM     73  F   UNL     1      13.601  13.763  -9.255  1.00  0.00    -0.205 F 
ATOM     74  C   UNL     1      16.807  11.995  -9.186  1.00  0.00     0.022 A 
BRANCH  72  75
ATOM     75  S   UNL     1      16.334  14.391  -7.955  1.00  0.00     0.127 S 
ATOM     76  O   UNL     1      16.406  13.799  -6.620  1.00  0.00    -0.237 OA
ATOM     77  O   UNL     1      17.630  14.737  -8.540  1.00  0.00    -0.237 OA
ATOM     78  O   UNL     1      15.297  15.397  -8.138  1.00  0.00    -0.744 OA
ENDBRANCH  72  75
ENDBRANCH  54  68
BRANCH  55  79
ATOM     79  C   UNL     1       5.125  10.844 -14.241  1.00  0.00     0.023 A 
ATOM     80  C   UNL     1       4.957  10.466 -15.588  1.00  0.00     0.012 A 
ATOM     81  C   UNL     1       3.986  11.091 -13.451  1.00  0.00     0.148 A 
ATOM     82  C   UNL     1       3.682  10.368 -16.146  1.00  0.00     0.002 A 
ATOM     83  C   UNL     1       2.717  10.937 -13.998  1.00  0.00     0.091 A 
ATOM     84  F   UNL     1       4.166  11.463 -12.175  1.00  0.00    -0.205 F 
ATOM     85  C   UNL     1       2.562  10.593 -15.350  1.00  0.00     0.022 A 
BRANCH  83  86
ATOM     86  S   UNL     1       1.221  11.077 -13.013  1.00  0.00     0.127 S 
ATOM     87  O   UNL     1       0.660  12.335 -13.498  1.00  0.00    -0.237 OA
ATOM     88  O   UNL     1       0.484   9.877 -13.412  1.00  0.00    -0.237 OA
ATOM     89  O   UNL     1       1.665  11.072 -11.626  1.00  0.00    -0.744 OA
ENDBRANCH  83  86
ENDBRANCH  55  79
BRANCH  67  90
ATOM     90  C   UNL     1      10.543  15.047 -15.569  1.00  0.00     0.023 A 
ATOM     91  C   UNL     1       9.915  16.288 -15.341  1.00  0.00     0.012 A 
ATOM     92  C   UNL     1      11.421  14.906 -16.662  1.00  0.00     0.148 A 
ATOM     93  C   UNL     1      10.134  17.361 -16.204  1.00  0.00     0.002 A 
ATOM     94  C   UNL     1      11.671  15.994 -17.489  1.00  0.00     0.091 A 
ATOM     95  F   UNL     1      11.994  13.712 -16.872  1.00  0.00    -0.205 F 
ATOM     96  C   UNL     1      11.020  17.218 -17.270  1.00  0.00     0.022 A 
BRANCH  94  97
ATOM     97  S   UNL     1      12.871  15.929 -18.826  1.00  0.00     0.127 S 
ATOM     98  O   UNL     1      12.004  15.901 -20.003  1.00  0.00    -0.237 OA
ATOM     99  O   UNL     1      13.609  17.180 -18.642  1.00  0.00    -0.237 OA
ATOM    100  O   UNL     1      13.659  14.726 -18.599  1.00  0.00    -0.744 OA
ENDBRANCH  94  97
ENDBRANCH  67  90
ENDBRANCH  41  42
ENDBRANCH  33  36
ENDBRANCH  31  32
ENDBRANCH   1  31
TORSDOF 18
