REMARK SMILES C[C@H]([NH2+]CC1(O)CCCC1)[C@H](C)C(=O)NCCCNC(=O)c1ccc(-c2c3nc(c(-c4cccc(S(=O)(=O)[O-])c4F)c4ccc([nH]4)c(-c4cccc(S(=O)(=O)[O-])c4F)c4nc(c(-c5cccc(S(=O)(=O)[O-])c5F)c5ccc2[nH]5)C=C4)C=C3)cc1
REMARK SMILES IDX 16 1 15 2 13 3 14 4 11 6 12 7 2 8 1 9 3 10 4 13 5 14 7 15
REMARK SMILES IDX 10 16 8 17 9 18 6 19 17 21 18 22 19 23 20 24 21 26 22 27
REMARK SMILES IDX 23 28 84 29 24 30 83 31 25 32 26 33 27 34 77 35 28 36 82 37
REMARK SMILES IDX 76 38 78 39 29 40 81 41 75 42 74 43 30 45 62 46 42 47 61 48
REMARK SMILES IDX 43 49 46 50 60 51 79 52 44 53 45 54 59 56 80 57 47 58 31 59
REMARK SMILES IDX 32 60 40 61 33 62 35 63 41 64 34 65 36 66 37 67 38 68 39 69
REMARK SMILES IDX 63 70 64 71 72 72 65 73 67 74 73 75 66 76 68 77 69 78 70 79
REMARK SMILES IDX 71 80 48 81 49 82 57 83 50 84 52 85 58 86 51 87 53 88 54 89
REMARK SMILES IDX 55 90 56 91
REMARK H PARENT 15 5 3 11 3 12 6 20 19 25 78 44 46 55
REMARK Flexibility Score: inf
ROOT
ATOM      1  C   UNL     1       0.983   3.505   0.806  1.00  0.00     0.117 C 
ENDROOT
BRANCH   1   2
ATOM      2  N   UNL     1       0.129   3.568  -0.362  1.00  0.00    -0.356 N 
ATOM      3  C   UNL     1      -0.741   2.645  -0.860  1.00  0.00     0.228 C 
ATOM      4  O   UNL     1      -1.498   3.018  -1.763  1.00  0.00    -0.275 OA
ATOM      5  H   UNL     1       0.185   4.407  -0.875  1.00  0.00     0.163 HD
BRANCH   3   6
ATOM      6  C   UNL     1      -0.817   1.210  -0.344  1.00  0.00     0.133 C 
ATOM      7  C   UNL     1       0.548   0.512  -0.333  1.00  0.00     0.024 C 
BRANCH   6   8
ATOM      8  C   UNL     1      -1.659   0.930   0.944  1.00  0.00     0.191 C 
ATOM      9  C   UNL     1      -3.030   0.340   0.577  1.00  0.00     0.076 C 
BRANCH   8  10
ATOM     10  N   UNL     1      -1.793   1.951   1.997  1.00  0.00    -0.341 N 
ATOM     11  H   UNL     1      -0.863   2.323   2.191  1.00  0.00     0.346 HD
ATOM     12  H   UNL     1      -2.225   1.474   2.789  1.00  0.00     0.346 HD
BRANCH  10  13
ATOM     13  C   UNL     1      -2.677   3.086   1.688  1.00  0.00     0.296 C 
BRANCH  13  14
ATOM     14  C   UNL     1      -2.845   4.167   2.798  1.00  0.00     0.113 C 
ATOM     15  C   UNL     1      -2.653   5.584   2.235  1.00  0.00     0.041 C 
ATOM     16  C   UNL     1      -1.847   4.154   3.958  1.00  0.00     0.041 C 
ATOM     17  C   UNL     1      -2.436   6.473   3.458  1.00  0.00     0.003 C 
ATOM     18  C   UNL     1      -1.978   5.544   4.584  1.00  0.00     0.003 C 
BRANCH  14  19
ATOM     19  O   UNL     1      -4.177   4.051   3.327  1.00  0.00    -0.384 OA
ATOM     20  H   UNL     1      -4.817   4.059   2.598  1.00  0.00     0.211 HD
ENDBRANCH  14  19
ENDBRANCH  13  14
ENDBRANCH  10  13
ENDBRANCH   8  10
ENDBRANCH   6   8
ENDBRANCH   3   6
ENDBRANCH   1   2
BRANCH   1  21
ATOM     21  C   UNL     1       2.151   4.476   0.773  1.00  0.00     0.042 C 
BRANCH  21  22
ATOM     22  C   UNL     1       1.764   5.937   0.969  1.00  0.00     0.118 C 
BRANCH  22  23
ATOM     23  N   UNL     1       1.123   6.224   2.248  1.00  0.00    -0.352 N 
ATOM     24  C   UNL     1       1.217   7.335   3.061  1.00  0.00     0.251 C 
ATOM     25  H   UNL     1       0.530   5.514   2.584  1.00  0.00     0.163 HD
ATOM     26  O   UNL     1       0.652   7.355   4.140  1.00  0.00    -0.269 OA
BRANCH  24  27
ATOM     27  C   UNL     1       2.080   8.467   2.676  1.00  0.00     0.039 A 
ATOM     28  C   UNL     1       2.881   9.024   3.678  1.00  0.00     0.014 A 
ATOM     29  C   UNL     1       2.195   8.889   1.353  1.00  0.00     0.014 A 
ATOM     30  C   UNL     1       3.924   9.868   3.324  1.00  0.00     0.010 A 
ATOM     31  C   UNL     1       3.294   9.648   0.987  1.00  0.00     0.010 A 
ATOM     32  C   UNL     1       4.191  10.094   1.968  1.00  0.00    -0.014 A 
BRANCH  32  33
ATOM     33  C   UNL     1       5.476  10.684   1.549  1.00  0.00     0.031 A 
ATOM     34  C   UNL     1       5.495  11.998   0.839  1.00  0.00     0.074 A 
ATOM     35  C   UNL     1       6.596   9.955   1.730  1.00  0.00     0.049 A 
ATOM     36  N   UNL     1       6.513  12.647   0.346  1.00  0.00    -0.248 NA
ATOM     37  C   UNL     1       4.195  12.656   0.623  1.00  0.00     0.031 C 
ATOM     38  C   UNL     1       6.645   8.613   2.325  1.00  0.00     0.029 A 
ATOM     39  N   UNL     1       7.903  10.220   1.422  1.00  0.00    -0.354 N 
ATOM     40  C   UNL     1       5.979  13.774  -0.262  1.00  0.00     0.074 A 
ATOM     41  C   UNL     1       4.542  13.703  -0.112  1.00  0.00     0.031 C 
ATOM     42  C   UNL     1       7.917   8.188   2.363  1.00  0.00     0.029 A 
ATOM     43  C   UNL     1       8.771   9.211   1.774  1.00  0.00     0.049 A 
ATOM     44  H   UNL     1       8.196  11.055   0.989  1.00  0.00     0.167 HD
ATOM     45  C   UNL     1       6.637  14.793  -0.861  1.00  0.00     0.034 A 
ATOM     46  C   UNL     1      10.109   9.134   1.646  1.00  0.00     0.034 A 
ATOM     47  C   UNL     1       8.069  14.850  -0.963  1.00  0.00     0.049 A 
ATOM     48  C   UNL     1      10.820  10.321   1.055  1.00  0.00     0.074 A 
ATOM     49  C   UNL     1       8.859  15.840  -1.514  1.00  0.00     0.029 A 
ATOM     50  N   UNL     1       8.926  13.867  -0.486  1.00  0.00    -0.354 N 
ATOM     51  N   UNL     1      10.309  11.441   0.600  1.00  0.00    -0.248 NA
ATOM     52  C   UNL     1      12.285  10.257   0.993  1.00  0.00     0.031 C 
ATOM     53  C   UNL     1      10.197  15.458  -1.362  1.00  0.00     0.029 A 
ATOM     54  C   UNL     1      10.239  14.232  -0.712  1.00  0.00     0.049 A 
ATOM     55  H   UNL     1       8.640  13.032  -0.050  1.00  0.00     0.167 HD
ATOM     56  C   UNL     1      11.388  12.229   0.228  1.00  0.00     0.074 A 
ATOM     57  C   UNL     1      12.583  11.465   0.533  1.00  0.00     0.031 C 
ATOM     58  C   UNL     1      11.398  13.463  -0.334  1.00  0.00     0.034 A 
BRANCH  45  59
ATOM     59  C   UNL     1       5.807  15.935  -1.378  1.00  0.00     0.023 A 
ATOM     60  C   UNL     1       5.205  16.817  -0.455  1.00  0.00     0.012 A 
ATOM     61  C   UNL     1       5.607  16.137  -2.756  1.00  0.00     0.148 A 
ATOM     62  C   UNL     1       4.384  17.855  -0.892  1.00  0.00     0.002 A 
ATOM     63  C   UNL     1       4.816  17.198  -3.187  1.00  0.00     0.091 A 
ATOM     64  F   UNL     1       6.165  15.275  -3.617  1.00  0.00    -0.205 F 
ATOM     65  C   UNL     1       4.195  18.049  -2.257  1.00  0.00     0.022 A 
BRANCH  63  66
ATOM     66  S   UNL     1       4.547  17.566  -4.924  1.00  0.00     0.127 S 
ATOM     67  O   UNL     1       3.150  17.171  -5.097  1.00  0.00    -0.237 OA
ATOM     68  O   UNL     1       4.784  19.009  -4.973  1.00  0.00    -0.237 OA
ATOM     69  O   UNL     1       5.519  16.766  -5.657  1.00  0.00    -0.744 OA
ENDBRANCH  63  66
ENDBRANCH  45  59
BRANCH  46  70
ATOM     70  C   UNL     1      10.852   7.960   2.187  1.00  0.00     0.023 A 
ATOM     71  C   UNL     1      11.648   8.126   3.338  1.00  0.00     0.012 A 
ATOM     72  C   UNL     1      10.742   6.678   1.615  1.00  0.00     0.148 A 
ATOM     73  C   UNL     1      12.344   7.048   3.888  1.00  0.00     0.002 A 
ATOM     74  C   UNL     1      11.398   5.597   2.199  1.00  0.00     0.091 A 
ATOM     75  F   UNL     1       9.990   6.532   0.514  1.00  0.00    -0.205 F 
ATOM     76  C   UNL     1      12.211   5.782   3.326  1.00  0.00     0.022 A 
BRANCH  74  77
ATOM     77  S   UNL     1      11.157   3.916   1.607  1.00  0.00     0.127 S 
ATOM     78  O   UNL     1      12.310   3.736   0.730  1.00  0.00    -0.237 OA
ATOM     79  O   UNL     1      11.197   3.136   2.845  1.00  0.00    -0.237 OA
ATOM     80  O   UNL     1       9.851   3.929   0.960  1.00  0.00    -0.744 OA
ENDBRANCH  74  77
ENDBRANCH  46  70
BRANCH  58  81
ATOM     81  C   UNL     1      12.739  14.070  -0.628  1.00  0.00     0.023 A 
ATOM     82  C   UNL     1      13.467  13.628  -1.749  1.00  0.00     0.012 A 
ATOM     83  C   UNL     1      13.229  15.135   0.150  1.00  0.00     0.148 A 
ATOM     84  C   UNL     1      14.678  14.230  -2.083  1.00  0.00     0.002 A 
ATOM     85  C   UNL     1      14.416  15.758  -0.214  1.00  0.00     0.091 A 
ATOM     86  F   UNL     1      12.530  15.517   1.228  1.00  0.00    -0.205 F 
ATOM     87  C   UNL     1      15.145  15.302  -1.325  1.00  0.00     0.022 A 
BRANCH  85  88
ATOM     88  S   UNL     1      15.035  17.203   0.653  1.00  0.00     0.127 S 
ATOM     89  O   UNL     1      16.095  16.624   1.477  1.00  0.00    -0.237 OA
ATOM     90  O   UNL     1      15.508  18.048  -0.444  1.00  0.00    -0.237 OA
ATOM     91  O   UNL     1      13.896  17.746   1.381  1.00  0.00    -0.744 OA
ENDBRANCH  85  88
ENDBRANCH  58  81
ENDBRANCH  32  33
ENDBRANCH  24  27
ENDBRANCH  22  23
ENDBRANCH  21  22
ENDBRANCH   1  21
TORSDOF 18
