REMARK SMILES CC(C)[C@H](NS(=O)(=O)c1cccc(F)c1)C(=O)NCCCNC(=O)c1ccc(-c2c3nc(c(-c4cccc(S(=O)(=O)[O-])c4F)c4ccc([nH]4)c(-c4cccc(S(=O)(=O)[O-])c4F)c4nc(c(-c5cccc(S(=O)(=O)[O-])c5F)c5ccc2[nH]5)C=C4)C=C3)cc1
REMARK SMILES IDX 20 1 19 2 18 3 16 4 17 5 4 7 2 8 1 9 3 10 5 11 6 13 7 14
REMARK SMILES IDX 8 15 9 16 10 17 15 18 11 19 13 20 12 21 14 22 21 23 22 24
REMARK SMILES IDX 23 25 24 27 25 28 26 29 87 30 27 31 86 32 28 33 29 34 30 35
REMARK SMILES IDX 80 36 31 37 85 38 79 39 81 40 32 41 84 42 78 43 77 44 33 46
REMARK SMILES IDX 65 47 45 48 64 49 46 50 49 51 63 52 82 53 47 54 48 55 62 57
REMARK SMILES IDX 83 58 50 59 34 60 35 61 43 62 36 63 38 64 44 65 37 66 39 67
REMARK SMILES IDX 40 68 41 69 42 70 66 71 67 72 75 73 68 74 70 75 76 76 69 77
REMARK SMILES IDX 71 78 72 79 73 80 74 81 51 82 52 83 60 84 53 85 55 86 61 87
REMARK SMILES IDX 54 88 56 89 57 90 58 91 59 92
REMARK H PARENT 18 6 5 12 22 26 81 45 49 56
REMARK Flexibility Score: inf
ROOT
ATOM      1  C   UNL     1       0.411   2.714   4.436  1.00  0.00     0.042 C 
ENDROOT
BRANCH   1   2
ATOM      2  C   UNL     1      -0.882   2.077   3.949  1.00  0.00     0.117 C 
BRANCH   2   3
ATOM      3  N   UNL     1      -1.417   2.820   2.833  1.00  0.00    -0.355 N 
ATOM      4  C   UNL     1      -1.407   2.511   1.512  1.00  0.00     0.238 C 
ATOM      5  O   UNL     1      -1.812   3.383   0.734  1.00  0.00    -0.273 OA
ATOM      6  H   UNL     1      -1.851   3.673   3.063  1.00  0.00     0.163 HD
BRANCH   4   7
ATOM      7  C   UNL     1      -1.016   1.129   0.984  1.00  0.00     0.161 C 
BRANCH   7   8
ATOM      8  C   UNL     1      -1.921  -0.042   1.419  1.00  0.00     0.010 C 
ATOM      9  C   UNL     1      -3.336   0.340   1.873  1.00  0.00     0.009 C 
ATOM     10  C   UNL     1      -2.061  -1.048   0.265  1.00  0.00     0.009 C 
ENDBRANCH   7   8
BRANCH   7  11
ATOM     11  N   UNL     1       0.428   0.819   0.872  1.00  0.00    -0.198 NA
ATOM     12  H   UNL     1       0.860   1.742   0.814  1.00  0.00     0.142 HD
BRANCH  11  13
ATOM     13  S   UNL     1       1.493  -0.041   1.824  1.00  0.00     0.241 S 
ATOM     14  O   UNL     1       2.694  -0.152   1.022  1.00  0.00    -0.207 OA
ATOM     15  O   UNL     1       1.543   0.533   3.141  1.00  0.00    -0.207 OA
BRANCH  13  16
ATOM     16  C   UNL     1       0.842  -1.677   1.992  1.00  0.00     0.085 A 
ATOM     17  C   UNL     1       0.225  -2.054   3.198  1.00  0.00     0.022 A 
ATOM     18  C   UNL     1       0.943  -2.576   0.934  1.00  0.00     0.061 A 
ATOM     19  C   UNL     1      -0.414  -3.289   3.294  1.00  0.00     0.004 A 
ATOM     20  C   UNL     1       0.315  -3.809   1.053  1.00  0.00     0.124 A 
ATOM     21  C   UNL     1      -0.382  -4.162   2.208  1.00  0.00     0.039 A 
ATOM     22  F   UNL     1       0.343  -4.662   0.021  1.00  0.00    -0.207 F 
ENDBRANCH  13  16
ENDBRANCH  11  13
ENDBRANCH   7  11
ENDBRANCH   4   7
ENDBRANCH   2   3
ENDBRANCH   1   2
BRANCH   1  23
ATOM     23  C   UNL     1       0.175   3.973   5.245  1.00  0.00     0.118 C 
BRANCH  23  24
ATOM     24  N   UNL     1      -0.425   3.658   6.536  1.00  0.00    -0.352 N 
ATOM     25  C   UNL     1       0.162   3.589   7.776  1.00  0.00     0.251 C 
ATOM     26  H   UNL     1      -1.390   3.466   6.516  1.00  0.00     0.163 HD
ATOM     27  O   UNL     1      -0.404   2.970   8.674  1.00  0.00    -0.269 OA
BRANCH  25  28
ATOM     28  C   UNL     1       1.454   4.263   8.029  1.00  0.00     0.039 A 
ATOM     29  C   UNL     1       2.359   3.696   8.931  1.00  0.00     0.014 A 
ATOM     30  C   UNL     1       1.758   5.478   7.412  1.00  0.00     0.014 A 
ATOM     31  C   UNL     1       3.580   4.330   9.175  1.00  0.00     0.010 A 
ATOM     32  C   UNL     1       3.018   6.039   7.559  1.00  0.00     0.010 A 
ATOM     33  C   UNL     1       3.932   5.492   8.468  1.00  0.00    -0.014 A 
BRANCH  33  34
ATOM     34  C   UNL     1       5.236   6.170   8.675  1.00  0.00     0.031 A 
ATOM     35  C   UNL     1       5.274   7.607   9.127  1.00  0.00     0.074 A 
ATOM     36  C   UNL     1       6.378   5.524   8.372  1.00  0.00     0.049 A 
ATOM     37  N   UNL     1       6.309   8.391   9.286  1.00  0.00    -0.248 NA
ATOM     38  C   UNL     1       3.984   8.264   9.406  1.00  0.00     0.031 C 
ATOM     39  C   UNL     1       6.463   4.160   7.844  1.00  0.00     0.029 A 
ATOM     40  N   UNL     1       7.686   5.936   8.436  1.00  0.00    -0.354 N 
ATOM     41  C   UNL     1       5.794   9.634   9.633  1.00  0.00     0.074 A 
ATOM     42  C   UNL     1       4.355   9.516   9.632  1.00  0.00     0.031 C 
ATOM     43  C   UNL     1       7.751   3.845   7.643  1.00  0.00     0.029 A 
ATOM     44  C   UNL     1       8.582   4.995   7.984  1.00  0.00     0.049 A 
ATOM     45  H   UNL     1       7.957   6.820   8.773  1.00  0.00     0.167 HD
ATOM     46  C   UNL     1       6.463  10.765   9.952  1.00  0.00     0.034 A 
ATOM     47  C   UNL     1       9.921   5.055   7.842  1.00  0.00     0.034 A 
ATOM     48  C   UNL     1       7.896  10.857  10.011  1.00  0.00     0.049 A 
ATOM     49  C   UNL     1      10.643   6.308   8.256  1.00  0.00     0.074 A 
ATOM     50  C   UNL     1       8.665  11.926  10.433  1.00  0.00     0.029 A 
ATOM     51  N   UNL     1       8.772   9.854   9.630  1.00  0.00    -0.354 N 
ATOM     52  N   UNL     1      10.146   7.423   8.732  1.00  0.00    -0.248 NA
ATOM     53  C   UNL     1      12.109   6.303   8.146  1.00  0.00     0.031 C 
ATOM     54  C   UNL     1      10.009  11.586  10.264  1.00  0.00     0.029 A 
ATOM     55  C   UNL     1      10.076  10.287   9.787  1.00  0.00     0.049 A 
ATOM     56  H   UNL     1       8.506   8.967   9.297  1.00  0.00     0.167 HD
ATOM     57  C   UNL     1      11.236   8.241   9.006  1.00  0.00     0.074 A 
ATOM     58  C   UNL     1      12.422   7.484   8.662  1.00  0.00     0.031 C 
ATOM     59  C   UNL     1      11.250   9.508   9.487  1.00  0.00     0.034 A 
BRANCH  46  60
ATOM     60  C   UNL     1       5.670  11.992  10.318  1.00  0.00     0.023 A 
ATOM     61  C   UNL     1       4.985  12.042  11.549  1.00  0.00     0.012 A 
ATOM     62  C   UNL     1       5.708  13.138   9.499  1.00  0.00     0.148 A 
ATOM     63  C   UNL     1       4.339  13.209  11.954  1.00  0.00     0.002 A 
ATOM     64  C   UNL     1       5.106  14.313   9.933  1.00  0.00     0.091 A 
ATOM     65  F   UNL     1       6.346  13.062   8.323  1.00  0.00    -0.205 F 
ATOM     66  C   UNL     1       4.414  14.348  11.155  1.00  0.00     0.022 A 
BRANCH  64  67
ATOM     67  S   UNL     1       5.227  15.859   9.027  1.00  0.00     0.127 S 
ATOM     68  O   UNL     1       3.831  16.093   8.657  1.00  0.00    -0.237 OA
ATOM     69  O   UNL     1       5.748  16.769  10.046  1.00  0.00    -0.237 OA
ATOM     70  O   UNL     1       6.128  15.606   7.911  1.00  0.00    -0.744 OA
ENDBRANCH  64  67
ENDBRANCH  46  60
BRANCH  47  71
ATOM     71  C   UNL     1      10.660   3.867   7.329  1.00  0.00     0.023 A 
ATOM     72  C   UNL     1      11.482   3.128   8.201  1.00  0.00     0.012 A 
ATOM     73  C   UNL     1      10.502   3.431   5.999  1.00  0.00     0.148 A 
ATOM     74  C   UNL     1      12.151   1.988   7.753  1.00  0.00     0.002 A 
ATOM     75  C   UNL     1      11.122   2.262   5.576  1.00  0.00     0.091 A 
ATOM     76  F   UNL     1       9.723   4.154   5.184  1.00  0.00    -0.205 F 
ATOM     77  C   UNL     1      11.961   1.548   6.446  1.00  0.00     0.022 A 
BRANCH  75  78
ATOM     78  S   UNL     1      10.823   1.541   3.958  1.00  0.00     0.127 S 
ATOM     79  O   UNL     1      12.129   1.686   3.320  1.00  0.00    -0.237 OA
ATOM     80  O   UNL     1      10.456   0.168   4.307  1.00  0.00    -0.237 OA
ATOM     81  O   UNL     1       9.745   2.324   3.370  1.00  0.00    -0.744 OA
ENDBRANCH  75  78
ENDBRANCH  47  71
BRANCH  59  82
ATOM     82  C   UNL     1      12.583  10.170   9.710  1.00  0.00     0.023 A 
ATOM     83  C   UNL     1      13.347  10.598   8.607  1.00  0.00     0.012 A 
ATOM     84  C   UNL     1      13.011  10.486  11.015  1.00  0.00     0.148 A 
ATOM     85  C   UNL     1      14.528  11.313   8.800  1.00  0.00     0.002 A 
ATOM     86  C   UNL     1      14.158  11.247  11.198  1.00  0.00     0.091 A 
ATOM     87  F   UNL     1      12.274  10.058  12.050  1.00  0.00    -0.205 F 
ATOM     88  C   UNL     1      14.924  11.651  10.093  1.00  0.00     0.022 A 
BRANCH  86  89
ATOM     89  S   UNL     1      14.685  11.827  12.815  1.00  0.00     0.127 S 
ATOM     90  O   UNL     1      15.921  11.072  13.013  1.00  0.00    -0.237 OA
ATOM     91  O   UNL     1      14.875  13.259  12.582  1.00  0.00    -0.237 OA
ATOM     92  O   UNL     1      13.604  11.499  13.735  1.00  0.00    -0.744 OA
ENDBRANCH  86  89
ENDBRANCH  59  82
ENDBRANCH  33  34
ENDBRANCH  25  28
ENDBRANCH  23  24
ENDBRANCH   1  23
TORSDOF 17
