REMARK SMILES CC[C@@](O)(C(=O)NCCCNC(=O)c1ccc(-c2c3nc(c(-c4cccc(S(=O)(=O)[O-])c4F)c4ccc([nH]4)c(-c4cccc(S(=O)(=O)[O-])c4F)c4nc(c(-c5cccc(S(=O)(=O)[O-])c5F)c5ccc2[nH]5)C=C4)C=C3)cc1)[C@H]1CCc2ccc(OC)cc21
REMARK SMILES IDX 9 1 8 2 7 3 5 4 6 5 3 7 2 8 1 9 4 10 77 12 78 13 87 14 79 15
REMARK SMILES IDX 80 16 86 17 81 18 83 19 82 20 84 21 85 22 10 23 11 24 12 25
REMARK SMILES IDX 13 27 14 28 15 29 76 30 16 31 75 32 17 33 18 34 19 35 69 36
REMARK SMILES IDX 20 37 74 38 68 39 70 40 21 41 73 42 67 43 66 44 22 46 54 47
REMARK SMILES IDX 34 48 53 49 35 50 38 51 52 52 71 53 36 54 37 55 51 57 72 58
REMARK SMILES IDX 39 59 23 60 24 61 32 62 25 63 27 64 33 65 26 66 28 67 29 68
REMARK SMILES IDX 30 69 31 70 55 71 56 72 64 73 57 74 59 75 65 76 58 77 60 78
REMARK SMILES IDX 61 79 62 80 63 81 40 82 41 83 49 84 42 85 44 86 50 87 43 88
REMARK SMILES IDX 45 89 46 90 47 91 48 92
REMARK H PARENT 7 6 4 11 11 26 70 45 38 56
REMARK Flexibility Score: inf
ROOT
ATOM      1  C   UNL     1       5.093   3.127  -6.496  1.00  0.00     0.042 C 
ENDROOT
BRANCH   1   2
ATOM      2  C   UNL     1       3.641   2.913  -6.081  1.00  0.00     0.117 C 
BRANCH   2   3
ATOM      3  N   UNL     1       3.475   1.584  -5.534  1.00  0.00    -0.354 N 
ATOM      4  C   UNL     1       3.361   1.169  -4.245  1.00  0.00     0.252 C 
ATOM      5  O   UNL     1       3.594  -0.028  -4.058  1.00  0.00    -0.272 OA
ATOM      6  H   UNL     1       3.438   0.864  -6.204  1.00  0.00     0.163 HD
BRANCH   4   7
ATOM      7  C   UNL     1       2.962   2.161  -3.102  1.00  0.00     0.149 C 
BRANCH   7   8
ATOM      8  C   UNL     1       4.214   2.971  -2.690  1.00  0.00     0.043 C 
ATOM      9  C   UNL     1       3.976   4.055  -1.645  1.00  0.00     0.007 C 
ENDBRANCH   7   8
BRANCH   7  10
ATOM     10  O   UNL     1       1.986   3.101  -3.607  1.00  0.00    -0.379 OA
ATOM     11  H   UNL     1       2.377   3.615  -4.331  1.00  0.00     0.212 HD
ENDBRANCH   7  10
BRANCH   7  12
ATOM     12  C   UNL     1       2.250   1.380  -1.944  1.00  0.00     0.061 C 
ATOM     13  C   UNL     1       0.957   0.682  -2.483  1.00  0.00     0.017 C 
ATOM     14  C   UNL     1       2.948   0.223  -1.270  1.00  0.00    -0.035 A 
ATOM     15  C   UNL     1       0.715  -0.561  -1.631  1.00  0.00     0.036 C 
ATOM     16  C   UNL     1       2.102  -0.890  -1.187  1.00  0.00    -0.044 A 
ATOM     17  C   UNL     1       4.242   0.150  -0.768  1.00  0.00     0.050 A 
ATOM     18  C   UNL     1       2.560  -2.109  -0.716  1.00  0.00     0.008 A 
ATOM     19  C   UNL     1       4.726  -1.076  -0.302  1.00  0.00     0.119 A 
ATOM     20  C   UNL     1       3.888  -2.201  -0.298  1.00  0.00     0.047 A 
BRANCH  19  21
ATOM     21  O   UNL     1       5.992  -1.306   0.168  1.00  0.00    -0.497 OA
ATOM     22  C   UNL     1       6.904  -0.214   0.114  1.00  0.00     0.278 C 
ENDBRANCH  19  21
ENDBRANCH   7  12
ENDBRANCH   4   7
ENDBRANCH   2   3
ENDBRANCH   1   2
BRANCH   1  23
ATOM     23  C   UNL     1       5.611   2.075  -7.472  1.00  0.00     0.118 C 
BRANCH  23  24
ATOM     24  N   UNL     1       4.795   1.987  -8.676  1.00  0.00    -0.352 N 
ATOM     25  C   UNL     1       5.165   2.141  -9.985  1.00  0.00     0.251 C 
ATOM     26  H   UNL     1       3.842   1.789  -8.527  1.00  0.00     0.163 HD
ATOM     27  O   UNL     1       4.304   2.254 -10.857  1.00  0.00    -0.269 OA
BRANCH  25  28
ATOM     28  C   UNL     1       6.596   2.182 -10.339  1.00  0.00     0.039 A 
ATOM     29  C   UNL     1       7.040   3.142 -11.250  1.00  0.00     0.014 A 
ATOM     30  C   UNL     1       7.496   1.275  -9.771  1.00  0.00     0.014 A 
ATOM     31  C   UNL     1       8.398   3.221 -11.556  1.00  0.00     0.010 A 
ATOM     32  C   UNL     1       8.859   1.413 -10.010  1.00  0.00     0.010 A 
ATOM     33  C   UNL     1       9.322   2.376 -10.917  1.00  0.00    -0.014 A 
BRANCH  33  34
ATOM     34  C   UNL     1      10.775   2.490 -11.193  1.00  0.00     0.031 A 
ATOM     35  C   UNL     1      11.526   1.337 -11.803  1.00  0.00     0.074 A 
ATOM     36  C   UNL     1      11.430   3.611 -10.833  1.00  0.00     0.049 A 
ATOM     37  N   UNL     1      12.797   1.248 -12.100  1.00  0.00    -0.248 NA
ATOM     38  C   UNL     1      10.757   0.115 -12.093  1.00  0.00     0.031 C 
ATOM     39  C   UNL     1      10.829   4.760 -10.150  1.00  0.00     0.029 A 
ATOM     40  N   UNL     1      12.749   3.961 -10.970  1.00  0.00    -0.354 N 
ATOM     41  C   UNL     1      12.984  -0.040 -12.586  1.00  0.00     0.074 A 
ATOM     42  C   UNL     1      11.707  -0.714 -12.500  1.00  0.00     0.031 C 
ATOM     43  C   UNL     1      11.774   5.689  -9.936  1.00  0.00     0.029 A 
ATOM     44  C   UNL     1      13.051   5.193 -10.439  1.00  0.00     0.049 A 
ATOM     45  H   UNL     1      13.417   3.385 -11.407  1.00  0.00     0.167 HD
ATOM     46  C   UNL     1      14.107  -0.602 -13.093  1.00  0.00     0.034 A 
ATOM     47  C   UNL     1      14.226   5.848 -10.361  1.00  0.00     0.034 A 
ATOM     48  C   UNL     1      15.366   0.084 -13.206  1.00  0.00     0.049 A 
ATOM     49  C   UNL     1      15.450   5.220 -10.970  1.00  0.00     0.074 A 
ATOM     50  C   UNL     1      16.545  -0.369 -13.771  1.00  0.00     0.029 A 
ATOM     51  N   UNL     1      15.613   1.365 -12.739  1.00  0.00    -0.354 N 
ATOM     52  N   UNL     1      15.570   4.060 -11.571  1.00  0.00    -0.248 NA
ATOM     53  C   UNL     1      16.690   6.007 -10.930  1.00  0.00     0.031 C 
ATOM     54  C   UNL     1      17.512   0.631 -13.624  1.00  0.00     0.029 A 
ATOM     55  C   UNL     1      16.926   1.720 -12.997  1.00  0.00     0.049 A 
ATOM     56  H   UNL     1      14.951   1.940 -12.289  1.00  0.00     0.167 HD
ATOM     57  C   UNL     1      16.887   3.993 -12.009  1.00  0.00     0.074 A 
ATOM     58  C   UNL     1      17.517   5.241 -11.628  1.00  0.00     0.031 C 
ATOM     59  C   UNL     1      17.524   2.984 -12.654  1.00  0.00     0.034 A 
BRANCH  46  60
ATOM     60  C   UNL     1      14.007  -2.011 -13.620  1.00  0.00     0.023 A 
ATOM     61  C   UNL     1      13.277  -2.260 -14.801  1.00  0.00     0.012 A 
ATOM     62  C   UNL     1      14.673  -3.076 -12.984  1.00  0.00     0.148 A 
ATOM     63  C   UNL     1      13.180  -3.550 -15.320  1.00  0.00     0.002 A 
ATOM     64  C   UNL     1      14.612  -4.352 -13.535  1.00  0.00     0.091 A 
ATOM     65  F   UNL     1      15.346  -2.826 -11.852  1.00  0.00    -0.205 F 
ATOM     66  C   UNL     1      13.855  -4.593 -14.694  1.00  0.00     0.022 A 
BRANCH  64  67
ATOM     67  S   UNL     1      15.512  -5.749 -12.853  1.00  0.00     0.127 S 
ATOM     68  O   UNL     1      14.424  -6.575 -12.331  1.00  0.00    -0.237 OA
ATOM     69  O   UNL     1      16.176  -6.293 -14.037  1.00  0.00    -0.237 OA
ATOM     70  O   UNL     1      16.413  -5.197 -11.850  1.00  0.00    -0.744 OA
ENDBRANCH  64  67
ENDBRANCH  46  60
BRANCH  47  71
ATOM     71  C   UNL     1      14.286   7.198  -9.734  1.00  0.00     0.023 A 
ATOM     72  C   UNL     1      14.524   8.330 -10.537  1.00  0.00     0.012 A 
ATOM     73  C   UNL     1      14.082   7.369  -8.351  1.00  0.00     0.148 A 
ATOM     74  C   UNL     1      14.598   9.603  -9.970  1.00  0.00     0.002 A 
ATOM     75  C   UNL     1      14.098   8.645  -7.801  1.00  0.00     0.091 A 
ATOM     76  F   UNL     1      13.865   6.279  -7.601  1.00  0.00    -0.205 F 
ATOM     77  C   UNL     1      14.375   9.762  -8.605  1.00  0.00     0.022 A 
BRANCH  75  78
ATOM     78  S   UNL     1      13.685   8.955  -6.080  1.00  0.00     0.127 S 
ATOM     79  O   UNL     1      14.984   9.316  -5.521  1.00  0.00    -0.237 OA
ATOM     80  O   UNL     1      12.732  10.060  -6.192  1.00  0.00    -0.237 OA
ATOM     81  O   UNL     1      13.104   7.714  -5.586  1.00  0.00    -0.744 OA
ENDBRANCH  75  78
ENDBRANCH  47  71
BRANCH  59  82
ATOM     82  C   UNL     1      18.968   3.199 -13.025  1.00  0.00     0.023 A 
ATOM     83  C   UNL     1      19.958   3.211 -12.022  1.00  0.00     0.012 A 
ATOM     84  C   UNL     1      19.350   3.329 -14.375  1.00  0.00     0.148 A 
ATOM     85  C   UNL     1      21.301   3.389 -12.353  1.00  0.00     0.002 A 
ATOM     86  C   UNL     1      20.695   3.453 -14.702  1.00  0.00     0.091 A 
ATOM     87  F   UNL     1      18.392   3.333 -15.314  1.00  0.00    -0.205 F 
ATOM     88  C   UNL     1      21.670   3.499 -13.692  1.00  0.00     0.022 A 
BRANCH  86  89
ATOM     89  S   UNL     1      21.271   3.503 -16.402  1.00  0.00     0.127 S 
ATOM     90  O   UNL     1      21.657   4.906 -16.545  1.00  0.00    -0.237 OA
ATOM     91  O   UNL     1      22.391   2.562 -16.377  1.00  0.00    -0.237 OA
ATOM     92  O   UNL     1      20.143   3.077 -17.220  1.00  0.00    -0.744 OA
ENDBRANCH  86  89
ENDBRANCH  59  82
ENDBRANCH  33  34
ENDBRANCH  25  28
ENDBRANCH  23  24
ENDBRANCH   1  23
TORSDOF 17
