REMARK SMILES Cc1cccc(N2C(=O)/C(=C/c3ccc(C(=O)NCCCNC(=O)c4ccc(-c5c6nc(c(-c7cccc(S(=O)(=O)[O-])c7F)c7ccc([nH]7)c(-c7cccc(S(=O)(=O)[O-])c7F)c7nc(c(-c8cccc(S(=O)(=O)[O-])c8F)c8ccc5[nH]8)C=C7)C=C6)cc4)cc3)c3ccccc3C2=O)c1
REMARK SMILES IDX 20 1 19 2 18 3 16 4 17 5 15 7 12 8 13 9 89 10 14 11 88 12
REMARK SMILES IDX 11 13 7 14 8 15 96 16 9 17 10 18 95 19 97 20 90 21 94 22
REMARK SMILES IDX 91 23 93 24 92 25 6 26 1 27 2 28 3 29 98 30 4 31 5 32 21 33
REMARK SMILES IDX 22 34 23 35 24 37 25 38 26 39 87 40 27 41 86 42 28 43 29 44
REMARK SMILES IDX 30 45 80 46 31 47 85 48 79 49 81 50 32 51 84 52 78 53 77 54
REMARK SMILES IDX 33 56 65 57 45 58 64 59 46 60 49 61 63 62 82 63 47 64 48 65
REMARK SMILES IDX 62 67 83 68 50 69 34 70 35 71 43 72 36 73 38 74 44 75 37 76
REMARK SMILES IDX 39 77 40 78 41 79 42 80 66 81 67 82 75 83 68 84 70 85 76 86
REMARK SMILES IDX 69 87 71 88 72 89 73 90 74 91 51 92 52 93 60 94 53 95 55 96
REMARK SMILES IDX 61 97 54 98 56 99 57 100 58 101 59 102
REMARK H PARENT 18 6 22 36 81 55 49 66
REMARK Flexibility Score: inf
ROOT
ATOM      1  C   UNL     1      -5.661  10.027   1.834  1.00  0.00     0.042 C 
ENDROOT
BRANCH   1   2
ATOM      2  C   UNL     1      -6.169  10.199   0.409  1.00  0.00     0.118 C 
BRANCH   2   3
ATOM      3  N   UNL     1      -5.378  11.139  -0.381  1.00  0.00    -0.352 N 
ATOM      4  C   UNL     1      -4.233  10.988  -1.129  1.00  0.00     0.251 C 
ATOM      5  O   UNL     1      -3.716  11.973  -1.654  1.00  0.00    -0.269 OA
ATOM      6  H   UNL     1      -5.732  12.057  -0.378  1.00  0.00     0.163 HD
BRANCH   4   7
ATOM      7  C   UNL     1      -3.547   9.680  -1.265  1.00  0.00     0.039 A 
ATOM      8  C   UNL     1      -2.166   7.244  -1.192  1.00  0.00    -0.025 A 
ATOM      9  C   UNL     1      -1.456   8.446  -1.164  1.00  0.00     0.009 A 
ATOM     10  C   UNL     1      -3.546   7.269  -1.429  1.00  0.00     0.009 A 
ATOM     11  C   UNL     1      -2.146   9.661  -1.193  1.00  0.00     0.014 A 
ATOM     12  C   UNL     1      -4.229   8.484  -1.485  1.00  0.00     0.014 A 
BRANCH   8  13
ATOM     13  C   UNL     1      -1.464   5.980  -0.946  1.00  0.00     0.022 C 
ATOM     14  N   UNL     1      -1.677   2.632   0.331  1.00  0.00    -0.242 N 
ATOM     15  C   UNL     1      -0.971   3.791  -0.058  1.00  0.00     0.265 C 
ATOM     16  C   UNL     1      -3.025   2.705   0.748  1.00  0.00     0.265 C 
ATOM     17  O   UNL     1       0.170   3.843  -0.518  1.00  0.00    -0.268 OA
ATOM     18  C   UNL     1      -1.755   5.073   0.016  1.00  0.00     0.049 C 
ATOM     19  C   UNL     1      -3.487   3.988   1.327  1.00  0.00     0.048 A 
ATOM     20  O   UNL     1      -3.871   1.815   0.710  1.00  0.00    -0.268 OA
ATOM     21  C   UNL     1      -2.818   5.167   1.020  1.00  0.00    -0.000 A 
ATOM     22  C   UNL     1      -4.585   3.996   2.204  1.00  0.00     0.014 A 
ATOM     23  C   UNL     1      -3.188   6.343   1.687  1.00  0.00     0.010 A 
ATOM     24  C   UNL     1      -4.981   5.181   2.818  1.00  0.00     0.001 A 
ATOM     25  C   UNL     1      -4.267   6.349   2.576  1.00  0.00     0.001 A 
BRANCH  14  26
ATOM     26  C   UNL     1      -1.028   1.324   0.196  1.00  0.00     0.053 A 
ATOM     27  C   UNL     1       2.521  -0.138   0.003  1.00  0.00     0.044 C 
ATOM     28  C   UNL     1       1.023  -0.053   0.041  1.00  0.00    -0.049 A 
ATOM     29  C   UNL     1       0.259  -1.212  -0.060  1.00  0.00     0.003 A 
ATOM     30  C   UNL     1       0.376   1.189   0.190  1.00  0.00     0.030 A 
ATOM     31  C   UNL     1      -1.125  -1.123  -0.027  1.00  0.00     0.002 A 
ATOM     32  C   UNL     1      -1.753   0.123   0.093  1.00  0.00     0.027 A 
ENDBRANCH  14  26
ENDBRANCH   8  13
ENDBRANCH   4   7
ENDBRANCH   2   3
ENDBRANCH   1   2
BRANCH   1  33
ATOM     33  C   UNL     1      -6.376  10.938   2.824  1.00  0.00     0.118 C 
BRANCH  33  34
ATOM     34  N   UNL     1      -7.488  10.293   3.528  1.00  0.00    -0.352 N 
ATOM     35  C   UNL     1      -8.307  10.814   4.521  1.00  0.00     0.251 C 
ATOM     36  H   UNL     1      -7.680   9.366   3.261  1.00  0.00     0.163 HD
ATOM     37  O   UNL     1      -9.122  10.090   5.086  1.00  0.00    -0.269 OA
BRANCH  35  38
ATOM     38  C   UNL     1      -8.244  12.267   4.794  1.00  0.00     0.039 A 
ATOM     39  C   UNL     1      -9.402  13.020   4.576  1.00  0.00     0.014 A 
ATOM     40  C   UNL     1      -7.002  12.884   4.898  1.00  0.00     0.014 A 
ATOM     41  C   UNL     1      -9.278  14.340   4.157  1.00  0.00     0.010 A 
ATOM     42  C   UNL     1      -6.867  14.154   4.384  1.00  0.00     0.010 A 
ATOM     43  C   UNL     1      -8.000  14.845   3.941  1.00  0.00    -0.014 A 
BRANCH  43  44
ATOM     44  C   UNL     1      -7.727  16.075   3.219  1.00  0.00     0.031 A 
ATOM     45  C   UNL     1      -7.612  17.338   3.961  1.00  0.00     0.074 A 
ATOM     46  C   UNL     1      -7.452  16.025   1.896  1.00  0.00     0.049 A 
ATOM     47  N   UNL     1      -7.834  18.497   3.446  1.00  0.00    -0.248 NA
ATOM     48  C   UNL     1      -7.255  17.373   5.373  1.00  0.00     0.031 C 
ATOM     49  C   UNL     1      -6.811  17.056   1.092  1.00  0.00     0.029 A 
ATOM     50  N   UNL     1      -7.881  15.077   0.962  1.00  0.00    -0.354 N 
ATOM     51  C   UNL     1      -7.387  19.430   4.356  1.00  0.00     0.074 A 
ATOM     52  C   UNL     1      -7.118  18.688   5.567  1.00  0.00     0.031 C 
ATOM     53  C   UNL     1      -7.101  16.841  -0.201  1.00  0.00     0.029 A 
ATOM     54  C   UNL     1      -8.077  15.766  -0.250  1.00  0.00     0.049 A 
ATOM     55  H   UNL     1      -8.020  14.115   1.121  1.00  0.00     0.167 HD
ATOM     56  C   UNL     1      -7.111  20.696   3.937  1.00  0.00     0.034 A 
ATOM     57  C   UNL     1      -9.257  15.793  -0.938  1.00  0.00     0.034 A 
ATOM     58  C   UNL     1      -7.365  20.843   2.499  1.00  0.00     0.049 A 
ATOM     59  C   UNL     1      -9.789  17.200  -1.135  1.00  0.00     0.074 A 
ATOM     60  C   UNL     1      -6.530  20.726   1.399  1.00  0.00     0.029 A 
ATOM     61  N   UNL     1      -8.665  20.827   2.009  1.00  0.00    -0.354 N 
ATOM     62  N   UNL     1      -9.277  18.260  -0.575  1.00  0.00    -0.248 NA
ATOM     63  C   UNL     1     -10.969  17.518  -1.936  1.00  0.00     0.031 C 
ATOM     64  C   UNL     1      -7.338  20.576   0.245  1.00  0.00     0.029 A 
ATOM     65  C   UNL     1      -8.665  20.622   0.635  1.00  0.00     0.049 A 
ATOM     66  H   UNL     1      -9.473  20.944   2.558  1.00  0.00     0.167 HD
ATOM     67  C   UNL     1     -10.098  19.339  -0.781  1.00  0.00     0.074 A 
ATOM     68  C   UNL     1     -11.094  18.839  -1.714  1.00  0.00     0.031 C 
ATOM     69  C   UNL     1      -9.917  20.520  -0.110  1.00  0.00     0.034 A 
BRANCH  56  70
ATOM     70  C   UNL     1      -6.242  21.651   4.734  1.00  0.00     0.023 A 
ATOM     71  C   UNL     1      -5.396  22.518   4.007  1.00  0.00     0.012 A 
ATOM     72  C   UNL     1      -6.141  21.713   6.142  1.00  0.00     0.148 A 
ATOM     73  C   UNL     1      -4.424  23.311   4.622  1.00  0.00     0.002 A 
ATOM     74  C   UNL     1      -5.123  22.453   6.756  1.00  0.00     0.091 A 
ATOM     75  F   UNL     1      -7.066  21.106   6.897  1.00  0.00    -0.205 F 
ATOM     76  C   UNL     1      -4.260  23.248   5.996  1.00  0.00     0.022 A 
BRANCH  74  77
ATOM     77  S   UNL     1      -4.775  22.348   8.521  1.00  0.00     0.127 S 
ATOM     78  O   UNL     1      -3.323  22.156   8.540  1.00  0.00    -0.237 OA
ATOM     79  O   UNL     1      -5.220  23.651   9.009  1.00  0.00    -0.237 OA
ATOM     80  O   UNL     1      -5.527  21.197   9.006  1.00  0.00    -0.744 OA
ENDBRANCH  74  77
ENDBRANCH  56  70
BRANCH  57  81
ATOM     81  C   UNL     1     -10.100  14.584  -0.707  1.00  0.00     0.023 A 
ATOM     82  C   UNL     1      -9.537  13.337  -1.074  1.00  0.00     0.012 A 
ATOM     83  C   UNL     1     -11.151  14.607   0.223  1.00  0.00     0.148 A 
ATOM     84  C   UNL     1      -9.869  12.176  -0.377  1.00  0.00     0.002 A 
ATOM     85  C   UNL     1     -11.482  13.440   0.907  1.00  0.00     0.091 A 
ATOM     86  F   UNL     1     -11.751  15.773   0.494  1.00  0.00    -0.205 F 
ATOM     87  C   UNL     1     -10.802  12.239   0.652  1.00  0.00     0.022 A 
BRANCH  85  88
ATOM     88  S   UNL     1     -12.697  13.479   2.229  1.00  0.00     0.127 S 
ATOM     89  O   UNL     1     -13.943  13.321   1.487  1.00  0.00    -0.237 OA
ATOM     90  O   UNL     1     -12.319  12.326   3.047  1.00  0.00    -0.237 OA
ATOM     91  O   UNL     1     -12.477  14.764   2.876  1.00  0.00    -0.744 OA
ENDBRANCH  85  88
ENDBRANCH  57  81
BRANCH  69  92
ATOM     92  C   UNL     1     -10.885  21.693  -0.101  1.00  0.00     0.023 A 
ATOM     93  C   UNL     1     -12.241  21.557  -0.452  1.00  0.00     0.012 A 
ATOM     94  C   UNL     1     -10.485  22.967   0.385  1.00  0.00     0.148 A 
ATOM     95  C   UNL     1     -13.135  22.634  -0.407  1.00  0.00     0.002 A 
ATOM     96  C   UNL     1     -11.404  24.003   0.540  1.00  0.00     0.091 A 
ATOM     97  F   UNL     1      -9.197  23.199   0.678  1.00  0.00    -0.205 F 
ATOM     98  C   UNL     1     -12.722  23.853   0.109  1.00  0.00     0.022 A 
BRANCH  96  99
ATOM     99  S   UNL     1     -10.974  25.504   1.434  1.00  0.00     0.127 S 
ATOM    100  O   UNL     1     -10.583  26.402   0.350  1.00  0.00    -0.237 OA
ATOM    101  O   UNL     1     -12.237  25.854   2.088  1.00  0.00    -0.237 OA
ATOM    102  O   UNL     1      -9.918  25.107   2.356  1.00  0.00    -0.744 OA
ENDBRANCH  96  99
ENDBRANCH  69  92
ENDBRANCH  43  44
ENDBRANCH  35  38
ENDBRANCH  33  34
ENDBRANCH   1  33
TORSDOF 15
