REMARK SMILES Cc1ncccc1C(=O)NCCOCC(=O)NCCCNC(=O)c1ccc(-c2c3nc(c(-c4cccc(S(=O)(=O)[O-])c4F)c4ccc([nH]4)c(-c4cccc(S(=O)(=O)[O-])c4F)c4nc(c(-c5cccc(S(=O)(=O)[O-])c5F)c5ccc2[nH]5)C=C4)C=C3)cc1
REMARK SMILES IDX 18 1 17 2 15 3 16 4 14 6 13 7 12 8 11 9 10 10 8 11 9 12 7 14
REMARK SMILES IDX 1 15 2 16 3 17 4 18 6 19 5 20 19 21 20 22 21 23 22 24 23 26
REMARK SMILES IDX 24 27 25 28 86 29 26 30 85 31 27 32 28 33 29 34 79 35 30 36
REMARK SMILES IDX 84 37 78 38 80 39 31 40 83 41 77 42 76 43 32 45 64 46 44 47
REMARK SMILES IDX 63 48 45 49 48 50 62 51 81 52 46 53 47 54 61 56 82 57 49 58
REMARK SMILES IDX 33 59 34 60 42 61 35 62 37 63 43 64 36 65 38 66 39 67 40 68
REMARK SMILES IDX 41 69 65 70 66 71 74 72 67 73 69 74 75 75 68 76 70 77 71 78
REMARK SMILES IDX 72 79 73 80 50 81 51 82 59 83 52 84 54 85 60 86 53 87 55 88
REMARK SMILES IDX 56 89 57 90 58 91
REMARK H PARENT 17 5 10 13 21 25 80 44 48 55
REMARK Flexibility Score: inf
ROOT
ATOM      1  C   UNL     1       5.593  -4.037   4.171  1.00  0.00     0.117 C 
ENDROOT
BRANCH   1   2
ATOM      2  N   UNL     1       4.191  -4.330   3.936  1.00  0.00    -0.354 N 
ATOM      3  C   UNL     1       3.552  -4.509   2.743  1.00  0.00     0.245 C 
ATOM      4  O   UNL     1       2.359  -4.813   2.743  1.00  0.00    -0.272 OA
ATOM      5  H   UNL     1       3.629  -4.409   4.740  1.00  0.00     0.163 HD
BRANCH   3   6
ATOM      6  C   UNL     1       4.333  -4.307   1.437  1.00  0.00     0.260 C 
BRANCH   6   7
ATOM      7  O   UNL     1       4.902  -3.038   1.152  1.00  0.00    -0.370 OA
BRANCH   7   8
ATOM      8  C   UNL     1       4.125  -1.908   1.550  1.00  0.00     0.182 C 
BRANCH   8   9
ATOM      9  C   UNL     1       3.220  -1.340   0.457  1.00  0.00     0.144 C 
BRANCH   9  10
ATOM     10  N   UNL     1       2.244  -2.266  -0.086  1.00  0.00    -0.350 N 
ATOM     11  C   UNL     1       0.946  -2.094  -0.485  1.00  0.00     0.253 C 
ATOM     12  O   UNL     1       0.358  -3.058  -0.977  1.00  0.00    -0.269 OA
ATOM     13  H   UNL     1       2.576  -3.187  -0.184  1.00  0.00     0.163 HD
BRANCH  11  14
ATOM     14  C   UNL     1       0.192  -0.833  -0.304  1.00  0.00     0.061 A 
ATOM     15  C   UNL     1       1.873   0.737  -1.431  1.00  0.00     0.067 C 
ATOM     16  C   UNL     1       0.585   0.439  -0.729  1.00  0.00     0.050 A 
ATOM     17  N   UNL     1      -0.210   1.536  -0.563  1.00  0.00    -0.261 NA
ATOM     18  C   UNL     1      -1.440   1.363  -0.033  1.00  0.00     0.111 A 
ATOM     19  C   UNL     1      -1.107  -0.973   0.214  1.00  0.00     0.017 A 
ATOM     20  C   UNL     1      -1.937   0.135   0.350  1.00  0.00     0.021 A 
ENDBRANCH  11  14
ENDBRANCH   9  10
ENDBRANCH   8   9
ENDBRANCH   7   8
ENDBRANCH   6   7
ENDBRANCH   3   6
ENDBRANCH   1   2
BRANCH   1  21
ATOM     21  C   UNL     1       5.825  -2.658   4.782  1.00  0.00     0.042 C 
BRANCH  21  22
ATOM     22  C   UNL     1       5.099  -2.407   6.101  1.00  0.00     0.118 C 
BRANCH  22  23
ATOM     23  N   UNL     1       5.405  -3.408   7.111  1.00  0.00    -0.352 N 
ATOM     24  C   UNL     1       6.010  -3.293   8.336  1.00  0.00     0.251 C 
ATOM     25  H   UNL     1       5.131  -4.324   6.874  1.00  0.00     0.163 HD
ATOM     26  O   UNL     1       6.350  -4.318   8.924  1.00  0.00    -0.269 OA
BRANCH  24  27
ATOM     27  C   UNL     1       6.261  -1.971   8.954  1.00  0.00     0.039 A 
ATOM     28  C   UNL     1       7.434  -1.794   9.695  1.00  0.00     0.014 A 
ATOM     29  C   UNL     1       5.329  -0.934   8.877  1.00  0.00     0.014 A 
ATOM     30  C   UNL     1       7.685  -0.573  10.326  1.00  0.00     0.010 A 
ATOM     31  C   UNL     1       5.617   0.309   9.440  1.00  0.00     0.010 A 
ATOM     32  C   UNL     1       6.787   0.497  10.190  1.00  0.00    -0.014 A 
BRANCH  32  33
ATOM     33  C   UNL     1       7.050   1.806  10.843  1.00  0.00     0.031 A 
ATOM     34  C   UNL     1       6.121   2.328  11.909  1.00  0.00     0.074 A 
ATOM     35  C   UNL     1       8.092   2.557  10.435  1.00  0.00     0.049 A 
ATOM     36  N   UNL     1       6.183   3.451  12.579  1.00  0.00    -0.248 NA
ATOM     37  C   UNL     1       4.955   1.496  12.246  1.00  0.00     0.031 C 
ATOM     38  C   UNL     1       9.015   2.205   9.354  1.00  0.00     0.029 A 
ATOM     39  N   UNL     1       8.539   3.780  10.867  1.00  0.00    -0.354 N 
ATOM     40  C   UNL     1       5.051   3.477  13.386  1.00  0.00     0.074 A 
ATOM     41  C   UNL     1       4.300   2.275  13.095  1.00  0.00     0.031 C 
ATOM     42  C   UNL     1       9.922   3.185   9.214  1.00  0.00     0.029 A 
ATOM     43  C   UNL     1       9.636   4.242  10.179  1.00  0.00     0.049 A 
ATOM     44  H   UNL     1       8.113   4.280  11.601  1.00  0.00     0.167 HD
ATOM     45  C   UNL     1       4.685   4.397  14.310  1.00  0.00     0.034 A 
ATOM     46  C   UNL     1      10.337   5.385  10.314  1.00  0.00     0.034 A 
ATOM     47  C   UNL     1       5.461   5.563  14.637  1.00  0.00     0.049 A 
ATOM     48  C   UNL     1       9.952   6.354  11.399  1.00  0.00     0.074 A 
ATOM     49  C   UNL     1       5.224   6.508  15.621  1.00  0.00     0.029 A 
ATOM     50  N   UNL     1       6.625   5.945  13.989  1.00  0.00    -0.354 N 
ATOM     51  N   UNL     1       8.972   6.277  12.266  1.00  0.00    -0.248 NA
ATOM     52  C   UNL     1      10.797   7.547  11.553  1.00  0.00     0.031 C 
ATOM     53  C   UNL     1       6.240   7.469  15.558  1.00  0.00     0.029 A 
ATOM     54  C   UNL     1       7.119   7.112  14.548  1.00  0.00     0.049 A 
ATOM     55  H   UNL     1       7.040   5.458  13.241  1.00  0.00     0.167 HD
ATOM     56  C   UNL     1       9.102   7.390  13.089  1.00  0.00     0.074 A 
ATOM     57  C   UNL     1      10.274   8.110  12.633  1.00  0.00     0.031 C 
ATOM     58  C   UNL     1       8.315   7.790  14.118  1.00  0.00     0.034 A 
BRANCH  45  59
ATOM     59  C   UNL     1       3.415   4.143  15.083  1.00  0.00     0.023 A 
ATOM     60  C   UNL     1       3.382   3.111  16.044  1.00  0.00     0.012 A 
ATOM     61  C   UNL     1       2.275   4.950  14.899  1.00  0.00     0.148 A 
ATOM     62  C   UNL     1       2.226   2.861  16.781  1.00  0.00     0.002 A 
ATOM     63  C   UNL     1       1.140   4.723  15.669  1.00  0.00     0.091 A 
ATOM     64  F   UNL     1       2.315   5.912  13.966  1.00  0.00    -0.205 F 
ATOM     65  C   UNL     1       1.109   3.672  16.601  1.00  0.00     0.022 A 
BRANCH  63  66
ATOM     66  S   UNL     1      -0.323   5.761  15.568  1.00  0.00     0.127 S 
ATOM     67  O   UNL     1      -1.264   4.878  14.879  1.00  0.00    -0.237 OA
ATOM     68  O   UNL     1      -0.632   5.998  16.978  1.00  0.00    -0.237 OA
ATOM     69  O   UNL     1       0.079   6.948  14.828  1.00  0.00    -0.744 OA
ENDBRANCH  63  66
ENDBRANCH  45  59
BRANCH  46  70
ATOM     70  C   UNL     1      11.531   5.630   9.456  1.00  0.00     0.023 A 
ATOM     71  C   UNL     1      12.816   5.572  10.030  1.00  0.00     0.012 A 
ATOM     72  C   UNL     1      11.404   5.886   8.077  1.00  0.00     0.148 A 
ATOM     73  C   UNL     1      13.953   5.798   9.253  1.00  0.00     0.002 A 
ATOM     74  C   UNL     1      12.544   6.056   7.299  1.00  0.00     0.091 A 
ATOM     75  F   UNL     1      10.173   5.948   7.553  1.00  0.00    -0.205 F 
ATOM     76  C   UNL     1      13.818   6.029   7.887  1.00  0.00     0.022 A 
BRANCH  74  77
ATOM     77  S   UNL     1      12.466   6.222   5.511  1.00  0.00     0.127 S 
ATOM     78  O   UNL     1      12.794   7.636   5.329  1.00  0.00    -0.237 OA
ATOM     79  O   UNL     1      13.509   5.289   5.075  1.00  0.00    -0.237 OA
ATOM     80  O   UNL     1      11.119   5.829   5.139  1.00  0.00    -0.744 OA
ENDBRANCH  74  77
ENDBRANCH  46  70
BRANCH  58  81
ATOM     81  C   UNL     1       8.707   9.050  14.844  1.00  0.00     0.023 A 
ATOM     82  C   UNL     1       8.544  10.300  14.213  1.00  0.00     0.012 A 
ATOM     83  C   UNL     1       9.188   9.002  16.167  1.00  0.00     0.148 A 
ATOM     84  C   UNL     1       8.891  11.478  14.873  1.00  0.00     0.002 A 
ATOM     85  C   UNL     1       9.486  10.184  16.835  1.00  0.00     0.091 A 
ATOM     86  F   UNL     1       9.359   7.804  16.745  1.00  0.00    -0.205 F 
ATOM     87  C   UNL     1       9.351  11.422  16.186  1.00  0.00     0.022 A 
BRANCH  85  88
ATOM     88  S   UNL     1       9.993  10.202  18.559  1.00  0.00     0.127 S 
ATOM     89  O   UNL     1      11.439  10.377  18.444  1.00  0.00    -0.237 OA
ATOM     90  O   UNL     1       9.278  11.366  19.086  1.00  0.00    -0.237 OA
ATOM     91  O   UNL     1       9.553   8.928  19.112  1.00  0.00    -0.744 OA
ENDBRANCH  85  88
ENDBRANCH  58  81
ENDBRANCH  32  33
ENDBRANCH  24  27
ENDBRANCH  22  23
ENDBRANCH  21  22
ENDBRANCH   1  21
TORSDOF 18
