REMARK SMILES C[C@@H](C(=O)NCCCNC(=O)c1ccc(-c2c3nc(c(-c4cccc(S(=O)(=O)[O-])c4F)c4ccc([nH]4)c(-c4cccc(S(=O)(=O)[O-])c4F)c4nc(c(-c5cccc(S(=O)(=O)[O-])c5F)c5ccc2[nH]5)C=C4)C=C3)cc1)c1ccc(-c2cccc(OC(=O)NCCC3CCCCC3)c2)c(F)c1
REMARK SMILES IDX 3 1 4 2 5 3 2 5 1 6 75 7 76 8 99 9 77 10 97 11 78 12 98 13
REMARK SMILES IDX 79 14 80 15 96 16 81 17 83 18 82 19 84 20 85 21 86 22 87 23
REMARK SMILES IDX 88 25 89 26 90 27 91 28 95 29 92 30 94 31 93 32 6 33 7 34
REMARK SMILES IDX 8 35 9 36 10 37 11 39 12 40 13 41 74 42 14 43 73 44 15 45
REMARK SMILES IDX 16 46 17 47 67 48 18 49 72 50 66 51 68 52 19 53 71 54 65 55
REMARK SMILES IDX 64 56 20 58 52 59 32 60 51 61 33 62 36 63 50 64 69 65 34 66
REMARK SMILES IDX 35 67 49 69 70 70 37 71 21 72 22 73 30 74 23 75 25 76 31 77
REMARK SMILES IDX 24 78 26 79 27 80 28 81 29 82 53 83 54 84 62 85 55 86 57 87
REMARK SMILES IDX 63 88 56 89 58 90 59 91 60 92 61 93 38 94 39 95 47 96 40 97
REMARK SMILES IDX 42 98 48 99 41 100 43 101 44 102 45 103 46 104
REMARK H PARENT 5 4 87 24 9 38 68 57 36 68
REMARK Flexibility Score: inf
ROOT
ATOM      1  C   UNL     1       1.134  -0.244   2.350  1.00  0.00     0.227 C 
ATOM      2  O   UNL     1       0.466   0.310   3.225  1.00  0.00    -0.274 OA
ATOM      3  N   UNL     1       2.454  -0.443   2.627  1.00  0.00    -0.356 N 
ATOM      4  H   UNL     1       2.729  -0.203   3.541  1.00  0.00     0.163 HD
ENDROOT
BRANCH   1   5
ATOM      5  C   UNL     1       0.545  -0.751   1.023  1.00  0.00     0.105 C 
ATOM      6  C   UNL     1       1.002   0.066  -0.188  1.00  0.00     0.023 C 
BRANCH   5   7
ATOM      7  C   UNL     1      -0.977  -0.794   1.055  1.00  0.00    -0.033 A 
ATOM      8  C   UNL     1      -1.732   0.388   1.097  1.00  0.00     0.005 A 
ATOM      9  C   UNL     1      -1.647  -2.022   1.053  1.00  0.00     0.044 A 
ATOM     10  C   UNL     1      -3.126   0.345   1.134  1.00  0.00     0.012 A 
ATOM     11  C   UNL     1      -3.039  -2.055   1.090  1.00  0.00     0.131 A 
ATOM     12  C   UNL     1      -3.805  -0.881   1.136  1.00  0.00     0.018 A 
ATOM     13  F   UNL     1      -3.640  -3.256   1.095  1.00  0.00    -0.206 F 
BRANCH  12  14
ATOM     14  C   UNL     1      -5.265  -0.915   1.281  1.00  0.00    -0.012 A 
ATOM     15  C   UNL     1      -6.115  -0.228   0.402  1.00  0.00     0.009 A 
ATOM     16  C   UNL     1      -5.833  -1.601   2.366  1.00  0.00     0.056 A 
ATOM     17  C   UNL     1      -7.497  -0.223   0.607  1.00  0.00     0.004 A 
ATOM     18  C   UNL     1      -7.205  -1.574   2.587  1.00  0.00     0.133 A 
ATOM     19  C   UNL     1      -8.043  -0.893   1.702  1.00  0.00     0.047 A 
BRANCH  18  20
ATOM     20  O   UNL     1      -7.842  -2.192   3.690  1.00  0.00    -0.410 OA
BRANCH  20  21
ATOM     21  C   UNL     1      -7.179  -2.683   4.812  1.00  0.00     0.412 C 
ATOM     22  O   UNL     1      -5.967  -2.742   4.989  1.00  0.00    -0.224 OA
ATOM     23  N   UNL     1      -8.013  -3.111   5.802  1.00  0.00    -0.321 N 
ATOM     24  H   UNL     1      -7.577  -3.424   6.628  1.00  0.00     0.167 HD
BRANCH  23  25
ATOM     25  C   UNL     1      -9.456  -3.162   5.788  1.00  0.00     0.119 C 
BRANCH  25  26
ATOM     26  C   UNL     1      -9.956  -4.608   5.808  1.00  0.00     0.025 C 
BRANCH  26  27
ATOM     27  C   UNL     1      -9.522  -5.417   7.051  1.00  0.00    -0.009 C 
ATOM     28  C   UNL     1     -10.166  -4.881   8.340  1.00  0.00     0.003 C 
ATOM     29  C   UNL     1      -9.859  -6.904   6.851  1.00  0.00     0.003 C 
ATOM     30  C   UNL     1      -9.812  -5.734   9.557  1.00  0.00     0.000 C 
ATOM     31  C   UNL     1      -9.484  -7.739   8.072  1.00  0.00     0.000 C 
ATOM     32  C   UNL     1     -10.147  -7.204   9.336  1.00  0.00     0.000 C 
ENDBRANCH  26  27
ENDBRANCH  25  26
ENDBRANCH  23  25
ENDBRANCH  20  21
ENDBRANCH  18  20
ENDBRANCH  12  14
ENDBRANCH   5   7
ENDBRANCH   1   5
BRANCH   3  33
ATOM     33  C   UNL     1       3.515  -0.953   1.783  1.00  0.00     0.117 C 
BRANCH  33  34
ATOM     34  C   UNL     1       4.373   0.178   1.228  1.00  0.00     0.042 C 
BRANCH  34  35
ATOM     35  C   UNL     1       5.120   0.960   2.301  1.00  0.00     0.118 C 
BRANCH  35  36
ATOM     36  N   UNL     1       6.098   0.142   3.007  1.00  0.00    -0.352 N 
ATOM     37  C   UNL     1       7.456   0.312   3.116  1.00  0.00     0.251 C 
ATOM     38  H   UNL     1       5.732  -0.646   3.471  1.00  0.00     0.163 HD
ATOM     39  O   UNL     1       8.150  -0.588   3.581  1.00  0.00    -0.269 OA
BRANCH  37  40
ATOM     40  C   UNL     1       8.075   1.574   2.661  1.00  0.00     0.039 A 
ATOM     41  C   UNL     1       9.249   1.526   1.906  1.00  0.00     0.014 A 
ATOM     42  C   UNL     1       7.491   2.802   2.980  1.00  0.00     0.014 A 
ATOM     43  C   UNL     1       9.806   2.711   1.419  1.00  0.00     0.010 A 
ATOM     44  C   UNL     1       7.996   3.969   2.421  1.00  0.00     0.010 A 
ATOM     45  C   UNL     1       9.167   3.939   1.648  1.00  0.00    -0.014 A 
BRANCH  45  46
ATOM     46  C   UNL     1       9.703   5.217   1.117  1.00  0.00     0.031 A 
ATOM     47  C   UNL     1      10.096   6.310   2.074  1.00  0.00     0.074 A 
ATOM     48  C   UNL     1       9.723   5.441  -0.211  1.00  0.00     0.049 A 
ATOM     49  N   UNL     1      10.441   7.545   1.821  1.00  0.00    -0.248 NA
ATOM     50  C   UNL     1      10.060   5.978   3.508  1.00  0.00     0.031 C 
ATOM     51  C   UNL     1       9.308   4.483  -1.237  1.00  0.00     0.029 A 
ATOM     52  N   UNL     1      10.068   6.563  -0.922  1.00  0.00    -0.354 N 
ATOM     53  C   UNL     1      10.612   8.150   3.061  1.00  0.00     0.074 A 
ATOM     54  C   UNL     1      10.299   7.155   4.063  1.00  0.00     0.031 C 
ATOM     55  C   UNL     1       9.413   5.060  -2.444  1.00  0.00     0.029 A 
ATOM     56  C   UNL     1       9.859   6.440  -2.276  1.00  0.00     0.049 A 
ATOM     57  H   UNL     1      10.430   7.377  -0.504  1.00  0.00     0.167 HD
ATOM     58  C   UNL     1      11.015   9.412   3.342  1.00  0.00     0.034 A 
ATOM     59  C   UNL     1       9.986   7.343  -3.268  1.00  0.00     0.034 A 
ATOM     60  C   UNL     1      11.356  10.384   2.340  1.00  0.00     0.049 A 
ATOM     61  C   UNL     1      10.459   8.733  -2.938  1.00  0.00     0.074 A 
ATOM     62  C   UNL     1      11.855  11.662   2.516  1.00  0.00     0.029 A 
ATOM     63  N   UNL     1      11.220  10.192   0.973  1.00  0.00    -0.354 N 
ATOM     64  N   UNL     1      10.744   9.249  -1.767  1.00  0.00    -0.248 NA
ATOM     65  C   UNL     1      10.661   9.654  -4.065  1.00  0.00     0.031 C 
ATOM     66  C   UNL     1      11.985  12.256   1.257  1.00  0.00     0.029 A 
ATOM     67  C   UNL     1      11.615  11.331   0.294  1.00  0.00     0.049 A 
ATOM     68  H   UNL     1      10.892   9.367   0.549  1.00  0.00     0.167 HD
ATOM     69  C   UNL     1      11.203  10.537  -2.019  1.00  0.00     0.074 A 
ATOM     70  C   UNL     1      11.161  10.721  -3.455  1.00  0.00     0.031 C 
ATOM     71  C   UNL     1      11.620  11.481  -1.140  1.00  0.00     0.034 A 
BRANCH  58  72
ATOM     72  C   UNL     1      11.131   9.798   4.794  1.00  0.00     0.023 A 
ATOM     73  C   UNL     1      12.127   9.210   5.601  1.00  0.00     0.012 A 
ATOM     74  C   UNL     1      10.272  10.762   5.356  1.00  0.00     0.148 A 
ATOM     75  C   UNL     1      12.230   9.531   6.954  1.00  0.00     0.002 A 
ATOM     76  C   UNL     1      10.416  11.119   6.691  1.00  0.00     0.091 A 
ATOM     77  F   UNL     1       9.318  11.299   4.582  1.00  0.00    -0.205 F 
ATOM     78  C   UNL     1      11.382  10.492   7.496  1.00  0.00     0.022 A 
BRANCH  76  79
ATOM     79  S   UNL     1       9.430  12.409   7.459  1.00  0.00     0.127 S 
ATOM     80  O   UNL     1       8.549  11.629   8.327  1.00  0.00    -0.237 OA
ATOM     81  O   UNL     1      10.444  13.192   8.166  1.00  0.00    -0.237 OA
ATOM     82  O   UNL     1       8.772  13.113   6.368  1.00  0.00    -0.744 OA
ENDBRANCH  76  79
ENDBRANCH  58  72
BRANCH  59  83
ATOM     83  C   UNL     1       9.706   6.938  -4.674  1.00  0.00     0.023 A 
ATOM     84  C   UNL     1      10.773   6.799  -5.582  1.00  0.00     0.012 A 
ATOM     85  C   UNL     1       8.396   6.643  -5.101  1.00  0.00     0.148 A 
ATOM     86  C   UNL     1      10.540   6.399  -6.898  1.00  0.00     0.002 A 
ATOM     87  C   UNL     1       8.177   6.190  -6.397  1.00  0.00     0.091 A 
ATOM     88  F   UNL     1       7.396   6.785  -4.221  1.00  0.00    -0.205 F 
ATOM     89  C   UNL     1       9.245   6.084  -7.302  1.00  0.00     0.022 A 
BRANCH  87  90
ATOM     90  S   UNL     1       6.567   5.636  -6.969  1.00  0.00     0.127 S 
ATOM     91  O   UNL     1       6.259   6.624  -8.000  1.00  0.00    -0.237 OA
ATOM     92  O   UNL     1       6.875   4.296  -7.470  1.00  0.00    -0.237 OA
ATOM     93  O   UNL     1       5.700   5.658  -5.799  1.00  0.00    -0.744 OA
ENDBRANCH  87  90
ENDBRANCH  59  83
BRANCH  71  94
ATOM     94  C   UNL     1      12.134  12.785  -1.692  1.00  0.00     0.023 A 
ATOM     95  C   UNL     1      11.243  13.729  -2.238  1.00  0.00     0.012 A 
ATOM     96  C   UNL     1      13.500  13.112  -1.569  1.00  0.00     0.148 A 
ATOM     97  C   UNL     1      11.708  14.969  -2.676  1.00  0.00     0.002 A 
ATOM     98  C   UNL     1      13.946  14.368  -1.956  1.00  0.00     0.091 A 
ATOM     99  F   UNL     1      14.333  12.191  -1.062  1.00  0.00    -0.205 F 
ATOM    100  C   UNL     1      13.055  15.294  -2.522  1.00  0.00     0.022 A 
BRANCH  98 101
ATOM    101  S   UNL     1      15.639  14.912  -1.699  1.00  0.00     0.127 S 
ATOM    102  O   UNL     1      16.139  14.987  -3.071  1.00  0.00    -0.237 OA
ATOM    103  O   UNL     1      15.451  16.207  -1.046  1.00  0.00    -0.237 OA
ATOM    104  O   UNL     1      16.267  13.897  -0.864  1.00  0.00    -0.744 OA
ENDBRANCH  98 101
ENDBRANCH  71  94
ENDBRANCH  45  46
ENDBRANCH  37  40
ENDBRANCH  35  36
ENDBRANCH  34  35
ENDBRANCH  33  34
ENDBRANCH   3  33
TORSDOF 20
