REMARK SMILES CCCC[C@@H](C(=O)NCCCNC(=O)c1ccc(-c2c3nc(c(-c4cccc(S(=O)(=O)[O-])c4F)c4ccc([nH]4)c(-c4cccc(S(=O)(=O)[O-])c4F)c4nc(c(-c5cccc(S(=O)(=O)[O-])c5F)c5ccc2[nH]5)C=C4)C=C3)cc1)[C@](C)(O)c1cccc(Br)c1
REMARK SMILES IDX 10 1 9 2 8 3 6 4 7 5 5 7 4 8 3 9 2 10 1 11 78 12 79 13 80 14
REMARK SMILES IDX 81 16 82 17 87 18 83 19 85 20 84 21 86 22 11 23 12 24 13 25
REMARK SMILES IDX 14 27 15 28 16 29 77 30 17 31 76 32 18 33 19 34 20 35 70 36
REMARK SMILES IDX 21 37 75 38 69 39 71 40 22 41 74 42 68 43 67 44 23 46 55 47
REMARK SMILES IDX 35 48 54 49 36 50 39 51 53 52 72 53 37 54 38 55 52 57 73 58
REMARK SMILES IDX 40 59 24 60 25 61 33 62 26 63 28 64 34 65 27 66 29 67 30 68
REMARK SMILES IDX 31 69 32 70 56 71 57 72 65 73 58 74 60 75 66 76 59 77 61 78
REMARK SMILES IDX 62 79 63 80 64 81 41 82 42 83 50 84 43 85 45 86 51 87 44 88
REMARK SMILES IDX 46 89 47 90 48 91 49 92
REMARK H PARENT 8 6 80 15 12 26 71 45 39 56
REMARK Flexibility Score: inf
ROOT
ATOM      1  C   UNL     1       0.954   3.173   4.709  1.00  0.00     0.042 C 
ENDROOT
BRANCH   1   2
ATOM      2  C   UNL     1       0.658   1.820   5.345  1.00  0.00     0.117 C 
BRANCH   2   3
ATOM      3  N   UNL     1      -0.762   1.513   5.296  1.00  0.00    -0.356 N 
ATOM      4  C   UNL     1      -1.467   0.659   4.502  1.00  0.00     0.226 C 
ATOM      5  O   UNL     1      -2.691   0.623   4.664  1.00  0.00    -0.275 OA
ATOM      6  H   UNL     1      -1.308   2.006   5.950  1.00  0.00     0.163 HD
BRANCH   4   7
ATOM      7  C   UNL     1      -0.784  -0.223   3.443  1.00  0.00     0.114 C 
BRANCH   7   8
ATOM      8  C   UNL     1      -0.766   0.587   2.110  1.00  0.00     0.017 C 
BRANCH   8   9
ATOM      9  C   UNL     1       0.496   1.403   1.777  1.00  0.00     0.001 C 
BRANCH   9  10
ATOM     10  C   UNL     1       1.862   0.741   1.970  1.00  0.00    -0.003 C 
ATOM     11  C   UNL     1       2.219  -0.237   0.866  1.00  0.00     0.004 C 
ENDBRANCH   9  10
ENDBRANCH   8   9
ENDBRANCH   7   8
BRANCH   7  12
ATOM     12  C   UNL     1      -1.506  -1.651   3.340  1.00  0.00     0.098 C 
ATOM     13  C   UNL     1      -1.074  -2.347   2.019  1.00  0.00     0.048 C 
BRANCH  12  14
ATOM     14  O   UNL     1      -2.929  -1.539   3.215  1.00  0.00    -0.385 OA
ATOM     15  H   UNL     1      -3.320  -2.425   3.157  1.00  0.00     0.211 HD
ENDBRANCH  12  14
BRANCH  12  16
ATOM     16  C   UNL     1      -1.225  -2.615   4.529  1.00  0.00    -0.015 A 
ATOM     17  C   UNL     1      -1.435  -4.007   4.402  1.00  0.00     0.007 A 
ATOM     18  C   UNL     1      -0.769  -2.176   5.785  1.00  0.00     0.022 A 
ATOM     19  C   UNL     1      -1.120  -4.912   5.422  1.00  0.00     0.002 A 
ATOM     20  C   UNL     1      -0.485  -3.080   6.819  1.00  0.00     0.018 A 
ATOM     21  C   UNL     1      -0.637  -4.449   6.636  1.00  0.00     0.016 A 
ATOM     22  Br  UNL     1       0.115  -2.429   8.492  1.00  0.00    -0.051 Br
ENDBRANCH  12  16
ENDBRANCH   7  12
ENDBRANCH   4   7
ENDBRANCH   2   3
ENDBRANCH   1   2
BRANCH   1  23
ATOM     23  C   UNL     1       0.969   4.341   5.679  1.00  0.00     0.118 C 
BRANCH  23  24
ATOM     24  N   UNL     1       2.160   4.363   6.512  1.00  0.00    -0.352 N 
ATOM     25  C   UNL     1       3.155   5.309   6.617  1.00  0.00     0.251 C 
ATOM     26  H   UNL     1       2.274   3.577   7.093  1.00  0.00     0.163 HD
ATOM     27  O   UNL     1       4.163   5.037   7.264  1.00  0.00    -0.269 OA
BRANCH  25  28
ATOM     28  C   UNL     1       3.039   6.630   5.950  1.00  0.00     0.039 A 
ATOM     29  C   UNL     1       4.193   7.220   5.422  1.00  0.00     0.014 A 
ATOM     30  C   UNL     1       1.823   7.312   5.868  1.00  0.00     0.014 A 
ATOM     31  C   UNL     1       4.114   8.455   4.769  1.00  0.00     0.010 A 
ATOM     32  C   UNL     1       1.726   8.487   5.125  1.00  0.00     0.010 A 
ATOM     33  C   UNL     1       2.873   9.085   4.585  1.00  0.00    -0.014 A 
BRANCH  33  34
ATOM     34  C   UNL     1       2.755  10.375   3.852  1.00  0.00     0.031 A 
ATOM     35  C   UNL     1       2.195  11.593   4.543  1.00  0.00     0.074 A 
ATOM     36  C   UNL     1       3.077  10.435   2.544  1.00  0.00     0.049 A 
ATOM     37  N   UNL     1       1.961  12.784   4.056  1.00  0.00    -0.248 NA
ATOM     38  C   UNL     1       1.821  11.446   5.961  1.00  0.00     0.031 C 
ATOM     39  C   UNL     1       3.556   9.310   1.738  1.00  0.00     0.029 A 
ATOM     40  N   UNL     1       3.026  11.480   1.655  1.00  0.00    -0.354 N 
ATOM     41  C   UNL     1       1.378  13.511   5.089  1.00  0.00     0.074 A 
ATOM     42  C   UNL     1       1.256  12.616   6.217  1.00  0.00     0.031 C 
ATOM     43  C   UNL     1       3.767   9.727   0.479  1.00  0.00     0.029 A 
ATOM     44  C   UNL     1       3.404  11.137   0.377  1.00  0.00     0.049 A 
ATOM     45  H   UNL     1       2.747  12.390   1.907  1.00  0.00     0.167 HD
ATOM     46  C   UNL     1       1.006  14.813   5.110  1.00  0.00     0.034 A 
ATOM     47  C   UNL     1       3.445  11.871  -0.753  1.00  0.00     0.034 A 
ATOM     48  C   UNL     1       1.171  15.713   4.001  1.00  0.00     0.049 A 
ATOM     49  C   UNL     1       3.061  13.325  -0.694  1.00  0.00     0.074 A 
ATOM     50  C   UNL     1       0.909  17.071   3.950  1.00  0.00     0.029 A 
ATOM     51  N   UNL     1       1.633  15.347   2.747  1.00  0.00    -0.354 N 
ATOM     52  N   UNL     1       2.655  14.031   0.334  1.00  0.00    -0.248 NA
ATOM     53  C   UNL     1       3.174  14.094  -1.942  1.00  0.00     0.031 C 
ATOM     54  C   UNL     1       1.184  17.519   2.654  1.00  0.00     0.029 A 
ATOM     55  C   UNL     1       1.653  16.449   1.910  1.00  0.00     0.049 A 
ATOM     56  H   UNL     1       1.907  14.437   2.490  1.00  0.00     0.167 HD
ATOM     57  C   UNL     1       2.503  15.332  -0.132  1.00  0.00     0.074 A 
ATOM     58  C   UNL     1       2.879  15.320  -1.531  1.00  0.00     0.031 C 
ATOM     59  C   UNL     1       2.079  16.434   0.534  1.00  0.00     0.034 A 
BRANCH  46  60
ATOM     60  C   UNL     1       0.428  15.358   6.392  1.00  0.00     0.023 A 
ATOM     61  C   UNL     1       1.259  15.519   7.521  1.00  0.00     0.012 A 
ATOM     62  C   UNL     1      -0.919  15.762   6.466  1.00  0.00     0.148 A 
ATOM     63  C   UNL     1       0.750  16.034   8.712  1.00  0.00     0.002 A 
ATOM     64  C   UNL     1      -1.407  16.320   7.642  1.00  0.00     0.091 A 
ATOM     65  F   UNL     1      -1.700  15.585   5.391  1.00  0.00    -0.205 F 
ATOM     66  C   UNL     1      -0.579  16.444   8.770  1.00  0.00     0.022 A 
BRANCH  64  67
ATOM     67  S   UNL     1      -3.080  16.956   7.794  1.00  0.00     0.127 S 
ATOM     68  O   UNL     1      -3.682  15.987   8.709  1.00  0.00    -0.237 OA
ATOM     69  O   UNL     1      -2.853  18.281   8.372  1.00  0.00    -0.237 OA
ATOM     70  O   UNL     1      -3.631  16.966   6.446  1.00  0.00    -0.744 OA
ENDBRANCH  64  67
ENDBRANCH  46  60
BRANCH  47  71
ATOM     71  C   UNL     1       3.926  11.259  -2.025  1.00  0.00     0.023 A 
ATOM     72  C   UNL     1       5.162  11.665  -2.566  1.00  0.00     0.012 A 
ATOM     73  C   UNL     1       3.180  10.265  -2.688  1.00  0.00     0.148 A 
ATOM     74  C   UNL     1       5.630  11.118  -3.762  1.00  0.00     0.002 A 
ATOM     75  C   UNL     1       3.679   9.684  -3.848  1.00  0.00     0.091 A 
ATOM     76  F   UNL     1       2.003   9.899  -2.163  1.00  0.00    -0.205 F 
ATOM     77  C   UNL     1       4.894  10.122  -4.397  1.00  0.00     0.022 A 
BRANCH  75  78
ATOM     78  S   UNL     1       2.867   8.303  -4.661  1.00  0.00     0.127 S 
ATOM     79  O   UNL     1       2.398   8.918  -5.899  1.00  0.00    -0.237 OA
ATOM     80  O   UNL     1       3.971   7.356  -4.821  1.00  0.00    -0.237 OA
ATOM     81  O   UNL     1       1.827   7.861  -3.741  1.00  0.00    -0.744 OA
ENDBRANCH  75  78
ENDBRANCH  47  71
BRANCH  59  82
ATOM     82  C   UNL     1       2.040  17.737  -0.222  1.00  0.00     0.023 A 
ATOM     83  C   UNL     1       1.060  17.950  -1.211  1.00  0.00     0.012 A 
ATOM     84  C   UNL     1       2.930  18.778   0.106  1.00  0.00     0.148 A 
ATOM     85  C   UNL     1       0.990  19.167  -1.887  1.00  0.00     0.002 A 
ATOM     86  C   UNL     1       2.820  20.006  -0.534  1.00  0.00     0.091 A 
ATOM     87  F   UNL     1       3.867  18.550   1.039  1.00  0.00    -0.205 F 
ATOM     88  C   UNL     1       1.860  20.198  -1.540  1.00  0.00     0.022 A 
BRANCH  86  89
ATOM     89  S   UNL     1       3.830  21.422  -0.084  1.00  0.00     0.127 S 
ATOM     90  O   UNL     1       4.709  21.542  -1.246  1.00  0.00    -0.237 OA
ATOM     91  O   UNL     1       2.833  22.486   0.041  1.00  0.00    -0.237 OA
ATOM     92  O   UNL     1       4.492  21.064   1.164  1.00  0.00    -0.744 OA
ENDBRANCH  86  89
ENDBRANCH  59  82
ENDBRANCH  33  34
ENDBRANCH  25  28
ENDBRANCH  23  24
ENDBRANCH   1  23
TORSDOF 19
