REMARK SMILES COc1ccc(N2CC[C@H](C(=O)NCCCNC(=O)c3ccc(-c4c5nc(c(-c6cccc(S(=O)(=O)[O-])c6F)c6ccc([nH]6)c(-c6cccc(S(=O)(=O)[O-])c6F)c6nc(c(-c7cccc(S(=O)(=O)[O-])c7F)c7ccc4[nH]7)C=C6)C=C5)cc3)C2=O)cc1
REMARK SMILES IDX 15 1 14 2 13 3 11 4 12 5 10 7 7 8 8 9 83 10 9 11 84 12 6 13
REMARK SMILES IDX 3 14 4 15 86 16 5 17 85 18 2 19 1 20 16 21 17 22 18 23 19 25
REMARK SMILES IDX 20 26 21 27 82 28 22 29 81 30 23 31 24 32 25 33 75 34 26 35
REMARK SMILES IDX 80 36 74 37 76 38 27 39 79 40 73 41 72 42 28 44 60 45 40 46
REMARK SMILES IDX 59 47 41 48 44 49 58 50 77 51 42 52 43 53 57 55 78 56 45 57
REMARK SMILES IDX 29 58 30 59 38 60 31 61 33 62 39 63 32 64 34 65 35 66 36 67
REMARK SMILES IDX 37 68 61 69 62 70 70 71 63 72 65 73 71 74 64 75 66 76 67 77
REMARK SMILES IDX 68 78 69 79 46 80 47 81 55 82 48 83 50 84 56 85 49 86 51 87
REMARK SMILES IDX 52 88 53 89 54 90
REMARK H PARENT 13 6 17 24 76 43 44 54
REMARK Flexibility Score: inf
ROOT
ATOM      1  C   UNL     1       6.706   4.696   7.224  1.00  0.00     0.042 C 
ENDROOT
BRANCH   1   2
ATOM      2  C   UNL     1       5.970   3.875   8.279  1.00  0.00     0.117 C 
BRANCH   2   3
ATOM      3  N   UNL     1       4.782   4.545   8.777  1.00  0.00    -0.355 N 
ATOM      4  C   UNL     1       3.469   4.209   8.649  1.00  0.00     0.232 C 
ATOM      5  O   UNL     1       2.643   4.984   9.136  1.00  0.00    -0.274 OA
ATOM      6  H   UNL     1       4.952   5.370   9.286  1.00  0.00     0.163 HD
BRANCH   4   7
ATOM      7  C   UNL     1       3.068   2.894   8.011  1.00  0.00     0.169 C 
ATOM      8  N   UNL     1       1.869   2.296   6.065  1.00  0.00    -0.312 N 
ATOM      9  C   UNL     1       1.112   1.771   7.170  1.00  0.00     0.127 C 
ATOM     10  C   UNL     1       3.045   2.919   6.498  1.00  0.00     0.239 C 
ATOM     11  C   UNL     1       1.626   2.523   8.373  1.00  0.00     0.045 C 
ATOM     12  O   UNL     1       3.943   3.384   5.806  1.00  0.00    -0.274 OA
BRANCH   8  13
ATOM     13  C   UNL     1       1.514   2.023   4.722  1.00  0.00     0.044 A 
ATOM     14  C   UNL     1       0.771   1.375   2.079  1.00  0.00     0.119 A 
ATOM     15  C   UNL     1      -0.200   1.668   3.032  1.00  0.00     0.048 A 
ATOM     16  C   UNL     1       2.117   1.451   2.430  1.00  0.00     0.048 A 
ATOM     17  C   UNL     1       0.166   1.962   4.348  1.00  0.00     0.030 A 
ATOM     18  C   UNL     1       2.485   1.792   3.741  1.00  0.00     0.030 A 
BRANCH  14  19
ATOM     19  O   UNL     1       0.300   1.083   0.829  1.00  0.00    -0.497 OA
ATOM     20  C   UNL     1       1.042   0.087   0.133  1.00  0.00     0.278 C 
ENDBRANCH  14  19
ENDBRANCH   8  13
ENDBRANCH   4   7
ENDBRANCH   2   3
ENDBRANCH   1   2
BRANCH   1  21
ATOM     21  C   UNL     1       7.189   6.067   7.690  1.00  0.00     0.118 C 
BRANCH  21  22
ATOM     22  N   UNL     1       8.150   6.002   8.784  1.00  0.00    -0.352 N 
ATOM     23  C   UNL     1       9.414   6.533   8.885  1.00  0.00     0.251 C 
ATOM     24  H   UNL     1       7.847   5.500   9.574  1.00  0.00     0.163 HD
ATOM     25  O   UNL     1      10.112   6.242   9.854  1.00  0.00    -0.269 OA
BRANCH  23  26
ATOM     26  C   UNL     1       9.951   7.426   7.832  1.00  0.00     0.039 A 
ATOM     27  C   UNL     1      11.274   7.249   7.411  1.00  0.00     0.014 A 
ATOM     28  C   UNL     1       9.175   8.443   7.271  1.00  0.00     0.014 A 
ATOM     29  C   UNL     1      11.790   8.039   6.379  1.00  0.00     0.010 A 
ATOM     30  C   UNL     1       9.667   9.181   6.195  1.00  0.00     0.010 A 
ATOM     31  C   UNL     1      10.978   8.987   5.735  1.00  0.00    -0.014 A 
BRANCH  31  32
ATOM     32  C   UNL     1      11.468   9.761   4.564  1.00  0.00     0.031 A 
ATOM     33  C   UNL     1      11.581  11.260   4.631  1.00  0.00     0.074 A 
ATOM     34  C   UNL     1      11.719   9.121   3.404  1.00  0.00     0.049 A 
ATOM     35  N   UNL     1      11.918  12.105   3.690  1.00  0.00    -0.248 NA
ATOM     36  C   UNL     1      11.249  11.896   5.916  1.00  0.00     0.031 C 
ATOM     37  C   UNL     1      11.574   7.680   3.184  1.00  0.00     0.029 A 
ATOM     38  N   UNL     1      12.119   9.603   2.182  1.00  0.00    -0.354 N 
ATOM     39  C   UNL     1      11.802  13.370   4.255  1.00  0.00     0.074 A 
ATOM     40  C   UNL     1      11.337  13.184   5.612  1.00  0.00     0.031 C 
ATOM     41  C   UNL     1      11.882   7.396   1.908  1.00  0.00     0.029 A 
ATOM     42  C   UNL     1      12.218   8.633   1.211  1.00  0.00     0.049 A 
ATOM     43  H   UNL     1      12.317  10.553   2.016  1.00  0.00     0.167 HD
ATOM     44  C   UNL     1      12.086  14.575   3.705  1.00  0.00     0.034 A 
ATOM     45  C   UNL     1      12.538   8.728  -0.095  1.00  0.00     0.034 A 
ATOM     46  C   UNL     1      12.596  14.756   2.372  1.00  0.00     0.049 A 
ATOM     47  C   UNL     1      12.888  10.074  -0.669  1.00  0.00     0.074 A 
ATOM     48  C   UNL     1      12.998  15.928   1.756  1.00  0.00     0.029 A 
ATOM     49  N   UNL     1      12.770  13.739   1.446  1.00  0.00    -0.354 N 
ATOM     50  N   UNL     1      12.929  11.240  -0.071  1.00  0.00    -0.248 NA
ATOM     51  C   UNL     1      13.270  10.114  -2.088  1.00  0.00     0.031 C 
ATOM     52  C   UNL     1      13.404  15.621   0.453  1.00  0.00     0.029 A 
ATOM     53  C   UNL     1      13.269  14.256   0.263  1.00  0.00     0.049 A 
ATOM     54  H   UNL     1      12.569  12.789   1.607  1.00  0.00     0.167 HD
ATOM     55  C   UNL     1      13.374  12.145  -1.029  1.00  0.00     0.074 A 
ATOM     56  C   UNL     1      13.609  11.387  -2.241  1.00  0.00     0.031 C 
ATOM     57  C   UNL     1      13.556  13.484  -0.919  1.00  0.00     0.034 A 
BRANCH  44  58
ATOM     58  C   UNL     1      11.916  15.795   4.573  1.00  0.00     0.023 A 
ATOM     59  C   UNL     1      12.832  16.032   5.618  1.00  0.00     0.012 A 
ATOM     60  C   UNL     1      10.893  16.732   4.326  1.00  0.00     0.148 A 
ATOM     61  C   UNL     1      12.714  17.162   6.426  1.00  0.00     0.002 A 
ATOM     62  C   UNL     1      10.807  17.878   5.110  1.00  0.00     0.091 A 
ATOM     63  F   UNL     1      10.017  16.481   3.343  1.00  0.00    -0.205 F 
ATOM     64  C   UNL     1      11.709  18.089   6.166  1.00  0.00     0.022 A 
BRANCH  62  65
ATOM     65  S   UNL     1       9.594  19.168   4.805  1.00  0.00     0.127 S 
ATOM     66  O   UNL     1       8.647  18.948   5.896  1.00  0.00    -0.237 OA
ATOM     67  O   UNL     1      10.397  20.386   4.932  1.00  0.00    -0.237 OA
ATOM     68  O   UNL     1       9.079  18.922   3.465  1.00  0.00    -0.744 OA
ENDBRANCH  62  65
ENDBRANCH  44  58
BRANCH  45  69
ATOM     69  C   UNL     1      12.622   7.496  -0.930  1.00  0.00     0.023 A 
ATOM     70  C   UNL     1      13.887   7.037  -1.346  1.00  0.00     0.012 A 
ATOM     71  C   UNL     1      11.475   6.761  -1.284  1.00  0.00     0.148 A 
ATOM     72  C   UNL     1      14.007   5.884  -2.122  1.00  0.00     0.002 A 
ATOM     73  C   UNL     1      11.605   5.584  -2.014  1.00  0.00     0.091 A 
ATOM     74  F   UNL     1      10.278   7.221  -0.891  1.00  0.00    -0.205 F 
ATOM     75  C   UNL     1      12.868   5.153  -2.447  1.00  0.00     0.022 A 
BRANCH  73  76
ATOM     76  S   UNL     1      10.208   4.511  -2.369  1.00  0.00     0.127 S 
ATOM     77  O   UNL     1      10.017   4.731  -3.800  1.00  0.00    -0.237 OA
ATOM     78  O   UNL     1      10.740   3.194  -2.014  1.00  0.00    -0.237 OA
ATOM     79  O   UNL     1       9.130   4.973  -1.505  1.00  0.00    -0.744 OA
ENDBRANCH  73  76
ENDBRANCH  45  69
BRANCH  57  80
ATOM     80  C   UNL     1      14.062  14.223  -2.130  1.00  0.00     0.023 A 
ATOM     81  C   UNL     1      13.197  14.453  -3.218  1.00  0.00     0.012 A 
ATOM     82  C   UNL     1      15.366  14.757  -2.157  1.00  0.00     0.148 A 
ATOM     83  C   UNL     1      13.631  15.179  -4.327  1.00  0.00     0.002 A 
ATOM     84  C   UNL     1      15.776  15.517  -3.245  1.00  0.00     0.091 A 
ATOM     85  F   UNL     1      16.180  14.509  -1.121  1.00  0.00    -0.205 F 
ATOM     86  C   UNL     1      14.915  15.721  -4.335  1.00  0.00     0.022 A 
BRANCH  84  87
ATOM     87  S   UNL     1      17.378  16.330  -3.300  1.00  0.00     0.127 S 
ATOM     88  O   UNL     1      18.108  15.486  -4.245  1.00  0.00    -0.237 OA
ATOM     89  O   UNL     1      17.037  17.659  -3.808  1.00  0.00    -0.237 OA
ATOM     90  O   UNL     1      17.879  16.318  -1.932  1.00  0.00    -0.744 OA
ENDBRANCH  84  87
ENDBRANCH  57  80
ENDBRANCH  31  32
ENDBRANCH  23  26
ENDBRANCH  21  22
ENDBRANCH   1  21
TORSDOF 15
