REMARK SMILES COc1ccc(-c2cc(C(F)(F)F)n3nc(C(=O)NCCCNC(=O)c4ccc(-c5c6nc(c(-c7cccc(S(=O)(=O)[O-])c7F)c7ccc([nH]7)c(-c7cccc(S(=O)(=O)[O-])c7F)c7nc(c(-c8cccc(S(=O)(=O)[O-])c8F)c8ccc5[nH]8)C=C7)C=C6)cc4)cc3n2)cc1OC
REMARK SMILES IDX 21 1 20 2 19 3 17 4 18 5 16 7 7 8 8 9 91 10 9 11 90 12 14 13
REMARK SMILES IDX 89 14 15 15 6 16 3 17 4 18 93 19 5 20 92 21 2 22 1 23 94 24
REMARK SMILES IDX 95 25 10 26 11 27 12 28 13 29 22 30 23 31 24 32 25 34 26 35
REMARK SMILES IDX 27 36 88 37 28 38 87 39 29 40 30 41 31 42 81 43 32 44 86 45
REMARK SMILES IDX 80 46 82 47 33 48 85 49 79 50 78 51 34 53 66 54 46 55 65 56
REMARK SMILES IDX 47 57 50 58 64 59 83 60 48 61 49 62 63 64 84 65 51 66 35 67
REMARK SMILES IDX 36 68 44 69 37 70 39 71 45 72 38 73 40 74 41 75 42 76 43 77
REMARK SMILES IDX 67 78 68 79 76 80 69 81 71 82 77 83 70 84 72 85 73 86 74 87
REMARK SMILES IDX 75 88 52 89 53 90 61 91 54 92 56 93 62 94 55 95 57 96 58 97
REMARK SMILES IDX 59 98 60 99
REMARK H PARENT 19 6 23 33 82 52 50 63
REMARK Flexibility Score: inf
ROOT
ATOM      1  C   UNL     1      -0.380  -1.030  11.791  1.00  0.00     0.042 C 
ENDROOT
BRANCH   1   2
ATOM      2  C   UNL     1      -0.598   0.481  11.812  1.00  0.00     0.118 C 
BRANCH   2   3
ATOM      3  N   UNL     1       0.530   1.176  12.400  1.00  0.00    -0.351 N 
ATOM      4  C   UNL     1       1.584   1.853  11.836  1.00  0.00     0.271 C 
ATOM      5  O   UNL     1       2.342   2.425  12.631  1.00  0.00    -0.267 OA
ATOM      6  H   UNL     1       0.542   1.160  13.384  1.00  0.00     0.163 HD
BRANCH   4   7
ATOM      7  C   UNL     1       1.778   1.926  10.373  1.00  0.00     0.152 A 
ATOM      8  C   UNL     1       2.003   2.067   5.953  1.00  0.00     0.075 A 
ATOM      9  C   UNL     1       3.063   3.086   6.235  1.00  0.00     0.062 A 
ATOM     10  N   UNL     1       1.331   1.427   6.863  1.00  0.00    -0.228 NA
ATOM     11  C   UNL     1       3.287   3.367   7.535  1.00  0.00     0.150 A 
ATOM     12  C   UNL     1       1.647   1.710   8.158  1.00  0.00     0.157 A 
ATOM     13  N   UNL     1       2.562   2.698   8.514  1.00  0.00    -0.209 N 
ATOM     14  C   UNL     1       1.239   1.133   9.333  1.00  0.00     0.085 A 
ATOM     15  N   UNL     1       2.593   2.866   9.853  1.00  0.00    -0.161 NA
BRANCH   8  16
ATOM     16  C   UNL     1       1.708   1.812   4.526  1.00  0.00     0.004 A 
ATOM     17  C   UNL     1       1.143   1.324   1.836  1.00  0.00     0.160 A 
ATOM     18  C   UNL     1       0.111   1.661   2.723  1.00  0.00     0.051 A 
ATOM     19  C   UNL     1       2.466   1.233   2.294  1.00  0.00     0.161 A 
ATOM     20  C   UNL     1       0.389   1.889   4.073  1.00  0.00     0.014 A 
ATOM     21  C   UNL     1       2.739   1.482   3.643  1.00  0.00     0.060 A 
BRANCH  17  22
ATOM     22  O   UNL     1       0.848   1.202   0.505  1.00  0.00    -0.493 OA
ATOM     23  C   UNL     1       0.082   0.027   0.232  1.00  0.00     0.278 C 
ENDBRANCH  17  22
BRANCH  19  24
ATOM     24  O   UNL     1       3.589   0.959   1.562  1.00  0.00    -0.493 OA
ATOM     25  C   UNL     1       3.425   0.162   0.397  1.00  0.00     0.278 C 
ENDBRANCH  19  24
ENDBRANCH   8  16
BRANCH  11  26
ATOM     26  C   UNL     1       4.290   4.348   8.008  1.00  0.00     0.433 C 
ATOM     27  F   UNL     1       3.740   5.385   8.687  1.00  0.00    -0.165 F 
ATOM     28  F   UNL     1       5.246   3.793   8.792  1.00  0.00    -0.165 F 
ATOM     29  F   UNL     1       4.958   4.911   6.959  1.00  0.00    -0.165 F 
ENDBRANCH  11  26
ENDBRANCH   4   7
ENDBRANCH   2   3
ENDBRANCH   1   2
BRANCH   1  30
ATOM     30  C   UNL     1      -0.594  -1.685  13.155  1.00  0.00     0.118 C 
BRANCH  30  31
ATOM     31  N   UNL     1      -1.980  -1.573  13.599  1.00  0.00    -0.352 N 
ATOM     32  C   UNL     1      -2.890  -2.546  13.924  1.00  0.00     0.251 C 
ATOM     33  H   UNL     1      -2.315  -0.651  13.679  1.00  0.00     0.163 HD
ATOM     34  O   UNL     1      -4.075  -2.240  14.042  1.00  0.00    -0.269 OA
BRANCH  32  35
ATOM     35  C   UNL     1      -2.462  -3.945  14.132  1.00  0.00     0.039 A 
ATOM     36  C   UNL     1      -3.285  -4.977  13.670  1.00  0.00     0.014 A 
ATOM     37  C   UNL     1      -1.284  -4.245  14.820  1.00  0.00     0.014 A 
ATOM     38  C   UNL     1      -2.899  -6.306  13.852  1.00  0.00     0.010 A 
ATOM     39  C   UNL     1      -0.864  -5.568  14.934  1.00  0.00     0.010 A 
ATOM     40  C   UNL     1      -1.670  -6.612  14.458  1.00  0.00    -0.014 A 
BRANCH  40  41
ATOM     41  C   UNL     1      -1.203  -8.016  14.582  1.00  0.00     0.031 A 
ATOM     42  C   UNL     1      -0.975  -8.629  15.937  1.00  0.00     0.074 A 
ATOM     43  C   UNL     1      -0.899  -8.710  13.467  1.00  0.00     0.049 A 
ATOM     44  N   UNL     1      -0.524  -9.820  16.237  1.00  0.00    -0.248 NA
ATOM     45  C   UNL     1      -1.265  -7.787  17.110  1.00  0.00     0.031 C 
ATOM     46  C   UNL     1      -1.000  -8.195  12.100  1.00  0.00     0.029 A 
ATOM     47  N   UNL     1      -0.419  -9.985  13.307  1.00  0.00    -0.354 N 
ATOM     48  C   UNL     1      -0.441  -9.858  17.624  1.00  0.00     0.074 A 
ATOM     49  C   UNL     1      -0.857  -8.559  18.107  1.00  0.00     0.031 C 
ATOM     50  C   UNL     1      -0.601  -9.146  11.241  1.00  0.00     0.029 A 
ATOM     51  C   UNL     1      -0.185 -10.324  11.994  1.00  0.00     0.049 A 
ATOM     52  H   UNL     1      -0.257 -10.599  14.059  1.00  0.00     0.167 HD
ATOM     53  C   UNL     1      -0.076 -10.888  18.425  1.00  0.00     0.034 A 
ATOM     54  C   UNL     1       0.316 -11.454  11.458  1.00  0.00     0.034 A 
ATOM     55  C   UNL     1       0.300 -12.189  17.940  1.00  0.00     0.049 A 
ATOM     56  C   UNL     1       0.675 -12.596  12.368  1.00  0.00     0.074 A 
ATOM     57  C   UNL     1       0.596 -13.327  18.669  1.00  0.00     0.029 A 
ATOM     58  N   UNL     1       0.446 -12.523  16.602  1.00  0.00    -0.354 N 
ATOM     59  N   UNL     1       0.591 -12.668  13.674  1.00  0.00    -0.248 NA
ATOM     60  C   UNL     1       1.164 -13.826  11.729  1.00  0.00     0.031 C 
ATOM     61  C   UNL     1       0.950 -14.341  17.773  1.00  0.00     0.029 A 
ATOM     62  C   UNL     1       0.841 -13.845  16.483  1.00  0.00     0.049 A 
ATOM     63  H   UNL     1       0.292 -11.910  15.847  1.00  0.00     0.167 HD
ATOM     64  C   UNL     1       0.980 -13.959  14.011  1.00  0.00     0.074 A 
ATOM     65  C   UNL     1       1.281 -14.641  12.768  1.00  0.00     0.031 C 
ATOM     66  C   UNL     1       1.090 -14.525  15.238  1.00  0.00     0.034 A 
BRANCH  53  67
ATOM     67  C   UNL     1      -0.113 -10.665  19.916  1.00  0.00     0.023 A 
ATOM     68  C   UNL     1      -1.354 -10.529  20.571  1.00  0.00     0.012 A 
ATOM     69  C   UNL     1       1.073 -10.644  20.676  1.00  0.00     0.148 A 
ATOM     70  C   UNL     1      -1.414 -10.337  21.951  1.00  0.00     0.002 A 
ATOM     71  C   UNL     1       1.003 -10.500  22.057  1.00  0.00     0.091 A 
ATOM     72  F   UNL     1       2.246 -10.754  20.036  1.00  0.00    -0.205 F 
ATOM     73  C   UNL     1      -0.237 -10.333  22.694  1.00  0.00     0.022 A 
BRANCH  71  74
ATOM     74  S   UNL     1       2.455 -10.564  23.113  1.00  0.00     0.127 S 
ATOM     75  O   UNL     1       2.569  -9.171  23.542  1.00  0.00    -0.237 OA
ATOM     76  O   UNL     1       2.031 -11.492  24.163  1.00  0.00    -0.237 OA
ATOM     77  O   UNL     1       3.541 -11.052  22.275  1.00  0.00    -0.744 OA
ENDBRANCH  71  74
ENDBRANCH  53  67
BRANCH  54  78
ATOM     78  C   UNL     1       0.441 -11.580   9.978  1.00  0.00     0.023 A 
ATOM     79  C   UNL     1      -0.416 -12.457   9.285  1.00  0.00     0.012 A 
ATOM     80  C   UNL     1       1.373 -10.814   9.252  1.00  0.00     0.148 A 
ATOM     81  C   UNL     1      -0.327 -12.593   7.899  1.00  0.00     0.002 A 
ATOM     82  C   UNL     1       1.418 -10.912   7.866  1.00  0.00     0.091 A 
ATOM     83  F   UNL     1       2.185  -9.991   9.930  1.00  0.00    -0.205 F 
ATOM     84  C   UNL     1       0.582 -11.813   7.189  1.00  0.00     0.022 A 
BRANCH  82  85
ATOM     85  S   UNL     1       2.461  -9.851   6.857  1.00  0.00     0.127 S 
ATOM     86  O   UNL     1       3.447 -10.800   6.346  1.00  0.00    -0.237 OA
ATOM     87  O   UNL     1       1.510  -9.354   5.862  1.00  0.00    -0.237 OA
ATOM     88  O   UNL     1       2.974  -8.830   7.760  1.00  0.00    -0.744 OA
ENDBRANCH  82  85
ENDBRANCH  54  78
BRANCH  66  89
ATOM     89  C   UNL     1       1.520 -15.967  15.306  1.00  0.00     0.023 A 
ATOM     90  C   UNL     1       2.854 -16.319  15.017  1.00  0.00     0.012 A 
ATOM     91  C   UNL     1       0.618 -16.965  15.726  1.00  0.00     0.148 A 
ATOM     92  C   UNL     1       3.274 -17.645  15.113  1.00  0.00     0.002 A 
ATOM     93  C   UNL     1       1.056 -18.275  15.870  1.00  0.00     0.091 A 
ATOM     94  F   UNL     1      -0.652 -16.613  15.978  1.00  0.00    -0.205 F 
ATOM     95  C   UNL     1       2.380 -18.619  15.551  1.00  0.00     0.022 A 
BRANCH  93  96
ATOM     96  S   UNL     1       0.004 -19.577  16.520  1.00  0.00     0.127 S 
ATOM     97  O   UNL     1      -0.247 -20.382  15.326  1.00  0.00    -0.237 OA
ATOM     98  O   UNL     1       0.873 -20.211  17.512  1.00  0.00    -0.237 OA
ATOM     99  O   UNL     1      -1.164 -18.909  17.079  1.00  0.00    -0.744 OA
ENDBRANCH  93  96
ENDBRANCH  66  89
ENDBRANCH  40  41
ENDBRANCH  32  35
ENDBRANCH  30  31
ENDBRANCH   1  30
TORSDOF 17
