REMARK SMILES C[NH2+][C@]1(C(=O)NCCCNC(=O)c2ccc(-c3c4nc(c(-c5cccc(S(=O)(=O)[O-])c5F)c5ccc([nH]5)c(-c5cccc(S(=O)(=O)[O-])c5F)c5nc(c(-c6cccc(S(=O)(=O)[O-])c6F)c6ccc3[nH]6)C=C5)C=C4)cc2)CCC[C@@H]1CCn1nc(C)c(Cl)c1C
REMARK SMILES IDX 8 1 7 2 6 3 4 4 5 5 3 7 76 8 79 9 77 10 78 11 2 12 1 13
REMARK SMILES IDX 80 16 81 17 82 18 83 19 88 20 84 21 86 22 89 23 85 24 87 25
REMARK SMILES IDX 9 26 10 27 11 28 12 30 13 31 14 32 75 33 15 34 74 35 16 36
REMARK SMILES IDX 17 37 18 38 68 39 19 40 73 41 67 42 69 43 20 44 72 45 66 46
REMARK SMILES IDX 65 47 21 49 53 50 33 51 52 52 34 53 37 54 51 55 70 56 35 57
REMARK SMILES IDX 36 58 50 60 71 61 38 62 22 63 23 64 31 65 24 66 26 67 32 68
REMARK SMILES IDX 25 69 27 70 28 71 29 72 30 73 54 74 55 75 63 76 56 77 58 78
REMARK SMILES IDX 64 79 57 80 59 81 60 82 61 83 62 84 39 85 40 86 48 87 41 88
REMARK SMILES IDX 43 89 49 90 42 91 44 92 45 93 46 94 47 95
REMARK H PARENT 6 6 2 14 2 15 10 29 69 48 37 59
REMARK Flexibility Score: inf
ROOT
ATOM      1  C   UNL     1       1.064   0.524  -2.438  1.00  0.00     0.042 C 
ENDROOT
BRANCH   1   2
ATOM      2  C   UNL     1       0.742  -0.854  -1.885  1.00  0.00     0.118 C 
BRANCH   2   3
ATOM      3  N   UNL     1       1.178  -1.013  -0.507  1.00  0.00    -0.351 N 
ATOM      4  C   UNL     1       0.526  -1.149   0.682  1.00  0.00     0.281 C 
ATOM      5  O   UNL     1       1.268  -1.263   1.667  1.00  0.00    -0.268 OA
ATOM      6  H   UNL     1       2.158  -1.024  -0.413  1.00  0.00     0.163 HD
BRANCH   4   7
ATOM      7  C   UNL     1      -1.040  -1.230   0.809  1.00  0.00     0.178 C 
ATOM      8  C   UNL     1      -1.759  -0.045   0.122  1.00  0.00     0.079 C 
ATOM      9  C   UNL     1      -1.578  -2.438  -0.015  1.00  0.00     0.062 C 
ATOM     10  C   UNL     1      -3.145  -0.570  -0.244  1.00  0.00     0.008 C 
ATOM     11  C   UNL     1      -3.042  -2.097  -0.312  1.00  0.00     0.011 C 
BRANCH   7  12
ATOM     12  N   UNL     1      -1.388  -1.107   2.240  1.00  0.00    -0.336 N 
ATOM     13  C   UNL     1      -2.064  -2.136   2.974  1.00  0.00     0.331 C 
ATOM     14  H   UNL     1      -0.508  -0.946   2.730  1.00  0.00     0.346 HD
ATOM     15  H   UNL     1      -2.100  -0.377   2.213  1.00  0.00     0.346 HD
ENDBRANCH   7  12
BRANCH   9  16
ATOM     16  C   UNL     1      -1.315  -3.854   0.522  1.00  0.00     0.034 C 
BRANCH  16  17
ATOM     17  C   UNL     1      -1.323  -4.959  -0.546  1.00  0.00     0.145 C 
BRANCH  17  18
ATOM     18  N   UNL     1      -0.226  -4.899  -1.499  1.00  0.00    -0.268 N 
ATOM     19  N   UNL     1       0.951  -5.464  -1.152  1.00  0.00    -0.176 NA
ATOM     20  C   UNL     1      -0.224  -4.392  -2.777  1.00  0.00     0.054 A 
ATOM     21  C   UNL     1       1.742  -5.276  -2.218  1.00  0.00     0.078 A 
ATOM     22  C   UNL     1       1.058  -4.594  -3.247  1.00  0.00     0.084 A 
ATOM     23  C   UNL     1      -1.380  -3.753  -3.453  1.00  0.00     0.068 C 
ATOM     24  C   UNL     1       3.136  -5.785  -2.206  1.00  0.00     0.070 C 
ATOM     25  Cl  UNL     1       1.686  -4.133  -4.754  1.00  0.00    -0.080 Cl
ENDBRANCH  17  18
ENDBRANCH  16  17
ENDBRANCH   9  16
ENDBRANCH   4   7
ENDBRANCH   2   3
ENDBRANCH   1   2
BRANCH   1  26
ATOM     26  C   UNL     1       2.550   0.748  -2.662  1.00  0.00     0.118 C 
BRANCH  26  27
ATOM     27  N   UNL     1       3.098  -0.138  -3.684  1.00  0.00    -0.352 N 
ATOM     28  C   UNL     1       3.664   0.160  -4.897  1.00  0.00     0.251 C 
ATOM     29  H   UNL     1       3.054  -1.098  -3.470  1.00  0.00     0.163 HD
ATOM     30  O   UNL     1       3.883  -0.745  -5.703  1.00  0.00    -0.269 OA
BRANCH  28  31
ATOM     31  C   UNL     1       3.996   1.556  -5.246  1.00  0.00     0.039 A 
ATOM     32  C   UNL     1       3.751   2.007  -6.546  1.00  0.00     0.014 A 
ATOM     33  C   UNL     1       4.559   2.418  -4.302  1.00  0.00     0.014 A 
ATOM     34  C   UNL     1       4.014   3.337  -6.878  1.00  0.00     0.010 A 
ATOM     35  C   UNL     1       4.725   3.765  -4.606  1.00  0.00     0.010 A 
ATOM     36  C   UNL     1       4.469   4.237  -5.900  1.00  0.00    -0.014 A 
BRANCH  36  37
ATOM     37  C   UNL     1       4.684   5.673  -6.210  1.00  0.00     0.031 A 
ATOM     38  C   UNL     1       6.053   6.283  -6.061  1.00  0.00     0.074 A 
ATOM     39  C   UNL     1       3.632   6.447  -6.541  1.00  0.00     0.049 A 
ATOM     40  N   UNL     1       6.424   7.526  -6.229  1.00  0.00    -0.248 NA
ATOM     41  C   UNL     1       7.143   5.386  -5.640  1.00  0.00     0.031 C 
ATOM     42  C   UNL     1       2.244   5.990  -6.641  1.00  0.00     0.029 A 
ATOM     43  N   UNL     1       3.561   7.787  -6.829  1.00  0.00    -0.354 N 
ATOM     44  C   UNL     1       7.773   7.568  -5.899  1.00  0.00     0.074 A 
ATOM     45  C   UNL     1       8.148   6.235  -5.483  1.00  0.00     0.031 C 
ATOM     46  C   UNL     1       1.462   7.029  -6.976  1.00  0.00     0.029 A 
ATOM     47  C   UNL     1       2.283   8.230  -7.078  1.00  0.00     0.049 A 
ATOM     48  H   UNL     1       4.350   8.375  -6.855  1.00  0.00     0.167 HD
ATOM     49  C   UNL     1       8.630   8.614  -5.961  1.00  0.00     0.034 A 
ATOM     50  C   UNL     1       1.822   9.468  -7.346  1.00  0.00     0.034 A 
ATOM     51  C   UNL     1       8.261   9.929  -6.410  1.00  0.00     0.049 A 
ATOM     52  C   UNL     1       2.800  10.607  -7.438  1.00  0.00     0.074 A 
ATOM     53  C   UNL     1       9.073  11.033  -6.598  1.00  0.00     0.029 A 
ATOM     54  N   UNL     1       6.970  10.323  -6.727  1.00  0.00    -0.354 N 
ATOM     55  N   UNL     1       4.101  10.593  -7.278  1.00  0.00    -0.248 NA
ATOM     56  C   UNL     1       2.252  11.926  -7.783  1.00  0.00     0.031 C 
ATOM     57  C   UNL     1       8.267  12.105  -6.994  1.00  0.00     0.029 A 
ATOM     58  C   UNL     1       6.959  11.658  -7.093  1.00  0.00     0.049 A 
ATOM     59  H   UNL     1       6.178   9.740  -6.697  1.00  0.00     0.167 HD
ATOM     60  C   UNL     1       4.532  11.889  -7.538  1.00  0.00     0.074 A 
ATOM     61  C   UNL     1       3.354  12.656  -7.887  1.00  0.00     0.031 C 
ATOM     62  C   UNL     1       5.787  12.399  -7.483  1.00  0.00     0.034 A 
BRANCH  49  63
ATOM     63  C   UNL     1      10.066   8.368  -5.570  1.00  0.00     0.023 A 
ATOM     64  C   UNL     1      10.888   7.570  -6.392  1.00  0.00     0.012 A 
ATOM     65  C   UNL     1      10.614   8.967  -4.420  1.00  0.00     0.148 A 
ATOM     66  C   UNL     1      12.221   7.337  -6.054  1.00  0.00     0.002 A 
ATOM     67  C   UNL     1      11.957   8.772  -4.116  1.00  0.00     0.091 A 
ATOM     68  F   UNL     1       9.814   9.707  -3.639  1.00  0.00    -0.205 F 
ATOM     69  C   UNL     1      12.757   7.947  -4.923  1.00  0.00     0.022 A 
BRANCH  67  70
ATOM     70  S   UNL     1      12.765   9.580  -2.730  1.00  0.00     0.127 S 
ATOM     71  O   UNL     1      13.006   8.453  -1.831  1.00  0.00    -0.237 OA
ATOM     72  O   UNL     1      13.969  10.130  -3.355  1.00  0.00    -0.237 OA
ATOM     73  O   UNL     1      11.824  10.578  -2.242  1.00  0.00    -0.744 OA
ENDBRANCH  67  70
ENDBRANCH  49  63
BRANCH  50  74
ATOM     74  C   UNL     1       0.369   9.681  -7.604  1.00  0.00     0.023 A 
ATOM     75  C   UNL     1      -0.062  10.011  -8.904  1.00  0.00     0.012 A 
ATOM     76  C   UNL     1      -0.586   9.535  -6.580  1.00  0.00     0.148 A 
ATOM     77  C   UNL     1      -1.414  10.225  -9.172  1.00  0.00     0.002 A 
ATOM     78  C   UNL     1      -1.937   9.692  -6.867  1.00  0.00     0.091 A 
ATOM     79  F   UNL     1      -0.155   9.227  -5.349  1.00  0.00    -0.205 F 
ATOM     80  C   UNL     1      -2.352  10.057  -8.157  1.00  0.00     0.022 A 
BRANCH  78  81
ATOM     81  S   UNL     1      -3.224   9.366  -5.658  1.00  0.00     0.127 S 
ATOM     82  O   UNL     1      -3.764  10.703  -5.426  1.00  0.00    -0.237 OA
ATOM     83  O   UNL     1      -4.108   8.464  -6.397  1.00  0.00    -0.237 OA
ATOM     84  O   UNL     1      -2.553   8.750  -4.521  1.00  0.00    -0.744 OA
ENDBRANCH  78  81
ENDBRANCH  50  74
BRANCH  62  85
ATOM     85  C   UNL     1       5.968  13.851  -7.846  1.00  0.00     0.023 A 
ATOM     86  C   UNL     1       5.504  14.859  -6.978  1.00  0.00     0.012 A 
ATOM     87  C   UNL     1       6.664  14.213  -9.016  1.00  0.00     0.148 A 
ATOM     88  C   UNL     1       5.698  16.205  -7.287  1.00  0.00     0.002 A 
ATOM     89  C   UNL     1       6.902  15.554  -9.290  1.00  0.00     0.091 A 
ATOM     90  F   UNL     1       7.083  13.239  -9.838  1.00  0.00    -0.205 F 
ATOM     91  C   UNL     1       6.407  16.551  -8.435  1.00  0.00     0.022 A 
BRANCH  89  92
ATOM     92  S   UNL     1       7.890  16.091 -10.691  1.00  0.00     0.127 S 
ATOM     93  O   UNL     1       6.877  16.694 -11.556  1.00  0.00    -0.237 OA
ATOM     94  O   UNL     1       8.809  17.046 -10.071  1.00  0.00    -0.237 OA
ATOM     95  O   UNL     1       8.527  14.893 -11.218  1.00  0.00    -0.744 OA
ENDBRANCH  89  92
ENDBRANCH  62  85
ENDBRANCH  36  37
ENDBRANCH  28  31
ENDBRANCH  26  27
ENDBRANCH   1  26
TORSDOF 17
