REMARK SMILES CCCCOCc1cc(C(=O)NCCCNC(=O)c2ccc(-c3c4nc(c(-c5cccc(S(=O)(=O)[O-])c5F)c5ccc([nH]5)c(-c5cccc(S(=O)(=O)[O-])c5F)c5nc(c(-c6cccc(S(=O)(=O)[O-])c6F)c6ccc3[nH]6)C=C5)C=C4)cc2)[nH]n1
REMARK SMILES IDX 13 1 12 2 10 3 11 4 9 6 7 7 8 8 83 9 82 10 6 12 5 13 4 14
REMARK SMILES IDX 3 15 2 16 1 17 14 18 15 19 16 20 17 21 18 23 19 24 20 25
REMARK SMILES IDX 81 26 21 27 80 28 22 29 23 30 24 31 74 32 25 33 79 34 73 35
REMARK SMILES IDX 75 36 26 37 78 38 72 39 71 40 27 42 59 43 39 44 58 45 40 46
REMARK SMILES IDX 43 47 57 48 76 49 41 50 42 51 56 53 77 54 44 55 28 56 29 57
REMARK SMILES IDX 37 58 30 59 32 60 38 61 31 62 33 63 34 64 35 65 36 66 60 67
REMARK SMILES IDX 61 68 69 69 62 70 64 71 70 72 63 73 65 74 66 75 67 76 68 77
REMARK SMILES IDX 45 78 46 79 54 80 47 81 49 82 55 83 48 84 50 85 51 86 52 87
REMARK SMILES IDX 53 88
REMARK H PARENT 12 5 82 11 16 22 75 41 43 52
REMARK Flexibility Score: inf
ROOT
ATOM      1  C   UNL     1       2.627  -0.971  -3.768  1.00  0.00     0.118 C 
ENDROOT
BRANCH   1   2
ATOM      2  N   UNL     1       2.239  -2.368  -3.659  1.00  0.00    -0.351 N 
ATOM      3  C   UNL     1       1.108  -2.941  -3.129  1.00  0.00     0.269 C 
ATOM      4  O   UNL     1       1.074  -4.168  -3.033  1.00  0.00    -0.268 OA
ATOM      5  H   UNL     1       2.893  -3.008  -4.023  1.00  0.00     0.163 HD
BRANCH   3   6
ATOM      6  C   UNL     1       0.044  -2.117  -2.631  1.00  0.00     0.123 A 
ATOM      7  C   UNL     1      -1.264  -0.480  -1.901  1.00  0.00     0.089 A 
ATOM      8  C   UNL     1      -0.496  -0.904  -3.012  1.00  0.00     0.061 A 
ATOM      9  N   UNL     1      -1.452  -1.490  -1.038  1.00  0.00    -0.178 NA
ATOM     10  N   UNL     1      -0.698  -2.485  -1.540  1.00  0.00    -0.273 N 
ATOM     11  H   UNL     1      -0.682  -3.393  -1.160  1.00  0.00     0.190 HD
BRANCH   7  12
ATOM     12  C   UNL     1      -1.775   0.896  -1.595  1.00  0.00     0.218 C 
BRANCH  12  13
ATOM     13  O   UNL     1      -1.047   1.988  -2.181  1.00  0.00    -0.375 OA
BRANCH  13  14
ATOM     14  C   UNL     1       0.351   2.086  -1.919  1.00  0.00     0.160 C 
BRANCH  14  15
ATOM     15  C   UNL     1       0.771   2.579  -0.535  1.00  0.00     0.028 C 
BRANCH  15  16
ATOM     16  C   UNL     1       0.727   1.567   0.614  1.00  0.00    -0.001 C 
ATOM     17  C   UNL     1       1.546   0.305   0.387  1.00  0.00     0.004 C 
ENDBRANCH  15  16
ENDBRANCH  14  15
ENDBRANCH  13  14
ENDBRANCH  12  13
ENDBRANCH   7  12
ENDBRANCH   3   6
ENDBRANCH   1   2
BRANCH   1  18
ATOM     18  C   UNL     1       3.880  -0.615  -2.978  1.00  0.00     0.042 C 
BRANCH  18  19
ATOM     19  C   UNL     1       5.172  -1.188  -3.544  1.00  0.00     0.118 C 
BRANCH  19  20
ATOM     20  N   UNL     1       5.453  -0.727  -4.898  1.00  0.00    -0.352 N 
ATOM     21  C   UNL     1       6.511  -0.012  -5.404  1.00  0.00     0.251 C 
ATOM     22  H   UNL     1       4.768  -0.968  -5.562  1.00  0.00     0.163 HD
ATOM     23  O   UNL     1       6.445   0.408  -6.558  1.00  0.00    -0.269 OA
BRANCH  21  24
ATOM     24  C   UNL     1       7.712   0.273  -4.585  1.00  0.00     0.039 A 
ATOM     25  C   UNL     1       8.339   1.516  -4.718  1.00  0.00     0.014 A 
ATOM     26  C   UNL     1       8.248  -0.681  -3.719  1.00  0.00     0.014 A 
ATOM     27  C   UNL     1       9.456   1.824  -3.934  1.00  0.00     0.010 A 
ATOM     28  C   UNL     1       9.305  -0.343  -2.876  1.00  0.00     0.010 A 
ATOM     29  C   UNL     1       9.926   0.910  -2.978  1.00  0.00    -0.014 A 
BRANCH  29  30
ATOM     30  C   UNL     1      11.062   1.240  -2.076  1.00  0.00     0.031 A 
ATOM     31  C   UNL     1      12.324   0.417  -2.111  1.00  0.00     0.074 A 
ATOM     32  C   UNL     1      10.926   2.226  -1.166  1.00  0.00     0.049 A 
ATOM     33  N   UNL     1      13.383   0.498  -1.347  1.00  0.00    -0.248 NA
ATOM     34  C   UNL     1      12.395  -0.655  -3.118  1.00  0.00     0.031 C 
ATOM     35  C   UNL     1       9.730   3.051  -0.982  1.00  0.00     0.029 A 
ATOM     36  N   UNL     1      11.793   2.684  -0.205  1.00  0.00    -0.354 N 
ATOM     37  C   UNL     1      14.228  -0.526  -1.758  1.00  0.00     0.074 A 
ATOM     38  C   UNL     1      13.542  -1.242  -2.811  1.00  0.00     0.031 C 
ATOM     39  C   UNL     1       9.941   3.918   0.021  1.00  0.00     0.029 A 
ATOM     40  C   UNL     1      11.272   3.691   0.575  1.00  0.00     0.049 A 
ATOM     41  H   UNL     1      12.702   2.325  -0.085  1.00  0.00     0.167 HD
ATOM     42  C   UNL     1      15.477  -0.824  -1.326  1.00  0.00     0.034 A 
ATOM     43  C   UNL     1      11.804   4.353   1.621  1.00  0.00     0.034 A 
ATOM     44  C   UNL     1      16.177  -0.084  -0.311  1.00  0.00     0.049 A 
ATOM     45  C   UNL     1      13.204   4.018   2.062  1.00  0.00     0.074 A 
ATOM     46  C   UNL     1      17.468  -0.268   0.153  1.00  0.00     0.029 A 
ATOM     47  N   UNL     1      15.648   0.986   0.394  1.00  0.00    -0.354 N 
ATOM     48  N   UNL     1      14.038   3.136   1.567  1.00  0.00    -0.248 NA
ATOM     49  C   UNL     1      13.751   4.797   3.183  1.00  0.00     0.031 C 
ATOM     50  C   UNL     1      17.716   0.685   1.147  1.00  0.00     0.029 A 
ATOM     51  C   UNL     1      16.586   1.475   1.286  1.00  0.00     0.049 A 
ATOM     52  H   UNL     1      14.739   1.346   0.276  1.00  0.00     0.167 HD
ATOM     53  C   UNL     1      15.219   3.283   2.285  1.00  0.00     0.074 A 
ATOM     54  C   UNL     1      15.000   4.353   3.236  1.00  0.00     0.031 C 
ATOM     55  C   UNL     1      16.376   2.585   2.179  1.00  0.00     0.034 A 
BRANCH  42  56
ATOM     56  C   UNL     1      16.199  -1.962  -2.002  1.00  0.00     0.023 A 
ATOM     57  C   UNL     1      16.660  -1.795  -3.325  1.00  0.00     0.012 A 
ATOM     58  C   UNL     1      16.478  -3.162  -1.321  1.00  0.00     0.148 A 
ATOM     59  C   UNL     1      17.356  -2.815  -3.970  1.00  0.00     0.002 A 
ATOM     60  C   UNL     1      17.211  -4.159  -1.956  1.00  0.00     0.091 A 
ATOM     61  F   UNL     1      16.016  -3.311  -0.071  1.00  0.00    -0.205 F 
ATOM     62  C   UNL     1      17.640  -3.992  -3.283  1.00  0.00     0.022 A 
BRANCH  60  63
ATOM     63  S   UNL     1      17.697  -5.681  -1.135  1.00  0.00     0.127 S 
ATOM     64  O   UNL     1      16.867  -6.667  -1.826  1.00  0.00    -0.237 OA
ATOM     65  O   UNL     1      19.124  -5.758  -1.449  1.00  0.00    -0.237 OA
ATOM     66  O   UNL     1      17.395  -5.491   0.277  1.00  0.00    -0.744 OA
ENDBRANCH  60  63
ENDBRANCH  42  56
BRANCH  43  67
ATOM     67  C   UNL     1      11.043   5.453   2.282  1.00  0.00     0.023 A 
ATOM     68  C   UNL     1      11.489   6.781   2.134  1.00  0.00     0.012 A 
ATOM     69  C   UNL     1       9.889   5.198   3.045  1.00  0.00     0.148 A 
ATOM     70  C   UNL     1      10.823   7.831   2.768  1.00  0.00     0.002 A 
ATOM     71  C   UNL     1       9.197   6.255   3.628  1.00  0.00     0.091 A 
ATOM     72  F   UNL     1       9.486   3.928   3.187  1.00  0.00    -0.205 F 
ATOM     73  C   UNL     1       9.673   7.570   3.507  1.00  0.00     0.022 A 
BRANCH  71  74
ATOM     74  S   UNL     1       7.636   6.021   4.485  1.00  0.00     0.127 S 
ATOM     75  O   UNL     1       8.038   6.155   5.883  1.00  0.00    -0.237 OA
ATOM     76  O   UNL     1       6.832   7.127   3.965  1.00  0.00    -0.237 OA
ATOM     77  O   UNL     1       7.167   4.702   4.081  1.00  0.00    -0.744 OA
ENDBRANCH  71  74
ENDBRANCH  43  67
BRANCH  55  78
ATOM     78  C   UNL     1      17.517   2.984   3.078  1.00  0.00     0.023 A 
ATOM     79  C   UNL     1      17.468   2.679   4.452  1.00  0.00     0.012 A 
ATOM     80  C   UNL     1      18.669   3.598   2.546  1.00  0.00     0.148 A 
ATOM     81  C   UNL     1      18.532   3.009   5.290  1.00  0.00     0.002 A 
ATOM     82  C   UNL     1      19.745   3.880   3.377  1.00  0.00     0.091 A 
ATOM     83  F   UNL     1      18.689   3.897   1.239  1.00  0.00    -0.205 F 
ATOM     84  C   UNL     1      19.674   3.598   4.751  1.00  0.00     0.022 A 
BRANCH  82  85
ATOM     85  S   UNL     1      21.292   4.549   2.755  1.00  0.00     0.127 S 
ATOM     86  O   UNL     1      21.231   5.931   3.229  1.00  0.00    -0.237 OA
ATOM     87  O   UNL     1      22.286   3.716   3.431  1.00  0.00    -0.237 OA
ATOM     88  O   UNL     1      21.247   4.381   1.309  1.00  0.00    -0.744 OA
ENDBRANCH  82  85
ENDBRANCH  55  78
ENDBRANCH  29  30
ENDBRANCH  21  24
ENDBRANCH  19  20
ENDBRANCH  18  19
ENDBRANCH   1  18
TORSDOF 18
