REMARK SMILES C[C@@]([NH2+]CCC1CC1)(C(=O)NCCCNC(=O)c1ccc(-c2c3nc(c(-c4cccc(S(=O)(=O)[O-])c4F)c4ccc([nH]4)c(-c4cccc(S(=O)(=O)[O-])c4F)c4nc(c(-c5cccc(S(=O)(=O)[O-])c5F)c5ccc2[nH]5)C=C4)C=C3)cc1)C(F)(F)F
REMARK SMILES IDX 12 1 11 2 9 3 10 4 2 6 1 7 3 8 4 11 5 12 6 13 7 14 8 15
REMARK SMILES IDX 81 16 82 17 83 18 84 19 13 20 14 21 15 22 16 23 17 25 18 26
REMARK SMILES IDX 19 27 80 28 20 29 79 30 21 31 22 32 23 33 73 34 24 35 78 36
REMARK SMILES IDX 72 37 74 38 25 39 77 40 71 41 70 42 26 44 58 45 38 46 57 47
REMARK SMILES IDX 39 48 42 49 56 50 75 51 40 52 41 53 55 55 76 56 43 57 27 58
REMARK SMILES IDX 28 59 36 60 29 61 31 62 37 63 30 64 32 65 33 66 34 67 35 68
REMARK SMILES IDX 59 69 60 70 68 71 61 72 63 73 69 74 62 75 64 76 65 77 66 78
REMARK SMILES IDX 67 79 44 80 45 81 53 82 46 83 48 84 54 85 47 86 49 87 50 88
REMARK SMILES IDX 51 89 52 90
REMARK H PARENT 11 5 3 9 3 10 15 24 74 43 42 54
REMARK Flexibility Score: inf
ROOT
ATOM      1  C   UNL     1      -1.082  -2.101  -0.899  1.00  0.00     0.118 C 
ENDROOT
BRANCH   1   2
ATOM      2  N   UNL     1      -1.621  -0.771  -1.127  1.00  0.00    -0.350 N 
ATOM      3  C   UNL     1      -1.004   0.437  -1.287  1.00  0.00     0.290 C 
ATOM      4  O   UNL     1      -1.759   1.402  -1.433  1.00  0.00    -0.267 OA
ATOM      5  H   UNL     1      -2.604  -0.735  -1.173  1.00  0.00     0.163 HD
BRANCH   3   6
ATOM      6  C   UNL     1       0.532   0.576  -1.325  1.00  0.00     0.268 C 
ATOM      7  C   UNL     1       1.140   0.174   0.038  1.00  0.00     0.101 C 
BRANCH   6   8
ATOM      8  N   UNL     1       1.132  -0.376  -2.330  1.00  0.00    -0.326 N 
ATOM      9  H   UNL     1       0.957  -1.323  -1.995  1.00  0.00     0.347 HD
ATOM     10  H   UNL     1       2.114  -0.105  -2.387  1.00  0.00     0.347 HD
BRANCH   8  11
ATOM     11  C   UNL     1       0.646  -0.302  -3.710  1.00  0.00     0.261 C 
BRANCH  11  12
ATOM     12  C   UNL     1       1.233   0.779  -4.628  1.00  0.00     0.065 C 
BRANCH  12  13
ATOM     13  C   UNL     1       2.732   0.871  -4.589  1.00  0.00    -0.006 C 
ATOM     14  C   UNL     1       3.569   0.203  -5.646  1.00  0.00     0.004 C 
ATOM     15  C   UNL     1       3.449   1.702  -5.619  1.00  0.00     0.004 C 
ENDBRANCH  12  13
ENDBRANCH  11  12
ENDBRANCH   8  11
ENDBRANCH   6   8
BRANCH   6  16
ATOM     16  C   UNL     1       0.851   2.090  -1.490  1.00  0.00     0.453 C 
ATOM     17  F   UNL     1       0.508   2.815  -0.399  1.00  0.00    -0.164 F 
ATOM     18  F   UNL     1       2.195   2.256  -1.647  1.00  0.00    -0.164 F 
ATOM     19  F   UNL     1       0.271   2.667  -2.561  1.00  0.00    -0.164 F 
ENDBRANCH   6  16
ENDBRANCH   3   6
ENDBRANCH   1   2
BRANCH   1  20
ATOM     20  C   UNL     1      -1.319  -2.555   0.536  1.00  0.00     0.042 C 
BRANCH  20  21
ATOM     21  C   UNL     1      -2.790  -2.764   0.873  1.00  0.00     0.118 C 
BRANCH  21  22
ATOM     22  N   UNL     1      -3.388  -3.845   0.100  1.00  0.00    -0.352 N 
ATOM     23  C   UNL     1      -4.018  -4.987   0.529  1.00  0.00     0.251 C 
ATOM     24  H   UNL     1      -3.333  -3.740  -0.877  1.00  0.00     0.163 HD
ATOM     25  O   UNL     1      -4.277  -5.874  -0.277  1.00  0.00    -0.269 OA
BRANCH  23  26
ATOM     26  C   UNL     1      -4.368  -5.152   1.957  1.00  0.00     0.039 A 
ATOM     27  C   UNL     1      -4.169  -6.397   2.559  1.00  0.00     0.014 A 
ATOM     28  C   UNL     1      -4.905  -4.094   2.695  1.00  0.00     0.014 A 
ATOM     29  C   UNL     1      -4.455  -6.562   3.916  1.00  0.00     0.010 A 
ATOM     30  C   UNL     1      -5.107  -4.237   4.064  1.00  0.00     0.010 A 
ATOM     31  C   UNL     1      -4.895  -5.474   4.688  1.00  0.00    -0.014 A 
BRANCH  31  32
ATOM     32  C   UNL     1      -5.133  -5.612   6.148  1.00  0.00     0.031 A 
ATOM     33  C   UNL     1      -6.505  -5.379   6.721  1.00  0.00     0.074 A 
ATOM     34  C   UNL     1      -4.094  -5.871   6.968  1.00  0.00     0.049 A 
ATOM     35  N   UNL     1      -6.891  -5.408   7.971  1.00  0.00    -0.248 NA
ATOM     36  C   UNL     1      -7.579  -5.043   5.772  1.00  0.00     0.031 C 
ATOM     37  C   UNL     1      -2.703  -6.039   6.543  1.00  0.00     0.029 A 
ATOM     38  N   UNL     1      -4.043  -6.011   8.332  1.00  0.00    -0.354 N 
ATOM     39  C   UNL     1      -8.237  -5.061   7.961  1.00  0.00     0.074 A 
ATOM     40  C   UNL     1      -8.593  -4.790   6.586  1.00  0.00     0.031 C 
ATOM     41  C   UNL     1      -1.937  -6.268   7.621  1.00  0.00     0.029 A 
ATOM     42  C   UNL     1      -2.773  -6.226   8.816  1.00  0.00     0.049 A 
ATOM     43  H   UNL     1      -4.838  -5.962   8.909  1.00  0.00     0.167 HD
ATOM     44  C   UNL     1      -9.106  -5.000   8.998  1.00  0.00     0.034 A 
ATOM     45  C   UNL     1      -2.330  -6.365  10.081  1.00  0.00     0.034 A 
ATOM     46  C   UNL     1      -8.757  -5.304  10.360  1.00  0.00     0.049 A 
ATOM     47  C   UNL     1      -3.322  -6.323  11.212  1.00  0.00     0.074 A 
ATOM     48  C   UNL     1      -9.583  -5.356  11.468  1.00  0.00     0.029 A 
ATOM     49  N   UNL     1      -7.476  -5.596  10.802  1.00  0.00    -0.354 N 
ATOM     50  N   UNL     1      -4.620  -6.149  11.165  1.00  0.00    -0.248 NA
ATOM     51  C   UNL     1      -2.793  -6.535  12.567  1.00  0.00     0.031 C 
ATOM     52  C   UNL     1      -8.795  -5.646  12.587  1.00  0.00     0.029 A 
ATOM     53  C   UNL     1      -7.485  -5.815  12.169  1.00  0.00     0.049 A 
ATOM     54  H   UNL     1      -6.677  -5.640  10.229  1.00  0.00     0.167 HD
ATOM     55  C   UNL     1      -5.069  -6.269  12.475  1.00  0.00     0.074 A 
ATOM     56  C   UNL     1      -3.905  -6.551  13.290  1.00  0.00     0.031 C 
ATOM     57  C   UNL     1      -6.328  -6.144  12.962  1.00  0.00     0.034 A 
BRANCH  44  58
ATOM     58  C   UNL     1     -10.536  -4.629   8.695  1.00  0.00     0.023 A 
ATOM     59  C   UNL     1     -11.358  -5.535   7.993  1.00  0.00     0.012 A 
ATOM     60  C   UNL     1     -11.082  -3.415   9.154  1.00  0.00     0.148 A 
ATOM     61  C   UNL     1     -12.689  -5.222   7.720  1.00  0.00     0.002 A 
ATOM     62  C   UNL     1     -12.423  -3.132   8.921  1.00  0.00     0.091 A 
ATOM     63  F   UNL     1     -10.281  -2.558   9.803  1.00  0.00    -0.205 F 
ATOM     64  C   UNL     1     -13.224  -4.027   8.193  1.00  0.00     0.022 A 
BRANCH  62  65
ATOM     65  S   UNL     1     -13.229  -1.659   9.560  1.00  0.00     0.127 S 
ATOM     66  O   UNL     1     -13.475  -0.902   8.333  1.00  0.00    -0.237 OA
ATOM     67  O   UNL     1     -14.431  -2.214  10.184  1.00  0.00    -0.237 OA
ATOM     68  O   UNL     1     -12.285  -1.054  10.488  1.00  0.00    -0.744 OA
ENDBRANCH  62  65
ENDBRANCH  44  58
BRANCH  45  69
ATOM     69  C   UNL     1      -0.883  -6.612  10.341  1.00  0.00     0.023 A 
ATOM     70  C   UNL     1      -0.470  -7.871  10.820  1.00  0.00     0.012 A 
ATOM     71  C   UNL     1       0.085  -5.619  10.098  1.00  0.00     0.148 A 
ATOM     72  C   UNL     1       0.876  -8.124  11.087  1.00  0.00     0.002 A 
ATOM     73  C   UNL     1       1.430  -5.896  10.311  1.00  0.00     0.091 A 
ATOM     74  F   UNL     1      -0.330  -4.425   9.651  1.00  0.00    -0.205 F 
ATOM     75  C   UNL     1       1.826  -7.141  10.824  1.00  0.00     0.022 A 
BRANCH  73  76
ATOM     76  S   UNL     1       2.733  -4.739   9.875  1.00  0.00     0.127 S 
ATOM     77  O   UNL     1       3.236  -4.346  11.188  1.00  0.00    -0.237 OA
ATOM     78  O   UNL     1       3.637  -5.586   9.095  1.00  0.00    -0.237 OA
ATOM     79  O   UNL     1       2.084  -3.687   9.105  1.00  0.00    -0.744 OA
ENDBRANCH  73  76
ENDBRANCH  45  69
BRANCH  57  80
ATOM     80  C   UNL     1      -6.530  -6.357  14.440  1.00  0.00     0.023 A 
ATOM     81  C   UNL     1      -6.061  -5.401  15.362  1.00  0.00     0.012 A 
ATOM     82  C   UNL     1      -7.247  -7.476  14.908  1.00  0.00     0.148 A 
ATOM     83  C   UNL     1      -6.269  -5.575  16.730  1.00  0.00     0.002 A 
ATOM     84  C   UNL     1      -7.497  -7.615  16.268  1.00  0.00     0.091 A 
ATOM     85  F   UNL     1      -7.671  -8.384  14.017  1.00  0.00    -0.205 F 
ATOM     86  C   UNL     1      -6.996  -6.674  17.182  1.00  0.00     0.022 A 
BRANCH  84  87
ATOM     87  S   UNL     1      -8.509  -8.943  16.930  1.00  0.00     0.127 S 
ATOM     88  O   UNL     1      -7.509  -9.771  17.604  1.00  0.00    -0.237 OA
ATOM     89  O   UNL     1      -9.412  -8.225  17.830  1.00  0.00    -0.237 OA
ATOM     90  O   UNL     1      -9.162  -9.562  15.785  1.00  0.00    -0.744 OA
ENDBRANCH  84  87
ENDBRANCH  57  80
ENDBRANCH  31  32
ENDBRANCH  23  26
ENDBRANCH  21  22
ENDBRANCH  20  21
ENDBRANCH   1  20
TORSDOF 18
