REMARK SMILES O=C(NCCCNC(=O)c1ccc(C[NH2+]C[C@H]2C[C@H](O)C2)nc1)c1ccc(-c2c3nc(c(-c4cccc(S(=O)(=O)[O-])c4F)c4ccc([nH]4)c(-c4cccc(S(=O)(=O)[O-])c4F)c4nc(c(-c5cccc(S(=O)(=O)[O-])c5F)c5ccc2[nH]5)C=C4)C=C3)cc1
REMARK SMILES IDX 6 1 5 2 4 3 3 4 1 5 2 6 24 8 25 9 86 10 26 11 85 12 27 13
REMARK SMILES IDX 28 14 29 15 79 16 30 17 84 18 78 19 80 20 31 21 83 22 77 23
REMARK SMILES IDX 76 24 32 26 64 27 44 28 63 29 45 30 48 31 62 32 81 33 46 34
REMARK SMILES IDX 47 35 61 37 82 38 49 39 33 40 34 41 42 42 35 43 37 44 43 45
REMARK SMILES IDX 36 46 38 47 39 48 40 49 41 50 65 51 66 52 74 53 67 54 69 55
REMARK SMILES IDX 75 56 68 57 70 58 71 59 72 60 73 61 50 62 51 63 59 64 52 65
REMARK SMILES IDX 54 66 60 67 53 68 55 69 56 70 57 71 58 72 7 73 8 74 9 76
REMARK SMILES IDX 10 77 11 78 23 79 12 80 22 81 13 82 14 83 15 84 16 87 17 88
REMARK SMILES IDX 21 89 18 90 19 91 20 92
REMARK H PARENT 3 7 80 25 48 36 7 75 15 85 15 86 20 93
REMARK Flexibility Score: inf
ROOT
ATOM      1  C   UNL     1       4.320  -1.907  -3.382  1.00  0.00     0.118 C 
ENDROOT
BRANCH   1   2
ATOM      2  C   UNL     1       4.924  -1.637  -2.012  1.00  0.00     0.042 C 
BRANCH   2   3
ATOM      3  C   UNL     1       4.574  -0.268  -1.450  1.00  0.00     0.118 C 
BRANCH   3   4
ATOM      4  N   UNL     1       3.142  -0.098  -1.235  1.00  0.00    -0.352 N 
ATOM      5  O   UNL     1       1.199  -0.052  -0.108  1.00  0.00    -0.269 OA
ATOM      6  C   UNL     1       2.424   0.021  -0.068  1.00  0.00     0.251 C 
ATOM      7  H   UNL     1       2.602  -0.064  -2.057  1.00  0.00     0.163 HD
BRANCH   6   8
ATOM      8  C   UNL     1       3.122   0.207   1.222  1.00  0.00     0.039 A 
ATOM      9  C   UNL     1       4.236   1.043   1.313  1.00  0.00     0.014 A 
ATOM     10  C   UNL     1       2.648  -0.447   2.363  1.00  0.00     0.014 A 
ATOM     11  C   UNL     1       4.980   1.080   2.485  1.00  0.00     0.010 A 
ATOM     12  C   UNL     1       3.334  -0.315   3.575  1.00  0.00     0.010 A 
ATOM     13  C   UNL     1       4.528   0.419   3.638  1.00  0.00    -0.014 A 
BRANCH  13  14
ATOM     14  C   UNL     1       5.283   0.587   4.906  1.00  0.00     0.031 A 
ATOM     15  C   UNL     1       5.906  -0.584   5.613  1.00  0.00     0.074 A 
ATOM     16  C   UNL     1       5.411   1.830   5.413  1.00  0.00     0.049 A 
ATOM     17  N   UNL     1       6.622  -0.593   6.708  1.00  0.00    -0.248 NA
ATOM     18  C   UNL     1       5.696  -1.918   5.027  1.00  0.00     0.031 C 
ATOM     19  C   UNL     1       4.808   3.038   4.841  1.00  0.00     0.029 A 
ATOM     20  N   UNL     1       6.085   2.289   6.515  1.00  0.00    -0.354 N 
ATOM     21  C   UNL     1       6.913  -1.927   6.968  1.00  0.00     0.074 A 
ATOM     22  C   UNL     1       6.290  -2.703   5.917  1.00  0.00     0.031 C 
ATOM     23  C   UNL     1       5.163   4.100   5.575  1.00  0.00     0.029 A 
ATOM     24  C   UNL     1       5.965   3.646   6.704  1.00  0.00     0.049 A 
ATOM     25  H   UNL     1       6.604   1.704   7.113  1.00  0.00     0.167 HD
ATOM     26  C   UNL     1       7.642  -2.453   7.981  1.00  0.00     0.034 A 
ATOM     27  C   UNL     1       6.428   4.439   7.688  1.00  0.00     0.034 A 
ATOM     28  C   UNL     1       8.287  -1.670   9.004  1.00  0.00     0.049 A 
ATOM     29  C   UNL     1       7.255   3.830   8.781  1.00  0.00     0.074 A 
ATOM     30  C   UNL     1       9.105  -2.107  10.032  1.00  0.00     0.029 A 
ATOM     31  N   UNL     1       8.181  -0.294   9.137  1.00  0.00    -0.354 N 
ATOM     32  N   UNL     1       7.626   2.582   8.934  1.00  0.00    -0.248 NA
ATOM     33  C   UNL     1       7.752   4.740   9.821  1.00  0.00     0.031 C 
ATOM     34  C   UNL     1       9.470  -0.998  10.803  1.00  0.00     0.029 A 
ATOM     35  C   UNL     1       8.906   0.134  10.237  1.00  0.00     0.049 A 
ATOM     36  H   UNL     1       7.666   0.293   8.537  1.00  0.00     0.167 HD
ATOM     37  C   UNL     1       8.419   2.559  10.074  1.00  0.00     0.074 A 
ATOM     38  C   UNL     1       8.498   3.925  10.554  1.00  0.00     0.031 C 
ATOM     39  C   UNL     1       9.012   1.501  10.678  1.00  0.00     0.034 A 
BRANCH  26  40
ATOM     40  C   UNL     1       7.815  -3.950   8.026  1.00  0.00     0.023 A 
ATOM     41  C   UNL     1       8.666  -4.583   7.098  1.00  0.00     0.012 A 
ATOM     42  C   UNL     1       7.200  -4.719   9.035  1.00  0.00     0.148 A 
ATOM     43  C   UNL     1       8.882  -5.960   7.156  1.00  0.00     0.002 A 
ATOM     44  C   UNL     1       7.453  -6.084   9.112  1.00  0.00     0.091 A 
ATOM     45  F   UNL     1       6.379  -4.103   9.897  1.00  0.00    -0.205 F 
ATOM     46  C   UNL     1       8.285  -6.708   8.168  1.00  0.00     0.022 A 
BRANCH  44  47
ATOM     47  S   UNL     1       6.794  -7.121  10.423  1.00  0.00     0.127 S 
ATOM     48  O   UNL     1       5.810  -7.923   9.697  1.00  0.00    -0.237 OA
ATOM     49  O   UNL     1       7.981  -7.859  10.857  1.00  0.00    -0.237 OA
ATOM     50  O   UNL     1       6.247  -6.211  11.419  1.00  0.00    -0.744 OA
ENDBRANCH  44  47
ENDBRANCH  26  40
BRANCH  27  51
ATOM     51  C   UNL     1       6.139   5.900   7.653  1.00  0.00     0.023 A 
ATOM     52  C   UNL     1       7.183   6.811   7.406  1.00  0.00     0.012 A 
ATOM     53  C   UNL     1       4.825   6.383   7.809  1.00  0.00     0.148 A 
ATOM     54  C   UNL     1       6.927   8.181   7.342  1.00  0.00     0.002 A 
ATOM     55  C   UNL     1       4.568   7.742   7.682  1.00  0.00     0.091 A 
ATOM     56  F   UNL     1       3.848   5.499   8.056  1.00  0.00    -0.205 F 
ATOM     57  C   UNL     1       5.620   8.645   7.466  1.00  0.00     0.022 A 
BRANCH  55  58
ATOM     58  S   UNL     1       2.899   8.405   7.680  1.00  0.00     0.127 S 
ATOM     59  O   UNL     1       2.844   9.079   8.974  1.00  0.00    -0.237 OA
ATOM     60  O   UNL     1       2.928   9.296   6.519  1.00  0.00    -0.237 OA
ATOM     61  O   UNL     1       2.020   7.253   7.526  1.00  0.00    -0.744 OA
ENDBRANCH  55  58
ENDBRANCH  27  51
BRANCH  39  62
ATOM     62  C   UNL     1       9.828   1.779  11.913  1.00  0.00     0.023 A 
ATOM     63  C   UNL     1       9.181   2.117  13.119  1.00  0.00     0.012 A 
ATOM     64  C   UNL     1      11.230   1.649  11.893  1.00  0.00     0.148 A 
ATOM     65  C   UNL     1       9.921   2.357  14.276  1.00  0.00     0.002 A 
ATOM     66  C   UNL     1      11.956   1.840  13.062  1.00  0.00     0.091 A 
ATOM     67  F   UNL     1      11.828   1.348  10.731  1.00  0.00    -0.205 F 
ATOM     68  C   UNL     1      11.305   2.207  14.251  1.00  0.00     0.022 A 
BRANCH  66  69
ATOM     69  S   UNL     1      13.731   1.576  13.144  1.00  0.00     0.127 S 
ATOM     70  O   UNL     1      14.232   2.946  13.233  1.00  0.00    -0.237 OA
ATOM     71  O   UNL     1      13.872   0.793  14.372  1.00  0.00    -0.237 OA
ATOM     72  O   UNL     1      14.086   0.857  11.927  1.00  0.00    -0.744 OA
ENDBRANCH  66  69
ENDBRANCH  39  62
ENDBRANCH  13  14
ENDBRANCH   6   8
ENDBRANCH   3   4
ENDBRANCH   2   3
ENDBRANCH   1   2
BRANCH   1  73
ATOM     73  N   UNL     1       4.807  -0.977  -4.393  1.00  0.00    -0.352 N 
ATOM     74  C   UNL     1       5.737  -1.171  -5.381  1.00  0.00     0.252 C 
ATOM     75  H   UNL     1       4.409  -0.077  -4.362  1.00  0.00     0.163 HD
ATOM     76  O   UNL     1       6.182  -0.218  -6.015  1.00  0.00    -0.269 OA
BRANCH  74  77
ATOM     77  C   UNL     1       6.211  -2.526  -5.681  1.00  0.00     0.058 A 
ATOM     78  C   UNL     1       5.331  -3.578  -5.927  1.00  0.00     0.017 A 
ATOM     79  C   UNL     1       7.572  -2.769  -5.748  1.00  0.00     0.125 A 
ATOM     80  C   UNL     1       5.845  -4.851  -6.144  1.00  0.00     0.030 A 
ATOM     81  N   UNL     1       8.097  -3.999  -5.957  1.00  0.00    -0.255 NA
ATOM     82  C   UNL     1       7.229  -5.029  -6.132  1.00  0.00     0.094 A 
BRANCH  82  83
ATOM     83  C   UNL     1       7.811  -6.410  -6.376  1.00  0.00     0.317 C 
BRANCH  83  84
ATOM     84  N   UNL     1       8.182  -6.595  -7.779  1.00  0.00    -0.341 N 
ATOM     85  H   UNL     1       8.970  -5.981  -7.986  1.00  0.00     0.346 HD
ATOM     86  H   UNL     1       7.356  -6.375  -8.335  1.00  0.00     0.346 HD
BRANCH  84  87
ATOM     87  C   UNL     1       8.566  -7.960  -8.114  1.00  0.00     0.264 C 
BRANCH  87  88
ATOM     88  C   UNL     1       7.384  -8.921  -8.078  1.00  0.00     0.049 C 
ATOM     89  C   UNL     1       7.537 -10.220  -8.909  1.00  0.00     0.041 C 
ATOM     90  C   UNL     1       6.154  -8.587  -8.962  1.00  0.00     0.041 C 
ATOM     91  C   UNL     1       6.044 -10.091  -9.288  1.00  0.00     0.115 C 
BRANCH  91  92
ATOM     92  O   UNL     1       5.111 -10.852  -8.498  1.00  0.00    -0.393 OA
ATOM     93  H   UNL     1       5.272 -10.684  -7.556  1.00  0.00     0.210 HD
ENDBRANCH  91  92
ENDBRANCH  87  88
ENDBRANCH  84  87
ENDBRANCH  83  84
ENDBRANCH  82  83
ENDBRANCH  74  77
ENDBRANCH   1  73
TORSDOF 18
