REMARK SMILES CC[C@H](C)[C@@H](NC(=O)c1csc(NC(C)=O)n1)C(=O)NCCCNC(=O)c1ccc(-c2c3nc(c(-c4cccc(S(=O)(=O)[O-])c4F)c4ccc([nH]4)c(-c4cccc(S(=O)(=O)[O-])c4F)c4nc(c(-c5cccc(S(=O)(=O)[O-])c5F)c5ccc2[nH]5)C=C4)C=C3)cc1
REMARK SMILES IDX 22 1 21 2 20 3 18 4 19 5 5 7 3 8 4 9 2 10 1 11 6 12 7 13
REMARK SMILES IDX 8 15 9 16 10 17 17 18 11 19 12 20 13 21 14 22 15 24 16 25
REMARK SMILES IDX 23 26 24 27 25 28 26 30 27 31 28 32 89 33 29 34 88 35 30 36
REMARK SMILES IDX 31 37 32 38 82 39 33 40 87 41 81 42 83 43 34 44 86 45 80 46
REMARK SMILES IDX 79 47 35 49 67 50 47 51 66 52 48 53 51 54 65 55 84 56 49 57
REMARK SMILES IDX 50 58 64 60 85 61 52 62 36 63 37 64 45 65 38 66 40 67 46 68
REMARK SMILES IDX 39 69 41 70 42 71 43 72 44 73 68 74 69 75 77 76 70 77 72 78
REMARK SMILES IDX 78 79 71 80 73 81 74 82 75 83 76 84 53 85 54 86 62 87 55 88
REMARK SMILES IDX 57 89 63 90 56 91 58 92 59 93 60 94 61 95
REMARK H PARENT 20 6 6 14 13 23 24 29 83 48 51 59
REMARK Flexibility Score: inf
ROOT
ATOM      1  C   UNL     1       4.543   2.341   2.640  1.00  0.00     0.042 C 
ENDROOT
BRANCH   1   2
ATOM      2  C   UNL     1       3.481   1.907   3.631  1.00  0.00     0.117 C 
BRANCH   2   3
ATOM      3  N   UNL     1       2.463   2.925   3.808  1.00  0.00    -0.354 N 
ATOM      4  C   UNL     1       1.107   2.807   3.845  1.00  0.00     0.242 C 
ATOM      5  O   UNL     1       0.445   3.847   3.949  1.00  0.00    -0.273 OA
ATOM      6  H   UNL     1       2.805   3.842   3.918  1.00  0.00     0.163 HD
BRANCH   4   7
ATOM      7  C   UNL     1       0.416   1.442   3.611  1.00  0.00     0.174 C 
BRANCH   7   8
ATOM      8  C   UNL     1       0.434   1.154   2.060  1.00  0.00     0.018 C 
ATOM      9  C   UNL     1      -0.259  -0.169   1.702  1.00  0.00     0.010 C 
BRANCH   8  10
ATOM     10  C   UNL     1      -0.180   2.326   1.250  1.00  0.00     0.002 C 
ATOM     11  C   UNL     1      -0.123   2.147  -0.263  1.00  0.00     0.004 C 
ENDBRANCH   8  10
ENDBRANCH   7   8
BRANCH   7  12
ATOM     12  N   UNL     1       1.007   0.311   4.366  1.00  0.00    -0.339 N 
ATOM     13  C   UNL     1       1.347   0.165   5.691  1.00  0.00     0.271 C 
ATOM     14  H   UNL     1       1.191  -0.484   3.816  1.00  0.00     0.164 HD
ATOM     15  O   UNL     1       1.627  -0.968   6.087  1.00  0.00    -0.267 OA
BRANCH  13  16
ATOM     16  C   UNL     1       1.535   1.337   6.543  1.00  0.00     0.141 A 
ATOM     17  C   UNL     1       2.596   1.448   7.427  1.00  0.00     0.102 A 
ATOM     18  N   UNL     1       0.717   2.457   6.502  1.00  0.00    -0.215 NA
ATOM     19  S   UNL     1       2.651   3.029   8.081  1.00  0.00    -0.104 S 
ATOM     20  C   UNL     1       1.270   3.438   7.177  1.00  0.00     0.190 A 
BRANCH  20  21
ATOM     21  N   UNL     1       0.761   4.708   7.105  1.00  0.00    -0.302 N 
ATOM     22  C   UNL     1       1.293   5.848   7.658  1.00  0.00     0.223 C 
ATOM     23  H   UNL     1      -0.078   4.816   6.602  1.00  0.00     0.172 HD
ATOM     24  C   UNL     1       0.459   7.076   7.384  1.00  0.00     0.114 C 
ATOM     25  O   UNL     1       2.326   5.945   8.312  1.00  0.00    -0.275 OA
ENDBRANCH  20  21
ENDBRANCH  13  16
ENDBRANCH   7  12
ENDBRANCH   4   7
ENDBRANCH   2   3
ENDBRANCH   1   2
BRANCH   1  26
ATOM     26  C   UNL     1       5.353   3.537   3.111  1.00  0.00     0.118 C 
BRANCH  26  27
ATOM     27  N   UNL     1       6.171   3.247   4.287  1.00  0.00    -0.352 N 
ATOM     28  C   UNL     1       7.504   3.526   4.470  1.00  0.00     0.251 C 
ATOM     29  H   UNL     1       5.713   2.799   5.035  1.00  0.00     0.163 HD
ATOM     30  O   UNL     1       8.115   3.106   5.446  1.00  0.00    -0.269 OA
BRANCH  28  31
ATOM     31  C   UNL     1       8.188   4.322   3.434  1.00  0.00     0.039 A 
ATOM     32  C   UNL     1       9.303   3.791   2.784  1.00  0.00     0.014 A 
ATOM     33  C   UNL     1       7.623   5.533   3.024  1.00  0.00     0.014 A 
ATOM     34  C   UNL     1       9.810   4.442   1.658  1.00  0.00     0.010 A 
ATOM     35  C   UNL     1       8.075   6.128   1.857  1.00  0.00     0.010 A 
ATOM     36  C   UNL     1       9.171   5.590   1.162  1.00  0.00    -0.014 A 
BRANCH  36  37
ATOM     37  C   UNL     1       9.609   6.266  -0.083  1.00  0.00     0.031 A 
ATOM     38  C   UNL     1      10.045   7.702  -0.019  1.00  0.00     0.074 A 
ATOM     39  C   UNL     1       9.457   5.651  -1.272  1.00  0.00     0.049 A 
ATOM     40  N   UNL     1      10.267   8.541  -0.994  1.00  0.00    -0.248 NA
ATOM     41  C   UNL     1      10.200   8.285   1.325  1.00  0.00     0.031 C 
ATOM     42  C   UNL     1       8.950   4.292  -1.466  1.00  0.00     0.029 A 
ATOM     43  N   UNL     1       9.668   6.112  -2.548  1.00  0.00    -0.354 N 
ATOM     44  C   UNL     1      10.518   9.764  -0.385  1.00  0.00     0.074 A 
ATOM     45  C   UNL     1      10.396   9.563   1.042  1.00  0.00     0.031 C 
ATOM     46  C   UNL     1       8.871   4.035  -2.782  1.00  0.00     0.029 A 
ATOM     47  C   UNL     1       9.294   5.219  -3.525  1.00  0.00     0.049 A 
ATOM     48  H   UNL     1      10.049   6.998  -2.745  1.00  0.00     0.167 HD
ATOM     49  C   UNL     1      10.851  10.943  -0.960  1.00  0.00     0.034 A 
ATOM     50  C   UNL     1       9.278   5.345  -4.867  1.00  0.00     0.034 A 
ATOM     51  C   UNL     1      11.060  11.111  -2.370  1.00  0.00     0.049 A 
ATOM     52  C   UNL     1       9.764   6.628  -5.484  1.00  0.00     0.074 A 
ATOM     53  C   UNL     1      11.522  12.226  -3.045  1.00  0.00     0.029 A 
ATOM     54  N   UNL     1      10.830  10.130  -3.322  1.00  0.00    -0.354 N 
ATOM     55  N   UNL     1      10.159   7.727  -4.887  1.00  0.00    -0.248 NA
ATOM     56  C   UNL     1       9.840   6.681  -6.951  1.00  0.00     0.031 C 
ATOM     57  C   UNL     1      11.576  11.915  -4.408  1.00  0.00     0.029 A 
ATOM     58  C   UNL     1      11.148  10.608  -4.580  1.00  0.00     0.049 A 
ATOM     59  H   UNL     1      10.491   9.225  -3.131  1.00  0.00     0.167 HD
ATOM     60  C   UNL     1      10.559   8.591  -5.901  1.00  0.00     0.074 A 
ATOM     61  C   UNL     1      10.372   7.881  -7.150  1.00  0.00     0.031 C 
ATOM     62  C   UNL     1      11.021   9.861  -5.805  1.00  0.00     0.034 A 
BRANCH  49  63
ATOM     63  C   UNL     1      11.083  12.116  -0.047  1.00  0.00     0.023 A 
ATOM     64  C   UNL     1      12.243  12.150   0.753  1.00  0.00     0.012 A 
ATOM     65  C   UNL     1      10.173  13.188   0.010  1.00  0.00     0.148 A 
ATOM     66  C   UNL     1      12.472  13.210   1.628  1.00  0.00     0.002 A 
ATOM     67  C   UNL     1      10.429  14.263   0.854  1.00  0.00     0.091 A 
ATOM     68  F   UNL     1       9.058  13.128  -0.734  1.00  0.00    -0.205 F 
ATOM     69  C   UNL     1      11.571  14.271   1.672  1.00  0.00     0.022 A 
BRANCH  67  70
ATOM     70  S   UNL     1       9.352  15.700   0.909  1.00  0.00     0.127 S 
ATOM     71  O   UNL     1       8.486  15.381   2.042  1.00  0.00    -0.237 OA
ATOM     72  O   UNL     1      10.294  16.794   1.152  1.00  0.00    -0.237 OA
ATOM     73  O   UNL     1       8.707  15.747  -0.396  1.00  0.00    -0.744 OA
ENDBRANCH  67  70
ENDBRANCH  49  63
BRANCH  50  74
ATOM     74  C   UNL     1       8.860   4.186  -5.706  1.00  0.00     0.023 A 
ATOM     75  C   UNL     1       9.840   3.451  -6.399  1.00  0.00     0.012 A 
ATOM     76  C   UNL     1       7.518   3.761  -5.757  1.00  0.00     0.148 A 
ATOM     77  C   UNL     1       9.491   2.323  -7.142  1.00  0.00     0.002 A 
ATOM     78  C   UNL     1       7.184   2.607  -6.457  1.00  0.00     0.091 A 
ATOM     79  F   UNL     1       6.598   4.480  -5.098  1.00  0.00    -0.205 F 
ATOM     80  C   UNL     1       8.167   1.893  -7.161  1.00  0.00     0.022 A 
BRANCH  78  81
ATOM     81  S   UNL     1       5.530   1.902  -6.421  1.00  0.00     0.127 S 
ATOM     82  O   UNL     1       5.051   2.193  -7.769  1.00  0.00    -0.237 OA
ATOM     83  O   UNL     1       5.807   0.489  -6.157  1.00  0.00    -0.237 OA
ATOM     84  O   UNL     1       4.837   2.586  -5.338  1.00  0.00    -0.744 OA
ENDBRANCH  78  81
ENDBRANCH  50  74
BRANCH  62  85
ATOM     85  C   UNL     1      11.391  10.574  -7.077  1.00  0.00     0.023 A 
ATOM     86  C   UNL     1      10.375  11.114  -7.888  1.00  0.00     0.012 A 
ATOM     87  C   UNL     1      12.741  10.816  -7.397  1.00  0.00     0.148 A 
ATOM     88  C   UNL     1      10.697  11.879  -9.008  1.00  0.00     0.002 A 
ATOM     89  C   UNL     1      13.054  11.611  -8.493  1.00  0.00     0.091 A 
ATOM     90  F   UNL     1      13.690  10.276  -6.619  1.00  0.00    -0.205 F 
ATOM     91  C   UNL     1      12.034  12.139  -9.302  1.00  0.00     0.022 A 
BRANCH  89  92
ATOM     92  S   UNL     1      14.744  12.073  -8.895  1.00  0.00     0.127 S 
ATOM     93  O   UNL     1      14.999  11.262 -10.083  1.00  0.00    -0.237 OA
ATOM     94  O   UNL     1      14.622  13.509  -9.151  1.00  0.00    -0.237 OA
ATOM     95  O   UNL     1      15.541  11.736  -7.723  1.00  0.00    -0.744 OA
ENDBRANCH  89  92
ENDBRANCH  62  85
ENDBRANCH  36  37
ENDBRANCH  28  31
ENDBRANCH  26  27
ENDBRANCH   1  26
TORSDOF 18
