REMARK SMILES COCCCNC(=O)[C@@H]1[C@@H](C(=O)NCCCNC(=O)c2ccc(-c3c4nc(c(-c5cccc(S(=O)(=O)[O-])c5F)c5ccc([nH]5)c(-c5cccc(S(=O)(=O)[O-])c5F)c5nc(c(-c6cccc(S(=O)(=O)[O-])c6F)c6ccc3[nH]6)C=C5)C=C4)cc2)[C@@H]2C=C[C@H]1C2
REMARK SMILES IDX 14 1 13 2 11 3 12 4 10 6 9 7 86 8 83 9 85 10 87 11 84 12
REMARK SMILES IDX 7 13 6 14 8 16 5 17 4 18 3 19 2 20 1 21 15 22 16 23 17 24
REMARK SMILES IDX 18 25 19 27 20 28 21 29 82 30 22 31 81 32 23 33 24 34 25 35
REMARK SMILES IDX 75 36 26 37 80 38 74 39 76 40 27 41 79 42 73 43 72 44 28 46
REMARK SMILES IDX 60 47 40 48 59 49 41 50 44 51 58 52 77 53 42 54 43 55 57 57
REMARK SMILES IDX 78 58 45 59 29 60 30 61 38 62 31 63 33 64 39 65 32 66 34 67
REMARK SMILES IDX 35 68 36 69 37 70 61 71 62 72 70 73 63 74 65 75 71 76 64 77
REMARK SMILES IDX 66 78 67 79 68 80 69 81 46 82 47 83 55 84 48 85 50 86 56 87
REMARK SMILES IDX 49 88 51 89 52 90 53 91 54 92
REMARK H PARENT 13 5 6 15 17 26 76 45 44 56
REMARK Flexibility Score: inf
ROOT
ATOM      1  C   UNL     1       3.586  -7.170   1.140  1.00  0.00     0.117 C 
ENDROOT
BRANCH   1   2
ATOM      2  N   UNL     1       2.200  -7.168   0.710  1.00  0.00    -0.356 N 
ATOM      3  C   UNL     1       1.231  -6.243   0.563  1.00  0.00     0.224 C 
ATOM      4  O   UNL     1       0.298  -6.618  -0.165  1.00  0.00    -0.275 OA
ATOM      5  H   UNL     1       1.890  -8.069   0.463  1.00  0.00     0.163 HD
BRANCH   3   6
ATOM      6  C   UNL     1       1.157  -4.831   1.171  1.00  0.00     0.098 C 
ATOM      7  C   UNL     1       2.020  -4.430   2.394  1.00  0.00     0.098 C 
ATOM      8  C   UNL     1       0.991  -4.189   3.533  1.00  0.00     0.025 C 
ATOM      9  C   UNL     1      -0.286  -4.766   1.796  1.00  0.00     0.025 C 
ATOM     10  C   UNL     1       0.086  -3.026   3.238  1.00  0.00    -0.027 C 
ATOM     11  C   UNL     1      -0.016  -5.298   3.216  1.00  0.00     0.017 C 
ATOM     12  C   UNL     1      -0.653  -3.352   2.169  1.00  0.00    -0.027 C 
BRANCH   7  13
ATOM     13  C   UNL     1       3.084  -3.343   2.217  1.00  0.00     0.224 C 
ATOM     14  N   UNL     1       2.900  -2.033   1.923  1.00  0.00    -0.356 N 
ATOM     15  H   UNL     1       3.653  -1.471   2.216  1.00  0.00     0.163 HD
ATOM     16  O   UNL     1       4.271  -3.666   2.381  1.00  0.00    -0.275 OA
BRANCH  14  17
ATOM     17  C   UNL     1       1.847  -1.259   1.274  1.00  0.00     0.118 C 
BRANCH  17  18
ATOM     18  C   UNL     1       1.240  -0.167   2.171  1.00  0.00     0.050 C 
BRANCH  18  19
ATOM     19  C   UNL     1       1.428   1.267   1.665  1.00  0.00     0.161 C 
BRANCH  19  20
ATOM     20  O   UNL     1       0.460   1.659   0.691  1.00  0.00    -0.385 OA
ATOM     21  C   UNL     1       0.702   1.159  -0.614  1.00  0.00     0.194 C 
ENDBRANCH  19  20
ENDBRANCH  18  19
ENDBRANCH  17  18
ENDBRANCH  14  17
ENDBRANCH   7  13
ENDBRANCH   3   6
ENDBRANCH   1   2
BRANCH   1  22
ATOM     22  C   UNL     1       3.861  -8.052   2.363  1.00  0.00     0.042 C 
BRANCH  22  23
ATOM     23  C   UNL     1       3.243  -9.456   2.383  1.00  0.00     0.118 C 
BRANCH  23  24
ATOM     24  N   UNL     1       3.662 -10.335   1.300  1.00  0.00    -0.352 N 
ATOM     25  C   UNL     1       4.043 -11.660   1.320  1.00  0.00     0.251 C 
ATOM     26  H   UNL     1       3.675  -9.915   0.410  1.00  0.00     0.163 HD
ATOM     27  O   UNL     1       4.376 -12.195   0.263  1.00  0.00    -0.269 OA
BRANCH  25  28
ATOM     28  C   UNL     1       4.106 -12.444   2.582  1.00  0.00     0.039 A 
ATOM     29  C   UNL     1       5.211 -13.281   2.788  1.00  0.00     0.014 A 
ATOM     30  C   UNL     1       3.097 -12.397   3.546  1.00  0.00     0.014 A 
ATOM     31  C   UNL     1       5.345 -13.995   3.986  1.00  0.00     0.010 A 
ATOM     32  C   UNL     1       3.260 -13.064   4.766  1.00  0.00     0.010 A 
ATOM     33  C   UNL     1       4.392 -13.860   5.008  1.00  0.00    -0.014 A 
BRANCH  33  34
ATOM     34  C   UNL     1       4.590 -14.499   6.341  1.00  0.00     0.031 A 
ATOM     35  C   UNL     1       3.633 -15.544   6.852  1.00  0.00     0.074 A 
ATOM     36  C   UNL     1       5.589 -14.070   7.141  1.00  0.00     0.049 A 
ATOM     37  N   UNL     1       3.619 -16.154   8.011  1.00  0.00    -0.248 NA
ATOM     38  C   UNL     1       2.537 -15.940   5.955  1.00  0.00     0.031 C 
ATOM     39  C   UNL     1       6.545 -13.013   6.806  1.00  0.00     0.029 A 
ATOM     40  N   UNL     1       5.948 -14.447   8.414  1.00  0.00    -0.354 N 
ATOM     41  C   UNL     1       2.498 -16.977   7.998  1.00  0.00     0.074 A 
ATOM     42  C   UNL     1       1.843 -16.769   6.724  1.00  0.00     0.031 C 
ATOM     43  C   UNL     1       7.377 -12.824   7.843  1.00  0.00     0.029 A 
ATOM     44  C   UNL     1       6.999 -13.724   8.929  1.00  0.00     0.049 A 
ATOM     45  H   UNL     1       5.495 -15.167   8.910  1.00  0.00     0.167 HD
ATOM     46  C   UNL     1       2.066 -17.844   8.946  1.00  0.00     0.034 A 
ATOM     47  C   UNL     1       7.591 -13.768  10.140  1.00  0.00     0.034 A 
ATOM     48  C   UNL     1       2.738 -18.086  10.196  1.00  0.00     0.049 A 
ATOM     49  C   UNL     1       7.116 -14.770  11.159  1.00  0.00     0.074 A 
ATOM     50  C   UNL     1       2.422 -19.010  11.177  1.00  0.00     0.029 A 
ATOM     51  N   UNL     1       3.856 -17.400  10.642  1.00  0.00    -0.354 N 
ATOM     52  N   UNL     1       6.152 -15.652  11.060  1.00  0.00    -0.248 NA
ATOM     53  C   UNL     1       7.835 -14.808  12.441  1.00  0.00     0.031 C 
ATOM     54  C   UNL     1       3.338 -18.869  12.226  1.00  0.00     0.029 A 
ATOM     55  C   UNL     1       4.238 -17.873  11.887  1.00  0.00     0.049 A 
ATOM     56  H   UNL     1       4.312 -16.681  10.148  1.00  0.00     0.167 HD
ATOM     57  C   UNL     1       6.173 -16.374  12.249  1.00  0.00     0.074 A 
ATOM     58  C   UNL     1       7.259 -15.840  13.044  1.00  0.00     0.031 C 
ATOM     59  C   UNL     1       5.356 -17.379  12.649  1.00  0.00     0.034 A 
BRANCH  46  60
ATOM     60  C   UNL     1       0.826 -18.649   8.647  1.00  0.00     0.023 A 
ATOM     61  C   UNL     1       0.888 -19.690   7.698  1.00  0.00     0.012 A 
ATOM     62  C   UNL     1      -0.375 -18.427   9.349  1.00  0.00     0.148 A 
ATOM     63  C   UNL     1      -0.232 -20.474   7.427  1.00  0.00     0.002 A 
ATOM     64  C   UNL     1      -1.476 -19.241   9.105  1.00  0.00     0.091 A 
ATOM     65  F   UNL     1      -0.422 -17.422  10.236  1.00  0.00    -0.205 F 
ATOM     66  C   UNL     1      -1.410 -20.256   8.137  1.00  0.00     0.022 A 
BRANCH  64  67
ATOM     67  S   UNL     1      -3.014 -19.093  10.023  1.00  0.00     0.127 S 
ATOM     68  O   UNL     1      -3.902 -18.511   9.017  1.00  0.00    -0.237 OA
ATOM     69  O   UNL     1      -3.307 -20.487  10.361  1.00  0.00    -0.237 OA
ATOM     70  O   UNL     1      -2.719 -18.242  11.166  1.00  0.00    -0.744 OA
ENDBRANCH  64  67
ENDBRANCH  46  60
BRANCH  47  71
ATOM     71  C   UNL     1       8.750 -12.877  10.435  1.00  0.00     0.023 A 
ATOM     72  C   UNL     1      10.037 -13.437  10.554  1.00  0.00     0.012 A 
ATOM     73  C   UNL     1       8.592 -11.485  10.575  1.00  0.00     0.148 A 
ATOM     74  C   UNL     1      11.141 -12.632  10.838  1.00  0.00     0.002 A 
ATOM     75  C   UNL     1       9.703 -10.682  10.803  1.00  0.00     0.091 A 
ATOM     76  F   UNL     1       7.357 -10.973  10.473  1.00  0.00    -0.205 F 
ATOM     77  C   UNL     1      10.976 -11.254  10.951  1.00  0.00     0.022 A 
BRANCH  75  78
ATOM     78  S   UNL     1       9.603  -8.888  10.833  1.00  0.00     0.127 S 
ATOM     79  O   UNL     1       9.795  -8.602  12.252  1.00  0.00    -0.237 OA
ATOM     80  O   UNL     1      10.723  -8.508   9.971  1.00  0.00    -0.237 OA
ATOM     81  O   UNL     1       8.292  -8.560  10.291  1.00  0.00    -0.744 OA
ENDBRANCH  75  78
ENDBRANCH  47  71
BRANCH  59  82
ATOM     82  C   UNL     1       5.619 -18.005  13.995  1.00  0.00     0.023 A 
ATOM     83  C   UNL     1       5.309 -17.294  15.172  1.00  0.00     0.012 A 
ATOM     84  C   UNL     1       6.105 -19.324  14.093  1.00  0.00     0.148 A 
ATOM     85  C   UNL     1       5.507 -17.875  16.424  1.00  0.00     0.002 A 
ATOM     86  C   UNL     1       6.256 -19.913  15.343  1.00  0.00     0.091 A 
ATOM     87  F   UNL     1       6.415 -19.977  12.963  1.00  0.00    -0.205 F 
ATOM     88  C   UNL     1       5.968 -19.187  16.510  1.00  0.00     0.022 A 
BRANCH  86  89
ATOM     89  S   UNL     1       6.754 -21.628  15.544  1.00  0.00     0.127 S 
ATOM     90  O   UNL     1       8.133 -21.485  16.009  1.00  0.00    -0.237 OA
ATOM     91  O   UNL     1       5.816 -22.108  16.559  1.00  0.00    -0.237 OA
ATOM     92  O   UNL     1       6.594 -22.247  14.236  1.00  0.00    -0.744 OA
ENDBRANCH  86  89
ENDBRANCH  59  82
ENDBRANCH  33  34
ENDBRANCH  25  28
ENDBRANCH  23  24
ENDBRANCH  22  23
ENDBRANCH   1  22
TORSDOF 18
