REMARK SMILES C[C@@H](C(=O)NCCCNC(=O)c1ccc(-c2c3nc(c(-c4cccc(S(=O)(=O)[O-])c4F)c4ccc([nH]4)c(-c4cccc(S(=O)(=O)[O-])c4F)c4nc(c(-c5cccc(S(=O)(=O)[O-])c5F)c5ccc2[nH]5)C=C4)C=C3)cc1)c1ccc(C[C@@H]2CCC[C@@H]2O)cc1F
REMARK SMILES IDX 6 1 5 2 3 3 4 4 2 6 1 7 75 8 76 9 87 10 77 11 86 12 88 13
REMARK SMILES IDX 78 14 79 15 80 16 81 17 84 18 82 19 83 20 85 21 7 23 8 24
REMARK SMILES IDX 9 25 10 26 11 28 12 29 13 30 74 31 14 32 73 33 15 34 16 35
REMARK SMILES IDX 17 36 67 37 18 38 72 39 66 40 68 41 19 42 71 43 65 44 64 45
REMARK SMILES IDX 20 47 52 48 32 49 51 50 33 51 36 52 50 53 69 54 34 55 35 56
REMARK SMILES IDX 49 58 70 59 37 60 21 61 22 62 30 63 23 64 25 65 31 66 24 67
REMARK SMILES IDX 26 68 27 69 28 70 29 71 53 72 54 73 62 74 55 75 57 76 63 77
REMARK SMILES IDX 56 78 58 79 59 80 60 81 61 82 38 83 39 84 47 85 40 86 42 87
REMARK SMILES IDX 48 88 41 89 43 90 44 91 45 92 46 93
REMARK H PARENT 5 5 85 22 9 27 68 46 36 57
REMARK Flexibility Score: inf
ROOT
ATOM      1  C   UNL     1     -10.367   3.848   9.977  1.00  0.00     0.117 C 
ENDROOT
BRANCH   1   2
ATOM      2  N   UNL     1      -9.071   3.421   9.489  1.00  0.00    -0.356 N 
ATOM      3  C   UNL     1      -8.745   2.577   8.469  1.00  0.00     0.227 C 
ATOM      4  O   UNL     1      -7.542   2.354   8.307  1.00  0.00    -0.274 OA
ATOM      5  H   UNL     1      -8.302   3.801   9.972  1.00  0.00     0.163 HD
BRANCH   3   6
ATOM      6  C   UNL     1      -9.842   1.988   7.563  1.00  0.00     0.108 C 
ATOM      7  C   UNL     1     -10.729   0.973   8.289  1.00  0.00     0.023 C 
BRANCH   6   8
ATOM      8  C   UNL     1      -9.238   1.356   6.316  1.00  0.00    -0.000 A 
ATOM      9  C   UNL     1      -8.546   0.138   6.380  1.00  0.00     0.008 A 
ATOM     10  C   UNL     1      -9.315   2.006   5.083  1.00  0.00     0.127 A 
ATOM     11  C   UNL     1      -7.941  -0.400   5.244  1.00  0.00     0.004 A 
ATOM     12  C   UNL     1      -8.700   1.481   3.948  1.00  0.00     0.043 A 
ATOM     13  F   UNL     1      -9.974   3.170   4.976  1.00  0.00    -0.207 F 
ATOM     14  C   UNL     1      -7.979   0.283   4.024  1.00  0.00    -0.045 A 
BRANCH  14  15
ATOM     15  C   UNL     1      -7.231  -0.238   2.823  1.00  0.00     0.041 C 
BRANCH  15  16
ATOM     16  C   UNL     1      -5.702  -0.009   2.769  1.00  0.00     0.022 C 
ATOM     17  C   UNL     1      -4.896  -0.710   3.870  1.00  0.00     0.007 C 
ATOM     18  C   UNL     1      -5.207   1.437   2.865  1.00  0.00     0.117 C 
ATOM     19  C   UNL     1      -4.582   0.350   4.931  1.00  0.00     0.003 C 
ATOM     20  C   UNL     1      -5.020   1.692   4.355  1.00  0.00     0.032 C 
BRANCH  18  21
ATOM     21  O   UNL     1      -6.075   2.365   2.246  1.00  0.00    -0.393 OA
ATOM     22  H   UNL     1      -6.948   2.322   2.667  1.00  0.00     0.210 HD
ENDBRANCH  18  21
ENDBRANCH  15  16
ENDBRANCH  14  15
ENDBRANCH   6   8
ENDBRANCH   3   6
ENDBRANCH   1   2
BRANCH   1  23
ATOM     23  C   UNL     1     -10.760   3.110  11.253  1.00  0.00     0.042 C 
BRANCH  23  24
ATOM     24  C   UNL     1      -9.845   3.393  12.440  1.00  0.00     0.118 C 
BRANCH  24  25
ATOM     25  N   UNL     1      -9.928   4.775  12.896  1.00  0.00    -0.352 N 
ATOM     26  C   UNL     1     -10.274   5.264  14.132  1.00  0.00     0.251 C 
ATOM     27  H   UNL     1      -9.704   5.455  12.220  1.00  0.00     0.163 HD
ATOM     28  O   UNL     1     -10.466   6.468  14.283  1.00  0.00    -0.269 OA
BRANCH  26  29
ATOM     29  C   UNL     1     -10.429   4.338  15.274  1.00  0.00     0.039 A 
ATOM     30  C   UNL     1     -11.541   4.466  16.112  1.00  0.00     0.014 A 
ATOM     31  C   UNL     1      -9.477   3.345  15.515  1.00  0.00     0.014 A 
ATOM     32  C   UNL     1     -11.732   3.555  17.155  1.00  0.00     0.010 A 
ATOM     33  C   UNL     1      -9.708   2.395  16.503  1.00  0.00     0.010 A 
ATOM     34  C   UNL     1     -10.833   2.494  17.338  1.00  0.00    -0.014 A 
BRANCH  34  35
ATOM     35  C   UNL     1     -11.019   1.470  18.397  1.00  0.00     0.031 A 
ATOM     36  C   UNL     1      -9.972   1.311  19.465  1.00  0.00     0.074 A 
ATOM     37  C   UNL     1     -12.042   0.598  18.318  1.00  0.00     0.049 A 
ATOM     38  N   UNL     1      -9.839   0.369  20.361  1.00  0.00    -0.248 NA
ATOM     39  C   UNL     1      -8.909   2.330  19.500  1.00  0.00     0.031 C 
ATOM     40  C   UNL     1     -13.086   0.608  17.292  1.00  0.00     0.029 A 
ATOM     41  N   UNL     1     -12.343  -0.499  19.089  1.00  0.00    -0.354 N 
ATOM     42  C   UNL     1      -8.652   0.647  21.027  1.00  0.00     0.074 A 
ATOM     43  C   UNL     1      -8.090   1.831  20.414  1.00  0.00     0.031 C 
ATOM     44  C   UNL     1     -13.899  -0.443  17.483  1.00  0.00     0.029 A 
ATOM     45  C   UNL     1     -13.414  -1.223  18.618  1.00  0.00     0.049 A 
ATOM     46  H   UNL     1     -11.841  -0.743  19.899  1.00  0.00     0.167 HD
ATOM     47  C   UNL     1      -8.090  -0.010  22.070  1.00  0.00     0.034 A 
ATOM     48  C   UNL     1     -13.931  -2.395  19.035  1.00  0.00     0.034 A 
ATOM     49  C   UNL     1      -8.681  -1.156  22.705  1.00  0.00     0.049 A 
ATOM     50  C   UNL     1     -13.322  -3.083  20.227  1.00  0.00     0.074 A 
ATOM     51  C   UNL     1      -8.242  -1.840  23.825  1.00  0.00     0.029 A 
ATOM     52  N   UNL     1      -9.836  -1.790  22.274  1.00  0.00    -0.354 N 
ATOM     53  N   UNL     1     -12.276  -2.730  20.934  1.00  0.00    -0.248 NA
ATOM     54  C   UNL     1     -13.981  -4.309  20.701  1.00  0.00     0.031 C 
ATOM     55  C   UNL     1      -9.123  -2.901  24.058  1.00  0.00     0.029 A 
ATOM     56  C   UNL     1     -10.125  -2.860  23.102  1.00  0.00     0.049 A 
ATOM     57  H   UNL     1     -10.371  -1.519  21.493  1.00  0.00     0.167 HD
ATOM     58  C   UNL     1     -12.176  -3.662  21.961  1.00  0.00     0.074 A 
ATOM     59  C   UNL     1     -13.271  -4.594  21.786  1.00  0.00     0.031 C 
ATOM     60  C   UNL     1     -11.256  -3.741  22.954  1.00  0.00     0.034 A 
BRANCH  47  61
ATOM     61  C   UNL     1      -6.790   0.527  22.610  1.00  0.00     0.023 A 
ATOM     62  C   UNL     1      -6.774   1.759  23.296  1.00  0.00     0.012 A 
ATOM     63  C   UNL     1      -5.590  -0.196  22.464  1.00  0.00     0.148 A 
ATOM     64  C   UNL     1      -5.579   2.288  23.781  1.00  0.00     0.002 A 
ATOM     65  C   UNL     1      -4.410   0.315  22.994  1.00  0.00     0.091 A 
ATOM     66  F   UNL     1      -5.616  -1.355  21.790  1.00  0.00    -0.205 F 
ATOM     67  C   UNL     1      -4.400   1.562  23.639  1.00  0.00     0.022 A 
BRANCH  65  68
ATOM     68  S   UNL     1      -2.859  -0.589  22.933  1.00  0.00     0.127 S 
ATOM     69  O   UNL     1      -2.150   0.113  21.865  1.00  0.00    -0.237 OA
ATOM     70  O   UNL     1      -2.316  -0.366  24.274  1.00  0.00    -0.237 OA
ATOM     71  O   UNL     1      -3.217  -1.972  22.650  1.00  0.00    -0.744 OA
ENDBRANCH  65  68
ENDBRANCH  47  61
BRANCH  48  72
ATOM     72  C   UNL     1     -15.129  -2.954  18.348  1.00  0.00     0.023 A 
ATOM     73  C   UNL     1     -16.378  -2.913  18.996  1.00  0.00     0.012 A 
ATOM     74  C   UNL     1     -15.051  -3.460  17.035  1.00  0.00     0.148 A 
ATOM     75  C   UNL     1     -17.526  -3.386  18.359  1.00  0.00     0.002 A 
ATOM     76  C   UNL     1     -16.207  -3.879  16.386  1.00  0.00     0.091 A 
ATOM     77  F   UNL     1     -13.851  -3.493  16.439  1.00  0.00    -0.205 F 
ATOM     78  C   UNL     1     -17.442  -3.857  17.052  1.00  0.00     0.022 A 
BRANCH  76  79
ATOM     79  S   UNL     1     -16.222  -4.374  14.659  1.00  0.00     0.127 S 
ATOM     80  O   UNL     1     -16.564  -5.791  14.757  1.00  0.00    -0.237 OA
ATOM     81  O   UNL     1     -17.278  -3.521  14.113  1.00  0.00    -0.237 OA
ATOM     82  O   UNL     1     -14.889  -4.082  14.151  1.00  0.00    -0.744 OA
ENDBRANCH  76  79
ENDBRANCH  48  72
BRANCH  60  83
ATOM     83  C   UNL     1     -11.410  -4.834  23.978  1.00  0.00     0.023 A 
ATOM     84  C   UNL     1     -11.077  -6.162  23.648  1.00  0.00     0.012 A 
ATOM     85  C   UNL     1     -11.773  -4.518  25.302  1.00  0.00     0.148 A 
ATOM     86  C   UNL     1     -11.119  -7.162  24.619  1.00  0.00     0.002 A 
ATOM     87  C   UNL     1     -11.765  -5.510  26.275  1.00  0.00     0.091 A 
ATOM     88  F   UNL     1     -12.103  -3.250  25.588  1.00  0.00    -0.205 F 
ATOM     89  C   UNL     1     -11.447  -6.834  25.933  1.00  0.00     0.022 A 
BRANCH  87  90
ATOM     90  S   UNL     1     -12.075  -5.162  28.010  1.00  0.00     0.127 S 
ATOM     91  O   UNL     1     -13.374  -5.801  28.214  1.00  0.00    -0.237 OA
ATOM     92  O   UNL     1     -10.954  -5.836  28.665  1.00  0.00    -0.237 OA
ATOM     93  O   UNL     1     -12.068  -3.711  28.138  1.00  0.00    -0.744 OA
ENDBRANCH  87  90
ENDBRANCH  60  83
ENDBRANCH  34  35
ENDBRANCH  26  29
ENDBRANCH  24  25
ENDBRANCH  23  24
ENDBRANCH   1  23
TORSDOF 17
