REMARK SMILES O=C(COc1ccc(/C=N/NC(=O)C(=O)Nc2ccc(F)cc2)cc1)NCCCNC(=O)c1ccc(-c2c3nc(c(-c4cccc(S(=O)(=O)[O-])c4F)c4ccc([nH]4)c(-c4cccc(S(=O)(=O)[O-])c4F)c4nc(c(-c5cccc(S(=O)(=O)[O-])c5F)c5ccc2[nH]5)C=C4)C=C3)cc1
REMARK SMILES IDX 1 1 2 2 26 3 3 5 4 6 5 7 6 8 25 9 7 10 24 11 8 12 9 13 10 14
REMARK SMILES IDX 11 15 12 16 13 18 14 19 15 20 16 21 17 23 18 24 23 25 19 26
REMARK SMILES IDX 22 27 20 28 21 29 27 30 28 31 29 32 30 33 31 34 32 36 33 37
REMARK SMILES IDX 34 38 95 39 35 40 94 41 36 42 37 43 38 44 88 45 39 46 93 47
REMARK SMILES IDX 87 48 89 49 40 50 92 51 86 52 85 53 41 55 73 56 53 57 72 58
REMARK SMILES IDX 54 59 57 60 71 61 90 62 55 63 56 64 70 66 91 67 58 68 42 69
REMARK SMILES IDX 43 70 51 71 44 72 46 73 52 74 45 75 47 76 48 77 49 78 50 79
REMARK SMILES IDX 74 80 75 81 83 82 76 83 78 84 84 85 77 86 79 87 80 88 81 89
REMARK SMILES IDX 82 90 59 91 60 92 68 93 61 94 63 95 69 96 62 97 64 98 65 99
REMARK SMILES IDX 66 100 67 101
REMARK H PARENT 26 4 11 17 16 22 30 35 89 54 57 65
REMARK Flexibility Score: inf
ROOT
ATOM      1  O   UNL     1       0.920  -0.736   0.186  1.00  0.00    -0.271 OA
ATOM      2  C   UNL     1       2.050  -0.271   0.079  1.00  0.00     0.257 C 
ATOM      3  N   UNL     1       2.732   0.329   1.119  1.00  0.00    -0.353 N 
ATOM      4  H   UNL     1       3.699   0.490   1.028  1.00  0.00     0.163 HD
ENDROOT
BRANCH   2   5
ATOM      5  C   UNL     1       2.810  -0.273  -1.253  1.00  0.00     0.329 C 
BRANCH   5   6
ATOM      6  O   UNL     1       3.766   0.771  -1.441  1.00  0.00    -0.484 OA
BRANCH   6   7
ATOM      7  C   UNL     1       3.233   1.966  -1.848  1.00  0.00     0.120 A 
ATOM      8  C   UNL     1       3.784   2.554  -2.991  1.00  0.00     0.047 A 
ATOM      9  C   UNL     1       2.282   2.663  -1.102  1.00  0.00     0.047 A 
ATOM     10  C   UNL     1       3.375   3.830  -3.396  1.00  0.00     0.013 A 
ATOM     11  C   UNL     1       1.900   3.948  -1.476  1.00  0.00     0.013 A 
ATOM     12  C   UNL     1       2.451   4.525  -2.616  1.00  0.00    -0.005 A 
BRANCH  12  13
ATOM     13  C   UNL     1       2.071   5.910  -2.906  1.00  0.00     0.141 C 
ATOM     14  N   UNL     1       1.725   6.308  -4.087  1.00  0.00    -0.180 NA
BRANCH  14  15
ATOM     15  N   UNL     1       1.308   7.602  -4.192  1.00  0.00    -0.239 N 
ATOM     16  C   UNL     1       0.448   8.360  -3.403  1.00  0.00     0.329 C 
ATOM     17  H   UNL     1       1.681   8.086  -4.963  1.00  0.00     0.194 HD
ATOM     18  O   UNL     1       0.408   9.572  -3.602  1.00  0.00    -0.262 OA
BRANCH  16  19
ATOM     19  C   UNL     1      -0.441   7.700  -2.297  1.00  0.00     0.315 C 
ATOM     20  O   UNL     1      -0.317   6.526  -1.960  1.00  0.00    -0.263 OA
ATOM     21  N   UNL     1      -1.294   8.487  -1.545  1.00  0.00    -0.318 N 
ATOM     22  H   UNL     1      -1.446   8.161  -0.629  1.00  0.00     0.170 HD
BRANCH  21  23
ATOM     23  C   UNL     1      -1.980   9.667  -1.858  1.00  0.00     0.041 A 
ATOM     24  C   UNL     1      -2.403  10.470  -0.790  1.00  0.00     0.029 A 
ATOM     25  C   UNL     1      -2.337  10.018  -3.163  1.00  0.00     0.029 A 
ATOM     26  C   UNL     1      -3.113  11.648  -1.031  1.00  0.00     0.041 A 
ATOM     27  C   UNL     1      -3.060  11.190  -3.402  1.00  0.00     0.041 A 
ATOM     28  C   UNL     1      -3.431  11.999  -2.336  1.00  0.00     0.123 A 
ATOM     29  F   UNL     1      -4.116  13.126  -2.569  1.00  0.00    -0.207 F 
ENDBRANCH  21  23
ENDBRANCH  16  19
ENDBRANCH  14  15
ENDBRANCH  12  13
ENDBRANCH   6   7
ENDBRANCH   5   6
ENDBRANCH   2   5
BRANCH   3  30
ATOM     30  C   UNL     1       2.067   0.729   2.342  1.00  0.00     0.117 C 
BRANCH  30  31
ATOM     31  C   UNL     1       2.351  -0.180   3.525  1.00  0.00     0.042 C 
BRANCH  31  32
ATOM     32  C   UNL     1       3.817  -0.252   3.937  1.00  0.00     0.118 C 
BRANCH  32  33
ATOM     33  N   UNL     1       4.379   1.034   4.327  1.00  0.00    -0.352 N 
ATOM     34  C   UNL     1       5.160   1.374   5.406  1.00  0.00     0.251 C 
ATOM     35  H   UNL     1       4.165   1.780   3.721  1.00  0.00     0.163 HD
ATOM     36  O   UNL     1       5.442   2.558   5.583  1.00  0.00    -0.269 OA
BRANCH  34  37
ATOM     37  C   UNL     1       5.638   0.351   6.366  1.00  0.00     0.039 A 
ATOM     38  C   UNL     1       5.654   0.675   7.727  1.00  0.00     0.014 A 
ATOM     39  C   UNL     1       6.090  -0.904   5.950  1.00  0.00     0.014 A 
ATOM     40  C   UNL     1       6.060  -0.277   8.668  1.00  0.00     0.010 A 
ATOM     41  C   UNL     1       6.425  -1.876   6.894  1.00  0.00     0.010 A 
ATOM     42  C   UNL     1       6.417  -1.573   8.262  1.00  0.00    -0.014 A 
BRANCH  42  43
ATOM     43  C   UNL     1       6.749  -2.619   9.265  1.00  0.00     0.031 A 
ATOM     44  C   UNL     1       8.126  -3.223   9.327  1.00  0.00     0.074 A 
ATOM     45  C   UNL     1       5.781  -3.079  10.083  1.00  0.00     0.049 A 
ATOM     46  N   UNL     1       8.591  -4.127  10.151  1.00  0.00    -0.248 NA
ATOM     47  C   UNL     1       9.101  -2.777   8.318  1.00  0.00     0.031 C 
ATOM     48  C   UNL     1       4.379  -2.657  10.054  1.00  0.00     0.029 A 
ATOM     49  N   UNL     1       5.824  -4.016  11.085  1.00  0.00    -0.354 N 
ATOM     50  C   UNL     1       9.896  -4.380   9.746  1.00  0.00     0.074 A 
ATOM     51  C   UNL     1      10.139  -3.559   8.579  1.00  0.00     0.031 C 
ATOM     52  C   UNL     1       3.700  -3.319  11.004  1.00  0.00     0.029 A 
ATOM     53  C   UNL     1       4.612  -4.219  11.703  1.00  0.00     0.049 A 
ATOM     54  H   UNL     1       6.645  -4.496  11.339  1.00  0.00     0.167 HD
ATOM     55  C   UNL     1      10.820  -5.193  10.311  1.00  0.00     0.034 A 
ATOM     56  C   UNL     1       4.276  -5.025  12.729  1.00  0.00     0.034 A 
ATOM     57  C   UNL     1      10.598  -5.965  11.504  1.00  0.00     0.049 A 
ATOM     58  C   UNL     1       5.346  -5.840  13.402  1.00  0.00     0.074 A 
ATOM     59  C   UNL     1      11.499  -6.747  12.207  1.00  0.00     0.029 A 
ATOM     60  N   UNL     1       9.388  -6.052  12.176  1.00  0.00    -0.354 N 
ATOM     61  N   UNL     1       6.623  -5.922  13.116  1.00  0.00    -0.248 NA
ATOM     62  C   UNL     1       4.939  -6.635  14.570  1.00  0.00     0.031 C 
ATOM     63  C   UNL     1      10.834  -7.306  13.304  1.00  0.00     0.029 A 
ATOM     64  C   UNL     1       9.519  -6.869  13.287  1.00  0.00     0.049 A 
ATOM     65  H   UNL     1       8.558  -5.600  11.903  1.00  0.00     0.167 HD
ATOM     66  C   UNL     1       7.178  -6.751  14.084  1.00  0.00     0.074 A 
ATOM     67  C   UNL     1       6.103  -7.122  14.982  1.00  0.00     0.031 C 
ATOM     68  C   UNL     1       8.457  -7.183  14.207  1.00  0.00     0.034 A 
BRANCH  55  69
ATOM     69  C   UNL     1      12.193  -5.225   9.691  1.00  0.00     0.023 A 
ATOM     70  C   UNL     1      13.052  -4.121   9.871  1.00  0.00     0.012 A 
ATOM     71  C   UNL     1      12.655  -6.353   8.987  1.00  0.00     0.148 A 
ATOM     72  C   UNL     1      14.338  -4.126   9.335  1.00  0.00     0.002 A 
ATOM     73  C   UNL     1      13.954  -6.366   8.487  1.00  0.00     0.091 A 
ATOM     74  F   UNL     1      11.817  -7.383   8.803  1.00  0.00    -0.205 F 
ATOM     75  C   UNL     1      14.793  -5.252   8.653  1.00  0.00     0.022 A 
BRANCH  73  76
ATOM     76  S   UNL     1      14.652  -7.798   7.656  1.00  0.00     0.127 S 
ATOM     77  O   UNL     1      14.596  -7.383   6.255  1.00  0.00    -0.237 OA
ATOM     78  O   UNL     1      16.001  -7.861   8.220  1.00  0.00    -0.237 OA
ATOM     79  O   UNL     1      13.796  -8.921   8.016  1.00  0.00    -0.744 OA
ENDBRANCH  73  76
ENDBRANCH  55  69
BRANCH  56  80
ATOM     80  C   UNL     1       2.883  -5.006  13.256  1.00  0.00     0.023 A 
ATOM     81  C   UNL     1       2.627  -4.386  14.495  1.00  0.00     0.012 A 
ATOM     82  C   UNL     1       1.810  -5.553  12.527  1.00  0.00     0.148 A 
ATOM     83  C   UNL     1       1.333  -4.336  15.012  1.00  0.00     0.002 A 
ATOM     84  C   UNL     1       0.515  -5.453  13.024  1.00  0.00     0.091 A 
ATOM     85  F   UNL     1       2.074  -6.153  11.357  1.00  0.00    -0.205 F 
ATOM     86  C   UNL     1       0.276  -4.858  14.272  1.00  0.00     0.022 A 
BRANCH  84  87
ATOM     87  S   UNL     1      -0.913  -5.980  12.070  1.00  0.00     0.127 S 
ATOM     88  O   UNL     1      -1.230  -7.264  12.688  1.00  0.00    -0.237 OA
ATOM     89  O   UNL     1      -1.877  -4.911  12.340  1.00  0.00    -0.237 OA
ATOM     90  O   UNL     1      -0.454  -6.029  10.688  1.00  0.00    -0.744 OA
ENDBRANCH  84  87
ENDBRANCH  56  80
BRANCH  68  91
ATOM     91  C   UNL     1       8.774  -8.092  15.364  1.00  0.00     0.023 A 
ATOM     92  C   UNL     1       8.339  -9.432  15.332  1.00  0.00     0.012 A 
ATOM     93  C   UNL     1       9.542  -7.641  16.454  1.00  0.00     0.148 A 
ATOM     94  C   UNL     1       8.635 -10.299  16.383  1.00  0.00     0.002 A 
ATOM     95  C   UNL     1       9.868  -8.523  17.479  1.00  0.00     0.091 A 
ATOM     96  F   UNL     1       9.928  -6.357  16.484  1.00  0.00    -0.205 F 
ATOM     97  C   UNL     1       9.408  -9.849  17.451  1.00  0.00     0.022 A 
BRANCH  95  98
ATOM     98  S   UNL     1      10.932  -8.028  18.840  1.00  0.00     0.127 S 
ATOM     99  O   UNL     1       9.960  -7.614  19.849  1.00  0.00    -0.237 OA
ATOM    100  O   UNL     1      11.647  -9.267  19.157  1.00  0.00    -0.237 OA
ATOM    101  O   UNL     1      11.781  -6.974  18.300  1.00  0.00    -0.744 OA
ENDBRANCH  95  98
ENDBRANCH  68  91
ENDBRANCH  42  43
ENDBRANCH  34  37
ENDBRANCH  32  33
ENDBRANCH  31  32
ENDBRANCH  30  31
ENDBRANCH   3  30
TORSDOF 19
