REMARK SMILES O=C1OC(c2ccc(Cl)cc2)=N/C1=C/Nc1ccc(O)c(C(=O)NCCCNC(=O)c2ccc(-c3c4nc(c(-c5cccc(S(=O)(=O)[O-])c5F)c5ccc([nH]5)c(-c5cccc(S(=O)(=O)[O-])c5F)c5nc(c(-c6cccc(S(=O)(=O)[O-])c6F)c6ccc3[nH]6)C=C5)C=C4)cc2)c1
REMARK SMILES IDX 26 1 25 2 24 3 22 4 23 5 21 7 16 8 17 9 94 10 18 11 19 12
REMARK SMILES IDX 15 13 14 15 1 16 2 17 3 18 13 19 4 20 12 21 5 22 6 23 11 24
REMARK SMILES IDX 7 25 10 26 8 27 9 28 20 29 27 31 28 32 29 33 30 35 31 36
REMARK SMILES IDX 32 37 93 38 33 39 92 40 34 41 35 42 36 43 86 44 37 45 91 46
REMARK SMILES IDX 85 47 87 48 38 49 90 50 84 51 83 52 39 54 71 55 51 56 70 57
REMARK SMILES IDX 52 58 55 59 69 60 88 61 53 62 54 63 68 65 89 66 56 67 40 68
REMARK SMILES IDX 41 69 49 70 42 71 44 72 50 73 43 74 45 75 46 76 47 77 48 78
REMARK SMILES IDX 72 79 73 80 81 81 74 82 76 83 82 84 75 85 77 86 78 87 79 88
REMARK SMILES IDX 80 89 57 90 58 91 66 92 59 93 61 94 67 95 60 96 62 97 63 98
REMARK SMILES IDX 64 99 65 100
REMARK H PARENT 24 6 15 14 20 30 28 34 87 53 55 64
REMARK Flexibility Score: inf
ROOT
ATOM      1  C   UNL     1      -2.640 -10.280  -0.213  1.00  0.00     0.042 C 
ENDROOT
BRANCH   1   2
ATOM      2  C   UNL     1      -1.980  -9.461  -1.323  1.00  0.00     0.118 C 
BRANCH   2   3
ATOM      3  N   UNL     1      -2.815  -8.341  -1.696  1.00  0.00    -0.352 N 
ATOM      4  C   UNL     1      -2.842  -7.031  -1.300  1.00  0.00     0.255 C 
ATOM      5  O   UNL     1      -3.733  -6.343  -1.810  1.00  0.00    -0.269 OA
ATOM      6  H   UNL     1      -3.499  -8.564  -2.368  1.00  0.00     0.163 HD
BRANCH   4   7
ATOM      7  C   UNL     1      -1.846  -6.361  -0.404  1.00  0.00     0.083 A 
ATOM      8  C   UNL     1      -0.840  -4.166   0.097  1.00  0.00     0.039 A 
ATOM      9  C   UNL     1       0.006  -4.777   1.020  1.00  0.00     0.030 A 
ATOM     10  C   UNL     1      -1.737  -4.968  -0.617  1.00  0.00     0.043 A 
ATOM     11  C   UNL     1      -0.116  -6.136   1.295  1.00  0.00     0.049 A 
ATOM     12  C   UNL     1      -1.057  -6.915   0.612  1.00  0.00     0.128 A 
BRANCH   8  13
ATOM     13  N   UNL     1      -0.779  -2.795  -0.179  1.00  0.00    -0.360 N 
ATOM     14  H   UNL     1      -1.623  -2.353  -0.429  1.00  0.00     0.166 HD
BRANCH  13  15
ATOM     15  C   UNL     1       0.340  -2.008  -0.134  1.00  0.00     0.119 C 
ATOM     16  O   UNL     1      -1.897   0.028  -0.030  1.00  0.00    -0.244 OA
ATOM     17  C   UNL     1      -0.707   0.259  -0.017  1.00  0.00     0.365 C 
ATOM     18  O   UNL     1      -0.097   1.476   0.083  1.00  0.00    -0.402 OA
ATOM     19  C   UNL     1       0.445  -0.678  -0.108  1.00  0.00     0.168 C 
ATOM     20  C   UNL     1       1.230   1.233  -0.005  1.00  0.00     0.231 C 
ATOM     21  N   UNL     1       1.628   0.010  -0.127  1.00  0.00    -0.204 NA
BRANCH  20  22
ATOM     22  C   UNL     1       2.078   2.417  -0.020  1.00  0.00     0.037 A 
ATOM     23  C   UNL     1       1.981   3.374   0.992  1.00  0.00     0.015 A 
ATOM     24  C   UNL     1       3.015   2.550  -1.050  1.00  0.00     0.015 A 
ATOM     25  C   UNL     1       2.840   4.476   0.973  1.00  0.00     0.021 A 
ATOM     26  C   UNL     1       3.857   3.662  -1.075  1.00  0.00     0.021 A 
ATOM     27  C   UNL     1       3.768   4.617  -0.061  1.00  0.00     0.041 A 
ATOM     28  Cl  UNL     1       4.820   5.978  -0.084  1.00  0.00    -0.084 Cl
ENDBRANCH  20  22
ENDBRANCH  13  15
ENDBRANCH   8  13
BRANCH  12  29
ATOM     29  O   UNL     1      -1.192  -8.204   1.029  1.00  0.00    -0.507 OA
ATOM     30  H   UNL     1      -0.643  -8.535   1.712  1.00  0.00     0.293 HD
ENDBRANCH  12  29
ENDBRANCH   4   7
ENDBRANCH   2   3
ENDBRANCH   1   2
BRANCH   1  31
ATOM     31  C   UNL     1      -3.707 -11.238  -0.727  1.00  0.00     0.118 C 
BRANCH  31  32
ATOM     32  N   UNL     1      -3.124 -12.318  -1.515  1.00  0.00    -0.352 N 
ATOM     33  C   UNL     1      -3.116 -13.670  -1.282  1.00  0.00     0.251 C 
ATOM     34  H   UNL     1      -2.667 -12.034  -2.339  1.00  0.00     0.163 HD
ATOM     35  O   UNL     1      -2.347 -14.388  -1.915  1.00  0.00    -0.269 OA
BRANCH  33  36
ATOM     36  C   UNL     1      -4.022 -14.260  -0.274  1.00  0.00     0.039 A 
ATOM     37  C   UNL     1      -3.544 -15.283   0.549  1.00  0.00     0.014 A 
ATOM     38  C   UNL     1      -5.346 -13.827  -0.157  1.00  0.00     0.014 A 
ATOM     39  C   UNL     1      -4.374 -15.827   1.531  1.00  0.00     0.010 A 
ATOM     40  C   UNL     1      -6.146 -14.313   0.872  1.00  0.00     0.010 A 
ATOM     41  C   UNL     1      -5.669 -15.318   1.725  1.00  0.00    -0.014 A 
BRANCH  41  42
ATOM     42  C   UNL     1      -6.526 -15.796   2.838  1.00  0.00     0.031 A 
ATOM     43  C   UNL     1      -7.839 -16.471   2.555  1.00  0.00     0.074 A 
ATOM     44  C   UNL     1      -6.161 -15.530   4.108  1.00  0.00     0.049 A 
ATOM     45  N   UNL     1      -8.748 -16.890   3.396  1.00  0.00    -0.248 NA
ATOM     46  C   UNL     1      -8.188 -16.680   1.140  1.00  0.00     0.031 C 
ATOM     47  C   UNL     1      -4.942 -14.821   4.504  1.00  0.00     0.029 A 
ATOM     48  N   UNL     1      -6.790 -15.799   5.297  1.00  0.00    -0.354 N 
ATOM     49  C   UNL     1      -9.789 -17.382   2.617  1.00  0.00     0.074 A 
ATOM     50  C   UNL     1      -9.413 -17.177   1.235  1.00  0.00     0.031 C 
ATOM     51  C   UNL     1      -4.909 -14.717   5.842  1.00  0.00     0.029 A 
ATOM     52  C   UNL     1      -6.120 -15.312   6.395  1.00  0.00     0.049 A 
ATOM     53  H   UNL     1      -7.639 -16.292   5.359  1.00  0.00     0.167 HD
ATOM     54  C   UNL     1     -10.941 -17.972   3.015  1.00  0.00     0.034 A 
ATOM     55  C   UNL     1      -6.452 -15.325   7.701  1.00  0.00     0.034 A 
ATOM     56  C   UNL     1     -11.299 -18.185   4.392  1.00  0.00     0.049 A 
ATOM     57  C   UNL     1      -7.739 -15.982   8.118  1.00  0.00     0.074 A 
ATOM     58  C   UNL     1     -12.405 -18.842   4.902  1.00  0.00     0.029 A 
ATOM     59  N   UNL     1     -10.571 -17.726   5.480  1.00  0.00    -0.354 N 
ATOM     60  N   UNL     1      -8.639 -16.579   7.375  1.00  0.00    -0.248 NA
ATOM     61  C   UNL     1      -8.043 -15.993   9.556  1.00  0.00     0.031 C 
ATOM     62  C   UNL     1     -12.367 -18.743   6.297  1.00  0.00     0.029 A 
ATOM     63  C   UNL     1     -11.214 -18.063   6.659  1.00  0.00     0.049 A 
ATOM     64  H   UNL     1      -9.721 -17.232   5.422  1.00  0.00     0.167 HD
ATOM     65  C   UNL     1      -9.599 -17.065   8.255  1.00  0.00     0.074 A 
ATOM     66  C   UNL     1      -9.158 -16.710   9.588  1.00  0.00     0.031 C 
ATOM     67  C   UNL     1     -10.746 -17.736   7.982  1.00  0.00     0.034 A 
BRANCH  54  68
ATOM     68  C   UNL     1     -11.886 -18.454   1.942  1.00  0.00     0.023 A 
ATOM     69  C   UNL     1     -11.520 -19.545   1.126  1.00  0.00     0.012 A 
ATOM     70  C   UNL     1     -13.148 -17.855   1.764  1.00  0.00     0.148 A 
ATOM     71  C   UNL     1     -12.371 -20.000   0.120  1.00  0.00     0.002 A 
ATOM     72  C   UNL     1     -14.013 -18.347   0.793  1.00  0.00     0.091 A 
ATOM     73  F   UNL     1     -13.475 -16.809   2.536  1.00  0.00    -0.205 F 
ATOM     74  C   UNL     1     -13.620 -19.407  -0.040  1.00  0.00     0.022 A 
BRANCH  72  75
ATOM     75  S   UNL     1     -15.676 -17.708   0.562  1.00  0.00     0.127 S 
ATOM     76  O   UNL     1     -15.550 -17.016  -0.720  1.00  0.00    -0.237 OA
ATOM     77  O   UNL     1     -16.472 -18.935   0.516  1.00  0.00    -0.237 OA
ATOM     78  O   UNL     1     -15.942 -16.854   1.711  1.00  0.00    -0.744 OA
ENDBRANCH  72  75
ENDBRANCH  54  68
BRANCH  55  79
ATOM     79  C   UNL     1      -5.522 -14.744   8.709  1.00  0.00     0.023 A 
ATOM     80  C   UNL     1      -4.843 -15.602   9.597  1.00  0.00     0.012 A 
ATOM     81  C   UNL     1      -5.274 -13.359   8.768  1.00  0.00     0.148 A 
ATOM     82  C   UNL     1      -3.958 -15.088  10.544  1.00  0.00     0.002 A 
ATOM     83  C   UNL     1      -4.348 -12.859   9.676  1.00  0.00     0.091 A 
ATOM     84  F   UNL     1      -5.933 -12.560   7.917  1.00  0.00    -0.205 F 
ATOM     85  C   UNL     1      -3.703 -13.720  10.578  1.00  0.00     0.022 A 
BRANCH  83  86
ATOM     86  S   UNL     1      -3.857 -11.132   9.706  1.00  0.00     0.127 S 
ATOM     87  O   UNL     1      -4.355 -10.701  11.009  1.00  0.00    -0.237 OA
ATOM     88  O   UNL     1      -2.400 -11.234   9.605  1.00  0.00    -0.237 OA
ATOM     89  O   UNL     1      -4.497 -10.516   8.552  1.00  0.00    -0.744 OA
ENDBRANCH  83  86
ENDBRANCH  55  79
BRANCH  67  90
ATOM     90  C   UNL     1     -11.599 -18.163   9.149  1.00  0.00     0.023 A 
ATOM     91  C   UNL     1     -12.322 -17.202   9.883  1.00  0.00     0.012 A 
ATOM     92  C   UNL     1     -11.744 -19.528   9.467  1.00  0.00     0.148 A 
ATOM     93  C   UNL     1     -13.152 -17.590  10.934  1.00  0.00     0.002 A 
ATOM     94  C   UNL     1     -12.613 -19.912  10.480  1.00  0.00     0.091 A 
ATOM     95  F   UNL     1     -11.035 -20.426   8.767  1.00  0.00    -0.205 F 
ATOM     96  C   UNL     1     -13.307 -18.944  11.224  1.00  0.00     0.022 A 
BRANCH  94  97
ATOM     97  S   UNL     1     -12.954 -21.634  10.862  1.00  0.00     0.127 S 
ATOM     98  O   UNL     1     -12.359 -21.767  12.191  1.00  0.00    -0.237 OA
ATOM     99  O   UNL     1     -14.416 -21.669  10.842  1.00  0.00    -0.237 OA
ATOM    100  O   UNL     1     -12.312 -22.416   9.815  1.00  0.00    -0.744 OA
ENDBRANCH  94  97
ENDBRANCH  67  90
ENDBRANCH  41  42
ENDBRANCH  33  36
ENDBRANCH  31  32
ENDBRANCH   1  31
TORSDOF 17
