REMARK SMILES C[C@H]1C[NH+](CC[C@@H]2CCC[C@]2([NH3+])C(=O)NCCCNC(=O)c2ccc(-c3c4nc(c(-c5cccc(S(=O)(=O)[O-])c5F)c5ccc([nH]5)c(-c5cccc(S(=O)(=O)[O-])c5F)c5nc(c(-c6cccc(S(=O)(=O)[O-])c6F)c6ccc3[nH]6)C=C5)C=C4)cc2)C[C@H](C)O1
REMARK SMILES IDX 17 1 16 2 15 3 13 4 14 5 11 7 7 8 8 9 9 10 10 11 6 12 5 13
REMARK SMILES IDX 4 14 1 15 2 16 3 17 88 18 86 19 85 20 87 22 12 23 18 27
REMARK SMILES IDX 19 28 20 29 21 31 22 32 23 33 84 34 24 35 83 36 25 37 26 38
REMARK SMILES IDX 27 39 77 40 28 41 82 42 76 43 78 44 29 45 81 46 75 47 74 48
REMARK SMILES IDX 30 50 62 51 42 52 61 53 43 54 46 55 60 56 79 57 44 58 45 59
REMARK SMILES IDX 59 61 80 62 47 63 31 64 32 65 40 66 33 67 35 68 41 69 34 70
REMARK SMILES IDX 36 71 37 72 38 73 39 74 63 75 64 76 72 77 65 78 67 79 73 80
REMARK SMILES IDX 66 81 68 82 69 83 70 84 71 85 48 86 49 87 57 88 50 89 52 90
REMARK SMILES IDX 58 91 51 92 53 93 54 94 55 95 56 96
REMARK H PARENT 15 6 4 21 12 24 12 25 12 26 19 30 78 49 46 60
REMARK Flexibility Score: inf
ROOT
ATOM      1  C   UNL     1       0.235  -3.711   1.927  1.00  0.00     0.042 C 
ENDROOT
BRANCH   1   2
ATOM      2  C   UNL     1       1.655  -3.329   1.485  1.00  0.00     0.118 C 
BRANCH   2   3
ATOM      3  N   UNL     1       2.563  -4.452   1.154  1.00  0.00    -0.351 N 
ATOM      4  C   UNL     1       3.209  -5.104   0.158  1.00  0.00     0.281 C 
ATOM      5  O   UNL     1       4.266  -5.574   0.636  1.00  0.00    -0.268 OA
ATOM      6  H   UNL     1       2.787  -4.907   1.997  1.00  0.00     0.163 HD
BRANCH   4   7
ATOM      7  C   UNL     1       2.951  -5.349  -1.431  1.00  0.00     0.177 C 
ATOM      8  C   UNL     1       1.614  -5.854  -2.050  1.00  0.00     0.066 C 
ATOM      9  C   UNL     1       1.485  -7.277  -1.460  1.00  0.00     0.011 C 
ATOM     10  C   UNL     1       2.912  -7.824  -1.429  1.00  0.00     0.008 C 
ATOM     11  C   UNL     1       3.800  -6.638  -1.772  1.00  0.00     0.079 C 
BRANCH   8  12
ATOM     12  C   UNL     1       0.271  -5.098  -2.174  1.00  0.00     0.072 C 
BRANCH  12  13
ATOM     13  C   UNL     1      -0.080  -4.002  -1.189  1.00  0.00     0.262 C 
BRANCH  13  14
ATOM     14  N   UNL     1       0.328  -2.599  -1.298  1.00  0.00    -0.331 N 
ATOM     15  C   UNL     1      -1.200   0.773  -2.148  1.00  0.00     0.045 C 
ATOM     16  C   UNL     1      -0.206  -0.217  -1.569  1.00  0.00     0.170 C 
ATOM     17  C   UNL     1      -0.669  -1.674  -1.829  1.00  0.00     0.294 C 
ATOM     18  O   UNL     1       1.059   0.073  -2.192  1.00  0.00    -0.364 OA
ATOM     19  C   UNL     1       2.093  -0.824  -1.784  1.00  0.00     0.170 C 
ATOM     20  C   UNL     1       1.629  -2.296  -1.867  1.00  0.00     0.294 C 
ATOM     21  H   UNL     1       0.425  -2.430  -0.297  1.00  0.00     0.348 HD
ATOM     22  C   UNL     1       2.690  -0.424  -0.430  1.00  0.00     0.045 C 
ENDBRANCH  13  14
ENDBRANCH  12  13
ENDBRANCH   8  12
BRANCH   7  23
ATOM     23  N   UNL     1       3.690  -4.386  -2.276  1.00  0.00    -0.345 N 
ATOM     24  H   UNL     1       3.497  -4.579  -3.259  1.00  0.00     0.345 HD
ATOM     25  H   UNL     1       4.691  -4.477  -2.102  1.00  0.00     0.345 HD
ATOM     26  H   UNL     1       3.391  -3.437  -2.051  1.00  0.00     0.345 HD
ENDBRANCH   7  23
ENDBRANCH   4   7
ENDBRANCH   2   3
ENDBRANCH   1   2
BRANCH   1  27
ATOM     27  C   UNL     1      -0.174  -3.315   3.338  1.00  0.00     0.118 C 
BRANCH  27  28
ATOM     28  N   UNL     1      -0.428  -1.888   3.515  1.00  0.00    -0.352 N 
ATOM     29  C   UNL     1      -1.514  -1.234   4.072  1.00  0.00     0.251 C 
ATOM     30  H   UNL     1       0.286  -1.297   3.185  1.00  0.00     0.163 HD
ATOM     31  O   UNL     1      -1.559  -0.011   4.027  1.00  0.00    -0.269 OA
BRANCH  29  32
ATOM     32  C   UNL     1      -2.632  -1.990   4.700  1.00  0.00     0.039 A 
ATOM     33  C   UNL     1      -3.940  -1.493   4.608  1.00  0.00     0.014 A 
ATOM     34  C   UNL     1      -2.406  -3.174   5.398  1.00  0.00     0.014 A 
ATOM     35  C   UNL     1      -5.007  -2.213   5.163  1.00  0.00     0.010 A 
ATOM     36  C   UNL     1      -3.475  -3.952   5.827  1.00  0.00     0.010 A 
ATOM     37  C   UNL     1      -4.788  -3.466   5.755  1.00  0.00    -0.014 A 
BRANCH  37  38
ATOM     38  C   UNL     1      -5.883  -4.265   6.372  1.00  0.00     0.031 A 
ATOM     39  C   UNL     1      -5.783  -4.665   7.826  1.00  0.00     0.074 A 
ATOM     40  C   UNL     1      -6.907  -4.716   5.619  1.00  0.00     0.049 A 
ATOM     41  N   UNL     1      -6.559  -5.452   8.525  1.00  0.00    -0.248 NA
ATOM     42  C   UNL     1      -4.627  -4.151   8.583  1.00  0.00     0.031 C 
ATOM     43  C   UNL     1      -7.076  -4.475   4.184  1.00  0.00     0.029 A 
ATOM     44  N   UNL     1      -7.987  -5.496   5.951  1.00  0.00    -0.354 N 
ATOM     45  C   UNL     1      -5.955  -5.572   9.773  1.00  0.00     0.074 A 
ATOM     46  C   UNL     1      -4.720  -4.824   9.719  1.00  0.00     0.031 C 
ATOM     47  C   UNL     1      -8.199  -5.080   3.764  1.00  0.00     0.029 A 
ATOM     48  C   UNL     1      -8.812  -5.781   4.887  1.00  0.00     0.049 A 
ATOM     49  H   UNL     1      -8.155  -5.821   6.865  1.00  0.00     0.167 HD
ATOM     50  C   UNL     1      -6.402  -6.210  10.881  1.00  0.00     0.034 A 
ATOM     51  C   UNL     1      -9.934  -6.527   4.824  1.00  0.00     0.034 A 
ATOM     52  C   UNL     1      -7.665  -6.889  10.950  1.00  0.00     0.049 A 
ATOM     53  C   UNL     1     -10.450  -7.167   6.086  1.00  0.00     0.074 A 
ATOM     54  C   UNL     1      -8.265  -7.484  12.045  1.00  0.00     0.029 A 
ATOM     55  N   UNL     1      -8.525  -7.062   9.876  1.00  0.00    -0.354 N 
ATOM     56  N   UNL     1      -9.935  -7.149   7.291  1.00  0.00    -0.248 NA
ATOM     57  C   UNL     1     -11.725  -7.893   5.989  1.00  0.00     0.031 C 
ATOM     58  C   UNL     1      -9.478  -8.041  11.626  1.00  0.00     0.029 A 
ATOM     59  C   UNL     1      -9.651  -7.755  10.280  1.00  0.00     0.049 A 
ATOM     60  H   UNL     1      -8.359  -6.738   8.961  1.00  0.00     0.167 HD
ATOM     61  C   UNL     1     -10.841  -7.820   8.104  1.00  0.00     0.074 A 
ATOM     62  C   UNL     1     -11.946  -8.218   7.256  1.00  0.00     0.031 C 
ATOM     63  C   UNL     1     -10.764  -8.091   9.431  1.00  0.00     0.034 A 
BRANCH  50  64
ATOM     64  C   UNL     1      -5.543  -6.155  12.120  1.00  0.00     0.023 A 
ATOM     65  C   UNL     1      -5.362  -4.929  12.796  1.00  0.00     0.012 A 
ATOM     66  C   UNL     1      -4.946  -7.320  12.639  1.00  0.00     0.148 A 
ATOM     67  C   UNL     1      -4.562  -4.854  13.936  1.00  0.00     0.002 A 
ATOM     68  C   UNL     1      -4.195  -7.248  13.807  1.00  0.00     0.091 A 
ATOM     69  F   UNL     1      -5.112  -8.474  11.977  1.00  0.00    -0.205 F 
ATOM     70  C   UNL     1      -3.987  -6.014  14.447  1.00  0.00     0.022 A 
BRANCH  68  71
ATOM     71  S   UNL     1      -3.484  -8.696  14.597  1.00  0.00     0.127 S 
ATOM     72  O   UNL     1      -2.054  -8.471  14.394  1.00  0.00    -0.237 OA
ATOM     73  O   UNL     1      -3.936  -8.543  15.980  1.00  0.00    -0.237 OA
ATOM     74  O   UNL     1      -4.039  -9.848  13.900  1.00  0.00    -0.744 OA
ENDBRANCH  68  71
ENDBRANCH  50  64
BRANCH  51  75
ATOM     75  C   UNL     1     -10.684  -6.647   3.541  1.00  0.00     0.023 A 
ATOM     76  C   UNL     1     -11.940  -6.020   3.410  1.00  0.00     0.012 A 
ATOM     77  C   UNL     1     -10.156  -7.355   2.444  1.00  0.00     0.148 A 
ATOM     78  C   UNL     1     -12.672  -6.127   2.227  1.00  0.00     0.002 A 
ATOM     79  C   UNL     1     -10.864  -7.410   1.249  1.00  0.00     0.091 A 
ATOM     80  F   UNL     1      -8.964  -7.950   2.589  1.00  0.00    -0.205 F 
ATOM     81  C   UNL     1     -12.130  -6.813   1.144  1.00  0.00     0.022 A 
BRANCH  79  82
ATOM     82  S   UNL     1     -10.190  -8.157  -0.239  1.00  0.00     0.127 S 
ATOM     83  O   UNL     1     -11.039  -9.334  -0.395  1.00  0.00    -0.237 OA
ATOM     84  O   UNL     1     -10.407  -7.104  -1.230  1.00  0.00    -0.237 OA
ATOM     85  O   UNL     1      -8.787  -8.424   0.055  1.00  0.00    -0.744 OA
ENDBRANCH  79  82
ENDBRANCH  51  75
BRANCH  63  86
ATOM     86  C   UNL     1     -11.932  -8.796  10.069  1.00  0.00     0.023 A 
ATOM     87  C   UNL     1     -12.172 -10.158   9.800  1.00  0.00     0.012 A 
ATOM     88  C   UNL     1     -12.745  -8.119  10.999  1.00  0.00     0.148 A 
ATOM     89  C   UNL     1     -13.230 -10.823  10.418  1.00  0.00     0.002 A 
ATOM     90  C   UNL     1     -13.760  -8.803  11.653  1.00  0.00     0.091 A 
ATOM     91  F   UNL     1     -12.509  -6.818  11.227  1.00  0.00    -0.205 F 
ATOM     92  C   UNL     1     -14.014 -10.151  11.353  1.00  0.00     0.022 A 
BRANCH  90  93
ATOM     93  S   UNL     1     -14.748  -8.046  12.947  1.00  0.00     0.127 S 
ATOM     94  O   UNL     1     -16.038  -7.883  12.280  1.00  0.00    -0.237 OA
ATOM     95  O   UNL     1     -14.727  -9.071  13.992  1.00  0.00    -0.237 OA
ATOM     96  O   UNL     1     -14.067  -6.809  13.302  1.00  0.00    -0.744 OA
ENDBRANCH  90  93
ENDBRANCH  63  86
ENDBRANCH  37  38
ENDBRANCH  29  32
ENDBRANCH  27  28
ENDBRANCH   1  27
TORSDOF 17
