REMARK SMILES O=C(CC[C@H]1CCC[N@@H+](Cc2cccc(C3CC3)c2)C1)NCCCNC(=O)c1ccc(-c2c3nc(c(-c4cccc(S(=O)(=O)[O-])c4F)c4ccc([nH]4)c(-c4cccc(S(=O)(=O)[O-])c4F)c4nc(c(-c5cccc(S(=O)(=O)[O-])c5F)c5ccc2[nH]5)C=C4)C=C3)cc1
REMARK SMILES IDX 22 1 21 2 1 3 2 4 3 6 4 7 5 8 6 9 20 10 7 11 9 12 8 13 10 15
REMARK SMILES IDX 11 16 12 17 19 18 13 19 15 20 14 21 16 22 17 23 18 24 23 25
REMARK SMILES IDX 24 26 25 27 26 28 27 30 28 31 29 32 90 33 30 34 89 35 31 36
REMARK SMILES IDX 32 37 33 38 83 39 34 40 88 41 82 42 84 43 35 44 87 45 81 46
REMARK SMILES IDX 80 47 36 49 68 50 48 51 67 52 49 53 52 54 66 55 85 56 50 57
REMARK SMILES IDX 51 58 65 60 86 61 53 62 37 63 38 64 46 65 39 66 41 67 47 68
REMARK SMILES IDX 40 69 42 70 43 71 44 72 45 73 69 74 70 75 78 76 71 77 73 78
REMARK SMILES IDX 79 79 72 80 74 81 75 82 76 83 77 84 54 85 55 86 63 87 56 88
REMARK SMILES IDX 58 89 64 90 57 91 59 92 60 93 61 94 62 95
REMARK H PARENT 21 5 9 14 25 29 84 48 52 59
REMARK Flexibility Score: inf
ROOT
ATOM      1  C   UNL     1       3.375  -1.743   2.876  1.00  0.00     0.117 C 
ENDROOT
BRANCH   1   2
ATOM      2  N   UNL     1       4.536  -0.958   2.513  1.00  0.00    -0.356 N 
ATOM      3  O   UNL     1       5.378  -2.541   1.084  1.00  0.00    -0.275 OA
ATOM      4  C   UNL     1       5.387  -1.393   1.523  1.00  0.00     0.220 C 
ATOM      5  H   UNL     1       4.718  -0.109   2.977  1.00  0.00     0.163 HD
BRANCH   4   6
ATOM      6  C   UNL     1       6.269  -0.315   0.920  1.00  0.00     0.100 C 
BRANCH   6   7
ATOM      7  C   UNL     1       5.760   0.032  -0.491  1.00  0.00     0.019 C 
BRANCH   7   8
ATOM      8  C   UNL     1       4.770   1.220  -0.626  1.00  0.00     0.045 C 
ATOM      9  C   UNL     1       3.756   1.342   0.515  1.00  0.00     0.015 C 
ATOM     10  C   UNL     1       5.540   2.540  -0.787  1.00  0.00     0.265 C 
ATOM     11  C   UNL     1       2.896   2.593   0.378  1.00  0.00     0.062 C 
ATOM     12  N   UNL     1       4.656   3.704  -0.916  1.00  0.00    -0.331 N 
ATOM     13  C   UNL     1       3.771   3.840   0.243  1.00  0.00     0.262 C 
ATOM     14  H   UNL     1       4.066   3.522  -1.728  1.00  0.00     0.348 HD
BRANCH  12  15
ATOM     15  C   UNL     1       5.368   4.957  -1.238  1.00  0.00     0.299 C 
BRANCH  15  16
ATOM     16  C   UNL     1       6.446   5.386  -0.263  1.00  0.00     0.006 A 
ATOM     17  C   UNL     1       6.221   6.388   0.682  1.00  0.00     0.009 A 
ATOM     18  C   UNL     1       7.689   4.727  -0.262  1.00  0.00     0.013 A 
ATOM     19  C   UNL     1       7.203   6.686   1.624  1.00  0.00     0.001 A 
ATOM     20  C   UNL     1       8.661   4.936   0.728  1.00  0.00    -0.044 A 
ATOM     21  C   UNL     1       8.395   5.954   1.656  1.00  0.00     0.004 A 
BRANCH  20  22
ATOM     22  C   UNL     1       9.909   4.078   0.845  1.00  0.00     0.019 C 
ATOM     23  C   UNL     1       9.864   2.609   0.478  1.00  0.00     0.009 C 
ATOM     24  C   UNL     1      10.639   3.572  -0.374  1.00  0.00     0.009 C 
ENDBRANCH  20  22
ENDBRANCH  15  16
ENDBRANCH  12  15
ENDBRANCH   7   8
ENDBRANCH   6   7
ENDBRANCH   4   6
ENDBRANCH   1   2
BRANCH   1  25
ATOM     25  C   UNL     1       2.521  -1.116   3.973  1.00  0.00     0.042 C 
BRANCH  25  26
ATOM     26  C   UNL     1       1.880   0.230   3.631  1.00  0.00     0.118 C 
BRANCH  26  27
ATOM     27  N   UNL     1       0.855   0.155   2.601  1.00  0.00    -0.352 N 
ATOM     28  C   UNL     1      -0.382   0.754   2.553  1.00  0.00     0.251 C 
ATOM     29  H   UNL     1       1.081  -0.407   1.825  1.00  0.00     0.163 HD
ATOM     30  O   UNL     1      -1.147   0.484   1.627  1.00  0.00    -0.269 OA
BRANCH  28  31
ATOM     31  C   UNL     1      -0.823   1.692   3.615  1.00  0.00     0.039 A 
ATOM     32  C   UNL     1      -2.122   1.570   4.116  1.00  0.00     0.014 A 
ATOM     33  C   UNL     1       0.014   2.699   4.107  1.00  0.00     0.014 A 
ATOM     34  C   UNL     1      -2.556   2.407   5.150  1.00  0.00     0.010 A 
ATOM     35  C   UNL     1      -0.399   3.492   5.182  1.00  0.00     0.010 A 
ATOM     36  C   UNL     1      -1.687   3.353   5.721  1.00  0.00    -0.014 A 
BRANCH  36  37
ATOM     37  C   UNL     1      -2.111   4.146   6.910  1.00  0.00     0.031 A 
ATOM     38  C   UNL     1      -2.235   5.647   6.854  1.00  0.00     0.074 A 
ATOM     39  C   UNL     1      -2.340   3.509   8.077  1.00  0.00     0.049 A 
ATOM     40  N   UNL     1      -2.639   6.474   7.785  1.00  0.00    -0.248 NA
ATOM     41  C   UNL     1      -1.835   6.307   5.603  1.00  0.00     0.031 C 
ATOM     42  C   UNL     1      -2.162   2.073   8.303  1.00  0.00     0.029 A 
ATOM     43  N   UNL     1      -2.757   3.985   9.296  1.00  0.00    -0.354 N 
ATOM     44  C   UNL     1      -2.522   7.750   7.245  1.00  0.00     0.074 A 
ATOM     45  C   UNL     1      -1.973   7.589   5.915  1.00  0.00     0.031 C 
ATOM     46  C   UNL     1      -2.487   1.783   9.572  1.00  0.00     0.029 A 
ATOM     47  C   UNL     1      -2.874   3.010  10.260  1.00  0.00     0.049 A 
ATOM     48  H   UNL     1      -2.954   4.935   9.465  1.00  0.00     0.167 HD
ATOM     49  C   UNL     1      -2.864   8.943   7.791  1.00  0.00     0.034 A 
ATOM     50  C   UNL     1      -3.257   3.088  11.550  1.00  0.00     0.034 A 
ATOM     51  C   UNL     1      -3.436   9.104   9.104  1.00  0.00     0.049 A 
ATOM     52  C   UNL     1      -3.689   4.415  12.110  1.00  0.00     0.074 A 
ATOM     53  C   UNL     1      -3.893  10.263   9.708  1.00  0.00     0.029 A 
ATOM     54  N   UNL     1      -3.620   8.081  10.021  1.00  0.00    -0.354 N 
ATOM     55  N   UNL     1      -3.737   5.585  11.522  1.00  0.00    -0.248 NA
ATOM     56  C   UNL     1      -4.168   4.423  13.501  1.00  0.00     0.031 C 
ATOM     57  C   UNL     1      -4.329   9.945  11.000  1.00  0.00     0.029 A 
ATOM     58  C   UNL     1      -4.176   8.582  11.188  1.00  0.00     0.049 A 
ATOM     59  H   UNL     1      -3.389   7.137   9.866  1.00  0.00     0.167 HD
ATOM     60  C   UNL     1      -4.283   6.460  12.455  1.00  0.00     0.074 A 
ATOM     61  C   UNL     1      -4.577   5.676  13.637  1.00  0.00     0.031 C 
ATOM     62  C   UNL     1      -4.507   7.793  12.347  1.00  0.00     0.034 A 
BRANCH  49  63
ATOM     63  C   UNL     1      -2.680  10.180   6.945  1.00  0.00     0.023 A 
ATOM     64  C   UNL     1      -3.525  10.394   5.836  1.00  0.00     0.012 A 
ATOM     65  C   UNL     1      -1.726  11.160   7.283  1.00  0.00     0.148 A 
ATOM     66  C   UNL     1      -3.400  11.544   5.057  1.00  0.00     0.002 A 
ATOM     67  C   UNL     1      -1.639  12.325   6.529  1.00  0.00     0.091 A 
ATOM     68  F   UNL     1      -0.920  10.934   8.329  1.00  0.00    -0.205 F 
ATOM     69  C   UNL     1      -2.466  12.513   5.409  1.00  0.00     0.022 A 
BRANCH  67  70
ATOM     70  S   UNL     1      -0.524  13.672   6.945  1.00  0.00     0.127 S 
ATOM     71  O   UNL     1       0.464  13.579   5.873  1.00  0.00    -0.237 OA
ATOM     72  O   UNL     1      -1.404  14.836   6.867  1.00  0.00    -0.237 OA
ATOM     73  O   UNL     1      -0.023  13.377   8.284  1.00  0.00    -0.744 OA
ENDBRANCH  67  70
ENDBRANCH  49  63
BRANCH  50  74
ATOM     74  C   UNL     1      -3.326   1.853  12.381  1.00  0.00     0.023 A 
ATOM     75  C   UNL     1      -4.582   1.347  12.771  1.00  0.00     0.012 A 
ATOM     76  C   UNL     1      -2.160   1.166  12.767  1.00  0.00     0.148 A 
ATOM     77  C   UNL     1      -4.673   0.202  13.562  1.00  0.00     0.002 A 
ATOM     78  C   UNL     1      -2.260  -0.008  13.504  1.00  0.00     0.091 A 
ATOM     79  F   UNL     1      -0.974   1.669  12.394  1.00  0.00    -0.205 F 
ATOM     80  C   UNL     1      -3.514  -0.481  13.920  1.00  0.00     0.022 A 
BRANCH  78  81
ATOM     81  S   UNL     1      -0.832  -1.025  13.892  1.00  0.00     0.127 S 
ATOM     82  O   UNL     1      -0.698  -0.818  15.330  1.00  0.00    -0.237 OA
ATOM     83  O   UNL     1      -1.293  -2.356  13.498  1.00  0.00    -0.237 OA
ATOM     84  O   UNL     1       0.256  -0.502  13.073  1.00  0.00    -0.744 OA
ENDBRANCH  78  81
ENDBRANCH  50  74
BRANCH  62  85
ATOM     85  C   UNL     1      -5.136   8.489  13.529  1.00  0.00     0.023 A 
ATOM     86  C   UNL     1      -4.404   8.654  14.723  1.00  0.00     0.012 A 
ATOM     87  C   UNL     1      -6.445   9.005  13.448  1.00  0.00     0.148 A 
ATOM     88  C   UNL     1      -4.982   9.272  15.832  1.00  0.00     0.002 A 
ATOM     89  C   UNL     1      -6.995   9.667  14.539  1.00  0.00     0.091 A 
ATOM     90  F   UNL     1      -7.137   8.824  12.314  1.00  0.00    -0.205 F 
ATOM     91  C   UNL     1      -6.273   9.787  15.737  1.00  0.00     0.022 A 
BRANCH  89  92
ATOM     92  S   UNL     1      -8.614  10.444  14.470  1.00  0.00     0.127 S 
ATOM     93  O   UNL     1      -9.438   9.483  15.198  1.00  0.00    -0.237 OA
ATOM     94  O   UNL     1      -8.385  11.708  15.173  1.00  0.00    -0.237 OA
ATOM     95  O   UNL     1      -8.921  10.594  13.053  1.00  0.00    -0.744 OA
ENDBRANCH  89  92
ENDBRANCH  62  85
ENDBRANCH  36  37
ENDBRANCH  28  31
ENDBRANCH  26  27
ENDBRANCH  25  26
ENDBRANCH   1  25
TORSDOF 18
