REMARK SMILES Cc1cc(C)cc(Oc2nc3ccccn3c(=O)c2/C=C2\SC(=S)N(CCC(=O)NCCCNC(=O)c3ccc(-c4c5nc(c(-c6cccc(S(=O)(=O)[O-])c6F)c6ccc([nH]6)c(-c6cccc(S(=O)(=O)[O-])c6F)c6nc(c(-c7cccc(S(=O)(=O)[O-])c7F)c7ccc4[nH]7)C=C6)C=C5)cc3)C2=O)c1
REMARK SMILES IDX 31 1 30 2 28 3 29 4 27 6 26 7 25 8 20 9 21 10 22 11 100 12
REMARK SMILES IDX 23 13 101 14 24 15 19 16 9 17 10 18 11 19 17 20 12 21 16 22
REMARK SMILES IDX 18 23 13 24 15 25 14 26 8 27 7 28 1 29 2 30 3 31 102 32 4 33
REMARK SMILES IDX 5 34 6 35 32 36 33 37 34 38 35 39 36 41 37 42 38 43 99 44
REMARK SMILES IDX 39 45 98 46 40 47 41 48 42 49 92 50 43 51 97 52 91 53 93 54
REMARK SMILES IDX 44 55 96 56 90 57 89 58 45 60 77 61 57 62 76 63 58 64 61 65
REMARK SMILES IDX 75 66 94 67 59 68 60 69 74 71 95 72 62 73 46 74 47 75 55 76
REMARK SMILES IDX 48 77 50 78 56 79 49 80 51 81 52 82 53 83 54 84 78 85 79 86
REMARK SMILES IDX 87 87 80 88 82 89 88 90 81 91 83 92 84 93 85 94 86 95 63 96
REMARK SMILES IDX 64 97 72 98 65 99 67 100 73 101 66 102 68 103 69 104 70 105
REMARK SMILES IDX 71 106
REMARK H PARENT 30 5 34 40 93 59 61 70
REMARK Flexibility Score: inf
ROOT
ATOM      1  C   UNL     1       0.099   0.045   3.084  1.00  0.00     0.117 C 
ENDROOT
BRANCH   1   2
ATOM      2  N   UNL     1       0.173   0.614   4.422  1.00  0.00    -0.356 N 
ATOM      3  C   UNL     1       1.140   1.358   5.029  1.00  0.00     0.221 C 
ATOM      4  O   UNL     1       0.986   1.643   6.219  1.00  0.00    -0.275 OA
ATOM      5  H   UNL     1      -0.612   0.428   4.986  1.00  0.00     0.163 HD
BRANCH   3   6
ATOM      6  C   UNL     1       2.352   1.873   4.277  1.00  0.00     0.122 C 
BRANCH   6   7
ATOM      7  C   UNL     1       3.644   1.127   4.647  1.00  0.00     0.137 C 
BRANCH   7   8
ATOM      8  N   UNL     1       4.108   0.281   3.541  1.00  0.00    -0.292 N 
ATOM      9  C   UNL     1       3.253  -2.675   1.751  1.00  0.00     0.041 C 
ATOM     10  C   UNL     1       3.955  -1.614   2.176  1.00  0.00     0.081 C 
ATOM     11  S   UNL     1       4.980  -0.578   1.272  1.00  0.00    -0.054 SA
ATOM     12  C   UNL     1       3.791  -1.063   3.545  1.00  0.00     0.266 C 
ATOM     13  C   UNL     1       4.838   0.719   2.454  1.00  0.00     0.148 C 
ATOM     14  O   UNL     1       3.374  -1.700   4.503  1.00  0.00    -0.268 OA
ATOM     15  S   UNL     1       5.461   2.244   2.184  1.00  0.00    -0.052 S 
BRANCH   9  16
ATOM     16  C   UNL     1       3.295  -3.296   0.436  1.00  0.00     0.104 A 
ATOM     17  C   UNL     1       2.309  -3.311  -0.490  1.00  0.00     0.234 A 
ATOM     18  N   UNL     1       2.323  -4.136  -1.589  1.00  0.00    -0.194 NA
ATOM     19  C   UNL     1       3.312  -4.959  -1.731  1.00  0.00     0.143 A 
ATOM     20  C   UNL     1       4.508  -4.113   0.151  1.00  0.00     0.269 A 
ATOM     21  C   UNL     1       3.245  -5.991  -2.805  1.00  0.00     0.048 A 
ATOM     22  N   UNL     1       4.434  -4.968  -0.928  1.00  0.00    -0.267 N 
ATOM     23  O   UNL     1       5.475  -4.040   0.910  1.00  0.00    -0.268 OA
ATOM     24  C   UNL     1       4.249  -6.866  -2.950  1.00  0.00     0.005 A 
ATOM     25  C   UNL     1       5.484  -5.844  -1.166  1.00  0.00     0.096 A 
ATOM     26  C   UNL     1       5.419  -6.777  -2.120  1.00  0.00     0.019 A 
BRANCH  17  27
ATOM     27  O   UNL     1       1.067  -2.718  -0.269  1.00  0.00    -0.438 OA
BRANCH  27  28
ATOM     28  C   UNL     1       0.835  -1.380  -0.499  1.00  0.00     0.130 A 
ATOM     29  C   UNL     1       2.568   1.992  -0.561  1.00  0.00     0.044 C 
ATOM     30  C   UNL     1       1.493   0.947  -0.585  1.00  0.00    -0.047 A 
ATOM     31  C   UNL     1       0.151   1.331  -0.470  1.00  0.00     0.007 A 
ATOM     32  C   UNL     1       1.824  -0.414  -0.638  1.00  0.00     0.050 A 
ATOM     33  C   UNL     1      -0.865   0.372  -0.410  1.00  0.00    -0.047 A 
ATOM     34  C   UNL     1      -2.292   0.809  -0.257  1.00  0.00     0.044 C 
ATOM     35  C   UNL     1      -0.511  -0.984  -0.428  1.00  0.00     0.050 A 
ENDBRANCH  27  28
ENDBRANCH  17  27
ENDBRANCH   9  16
ENDBRANCH   7   8
ENDBRANCH   6   7
ENDBRANCH   3   6
ENDBRANCH   1   2
BRANCH   1  36
ATOM     36  C   UNL     1       0.485  -1.430   3.075  1.00  0.00     0.042 C 
BRANCH  36  37
ATOM     37  C   UNL     1      -0.561  -2.467   3.462  1.00  0.00     0.118 C 
BRANCH  37  38
ATOM     38  N   UNL     1      -1.211  -3.089   2.317  1.00  0.00    -0.352 N 
ATOM     39  C   UNL     1      -0.989  -4.219   1.561  1.00  0.00     0.251 C 
ATOM     40  H   UNL     1      -1.996  -2.581   2.009  1.00  0.00     0.163 HD
ATOM     41  O   UNL     1      -1.737  -4.368   0.589  1.00  0.00    -0.269 OA
BRANCH  39  42
ATOM     42  C   UNL     1       0.068  -5.253   1.803  1.00  0.00     0.039 A 
ATOM     43  C   UNL     1       0.521  -5.984   0.686  1.00  0.00     0.014 A 
ATOM     44  C   UNL     1       0.535  -5.640   3.059  1.00  0.00     0.014 A 
ATOM     45  C   UNL     1       1.417  -7.060   0.815  1.00  0.00     0.010 A 
ATOM     46  C   UNL     1       1.449  -6.705   3.192  1.00  0.00     0.010 A 
ATOM     47  C   UNL     1       1.877  -7.444   2.078  1.00  0.00    -0.014 A 
BRANCH  47  48
ATOM     48  C   UNL     1       2.676  -8.693   2.260  1.00  0.00     0.031 A 
ATOM     49  C   UNL     1       1.984  -9.942   2.735  1.00  0.00     0.074 A 
ATOM     50  C   UNL     1       4.009  -8.718   2.063  1.00  0.00     0.049 A 
ATOM     51  N   UNL     1       2.495 -11.111   3.021  1.00  0.00    -0.248 NA
ATOM     52  C   UNL     1       0.531  -9.852   2.946  1.00  0.00     0.031 C 
ATOM     53  C   UNL     1       4.806  -7.564   1.679  1.00  0.00     0.029 A 
ATOM     54  N   UNL     1       4.933  -9.732   2.185  1.00  0.00    -0.354 N 
ATOM     55  C   UNL     1       1.445 -11.873   3.517  1.00  0.00     0.074 A 
ATOM     56  C   UNL     1       0.260 -11.044   3.461  1.00  0.00     0.031 C 
ATOM     57  C   UNL     1       6.095  -7.929   1.573  1.00  0.00     0.029 A 
ATOM     58  C   UNL     1       6.229  -9.337   1.927  1.00  0.00     0.049 A 
ATOM     59  H   UNL     1       4.691 -10.653   2.433  1.00  0.00     0.167 HD
ATOM     60  C   UNL     1       1.468 -13.139   3.994  1.00  0.00     0.034 A 
ATOM     61  C   UNL     1       7.394 -10.018   1.997  1.00  0.00     0.034 A 
ATOM     62  C   UNL     1       2.640 -13.973   4.032  1.00  0.00     0.049 A 
ATOM     63  C   UNL     1       7.372 -11.450   2.471  1.00  0.00     0.074 A 
ATOM     64  C   UNL     1       2.738 -15.293   4.437  1.00  0.00     0.029 A 
ATOM     65  N   UNL     1       3.916 -13.566   3.680  1.00  0.00    -0.354 N 
ATOM     66  N   UNL     1       6.345 -12.195   2.801  1.00  0.00    -0.248 NA
ATOM     67  C   UNL     1       8.668 -12.139   2.583  1.00  0.00     0.031 C 
ATOM     68  C   UNL     1       4.082 -15.672   4.368  1.00  0.00     0.029 A 
ATOM     69  C   UNL     1       4.812 -14.604   3.875  1.00  0.00     0.049 A 
ATOM     70  H   UNL     1       4.151 -12.672   3.341  1.00  0.00     0.167 HD
ATOM     71  C   UNL     1       6.868 -13.437   3.143  1.00  0.00     0.074 A 
ATOM     72  C   UNL     1       8.299 -13.361   2.937  1.00  0.00     0.031 C 
ATOM     73  C   UNL     1       6.226 -14.533   3.614  1.00  0.00     0.034 A 
BRANCH  60  74
ATOM     74  C   UNL     1       0.186 -13.708   4.538  1.00  0.00     0.023 A 
ATOM     75  C   UNL     1      -0.848 -14.092   3.663  1.00  0.00     0.012 A 
ATOM     76  C   UNL     1       0.043 -13.929   5.923  1.00  0.00     0.148 A 
ATOM     77  C   UNL     1      -2.018 -14.666   4.160  1.00  0.00     0.002 A 
ATOM     78  C   UNL     1      -1.105 -14.544   6.406  1.00  0.00     0.091 A 
ATOM     79  F   UNL     1       1.033 -13.537   6.738  1.00  0.00    -0.205 F 
ATOM     80  C   UNL     1      -2.141 -14.902   5.528  1.00  0.00     0.022 A 
BRANCH  78  81
ATOM     81  S   UNL     1      -1.325 -14.964   8.137  1.00  0.00     0.127 S 
ATOM     82  O   UNL     1      -2.450 -14.106   8.508  1.00  0.00    -0.237 OA
ATOM     83  O   UNL     1      -1.644 -16.390   8.065  1.00  0.00    -0.237 OA
ATOM     84  O   UNL     1      -0.065 -14.651   8.795  1.00  0.00    -0.744 OA
ENDBRANCH  78  81
ENDBRANCH  60  74
BRANCH  61  85
ATOM     85  C   UNL     1       8.691  -9.382   1.604  1.00  0.00     0.023 A 
ATOM     86  C   UNL     1       9.415  -9.901   0.510  1.00  0.00     0.012 A 
ATOM     87  C   UNL     1       9.233  -8.295   2.317  1.00  0.00     0.148 A 
ATOM     88  C   UNL     1      10.666  -9.384   0.165  1.00  0.00     0.002 A 
ATOM     89  C   UNL     1      10.446  -7.738   1.924  1.00  0.00     0.091 A 
ATOM     90  F   UNL     1       8.557  -7.829   3.377  1.00  0.00    -0.205 F 
ATOM     91  C   UNL     1      11.175  -8.295   0.864  1.00  0.00     0.022 A 
BRANCH  89  92
ATOM     92  S   UNL     1      11.102  -6.244   2.676  1.00  0.00     0.127 S 
ATOM     93  O   UNL     1      12.181  -6.775   3.504  1.00  0.00    -0.237 OA
ATOM     94  O   UNL     1      11.541  -5.483   1.505  1.00  0.00    -0.237 OA
ATOM     95  O   UNL     1       9.982  -5.648   3.391  1.00  0.00    -0.744 OA
ENDBRANCH  89  92
ENDBRANCH  61  85
BRANCH  73  96
ATOM     96  C   UNL     1       7.051 -15.761   3.900  1.00  0.00     0.023 A 
ATOM     97  C   UNL     1       7.919 -15.789   5.010  1.00  0.00     0.012 A 
ATOM     98  C   UNL     1       6.906 -16.916   3.107  1.00  0.00     0.148 A 
ATOM     99  C   UNL     1       8.655 -16.936   5.305  1.00  0.00     0.002 A 
ATOM    100  C   UNL     1       7.601 -18.072   3.438  1.00  0.00     0.091 A 
ATOM    101  F   UNL     1       6.089 -16.864   2.045  1.00  0.00    -0.205 F 
ATOM    102  C   UNL     1       8.487 -18.080   4.528  1.00  0.00     0.022 A 
BRANCH 100 103
ATOM    103  S   UNL     1       7.372 -19.619   2.556  1.00  0.00     0.127 S 
ATOM    104  O   UNL     1       8.645 -19.752   1.850  1.00  0.00    -0.237 OA
ATOM    105  O   UNL     1       7.178 -20.573   3.649  1.00  0.00    -0.237 OA
ATOM    106  O   UNL     1       6.205 -19.429   1.705  1.00  0.00    -0.744 OA
ENDBRANCH 100 103
ENDBRANCH  73  96
ENDBRANCH  47  48
ENDBRANCH  39  42
ENDBRANCH  37  38
ENDBRANCH  36  37
ENDBRANCH   1  36
TORSDOF 18
