REMARK SMILES O=C(NCCCNC(=O)[C@@]1([NH2+]C2CC2)CC[C@H](SC2CCCC2)C1)c1ccc(-c2c3nc(c(-c4cccc(S(=O)(=O)[O-])c4F)c4ccc([nH]4)c(-c4cccc(S(=O)(=O)[O-])c4F)c4nc(c(-c5cccc(S(=O)(=O)[O-])c5F)c5ccc2[nH]5)C=C4)C=C3)cc1
REMARK SMILES IDX 4 1 3 2 1 3 2 4 25 6 26 7 87 8 27 9 86 10 28 11 29 12 30 13
REMARK SMILES IDX 80 14 31 15 85 16 79 17 81 18 32 19 84 20 78 21 77 22 33 24
REMARK SMILES IDX 65 25 45 26 64 27 46 28 49 29 63 30 82 31 47 32 48 33 62 35
REMARK SMILES IDX 83 36 50 37 34 38 35 39 43 40 36 41 38 42 44 43 37 44 39 45
REMARK SMILES IDX 40 46 41 47 42 48 66 49 67 50 75 51 68 52 70 53 76 54 69 55
REMARK SMILES IDX 71 56 72 57 73 58 74 59 51 60 52 61 60 62 53 63 55 64 61 65
REMARK SMILES IDX 54 66 56 67 57 68 58 69 59 70 5 71 6 72 7 73 8 74 9 76 10 77
REMARK SMILES IDX 15 78 24 79 16 80 17 81 11 82 12 85 13 86 14 87 18 88 19 89
REMARK SMILES IDX 20 90 23 91 21 92 22 93
REMARK H PARENT 3 5 81 23 49 34 7 75 11 83 11 84
REMARK Flexibility Score: inf
ROOT
ATOM      1  C   UNL     1       4.731  -0.301  -1.595  1.00  0.00     0.118 C 
ENDROOT
BRANCH   1   2
ATOM      2  N   UNL     1       3.322  -0.377  -1.232  1.00  0.00    -0.352 N 
ATOM      3  O   UNL     1       1.396  -0.133  -0.118  1.00  0.00    -0.269 OA
ATOM      4  C   UNL     1       2.584   0.160  -0.199  1.00  0.00     0.251 C 
ATOM      5  H   UNL     1       2.787  -0.922  -1.853  1.00  0.00     0.163 HD
BRANCH   4   6
ATOM      6  C   UNL     1       3.202   1.014   0.848  1.00  0.00     0.039 A 
ATOM      7  C   UNL     1       4.245   1.885   0.571  1.00  0.00     0.014 A 
ATOM      8  C   UNL     1       2.712   0.949   2.159  1.00  0.00     0.014 A 
ATOM      9  C   UNL     1       4.964   2.468   1.606  1.00  0.00     0.010 A 
ATOM     10  C   UNL     1       3.340   1.669   3.186  1.00  0.00     0.010 A 
ATOM     11  C   UNL     1       4.520   2.380   2.934  1.00  0.00    -0.014 A 
BRANCH  11  12
ATOM     12  C   UNL     1       5.312   3.061   4.000  1.00  0.00     0.031 A 
ATOM     13  C   UNL     1       5.863   2.298   5.179  1.00  0.00     0.074 A 
ATOM     14  C   UNL     1       5.600   4.373   3.864  1.00  0.00     0.049 A 
ATOM     15  N   UNL     1       6.646   2.725   6.139  1.00  0.00    -0.248 NA
ATOM     16  C   UNL     1       5.479   0.884   5.318  1.00  0.00     0.031 C 
ATOM     17  C   UNL     1       5.087   5.241   2.799  1.00  0.00     0.029 A 
ATOM     18  N   UNL     1       6.421   5.200   4.590  1.00  0.00    -0.354 N 
ATOM     19  C   UNL     1       6.791   1.662   7.022  1.00  0.00     0.074 A 
ATOM     20  C   UNL     1       6.016   0.564   6.487  1.00  0.00     0.031 C 
ATOM     21  C   UNL     1       5.672   6.443   2.886  1.00  0.00     0.029 A 
ATOM     22  C   UNL     1       6.542   6.463   4.055  1.00  0.00     0.049 A 
ATOM     23  H   UNL     1       6.879   4.917   5.414  1.00  0.00     0.167 HD
ATOM     24  C   UNL     1       7.515   1.596   8.165  1.00  0.00     0.034 A 
ATOM     25  C   UNL     1       7.271   7.523   4.454  1.00  0.00     0.034 A 
ATOM     26  C   UNL     1       8.350   2.660   8.656  1.00  0.00     0.049 A 
ATOM     27  C   UNL     1       8.131   7.393   5.677  1.00  0.00     0.074 A 
ATOM     28  C   UNL     1       9.175   2.663   9.767  1.00  0.00     0.029 A 
ATOM     29  N   UNL     1       8.477   3.906   8.062  1.00  0.00    -0.354 N 
ATOM     30  N   UNL     1       8.334   6.342   6.433  1.00  0.00    -0.248 NA
ATOM     31  C   UNL     1       8.876   8.589   6.093  1.00  0.00     0.031 C 
ATOM     32  C   UNL     1       9.795   3.915   9.850  1.00  0.00     0.029 A 
ATOM     33  C   UNL     1       9.366   4.687   8.783  1.00  0.00     0.049 A 
ATOM     34  H   UNL     1       8.005   4.194   7.248  1.00  0.00     0.167 HD
ATOM     35  C   UNL     1       9.241   6.743   7.405  1.00  0.00     0.074 A 
ATOM     36  C   UNL     1       9.576   8.124   7.119  1.00  0.00     0.031 C 
ATOM     37  C   UNL     1       9.731   6.040   8.454  1.00  0.00     0.034 A 
BRANCH  24  38
ATOM     38  C   UNL     1       7.472   0.313   8.955  1.00  0.00     0.023 A 
ATOM     39  C   UNL     1       8.175  -0.818   8.492  1.00  0.00     0.012 A 
ATOM     40  C   UNL     1       6.795   0.246  10.189  1.00  0.00     0.148 A 
ATOM     41  C   UNL     1       8.182  -2.001   9.230  1.00  0.00     0.002 A 
ATOM     42  C   UNL     1       6.839  -0.925  10.938  1.00  0.00     0.091 A 
ATOM     43  F   UNL     1       6.111   1.323  10.603  1.00  0.00    -0.205 F 
ATOM     44  C   UNL     1       7.524  -2.051  10.457  1.00  0.00     0.022 A 
BRANCH  42  45
ATOM     45  S   UNL     1       6.086  -1.056  12.565  1.00  0.00     0.127 S 
ATOM     46  O   UNL     1       4.886  -1.838  12.274  1.00  0.00    -0.237 OA
ATOM     47  O   UNL     1       7.111  -1.773  13.326  1.00  0.00    -0.237 OA
ATOM     48  O   UNL     1       5.856   0.312  13.008  1.00  0.00    -0.744 OA
ENDBRANCH  42  45
ENDBRANCH  24  38
BRANCH  25  49
ATOM     49  C   UNL     1       7.258   8.777   3.647  1.00  0.00     0.023 A 
ATOM     50  C   UNL     1       8.417   9.162   2.946  1.00  0.00     0.012 A 
ATOM     51  C   UNL     1       6.091   9.555   3.519  1.00  0.00     0.148 A 
ATOM     52  C   UNL     1       8.419  10.307   2.148  1.00  0.00     0.002 A 
ATOM     53  C   UNL     1       6.080  10.655   2.671  1.00  0.00     0.091 A 
ATOM     54  F   UNL     1       5.003   9.189   4.213  1.00  0.00    -0.205 F 
ATOM     55  C   UNL     1       7.247  11.044   1.997  1.00  0.00     0.022 A 
BRANCH  53  56
ATOM     56  S   UNL     1       4.566  11.550   2.301  1.00  0.00     0.127 S 
ATOM     57  O   UNL     1       4.710  12.740   3.134  1.00  0.00    -0.237 OA
ATOM     58  O   UNL     1       4.691  11.785   0.861  1.00  0.00    -0.237 OA
ATOM     59  O   UNL     1       3.487  10.640   2.661  1.00  0.00    -0.744 OA
ENDBRANCH  53  56
ENDBRANCH  25  49
BRANCH  37  60
ATOM     60  C   UNL     1      10.701   6.745   9.363  1.00  0.00     0.023 A 
ATOM     61  C   UNL     1      10.227   7.721  10.262  1.00  0.00     0.012 A 
ATOM     62  C   UNL     1      12.066   6.404   9.367  1.00  0.00     0.148 A 
ATOM     63  C   UNL     1      11.105   8.371  11.128  1.00  0.00     0.002 A 
ATOM     64  C   UNL     1      12.928   7.025  10.263  1.00  0.00     0.091 A 
ATOM     65  F   UNL     1      12.503   5.490   8.487  1.00  0.00    -0.205 F 
ATOM     66  C   UNL     1      12.452   8.016  11.137  1.00  0.00     0.022 A 
BRANCH  64  67
ATOM     67  S   UNL     1      14.658   6.559  10.394  1.00  0.00     0.127 S 
ATOM     68  O   UNL     1      15.311   7.610   9.618  1.00  0.00    -0.237 OA
ATOM     69  O   UNL     1      14.896   6.628  11.837  1.00  0.00    -0.237 OA
ATOM     70  O   UNL     1      14.745   5.214   9.838  1.00  0.00    -0.744 OA
ENDBRANCH  64  67
ENDBRANCH  37  60
ENDBRANCH  11  12
ENDBRANCH   4   6
ENDBRANCH   1   2
BRANCH   1  71
ATOM     71  C   UNL     1       5.618  -1.353  -0.936  1.00  0.00     0.042 C 
BRANCH  71  72
ATOM     72  C   UNL     1       5.433  -2.753  -1.506  1.00  0.00     0.118 C 
BRANCH  72  73
ATOM     73  N   UNL     1       5.666  -2.838  -2.937  1.00  0.00    -0.351 N 
ATOM     74  C   UNL     1       5.654  -3.930  -3.751  1.00  0.00     0.281 C 
ATOM     75  H   UNL     1       5.861  -1.983  -3.384  1.00  0.00     0.163 HD
ATOM     76  O   UNL     1       5.538  -3.689  -4.961  1.00  0.00    -0.268 OA
BRANCH  74  77
ATOM     77  C   UNL     1       5.931  -5.369  -3.257  1.00  0.00     0.176 C 
ATOM     78  C   UNL     1       5.502  -6.426  -4.292  1.00  0.00     0.080 C 
ATOM     79  C   UNL     1       7.466  -5.599  -3.326  1.00  0.00     0.093 C 
ATOM     80  C   UNL     1       6.310  -7.663  -3.922  1.00  0.00     0.022 C 
ATOM     81  C   UNL     1       7.660  -7.132  -3.422  1.00  0.00     0.054 C 
BRANCH  77  82
ATOM     82  N   UNL     1       5.495  -5.669  -1.883  1.00  0.00    -0.331 N 
ATOM     83  H   UNL     1       6.004  -5.018  -1.285  1.00  0.00     0.347 HD
ATOM     84  H   UNL     1       5.672  -6.673  -1.841  1.00  0.00     0.347 HD
BRANCH  82  85
ATOM     85  C   UNL     1       4.115  -5.617  -1.431  1.00  0.00     0.183 C 
ATOM     86  C   UNL     1       2.930  -5.317  -2.294  1.00  0.00     0.071 C 
ATOM     87  C   UNL     1       3.143  -6.708  -1.763  1.00  0.00     0.071 C 
ENDBRANCH  82  85
ENDBRANCH  77  82
BRANCH  81  88
ATOM     88  S   UNL     1       8.159  -7.760  -1.770  1.00  0.00    -0.155 SA
BRANCH  88  89
ATOM     89  C   UNL     1       8.305  -9.565  -1.963  1.00  0.00     0.047 C 
ATOM     90  C   UNL     1       7.006 -10.326  -1.728  1.00  0.00     0.014 C 
ATOM     91  C   UNL     1       8.823 -10.136  -3.276  1.00  0.00     0.014 C 
ATOM     92  C   UNL     1       7.375 -11.751  -2.117  1.00  0.00     0.001 C 
ATOM     93  C   UNL     1       8.421 -11.615  -3.225  1.00  0.00     0.001 C 
ENDBRANCH  88  89
ENDBRANCH  81  88
ENDBRANCH  74  77
ENDBRANCH  72  73
ENDBRANCH  71  72
ENDBRANCH   1  71
TORSDOF 17
