REMARK SMILES Cc1ccc(Oc2cc(C(=O)NCCCNC(=O)c3ccc(-c4c5nc(c(-c6cccc(S(=O)(=O)[O-])c6F)c6ccc([nH]6)c(-c6cccc(S(=O)(=O)[O-])c6F)c6nc(c(-c7cccc(S(=O)(=O)[O-])c7F)c7ccc4[nH]7)C=C6)C=C5)cc3)nc3ccccc23)cc1
REMARK SMILES IDX 14 1 13 2 12 3 10 4 11 5 9 7 7 8 8 9 88 10 83 11 87 12 82 13
REMARK SMILES IDX 84 14 86 15 85 16 6 17 5 18 1 19 2 20 3 21 90 22 4 23 89 24
REMARK SMILES IDX 15 25 16 26 17 27 18 29 19 30 20 31 81 32 21 33 80 34 22 35
REMARK SMILES IDX 23 36 24 37 74 38 25 39 79 40 73 41 75 42 26 43 78 44 72 45
REMARK SMILES IDX 71 46 27 48 59 49 39 50 58 51 40 52 43 53 57 54 76 55 41 56
REMARK SMILES IDX 42 57 56 59 77 60 44 61 28 62 29 63 37 64 30 65 32 66 38 67
REMARK SMILES IDX 31 68 33 69 34 70 35 71 36 72 60 73 61 74 69 75 62 76 64 77
REMARK SMILES IDX 70 78 63 79 65 80 66 81 67 82 68 83 45 84 46 85 54 86 47 87
REMARK SMILES IDX 49 88 55 89 48 90 50 91 51 92 52 93 53 94
REMARK H PARENT 12 6 16 28 75 47 43 58
REMARK Flexibility Score: inf
ROOT
ATOM      1  C   UNL     1      -7.184   5.611  -0.011  1.00  0.00     0.042 C 
ENDROOT
BRANCH   1   2
ATOM      2  C   UNL     1      -6.364   5.536   1.275  1.00  0.00     0.118 C 
BRANCH   2   3
ATOM      3  N   UNL     1      -6.657   4.343   2.059  1.00  0.00    -0.351 N 
ATOM      4  C   UNL     1      -6.162   3.061   1.922  1.00  0.00     0.270 C 
ATOM      5  O   UNL     1      -6.458   2.218   2.770  1.00  0.00    -0.268 OA
ATOM      6  H   UNL     1      -7.302   4.469   2.792  1.00  0.00     0.163 HD
BRANCH   4   7
ATOM      7  C   UNL     1      -5.263   2.667   0.785  1.00  0.00     0.132 A 
ATOM      8  C   UNL     1      -3.754   1.137  -0.217  1.00  0.00     0.139 A 
ATOM      9  C   UNL     1      -4.602   1.456   0.839  1.00  0.00     0.082 A 
ATOM     10  C   UNL     1      -3.640   1.980  -1.347  1.00  0.00     0.043 A 
ATOM     11  C   UNL     1      -4.358   3.186  -1.294  1.00  0.00     0.075 A 
ATOM     12  C   UNL     1      -2.847   1.711  -2.490  1.00  0.00     0.014 A 
ATOM     13  N   UNL     1      -5.133   3.521  -0.258  1.00  0.00    -0.242 NA
ATOM     14  C   UNL     1      -4.250   4.086  -2.345  1.00  0.00     0.029 A 
ATOM     15  C   UNL     1      -2.738   2.637  -3.526  1.00  0.00     0.001 A 
ATOM     16  C   UNL     1      -3.441   3.831  -3.452  1.00  0.00     0.002 A 
BRANCH   8  17
ATOM     17  O   UNL     1      -3.058  -0.046  -0.097  1.00  0.00    -0.457 OA
BRANCH  17  18
ATOM     18  C   UNL     1      -1.686   0.019   0.043  1.00  0.00     0.127 A 
ATOM     19  C   UNL     1       2.619  -0.110   0.083  1.00  0.00     0.044 C 
ATOM     20  C   UNL     1       1.121  -0.064   0.100  1.00  0.00    -0.051 A 
ATOM     21  C   UNL     1       0.379  -1.239  -0.074  1.00  0.00     0.007 A 
ATOM     22  C   UNL     1       0.444   1.143   0.303  1.00  0.00     0.007 A 
ATOM     23  C   UNL     1      -1.016  -1.196  -0.106  1.00  0.00     0.047 A 
ATOM     24  C   UNL     1      -0.952   1.183   0.290  1.00  0.00     0.047 A 
ENDBRANCH  17  18
ENDBRANCH   8  17
ENDBRANCH   4   7
ENDBRANCH   2   3
ENDBRANCH   1   2
BRANCH   1  25
ATOM     25  C   UNL     1      -8.570   6.190   0.212  1.00  0.00     0.118 C 
BRANCH  25  26
ATOM     26  N   UNL     1      -8.658   7.618  -0.060  1.00  0.00    -0.352 N 
ATOM     27  C   UNL     1      -9.722   8.481   0.115  1.00  0.00     0.251 C 
ATOM     28  H   UNL     1      -7.839   8.028  -0.422  1.00  0.00     0.163 HD
ATOM     29  O   UNL     1      -9.630   9.627  -0.325  1.00  0.00    -0.269 OA
BRANCH  27  30
ATOM     30  C   UNL     1     -10.894   8.063   0.921  1.00  0.00     0.039 A 
ATOM     31  C   UNL     1     -11.392   8.956   1.881  1.00  0.00     0.014 A 
ATOM     32  C   UNL     1     -11.367   6.755   0.877  1.00  0.00     0.014 A 
ATOM     33  C   UNL     1     -12.160   8.475   2.939  1.00  0.00     0.010 A 
ATOM     34  C   UNL     1     -12.051   6.258   1.964  1.00  0.00     0.010 A 
ATOM     35  C   UNL     1     -12.381   7.105   3.027  1.00  0.00    -0.014 A 
BRANCH  35  36
ATOM     36  C   UNL     1     -12.870   6.414   4.208  1.00  0.00     0.031 A 
ATOM     37  C   UNL     1     -14.283   6.014   4.310  1.00  0.00     0.074 A 
ATOM     38  C   UNL     1     -11.948   5.928   5.068  1.00  0.00     0.049 A 
ATOM     39  N   UNL     1     -14.830   5.535   5.373  1.00  0.00    -0.248 NA
ATOM     40  C   UNL     1     -15.213   6.186   3.202  1.00  0.00     0.031 C 
ATOM     41  C   UNL     1     -12.103   4.835   6.018  1.00  0.00     0.029 A 
ATOM     42  N   UNL     1     -10.718   6.505   5.404  1.00  0.00    -0.354 N 
ATOM     43  C   UNL     1     -16.070   5.052   5.013  1.00  0.00     0.074 A 
ATOM     44  C   UNL     1     -16.308   5.607   3.704  1.00  0.00     0.031 C 
ATOM     45  C   UNL     1     -11.186   4.979   6.987  1.00  0.00     0.029 A 
ATOM     46  C   UNL     1     -10.556   6.272   6.780  1.00  0.00     0.049 A 
ATOM     47  H   UNL     1     -10.097   6.975   4.802  1.00  0.00     0.167 HD
ATOM     48  C   UNL     1     -16.660   4.113   5.807  1.00  0.00     0.034 A 
ATOM     49  C   UNL     1     -10.483   7.272   7.708  1.00  0.00     0.034 A 
ATOM     50  C   UNL     1     -15.938   3.991   7.086  1.00  0.00     0.049 A 
ATOM     51  C   UNL     1     -11.547   7.165   8.787  1.00  0.00     0.074 A 
ATOM     52  C   UNL     1     -15.025   3.074   7.580  1.00  0.00     0.029 A 
ATOM     53  N   UNL     1     -15.917   5.073   7.960  1.00  0.00    -0.354 N 
ATOM     54  N   UNL     1     -12.551   6.333   8.745  1.00  0.00    -0.248 NA
ATOM     55  C   UNL     1     -11.580   8.002   9.984  1.00  0.00     0.031 C 
ATOM     56  C   UNL     1     -14.366   3.669   8.692  1.00  0.00     0.029 A 
ATOM     57  C   UNL     1     -14.907   4.928   8.898  1.00  0.00     0.049 A 
ATOM     58  H   UNL     1     -16.535   5.838   7.919  1.00  0.00     0.167 HD
ATOM     59  C   UNL     1     -13.410   6.583   9.781  1.00  0.00     0.074 A 
ATOM     60  C   UNL     1     -12.716   7.585  10.573  1.00  0.00     0.031 C 
ATOM     61  C   UNL     1     -14.643   5.993   9.861  1.00  0.00     0.034 A 
BRANCH  48  62
ATOM     62  C   UNL     1     -17.713   3.098   5.364  1.00  0.00     0.023 A 
ATOM     63  C   UNL     1     -17.975   2.018   6.241  1.00  0.00     0.012 A 
ATOM     64  C   UNL     1     -18.392   3.043   4.121  1.00  0.00     0.148 A 
ATOM     65  C   UNL     1     -18.785   0.930   5.886  1.00  0.00     0.002 A 
ATOM     66  C   UNL     1     -19.192   1.955   3.758  1.00  0.00     0.091 A 
ATOM     67  F   UNL     1     -18.297   4.048   3.258  1.00  0.00    -0.205 F 
ATOM     68  C   UNL     1     -19.382   0.888   4.636  1.00  0.00     0.022 A 
BRANCH  66  69
ATOM     69  S   UNL     1     -19.987   1.832   2.141  1.00  0.00     0.127 S 
ATOM     70  O   UNL     1     -19.425   0.587   1.617  1.00  0.00    -0.237 OA
ATOM     71  O   UNL     1     -21.403   1.760   2.495  1.00  0.00    -0.237 OA
ATOM     72  O   UNL     1     -19.602   3.025   1.395  1.00  0.00    -0.744 OA
ENDBRANCH  66  69
ENDBRANCH  48  62
BRANCH  49  73
ATOM     73  C   UNL     1      -9.912   8.544   7.172  1.00  0.00     0.023 A 
ATOM     74  C   UNL     1      -8.575   8.492   6.707  1.00  0.00     0.012 A 
ATOM     75  C   UNL     1     -10.733   9.607   6.753  1.00  0.00     0.148 A 
ATOM     76  C   UNL     1      -8.113   9.389   5.743  1.00  0.00     0.002 A 
ATOM     77  C   UNL     1     -10.260  10.505   5.795  1.00  0.00     0.091 A 
ATOM     78  F   UNL     1     -11.983   9.678   7.229  1.00  0.00    -0.205 F 
ATOM     79  C   UNL     1      -8.967  10.374   5.262  1.00  0.00     0.022 A 
BRANCH  77  80
ATOM     80  S   UNL     1     -11.318  11.781   5.094  1.00  0.00     0.127 S 
ATOM     81  O   UNL     1     -10.971  12.934   5.919  1.00  0.00    -0.237 OA
ATOM     82  O   UNL     1     -10.851  11.851   3.709  1.00  0.00    -0.237 OA
ATOM     83  O   UNL     1     -12.670  11.263   5.239  1.00  0.00    -0.744 OA
ENDBRANCH  77  80
ENDBRANCH  49  73
BRANCH  61  84
ATOM     84  C   UNL     1     -15.733   6.388  10.836  1.00  0.00     0.023 A 
ATOM     85  C   UNL     1     -15.826   7.688  11.370  1.00  0.00     0.012 A 
ATOM     86  C   UNL     1     -16.805   5.502  11.120  1.00  0.00     0.148 A 
ATOM     87  C   UNL     1     -16.892   8.076  12.190  1.00  0.00     0.002 A 
ATOM     88  C   UNL     1     -17.913   5.925  11.851  1.00  0.00     0.091 A 
ATOM     89  F   UNL     1     -16.749   4.231  10.693  1.00  0.00    -0.205 F 
ATOM     90  C   UNL     1     -17.947   7.202  12.412  1.00  0.00     0.022 A 
BRANCH  88  91
ATOM     91  S   UNL     1     -19.389   4.901  11.960  1.00  0.00     0.127 S 
ATOM     92  O   UNL     1     -19.130   4.118  13.166  1.00  0.00    -0.237 OA
ATOM     93  O   UNL     1     -20.457   5.893  12.098  1.00  0.00    -0.237 OA
ATOM     94  O   UNL     1     -19.424   4.162  10.705  1.00  0.00    -0.744 OA
ENDBRANCH  88  91
ENDBRANCH  61  84
ENDBRANCH  35  36
ENDBRANCH  27  30
ENDBRANCH  25  26
ENDBRANCH   1  25
TORSDOF 15
