REMARK SMILES COc1ccc(F)c(NC(=O)N2CCCC[C@@H]2C(=O)NCCCNC(=O)c2ccc(-c3c4nc(c(-c5cccc(S(=O)(=O)[O-])c5F)c5ccc([nH]5)c(-c5cccc(S(=O)(=O)[O-])c5F)c5nc(c(-c6cccc(S(=O)(=O)[O-])c6F)c6ccc3[nH]6)C=C5)C=C4)cc2)c1
REMARK SMILES IDX 22 1 21 2 20 3 18 4 19 5 17 7 12 8 13 9 14 10 16 11 15 12
REMARK SMILES IDX 10 13 9 14 11 16 8 17 3 18 4 19 90 20 5 21 6 22 7 23 2 24
REMARK SMILES IDX 1 25 23 26 24 27 25 28 26 30 27 31 28 32 89 33 29 34 88 35
REMARK SMILES IDX 30 36 31 37 32 38 82 39 33 40 87 41 81 42 83 43 34 44 86 45
REMARK SMILES IDX 80 46 79 47 35 49 67 50 47 51 66 52 48 53 51 54 65 55 84 56
REMARK SMILES IDX 49 57 50 58 64 60 85 61 52 62 36 63 37 64 45 65 38 66 40 67
REMARK SMILES IDX 46 68 39 69 41 70 42 71 43 72 44 73 68 74 69 75 77 76 70 77
REMARK SMILES IDX 72 78 78 79 71 80 73 81 74 82 75 83 76 84 53 85 54 86 62 87
REMARK SMILES IDX 55 88 57 89 63 90 56 91 58 92 59 93 60 94 61 95
REMARK H PARENT 20 6 9 15 24 29 83 48 51 59
REMARK Flexibility Score: inf
ROOT
ATOM      1  C   UNL     1      -4.102   1.014   5.928  1.00  0.00     0.042 C 
ENDROOT
BRANCH   1   2
ATOM      2  C   UNL     1      -3.156   2.074   5.383  1.00  0.00     0.117 C 
BRANCH   2   3
ATOM      3  N   UNL     1      -1.935   1.457   4.897  1.00  0.00    -0.354 N 
ATOM      4  C   UNL     1      -1.531   1.247   3.615  1.00  0.00     0.242 C 
ATOM      5  O   UNL     1      -0.662   0.391   3.422  1.00  0.00    -0.273 OA
ATOM      6  H   UNL     1      -1.312   1.146   5.593  1.00  0.00     0.163 HD
BRANCH   4   7
ATOM      7  C   UNL     1      -2.216   1.960   2.429  1.00  0.00     0.176 C 
ATOM      8  N   UNL     1      -2.466   3.423   2.598  1.00  0.00    -0.313 N 
ATOM      9  C   UNL     1      -3.404   4.037   1.662  1.00  0.00     0.122 C 
ATOM     10  C   UNL     1      -4.685   3.245   1.471  1.00  0.00     0.022 C 
ATOM     11  C   UNL     1      -3.502   1.160   2.119  1.00  0.00     0.035 C 
ATOM     12  C   UNL     1      -4.366   1.818   1.056  1.00  0.00     0.004 C 
BRANCH   8  13
ATOM     13  C   UNL     1      -1.755   4.311   3.381  1.00  0.00     0.322 C 
ATOM     14  N   UNL     1      -0.480   4.074   3.770  1.00  0.00    -0.305 N 
ATOM     15  H   UNL     1      -0.263   4.435   4.660  1.00  0.00     0.171 HD
ATOM     16  O   UNL     1      -2.293   5.328   3.832  1.00  0.00    -0.248 OA
BRANCH  14  17
ATOM     17  C   UNL     1       0.593   3.414   3.150  1.00  0.00     0.082 A 
ATOM     18  C   UNL     1       1.577   2.202   1.320  1.00  0.00     0.121 A 
ATOM     19  C   UNL     1       2.657   1.827   2.119  1.00  0.00     0.049 A 
ATOM     20  C   UNL     1       0.598   3.068   1.803  1.00  0.00     0.075 A 
ATOM     21  C   UNL     1       2.734   2.295   3.429  1.00  0.00     0.045 A 
ATOM     22  C   UNL     1       1.700   3.076   3.937  1.00  0.00     0.147 A 
ATOM     23  F   UNL     1       1.753   3.472   5.219  1.00  0.00    -0.205 F 
BRANCH  18  24
ATOM     24  O   UNL     1       1.413   1.728   0.047  1.00  0.00    -0.497 OA
ATOM     25  C   UNL     1       1.265   0.303   0.052  1.00  0.00     0.278 C 
ENDBRANCH  18  24
ENDBRANCH  14  17
ENDBRANCH   8  13
ENDBRANCH   4   7
ENDBRANCH   2   3
ENDBRANCH   1   2
BRANCH   1  26
ATOM     26  C   UNL     1      -3.543   0.285   7.141  1.00  0.00     0.118 C 
BRANCH  26  27
ATOM     27  N   UNL     1      -3.352   1.176   8.276  1.00  0.00    -0.352 N 
ATOM     28  C   UNL     1      -3.903   1.099   9.532  1.00  0.00     0.251 C 
ATOM     29  H   UNL     1      -2.747   1.937   8.123  1.00  0.00     0.163 HD
ATOM     30  O   UNL     1      -3.815   2.045  10.304  1.00  0.00    -0.269 OA
BRANCH  28  31
ATOM     31  C   UNL     1      -4.609  -0.135   9.931  1.00  0.00     0.039 A 
ATOM     32  C   UNL     1      -5.838  -0.033  10.585  1.00  0.00     0.014 A 
ATOM     33  C   UNL     1      -4.062  -1.387   9.639  1.00  0.00     0.014 A 
ATOM     34  C   UNL     1      -6.541  -1.195  10.905  1.00  0.00     0.010 A 
ATOM     35  C   UNL     1      -4.808  -2.535   9.869  1.00  0.00     0.010 A 
ATOM     36  C   UNL     1      -6.045  -2.453  10.525  1.00  0.00    -0.014 A 
BRANCH  36  37
ATOM     37  C   UNL     1      -6.790  -3.700  10.824  1.00  0.00     0.031 A 
ATOM     38  C   UNL     1      -6.167  -4.752  11.702  1.00  0.00     0.074 A 
ATOM     39  C   UNL     1      -7.989  -3.917  10.248  1.00  0.00     0.049 A 
ATOM     40  N   UNL     1      -6.632  -5.929  12.029  1.00  0.00    -0.248 NA
ATOM     41  C   UNL     1      -4.835  -4.460  12.262  1.00  0.00     0.031 C 
ATOM     42  C   UNL     1      -8.659  -3.005   9.319  1.00  0.00     0.029 A 
ATOM     43  N   UNL     1      -8.848  -4.984  10.342  1.00  0.00    -0.354 N 
ATOM     44  C   UNL     1      -5.641  -6.528  12.797  1.00  0.00     0.074 A 
ATOM     45  C   UNL     1      -4.532  -5.605  12.856  1.00  0.00     0.031 C 
ATOM     46  C   UNL     1      -9.828  -3.543   8.940  1.00  0.00     0.029 A 
ATOM     47  C   UNL     1      -9.976  -4.854   9.567  1.00  0.00     0.049 A 
ATOM     48  H   UNL     1      -8.672  -5.768  10.911  1.00  0.00     0.167 HD
ATOM     49  C   UNL     1      -5.668  -7.725  13.426  1.00  0.00     0.034 A 
ATOM     50  C   UNL     1     -11.010  -5.697   9.374  1.00  0.00     0.034 A 
ATOM     51  C   UNL     1      -6.798  -8.611  13.412  1.00  0.00     0.049 A 
ATOM     52  C   UNL     1     -11.030  -7.006  10.116  1.00  0.00     0.074 A 
ATOM     53  C   UNL     1      -6.959  -9.800  14.100  1.00  0.00     0.029 A 
ATOM     54  N   UNL     1      -7.953  -8.412  12.674  1.00  0.00    -0.354 N 
ATOM     55  N   UNL     1     -10.151  -7.488  10.960  1.00  0.00    -0.248 NA
ATOM     56  C   UNL     1     -12.197  -7.877   9.905  1.00  0.00     0.031 C 
ATOM     57  C   UNL     1      -8.199 -10.339  13.750  1.00  0.00     0.029 A 
ATOM     58  C   UNL     1      -8.826  -9.466  12.874  1.00  0.00     0.049 A 
ATOM     59  H   UNL     1      -8.127  -7.636  12.094  1.00  0.00     0.167 HD
ATOM     60  C   UNL     1     -10.667  -8.701  11.401  1.00  0.00     0.074 A 
ATOM     61  C   UNL     1     -11.948  -8.870  10.749  1.00  0.00     0.031 C 
ATOM     62  C   UNL     1     -10.120  -9.600  12.256  1.00  0.00     0.034 A 
BRANCH  49  63
ATOM     63  C   UNL     1      -4.466  -8.129  14.239  1.00  0.00     0.023 A 
ATOM     64  C   UNL     1      -4.199  -7.475  15.458  1.00  0.00     0.012 A 
ATOM     65  C   UNL     1      -3.669  -9.224  13.850  1.00  0.00     0.148 A 
ATOM     66  C   UNL     1      -3.146  -7.891  16.271  1.00  0.00     0.002 A 
ATOM     67  C   UNL     1      -2.652  -9.664  14.689  1.00  0.00     0.091 A 
ATOM     68  F   UNL     1      -3.928  -9.818  12.677  1.00  0.00    -0.205 F 
ATOM     69  C   UNL     1      -2.383  -8.993  15.893  1.00  0.00     0.022 A 
BRANCH  67  70
ATOM     70  S   UNL     1      -1.671 -11.127  14.341  1.00  0.00     0.127 S 
ATOM     71  O   UNL     1      -0.341 -10.551  14.146  1.00  0.00    -0.237 OA
ATOM     72  O   UNL     1      -1.826 -11.898  15.574  1.00  0.00    -0.237 OA
ATOM     73  O   UNL     1      -2.260 -11.739  13.158  1.00  0.00    -0.744 OA
ENDBRANCH  67  70
ENDBRANCH  49  63
BRANCH  50  74
ATOM     74  C   UNL     1     -12.137  -5.294   8.486  1.00  0.00     0.023 A 
ATOM     75  C   UNL     1     -13.392  -4.996   9.050  1.00  0.00     0.012 A 
ATOM     76  C   UNL     1     -11.957  -5.148   7.096  1.00  0.00     0.148 A 
ATOM     77  C   UNL     1     -14.454  -4.583   8.245  1.00  0.00     0.002 A 
ATOM     78  C   UNL     1     -13.001  -4.679   6.308  1.00  0.00     0.091 A 
ATOM     79  F   UNL     1     -10.758  -5.446   6.577  1.00  0.00    -0.205 F 
ATOM     80  C   UNL     1     -14.256  -4.412   6.878  1.00  0.00     0.022 A 
BRANCH  78  81
ATOM     81  S   UNL     1     -12.798  -4.292   4.565  1.00  0.00     0.127 S 
ATOM     82  O   UNL     1     -13.638  -5.306   3.933  1.00  0.00    -0.237 OA
ATOM     83  O   UNL     1     -13.322  -2.928   4.498  1.00  0.00    -0.237 OA
ATOM     84  O   UNL     1     -11.370  -4.401   4.300  1.00  0.00    -0.744 OA
ENDBRANCH  78  81
ENDBRANCH  50  74
BRANCH  62  85
ATOM     85  C   UNL     1     -10.897 -10.852  12.564  1.00  0.00     0.023 A 
ATOM     86  C   UNL     1     -10.998 -11.867  11.592  1.00  0.00     0.012 A 
ATOM     87  C   UNL     1     -11.410 -11.078  13.858  1.00  0.00     0.148 A 
ATOM     88  C   UNL     1     -11.612 -13.080  11.898  1.00  0.00     0.002 A 
ATOM     89  C   UNL     1     -11.972 -12.309  14.170  1.00  0.00     0.091 A 
ATOM     90  F   UNL     1     -11.313 -10.093  14.763  1.00  0.00    -0.205 F 
ATOM     91  C   UNL     1     -12.084 -13.307  13.188  1.00  0.00     0.022 A 
BRANCH  89  92
ATOM     92  S   UNL     1     -12.508 -12.734  15.831  1.00  0.00     0.127 S 
ATOM     93  O   UNL     1     -13.957 -12.836  15.659  1.00  0.00    -0.237 OA
ATOM     94  O   UNL     1     -11.830 -14.011  16.056  1.00  0.00    -0.237 OA
ATOM     95  O   UNL     1     -12.061 -11.648  16.692  1.00  0.00    -0.744 OA
ENDBRANCH  89  92
ENDBRANCH  62  85
ENDBRANCH  36  37
ENDBRANCH  28  31
ENDBRANCH  26  27
ENDBRANCH   1  26
TORSDOF 16
