REMARK SMILES Cn1cnnc1S[C@@H]1CCC[C@]([NH3+])(C(=O)NCCCNC(=O)c2ccc(-c3c4nc(c(-c5cccc(S(=O)(=O)[O-])c5F)c5ccc([nH]5)c(-c5cccc(S(=O)(=O)[O-])c5F)c5nc(c(-c6cccc(S(=O)(=O)[O-])c6F)c6ccc3[nH]6)C=C5)C=C4)cc2)C1
REMARK SMILES IDX 18 1 17 2 16 3 14 4 15 5 12 7 8 8 9 9 86 10 10 11 11 12 7 13
REMARK SMILES IDX 6 14 1 15 2 16 3 17 4 18 5 19 13 20 19 24 20 25 21 26 22 28
REMARK SMILES IDX 23 29 24 30 85 31 25 32 84 33 26 34 27 35 28 36 78 37 29 38
REMARK SMILES IDX 83 39 77 40 79 41 30 42 82 43 76 44 75 45 31 47 63 48 43 49
REMARK SMILES IDX 62 50 44 51 47 52 61 53 80 54 45 55 46 56 60 58 81 59 48 60
REMARK SMILES IDX 32 61 33 62 41 63 34 64 36 65 42 66 35 67 37 68 38 69 39 70
REMARK SMILES IDX 40 71 64 72 65 73 73 74 66 75 68 76 74 77 67 78 69 79 70 80
REMARK SMILES IDX 71 81 72 82 49 83 50 84 58 85 51 86 53 87 59 88 52 89 54 90
REMARK SMILES IDX 55 91 56 92 57 93
REMARK H PARENT 16 6 13 21 13 22 13 23 20 27 79 46 47 57
REMARK Flexibility Score: inf
ROOT
ATOM      1  C   UNL     1       4.680   1.896  -1.568  1.00  0.00     0.042 C 
ENDROOT
BRANCH   1   2
ATOM      2  C   UNL     1       3.854   0.758  -2.140  1.00  0.00     0.118 C 
BRANCH   2   3
ATOM      3  N   UNL     1       4.617  -0.195  -2.912  1.00  0.00    -0.351 N 
ATOM      4  C   UNL     1       4.809  -1.530  -2.723  1.00  0.00     0.281 C 
ATOM      5  O   UNL     1       5.429  -2.132  -3.609  1.00  0.00    -0.268 OA
ATOM      6  H   UNL     1       5.071   0.181  -3.700  1.00  0.00     0.163 HD
BRANCH   4   7
ATOM      7  C   UNL     1       4.317  -2.295  -1.439  1.00  0.00     0.175 C 
ATOM      8  C   UNL     1       2.305  -2.882   0.057  1.00  0.00     0.061 C 
ATOM      9  C   UNL     1       3.120  -2.525   1.308  1.00  0.00     0.015 C 
ATOM     10  C   UNL     1       2.777  -2.308  -1.288  1.00  0.00     0.094 C 
ATOM     11  C   UNL     1       4.627  -2.489   1.090  1.00  0.00     0.008 C 
ATOM     12  C   UNL     1       5.021  -1.745  -0.183  1.00  0.00     0.079 C 
BRANCH   8  13
ATOM     13  S   UNL     1       0.535  -2.682   0.436  1.00  0.00    -0.082 SA
BRANCH  13  14
ATOM     14  C   UNL     1      -0.085  -1.126   0.000  1.00  0.00     0.191 A 
ATOM     15  C   UNL     1       1.646   0.598   0.779  1.00  0.00     0.153 C 
ATOM     16  N   UNL     1       0.391   0.128   0.274  1.00  0.00    -0.312 N 
ATOM     17  C   UNL     1      -0.626   0.991  -0.040  1.00  0.00     0.226 A 
ATOM     18  N   UNL     1      -1.650   0.322  -0.504  1.00  0.00    -0.138 NA
ATOM     19  N   UNL     1      -1.310  -1.008  -0.477  1.00  0.00    -0.124 NA
ENDBRANCH  13  14
ENDBRANCH   8  13
BRANCH   7  20
ATOM     20  N   UNL     1       4.764  -3.717  -1.584  1.00  0.00    -0.345 N 
ATOM     21  H   UNL     1       4.465  -4.252  -0.769  1.00  0.00     0.345 HD
ATOM     22  H   UNL     1       5.781  -3.748  -1.657  1.00  0.00     0.345 HD
ATOM     23  H   UNL     1       4.350  -4.119  -2.426  1.00  0.00     0.345 HD
ENDBRANCH   7  20
ENDBRANCH   4   7
ENDBRANCH   2   3
ENDBRANCH   1   2
BRANCH   1  24
ATOM     24  C   UNL     1       4.967   3.002  -2.568  1.00  0.00     0.118 C 
BRANCH  24  25
ATOM     25  N   UNL     1       3.749   3.651  -3.045  1.00  0.00    -0.352 N 
ATOM     26  C   UNL     1       3.351   4.963  -2.970  1.00  0.00     0.251 C 
ATOM     27  H   UNL     1       3.111   3.051  -3.493  1.00  0.00     0.163 HD
ATOM     28  O   UNL     1       2.191   5.252  -3.264  1.00  0.00    -0.269 OA
BRANCH  26  29
ATOM     29  C   UNL     1       4.289   6.014  -2.525  1.00  0.00     0.039 A 
ATOM     30  C   UNL     1       3.810   7.062  -1.734  1.00  0.00     0.014 A 
ATOM     31  C   UNL     1       5.636   5.981  -2.893  1.00  0.00     0.014 A 
ATOM     32  C   UNL     1       4.695   8.030  -1.255  1.00  0.00     0.010 A 
ATOM     33  C   UNL     1       6.532   6.881  -2.330  1.00  0.00     0.010 A 
ATOM     34  C   UNL     1       6.071   7.923  -1.515  1.00  0.00    -0.014 A 
BRANCH  34  35
ATOM     35  C   UNL     1       7.046   8.888  -0.947  1.00  0.00     0.031 A 
ATOM     36  C   UNL     1       7.912   9.716  -1.859  1.00  0.00     0.074 A 
ATOM     37  C   UNL     1       7.216   8.951   0.389  1.00  0.00     0.049 A 
ATOM     38  N   UNL     1       8.865  10.556  -1.551  1.00  0.00    -0.248 NA
ATOM     39  C   UNL     1       7.704   9.554  -3.309  1.00  0.00     0.031 C 
ATOM     40  C   UNL     1       6.498   8.138   1.373  1.00  0.00     0.029 A 
ATOM     41  N   UNL     1       8.067   9.714   1.148  1.00  0.00    -0.354 N 
ATOM     42  C   UNL     1       9.392  10.994  -2.761  1.00  0.00     0.074 A 
ATOM     43  C   UNL     1       8.683  10.293  -3.808  1.00  0.00     0.031 C 
ATOM     44  C   UNL     1       6.931   8.452   2.604  1.00  0.00     0.029 A 
ATOM     45  C   UNL     1       7.981   9.459   2.497  1.00  0.00     0.049 A 
ATOM     46  H   UNL     1       8.681  10.380   0.764  1.00  0.00     0.167 HD
ATOM     47  C   UNL     1      10.355  11.919  -2.983  1.00  0.00     0.034 A 
ATOM     48  C   UNL     1       8.678   9.970   3.531  1.00  0.00     0.034 A 
ATOM     49  C   UNL     1      11.028  12.643  -1.939  1.00  0.00     0.049 A 
ATOM     50  C   UNL     1       9.718  11.023   3.259  1.00  0.00     0.074 A 
ATOM     51  C   UNL     1      11.956  13.661  -2.059  1.00  0.00     0.029 A 
ATOM     52  N   UNL     1      10.852  12.419  -0.582  1.00  0.00    -0.354 N 
ATOM     53  N   UNL     1      10.091  11.536   2.112  1.00  0.00    -0.248 NA
ATOM     54  C   UNL     1      10.405  11.594   4.425  1.00  0.00     0.031 C 
ATOM     55  C   UNL     1      12.364  14.033  -0.775  1.00  0.00     0.029 A 
ATOM     56  C   UNL     1      11.662  13.272   0.146  1.00  0.00     0.049 A 
ATOM     57  H   UNL     1      10.241  11.752  -0.194  1.00  0.00     0.167 HD
ATOM     58  C   UNL     1      11.028  12.516   2.420  1.00  0.00     0.074 A 
ATOM     59  C   UNL     1      11.148  12.538   3.864  1.00  0.00     0.031 C 
ATOM     60  C   UNL     1      11.734  13.316   1.584  1.00  0.00     0.034 A 
BRANCH  47  61
ATOM     61  C   UNL     1      10.703  12.237  -4.415  1.00  0.00     0.023 A 
ATOM     62  C   UNL     1       9.775  12.926  -5.223  1.00  0.00     0.012 A 
ATOM     63  C   UNL     1      11.965  11.905  -4.945  1.00  0.00     0.148 A 
ATOM     64  C   UNL     1      10.080  13.244  -6.545  1.00  0.00     0.002 A 
ATOM     65  C   UNL     1      12.281  12.269  -6.249  1.00  0.00     0.091 A 
ATOM     66  F   UNL     1      12.828  11.232  -4.170  1.00  0.00    -0.205 F 
ATOM     67  C   UNL     1      11.336  12.926  -7.054  1.00  0.00     0.022 A 
BRANCH  65  68
ATOM     68  S   UNL     1      13.899  11.979  -6.972  1.00  0.00     0.127 S 
ATOM     69  O   UNL     1      13.596  10.951  -7.967  1.00  0.00    -0.237 OA
ATOM     70  O   UNL     1      14.225  13.291  -7.530  1.00  0.00    -0.237 OA
ATOM     71  O   UNL     1      14.759  11.552  -5.877  1.00  0.00    -0.744 OA
ENDBRANCH  65  68
ENDBRANCH  47  61
BRANCH  48  72
ATOM     72  C   UNL     1       8.374   9.535   4.924  1.00  0.00     0.023 A 
ATOM     73  C   UNL     1       7.767  10.439   5.817  1.00  0.00     0.012 A 
ATOM     74  C   UNL     1       8.660   8.227   5.360  1.00  0.00     0.148 A 
ATOM     75  C   UNL     1       7.487  10.062   7.131  1.00  0.00     0.002 A 
ATOM     76  C   UNL     1       8.323   7.838   6.651  1.00  0.00     0.091 A 
ATOM     77  F   UNL     1       9.243   7.383   4.497  1.00  0.00    -0.205 F 
ATOM     78  C   UNL     1       7.755   8.760   7.545  1.00  0.00     0.022 A 
BRANCH  76  79
ATOM     79  S   UNL     1       8.503   6.146   7.224  1.00  0.00     0.127 S 
ATOM     80  O   UNL     1       9.594   6.270   8.188  1.00  0.00    -0.237 OA
ATOM     81  O   UNL     1       7.188   5.884   7.810  1.00  0.00    -0.237 OA
ATOM     82  O   UNL     1       8.795   5.357   6.035  1.00  0.00    -0.744 OA
ENDBRANCH  76  79
ENDBRANCH  48  72
BRANCH  60  83
ATOM     83  C   UNL     1      12.671  14.320   2.205  1.00  0.00     0.023 A 
ATOM     84  C   UNL     1      13.863  13.888   2.818  1.00  0.00     0.012 A 
ATOM     85  C   UNL     1      12.399  15.700   2.115  1.00  0.00     0.148 A 
ATOM     86  C   UNL     1      14.753  14.812   3.365  1.00  0.00     0.002 A 
ATOM     87  C   UNL     1      13.315  16.616   2.615  1.00  0.00     0.091 A 
ATOM     88  F   UNL     1      11.250  16.089   1.544  1.00  0.00    -0.205 F 
ATOM     89  C   UNL     1      14.485  16.174   3.253  1.00  0.00     0.022 A 
BRANCH  87  90
ATOM     90  S   UNL     1      13.104  18.390   2.426  1.00  0.00     0.127 S 
ATOM     91  O   UNL     1      12.804  18.801   3.797  1.00  0.00    -0.237 OA
ATOM     92  O   UNL     1      14.418  18.808   1.937  1.00  0.00    -0.237 OA
ATOM     93  O   UNL     1      12.018  18.566   1.471  1.00  0.00    -0.744 OA
ENDBRANCH  87  90
ENDBRANCH  60  83
ENDBRANCH  34  35
ENDBRANCH  26  29
ENDBRANCH  24  25
ENDBRANCH   1  24
TORSDOF 16
