REMARK SMILES CC(C)[C@@](C)(CC(=O)N[C@H]1CCCC1(C)C)C(=O)NCCCNC(=O)c1ccc(-c2c3nc(c(-c4cccc(S(=O)(=O)[O-])c4F)c4ccc([nH]4)c(-c4cccc(S(=O)(=O)[O-])c4F)c4nc(c(-c5cccc(S(=O)(=O)[O-])c5F)c5ccc2[nH]5)C=C4)C=C3)cc1
REMARK SMILES IDX 21 1 20 2 19 3 17 4 18 5 4 7 5 8 2 9 1 10 3 11 6 12 7 13
REMARK SMILES IDX 8 14 9 15 10 17 11 18 14 19 12 20 13 21 15 22 16 23 22 24
REMARK SMILES IDX 23 25 24 26 25 28 26 29 27 30 88 31 28 32 87 33 29 34 30 35
REMARK SMILES IDX 31 36 81 37 32 38 86 39 80 40 82 41 33 42 85 43 79 44 78 45
REMARK SMILES IDX 34 47 66 48 46 49 65 50 47 51 50 52 64 53 83 54 48 55 49 56
REMARK SMILES IDX 63 58 84 59 51 60 35 61 36 62 44 63 37 64 39 65 45 66 38 67
REMARK SMILES IDX 40 68 41 69 42 70 43 71 67 72 68 73 76 74 69 75 71 76 77 77
REMARK SMILES IDX 70 78 72 79 73 80 74 81 75 82 52 83 53 84 61 85 54 86 56 87
REMARK SMILES IDX 62 88 55 89 57 90 58 91 59 92 60 93
REMARK H PARENT 19 6 9 16 23 27 82 46 50 57
REMARK Flexibility Score: inf
ROOT
ATOM      1  C   UNL     1      -5.291   2.710   0.167  1.00  0.00     0.042 C 
ENDROOT
BRANCH   1   2
ATOM      2  C   UNL     1      -4.710   1.414   0.722  1.00  0.00     0.117 C 
BRANCH   2   3
ATOM      3  N   UNL     1      -3.934   0.738  -0.286  1.00  0.00    -0.356 N 
ATOM      4  C   UNL     1      -2.668   0.848  -0.717  1.00  0.00     0.226 C 
ATOM      5  O   UNL     1      -2.559   0.482  -1.895  1.00  0.00    -0.274 OA
ATOM      6  H   UNL     1      -4.444   0.043  -0.762  1.00  0.00     0.163 HD
BRANCH   4   7
ATOM      7  C   UNL     1      -1.434   1.109   0.188  1.00  0.00     0.057 C 
ATOM      8  C   UNL     1      -1.534  -0.093   1.175  1.00  0.00     0.022 C 
BRANCH   7   9
ATOM      9  C   UNL     1      -0.187   1.051  -0.762  1.00  0.00    -0.002 C 
ATOM     10  C   UNL     1       0.202  -0.345  -1.265  1.00  0.00     0.008 C 
ATOM     11  C   UNL     1      -0.255   2.052  -1.949  1.00  0.00     0.008 C 
ENDBRANCH   7   9
BRANCH   7  12
ATOM     12  C   UNL     1      -1.345   2.389   1.089  1.00  0.00     0.116 C 
BRANCH  12  13
ATOM     13  C   UNL     1      -0.500   3.572   0.619  1.00  0.00     0.221 C 
ATOM     14  O   UNL     1      -1.080   4.485   0.015  1.00  0.00    -0.275 OA
ATOM     15  N   UNL     1       0.840   3.752   0.774  1.00  0.00    -0.353 N 
ATOM     16  H   UNL     1       1.105   4.540   0.247  1.00  0.00     0.163 HD
BRANCH  15  17
ATOM     17  C   UNL     1       2.052   3.210   1.436  1.00  0.00     0.087 C 
ATOM     18  C   UNL     1       1.849   2.516   2.774  1.00  0.00     0.025 C 
ATOM     19  C   UNL     1       3.057   2.282   0.656  1.00  0.00    -0.015 C 
ATOM     20  C   UNL     1       1.967   1.031   2.486  1.00  0.00     0.003 C 
ATOM     21  C   UNL     1       2.780   0.862   1.205  1.00  0.00     0.008 C 
ATOM     22  C   UNL     1       3.024   2.368  -0.879  1.00  0.00     0.013 C 
ATOM     23  C   UNL     1       4.519   2.614   1.061  1.00  0.00     0.013 C 
ENDBRANCH  15  17
ENDBRANCH  12  13
ENDBRANCH   7  12
ENDBRANCH   4   7
ENDBRANCH   2   3
ENDBRANCH   1   2
BRANCH   1  24
ATOM     24  C   UNL     1      -5.780   2.622  -1.283  1.00  0.00     0.118 C 
BRANCH  24  25
ATOM     25  N   UNL     1      -6.666   1.485  -1.539  1.00  0.00    -0.352 N 
ATOM     26  C   UNL     1      -8.010   1.440  -1.810  1.00  0.00     0.251 C 
ATOM     27  H   UNL     1      -6.224   0.606  -1.512  1.00  0.00     0.163 HD
ATOM     28  O   UNL     1      -8.601   0.372  -1.827  1.00  0.00    -0.269 OA
BRANCH  26  29
ATOM     29  C   UNL     1      -8.726   2.700  -2.053  1.00  0.00     0.039 A 
ATOM     30  C   UNL     1      -9.915   2.943  -1.366  1.00  0.00     0.014 A 
ATOM     31  C   UNL     1      -8.192   3.650  -2.925  1.00  0.00     0.014 A 
ATOM     32  C   UNL     1     -10.533   4.184  -1.499  1.00  0.00     0.010 A 
ATOM     33  C   UNL     1      -8.748   4.917  -2.971  1.00  0.00     0.010 A 
ATOM     34  C   UNL     1      -9.930   5.193  -2.268  1.00  0.00    -0.014 A 
BRANCH  34  35
ATOM     35  C   UNL     1     -10.520   6.548  -2.353  1.00  0.00     0.031 A 
ATOM     36  C   UNL     1     -10.949   7.093  -3.688  1.00  0.00     0.074 A 
ATOM     37  C   UNL     1     -10.585   7.312  -1.245  1.00  0.00     0.049 A 
ATOM     38  N   UNL     1     -11.431   8.272  -3.977  1.00  0.00    -0.248 NA
ATOM     39  C   UNL     1     -10.784   6.211  -4.857  1.00  0.00     0.031 C 
ATOM     40  C   UNL     1     -10.114   6.918   0.086  1.00  0.00     0.029 A 
ATOM     41  N   UNL     1     -11.050   8.589  -1.065  1.00  0.00    -0.354 N 
ATOM     42  C   UNL     1     -11.587   8.287  -5.357  1.00  0.00     0.074 A 
ATOM     43  C   UNL     1     -11.110   7.018  -5.855  1.00  0.00     0.031 C 
ATOM     44  C   UNL     1     -10.326   7.926   0.946  1.00  0.00     0.029 A 
ATOM     45  C   UNL     1     -10.913   9.050   0.224  1.00  0.00     0.049 A 
ATOM     46  H   UNL     1     -11.445   9.126  -1.789  1.00  0.00     0.167 HD
ATOM     47  C   UNL     1     -12.112   9.260  -6.137  1.00  0.00     0.034 A 
ATOM     48  C   UNL     1     -11.219  10.248   0.759  1.00  0.00     0.034 A 
ATOM     49  C   UNL     1     -12.626  10.500  -5.625  1.00  0.00     0.049 A 
ATOM     50  C   UNL     1     -11.842  11.293  -0.125  1.00  0.00     0.074 A 
ATOM     51  C   UNL     1     -13.265  11.514  -6.314  1.00  0.00     0.029 A 
ATOM     52  N   UNL     1     -12.552  10.897  -4.300  1.00  0.00    -0.354 N 
ATOM     53  N   UNL     1     -12.134  11.228  -1.402  1.00  0.00    -0.248 NA
ATOM     54  C   UNL     1     -12.214  12.565   0.511  1.00  0.00     0.031 C 
ATOM     55  C   UNL     1     -13.550  12.541  -5.409  1.00  0.00     0.029 A 
ATOM     56  C   UNL     1     -13.124  12.148  -4.150  1.00  0.00     0.049 A 
ATOM     57  H   UNL     1     -12.152  10.368  -3.572  1.00  0.00     0.167 HD
ATOM     58  C   UNL     1     -12.758  12.430  -1.712  1.00  0.00     0.074 A 
ATOM     59  C   UNL     1     -12.822  13.195  -0.484  1.00  0.00     0.031 C 
ATOM     60  C   UNL     1     -13.226  12.868  -2.907  1.00  0.00     0.034 A 
BRANCH  47  61
ATOM     61  C   UNL     1     -12.202   9.003  -7.618  1.00  0.00     0.023 A 
ATOM     62  C   UNL     1     -13.119   8.050  -8.108  1.00  0.00     0.012 A 
ATOM     63  C   UNL     1     -11.428   9.748  -8.528  1.00  0.00     0.148 A 
ATOM     64  C   UNL     1     -13.241   7.820  -9.477  1.00  0.00     0.002 A 
ATOM     65  C   UNL     1     -11.591   9.549  -9.894  1.00  0.00     0.091 A 
ATOM     66  F   UNL     1     -10.546  10.634  -8.043  1.00  0.00    -0.205 F 
ATOM     67  C   UNL     1     -12.487   8.577 -10.369  1.00  0.00     0.022 A 
BRANCH  65  68
ATOM     68  S   UNL     1     -10.732  10.530 -11.128  1.00  0.00     0.127 S 
ATOM     69  O   UNL     1      -9.852   9.533 -11.737  1.00  0.00    -0.237 OA
ATOM     70  O   UNL     1     -11.832  10.976 -11.983  1.00  0.00    -0.237 OA
ATOM     71  O   UNL     1     -10.055  11.594 -10.400  1.00  0.00    -0.744 OA
ENDBRANCH  65  68
ENDBRANCH  47  61
BRANCH  48  72
ATOM     72  C   UNL     1     -10.996  10.502   2.211  1.00  0.00     0.023 A 
ATOM     73  C   UNL     1     -12.106  10.655   3.065  1.00  0.00     0.012 A 
ATOM     74  C   UNL     1      -9.699  10.582   2.751  1.00  0.00     0.148 A 
ATOM     75  C   UNL     1     -11.928  10.926   4.422  1.00  0.00     0.002 A 
ATOM     76  C   UNL     1      -9.528  10.795   4.114  1.00  0.00     0.091 A 
ATOM     77  F   UNL     1      -8.655  10.441   1.922  1.00  0.00    -0.205 F 
ATOM     78  C   UNL     1     -10.640  10.988   4.948  1.00  0.00     0.022 A 
BRANCH  76  79
ATOM     79  S   UNL     1      -7.913  10.758   4.900  1.00  0.00     0.127 S 
ATOM     80  O   UNL     1      -7.717  12.164   5.245  1.00  0.00    -0.237 OA
ATOM     81  O   UNL     1      -8.152   9.872   6.040  1.00  0.00    -0.237 OA
ATOM     82  O   UNL     1      -7.002  10.217   3.901  1.00  0.00    -0.744 OA
ENDBRANCH  76  79
ENDBRANCH  48  72
BRANCH  60  83
ATOM     83  C   UNL     1     -13.894  14.217  -2.942  1.00  0.00     0.023 A 
ATOM     84  C   UNL     1     -13.125  15.389  -2.804  1.00  0.00     0.012 A 
ATOM     85  C   UNL     1     -15.277  14.320  -3.191  1.00  0.00     0.148 A 
ATOM     86  C   UNL     1     -13.729  16.643  -2.877  1.00  0.00     0.002 A 
ATOM     87  C   UNL     1     -15.862  15.572  -3.318  1.00  0.00     0.091 A 
ATOM     88  F   UNL     1     -15.992  13.191  -3.304  1.00  0.00    -0.205 F 
ATOM     89  C   UNL     1     -15.093  16.735  -3.146  1.00  0.00     0.022 A 
BRANCH  87  90
ATOM     90  S   UNL     1     -17.588  15.788  -3.765  1.00  0.00     0.127 S 
ATOM     91  O   UNL     1     -18.159  16.283  -2.514  1.00  0.00    -0.237 OA
ATOM     92  O   UNL     1     -17.508  16.782  -4.835  1.00  0.00    -0.237 OA
ATOM     93  O   UNL     1     -18.061  14.478  -4.191  1.00  0.00    -0.744 OA
ENDBRANCH  87  90
ENDBRANCH  60  83
ENDBRANCH  34  35
ENDBRANCH  26  29
ENDBRANCH  24  25
ENDBRANCH   1  24
TORSDOF 17
