REMARK SMILES N#C/C(=C/c1ccc(-c2cccc(C(=O)NCCCNC(=O)c3ccc(-c4c5nc(c(-c6cccc(S(=O)(=O)[O-])c6F)c6ccc([nH]6)c(-c6cccc(S(=O)(=O)[O-])c6F)c6nc(c(-c7cccc(S(=O)(=O)[O-])c7F)c7ccc4[nH]7)C=C6)C=C5)cc3)c2)o1)c1ccc(F)cc1
REMARK SMILES IDX 18 1 17 2 16 3 14 4 15 5 13 7 9 8 10 9 86 10 11 11 12 12
REMARK SMILES IDX 8 13 5 14 6 15 87 16 7 17 4 18 3 19 2 20 1 21 88 22 89 23
REMARK SMILES IDX 94 24 90 25 93 26 91 27 92 28 19 29 20 30 21 31 22 33 23 34
REMARK SMILES IDX 24 35 85 36 25 37 84 38 26 39 27 40 28 41 78 42 29 43 83 44
REMARK SMILES IDX 77 45 79 46 30 47 82 48 76 49 75 50 31 52 63 53 43 54 62 55
REMARK SMILES IDX 44 56 47 57 61 58 80 59 45 60 46 61 60 63 81 64 48 65 32 66
REMARK SMILES IDX 33 67 41 68 34 69 36 70 42 71 35 72 37 73 38 74 39 75 40 76
REMARK SMILES IDX 64 77 65 78 73 79 66 80 68 81 74 82 67 83 69 84 70 85 71 86
REMARK SMILES IDX 72 87 49 88 50 89 58 90 51 91 53 92 59 93 52 94 54 95 55 96
REMARK SMILES IDX 56 97 57 98
REMARK H PARENT 16 6 20 32 79 51 47 62
REMARK Flexibility Score: inf
ROOT
ATOM      1  C   UNL     1      10.119   3.030  -4.772  1.00  0.00     0.042 C 
ENDROOT
BRANCH   1   2
ATOM      2  C   UNL     1      10.904   2.343  -3.667  1.00  0.00     0.118 C 
BRANCH   2   3
ATOM      3  N   UNL     1      11.912   3.179  -3.014  1.00  0.00    -0.352 N 
ATOM      4  C   UNL     1      12.095   3.654  -1.730  1.00  0.00     0.251 C 
ATOM      5  O   UNL     1      13.096   4.337  -1.510  1.00  0.00    -0.269 OA
ATOM      6  H   UNL     1      12.622   3.469  -3.631  1.00  0.00     0.163 HD
BRANCH   4   7
ATOM      7  C   UNL     1      11.123   3.438  -0.622  1.00  0.00     0.040 A 
ATOM      8  C   UNL     1       9.106   2.362   0.207  1.00  0.00     0.018 A 
ATOM      9  C   UNL     1       9.012   3.309   1.226  1.00  0.00     0.012 A 
ATOM     10  C   UNL     1      10.252   2.361  -0.597  1.00  0.00     0.025 A 
ATOM     11  C   UNL     1      10.017   4.273   1.371  1.00  0.00     0.002 A 
ATOM     12  C   UNL     1      11.041   4.368   0.419  1.00  0.00     0.014 A 
BRANCH   8  13
ATOM     13  C   UNL     1       8.032   1.456  -0.186  1.00  0.00     0.134 A 
ATOM     14  C   UNL     1       5.903   0.990  -0.649  1.00  0.00     0.128 A 
ATOM     15  C   UNL     1       6.702   0.035  -1.271  1.00  0.00     0.051 A 
ATOM     16  O   UNL     1       6.744   1.878  -0.004  1.00  0.00    -0.457 OA
ATOM     17  C   UNL     1       8.038   0.288  -0.916  1.00  0.00     0.051 A 
BRANCH  14  18
ATOM     18  C   UNL     1       4.476   1.027  -0.584  1.00  0.00     0.067 C 
ATOM     19  C   UNL     1       3.779  -0.023  -0.097  1.00  0.00     0.063 C 
BRANCH  19  20
ATOM     20  C   UNL     1       2.259  -0.023  -0.097  1.00  0.00     0.100 C 
ATOM     21  N   UNL     1       0.998  -0.023  -0.097  1.00  0.00    -0.192 NA
ENDBRANCH  19  20
BRANCH  19  22
ATOM     22  C   UNL     1       4.435  -1.222   0.511  1.00  0.00    -0.007 A 
ATOM     23  C   UNL     1       5.416  -1.077   1.515  1.00  0.00     0.012 A 
ATOM     24  C   UNL     1       4.146  -2.512   0.041  1.00  0.00     0.012 A 
ATOM     25  C   UNL     1       6.165  -2.171   1.950  1.00  0.00     0.040 A 
ATOM     26  C   UNL     1       4.875  -3.612   0.504  1.00  0.00     0.040 A 
ATOM     27  C   UNL     1       5.893  -3.428   1.432  1.00  0.00     0.123 A 
ATOM     28  F   UNL     1       6.629  -4.476   1.826  1.00  0.00    -0.207 F 
ENDBRANCH  19  22
ENDBRANCH  14  18
ENDBRANCH   8  13
ENDBRANCH   4   7
ENDBRANCH   2   3
ENDBRANCH   1   2
BRANCH   1  29
ATOM     29  C   UNL     1      10.903   3.258  -6.053  1.00  0.00     0.118 C 
BRANCH  29  30
ATOM     30  N   UNL     1      11.378   2.014  -6.656  1.00  0.00    -0.352 N 
ATOM     31  C   UNL     1      10.953   1.324  -7.768  1.00  0.00     0.251 C 
ATOM     32  H   UNL     1      12.135   1.598  -6.184  1.00  0.00     0.163 HD
ATOM     33  O   UNL     1      11.365   0.183  -7.957  1.00  0.00    -0.269 OA
BRANCH  31  34
ATOM     34  C   UNL     1       9.999   1.931  -8.723  1.00  0.00     0.039 A 
ATOM     35  C   UNL     1       9.007   1.130  -9.298  1.00  0.00     0.014 A 
ATOM     36  C   UNL     1      10.089   3.278  -9.074  1.00  0.00     0.014 A 
ATOM     37  C   UNL     1       8.056   1.704 -10.148  1.00  0.00     0.010 A 
ATOM     38  C   UNL     1       9.085   3.867  -9.835  1.00  0.00     0.010 A 
ATOM     39  C   UNL     1       8.056   3.088 -10.381  1.00  0.00    -0.014 A 
BRANCH  39  40
ATOM     40  C   UNL     1       6.976   3.750 -11.159  1.00  0.00     0.031 A 
ATOM     41  C   UNL     1       7.302   4.533 -12.403  1.00  0.00     0.074 A 
ATOM     42  C   UNL     1       5.716   3.740 -10.678  1.00  0.00     0.049 A 
ATOM     43  N   UNL     1       6.509   5.252 -13.154  1.00  0.00    -0.248 NA
ATOM     44  C   UNL     1       8.706   4.533 -12.847  1.00  0.00     0.031 C 
ATOM     45  C   UNL     1       5.289   3.091  -9.436  1.00  0.00     0.029 A 
ATOM     46  N   UNL     1       4.568   4.323 -11.156  1.00  0.00    -0.354 N 
ATOM     47  C   UNL     1       7.319   5.820 -14.129  1.00  0.00     0.074 A 
ATOM     48  C   UNL     1       8.672   5.388 -13.858  1.00  0.00     0.031 C 
ATOM     49  C   UNL     1       3.978   3.308  -9.252  1.00  0.00     0.029 A 
ATOM     50  C   UNL     1       3.477   4.147 -10.336  1.00  0.00     0.049 A 
ATOM     51  H   UNL     1       4.529   4.819 -12.006  1.00  0.00     0.167 HD
ATOM     52  C   UNL     1       6.966   6.610 -15.171  1.00  0.00     0.034 A 
ATOM     53  C   UNL     1       2.221   4.624 -10.431  1.00  0.00     0.034 A 
ATOM     54  C   UNL     1       5.614   7.004 -15.460  1.00  0.00     0.049 A 
ATOM     55  C   UNL     1       1.851   5.475 -11.614  1.00  0.00     0.074 A 
ATOM     56  C   UNL     1       5.141   7.717 -16.547  1.00  0.00     0.029 A 
ATOM     57  N   UNL     1       4.521   6.736 -14.651  1.00  0.00    -0.354 N 
ATOM     58  N   UNL     1       2.600   5.860 -12.619  1.00  0.00    -0.248 NA
ATOM     59  C   UNL     1       0.457   5.933 -11.695  1.00  0.00     0.031 C 
ATOM     60  C   UNL     1       3.767   7.912 -16.378  1.00  0.00     0.029 A 
ATOM     61  C   UNL     1       3.378   7.287 -15.204  1.00  0.00     0.049 A 
ATOM     62  H   UNL     1       4.553   6.229 -13.808  1.00  0.00     0.167 HD
ATOM     63  C   UNL     1       1.762   6.577 -13.465  1.00  0.00     0.074 A 
ATOM     64  C   UNL     1       0.443   6.550 -12.868  1.00  0.00     0.031 C 
ATOM     65  C   UNL     1       2.062   7.215 -14.623  1.00  0.00     0.034 A 
BRANCH  52  66
ATOM     66  C   UNL     1       8.053   7.067 -16.110  1.00  0.00     0.023 A 
ATOM     67  C   UNL     1       8.662   6.138 -16.979  1.00  0.00     0.012 A 
ATOM     68  C   UNL     1       8.416   8.426 -16.188  1.00  0.00     0.148 A 
ATOM     69  C   UNL     1       9.637   6.548 -17.887  1.00  0.00     0.002 A 
ATOM     70  C   UNL     1       9.354   8.835 -17.128  1.00  0.00     0.091 A 
ATOM     71  F   UNL     1       7.839   9.291 -15.341  1.00  0.00    -0.205 F 
ATOM     72  C   UNL     1       9.974   7.897 -17.969  1.00  0.00     0.022 A 
BRANCH  70  73
ATOM     73  S   UNL     1       9.799  10.558 -17.372  1.00  0.00     0.127 S 
ATOM     74  O   UNL     1      11.185  10.573 -16.907  1.00  0.00    -0.237 OA
ATOM     75  O   UNL     1       9.639  10.714 -18.817  1.00  0.00    -0.237 OA
ATOM     76  O   UNL     1       8.865  11.334 -16.567  1.00  0.00    -0.744 OA
ENDBRANCH  70  73
ENDBRANCH  52  66
BRANCH  53  77
ATOM     77  C   UNL     1       1.209   4.278  -9.392  1.00  0.00     0.023 A 
ATOM     78  C   UNL     1       0.130   3.436  -9.724  1.00  0.00     0.012 A 
ATOM     79  C   UNL     1       1.320   4.764  -8.075  1.00  0.00     0.148 A 
ATOM     80  C   UNL     1      -0.840   3.115  -8.774  1.00  0.00     0.002 A 
ATOM     81  C   UNL     1       0.385   4.391  -7.118  1.00  0.00     0.091 A 
ATOM     82  F   UNL     1       2.349   5.572  -7.781  1.00  0.00    -0.205 F 
ATOM     83  C   UNL     1      -0.708   3.584  -7.470  1.00  0.00     0.022 A 
BRANCH  81  84
ATOM     84  S   UNL     1       0.555   4.830  -5.385  1.00  0.00     0.127 S 
ATOM     85  O   UNL     1      -0.541   5.779  -5.208  1.00  0.00    -0.237 OA
ATOM     86  O   UNL     1       0.368   3.537  -4.728  1.00  0.00    -0.237 OA
ATOM     87  O   UNL     1       1.897   5.381  -5.248  1.00  0.00    -0.744 OA
ENDBRANCH  81  84
ENDBRANCH  53  77
BRANCH  65  88
ATOM     88  C   UNL     1       0.940   7.912 -15.347  1.00  0.00     0.023 A 
ATOM     89  C   UNL     1       0.398   9.102 -14.822  1.00  0.00     0.012 A 
ATOM     90  C   UNL     1       0.477   7.429 -16.587  1.00  0.00     0.148 A 
ATOM     91  C   UNL     1      -0.611   9.781 -15.503  1.00  0.00     0.002 A 
ATOM     92  C   UNL     1      -0.490   8.140 -17.286  1.00  0.00     0.091 A 
ATOM     93  F   UNL     1       0.996   6.287 -17.061  1.00  0.00    -0.205 F 
ATOM     94  C   UNL     1      -1.046   9.308 -16.739  1.00  0.00     0.022 A 
BRANCH  92  95
ATOM     95  S   UNL     1      -1.042   7.663 -18.927  1.00  0.00     0.127 S 
ATOM     96  O   UNL     1      -2.416   7.235 -18.667  1.00  0.00    -0.237 OA
ATOM     97  O   UNL     1      -0.923   8.918 -19.669  1.00  0.00    -0.237 OA
ATOM     98  O   UNL     1      -0.136   6.611 -19.368  1.00  0.00    -0.744 OA
ENDBRANCH  92  95
ENDBRANCH  65  88
ENDBRANCH  39  40
ENDBRANCH  31  34
ENDBRANCH  29  30
ENDBRANCH   1  29
TORSDOF 17
