REMARK SMILES CC1(C)Oc2ccc(NC(=O)[C@H]3CC=CC[C@@H]3C(=O)NCCCNC(=O)c3ccc(-c4c5nc(c(-c6cccc(S(=O)(=O)[O-])c6F)c6ccc([nH]6)c(-c6cccc(S(=O)(=O)[O-])c6F)c6nc(c(-c7cccc(S(=O)(=O)[O-])c7F)c7ccc4[nH]7)C=C6)C=C5)cc3)cc2NC1=O
REMARK SMILES IDX 22 1 21 2 20 3 18 4 19 5 17 7 12 8 13 9 14 10 16 11 15 12
REMARK SMILES IDX 10 13 9 14 11 16 8 17 1 18 2 19 3 20 4 21 93 22 5 23 92 24
REMARK SMILES IDX 94 25 6 26 91 27 7 29 90 30 23 31 24 32 25 33 26 35 27 36
REMARK SMILES IDX 28 37 89 38 29 39 88 40 30 41 31 42 32 43 82 44 33 45 87 46
REMARK SMILES IDX 81 47 83 48 34 49 86 50 80 51 79 52 35 54 67 55 47 56 66 57
REMARK SMILES IDX 48 58 51 59 65 60 84 61 49 62 50 63 64 65 85 66 52 67 36 68
REMARK SMILES IDX 37 69 45 70 38 71 40 72 46 73 39 74 41 75 42 76 43 77 44 78
REMARK SMILES IDX 68 79 69 80 77 81 70 82 72 83 78 84 71 85 73 86 74 87 75 88
REMARK SMILES IDX 76 89 53 90 54 91 62 92 55 93 57 94 63 95 56 96 58 97 59 98
REMARK SMILES IDX 60 99 61 100
REMARK H PARENT 20 6 9 15 92 28 24 34 83 53 51 64
REMARK Flexibility Score: inf
ROOT
ATOM      1  C   UNL     1      -8.115  -2.800  -4.535  1.00  0.00     0.042 C 
ENDROOT
BRANCH   1   2
ATOM      2  C   UNL     1      -6.624  -2.750  -4.241  1.00  0.00     0.117 C 
BRANCH   2   3
ATOM      3  N   UNL     1      -5.924  -3.618  -5.168  1.00  0.00    -0.356 N 
ATOM      4  C   UNL     1      -4.993  -3.299  -6.106  1.00  0.00     0.224 C 
ATOM      5  O   UNL     1      -4.827  -4.094  -7.030  1.00  0.00    -0.275 OA
ATOM      6  H   UNL     1      -6.155  -4.573  -5.110  1.00  0.00     0.163 HD
BRANCH   4   7
ATOM      7  C   UNL     1      -4.100  -2.079  -5.873  1.00  0.00     0.095 C 
ATOM      8  C   UNL     1      -3.419  -1.670  -7.199  1.00  0.00     0.095 C 
ATOM      9  C   UNL     1      -2.251  -2.570  -7.632  1.00  0.00     0.041 C 
ATOM     10  C   UNL     1      -1.635  -3.410  -6.542  1.00  0.00    -0.030 C 
ATOM     11  C   UNL     1      -3.145  -2.522  -4.755  1.00  0.00     0.041 C 
ATOM     12  C   UNL     1      -2.014  -3.374  -5.256  1.00  0.00    -0.030 C 
BRANCH   8  13
ATOM     13  C   UNL     1      -3.264  -0.152  -7.457  1.00  0.00     0.228 C 
ATOM     14  N   UNL     1      -2.618   0.763  -6.681  1.00  0.00    -0.326 N 
ATOM     15  H   UNL     1      -2.832   1.693  -6.922  1.00  0.00     0.169 HD
ATOM     16  O   UNL     1      -3.851   0.336  -8.437  1.00  0.00    -0.274 OA
BRANCH  14  17
ATOM     17  C   UNL     1      -1.718   0.667  -5.617  1.00  0.00     0.043 A 
ATOM     18  C   UNL     1       1.026   0.684   0.044  1.00  0.00     0.067 C 
ATOM     19  C   UNL     1       0.921   1.031  -1.446  1.00  0.00     0.182 C 
ATOM     20  C   UNL     1       2.321   1.023  -2.076  1.00  0.00     0.067 C 
ATOM     21  O   UNL     1       0.218  -0.051  -2.054  1.00  0.00    -0.476 OA
ATOM     22  C   UNL     1       0.254   2.428  -1.585  1.00  0.00     0.268 C 
ATOM     23  C   UNL     1      -0.295   0.287  -3.271  1.00  0.00     0.144 A 
ATOM     24  N   UNL     1      -0.628   2.572  -2.632  1.00  0.00    -0.319 N 
ATOM     25  O   UNL     1       0.525   3.383  -0.859  1.00  0.00    -0.270 OA
ATOM     26  C   UNL     1      -0.235  -0.667  -4.261  1.00  0.00     0.051 A 
ATOM     27  C   UNL     1      -0.865   1.529  -3.530  1.00  0.00     0.086 A 
ATOM     28  H   UNL     1      -1.102   3.427  -2.750  1.00  0.00     0.170 HD
ATOM     29  C   UNL     1      -0.877  -0.422  -5.467  1.00  0.00     0.030 A 
ATOM     30  C   UNL     1      -1.624   1.714  -4.690  1.00  0.00     0.056 A 
ENDBRANCH  14  17
ENDBRANCH   8  13
ENDBRANCH   4   7
ENDBRANCH   2   3
ENDBRANCH   1   2
BRANCH   1  31
ATOM     31  C   UNL     1      -8.734  -4.152  -4.215  1.00  0.00     0.118 C 
BRANCH  31  32
ATOM     32  N   UNL     1      -8.848  -4.404  -2.786  1.00  0.00    -0.352 N 
ATOM     33  C   UNL     1      -9.901  -5.012  -2.132  1.00  0.00     0.251 C 
ATOM     34  H   UNL     1      -8.094  -4.109  -2.226  1.00  0.00     0.163 HD
ATOM     35  O   UNL     1      -9.941  -5.064  -0.915  1.00  0.00    -0.269 OA
BRANCH  33  36
ATOM     36  C   UNL     1     -10.994  -5.554  -2.967  1.00  0.00     0.039 A 
ATOM     37  C   UNL     1     -10.690  -6.432  -4.010  1.00  0.00     0.014 A 
ATOM     38  C   UNL     1     -12.286  -5.054  -2.803  1.00  0.00     0.014 A 
ATOM     39  C   UNL     1     -11.642  -6.674  -4.991  1.00  0.00     0.010 A 
ATOM     40  C   UNL     1     -13.265  -5.373  -3.745  1.00  0.00     0.010 A 
ATOM     41  C   UNL     1     -12.938  -6.141  -4.875  1.00  0.00    -0.014 A 
BRANCH  41  42
ATOM     42  C   UNL     1     -13.932  -6.399  -5.948  1.00  0.00     0.031 A 
ATOM     43  C   UNL     1     -14.509  -5.270  -6.763  1.00  0.00     0.074 A 
ATOM     44  C   UNL     1     -14.292  -7.670  -6.208  1.00  0.00     0.049 A 
ATOM     45  N   UNL     1     -15.400  -5.323  -7.718  1.00  0.00    -0.248 NA
ATOM     46  C   UNL     1     -14.031  -3.908  -6.470  1.00  0.00     0.031 C 
ATOM     47  C   UNL     1     -13.807  -8.847  -5.482  1.00  0.00     0.029 A 
ATOM     48  N   UNL     1     -15.135  -8.189  -7.156  1.00  0.00    -0.354 N 
ATOM     49  C   UNL     1     -15.626  -4.008  -8.107  1.00  0.00     0.074 A 
ATOM     50  C   UNL     1     -14.776  -3.174  -7.287  1.00  0.00     0.031 C 
ATOM     51  C   UNL     1     -14.326  -9.951  -6.037  1.00  0.00     0.029 A 
ATOM     52  C   UNL     1     -15.227  -9.560  -7.115  1.00  0.00     0.049 A 
ATOM     53  H   UNL     1     -15.627  -7.634  -7.803  1.00  0.00     0.167 HD
ATOM     54  C   UNL     1     -16.454  -3.542  -9.071  1.00  0.00     0.034 A 
ATOM     55  C   UNL     1     -15.966 -10.412  -7.850  1.00  0.00     0.034 A 
ATOM     56  C   UNL     1     -17.251  -4.377  -9.929  1.00  0.00     0.049 A 
ATOM     57  C   UNL     1     -16.864  -9.869  -8.919  1.00  0.00     0.074 A 
ATOM     58  C   UNL     1     -18.085  -3.993 -10.964  1.00  0.00     0.029 A 
ATOM     59  N   UNL     1     -17.306  -5.760  -9.861  1.00  0.00    -0.354 N 
ATOM     60  N   UNL     1     -17.020  -8.627  -9.305  1.00  0.00    -0.248 NA
ATOM     61  C   UNL     1     -17.681 -10.840  -9.660  1.00  0.00     0.031 C 
ATOM     62  C   UNL     1     -18.648  -5.145 -11.521  1.00  0.00     0.029 A 
ATOM     63  C   UNL     1     -18.160  -6.245 -10.835  1.00  0.00     0.049 A 
ATOM     64  H   UNL     1     -16.812  -6.314  -9.214  1.00  0.00     0.167 HD
ATOM     65  C   UNL     1     -17.945  -8.664 -10.339  1.00  0.00     0.074 A 
ATOM     66  C   UNL     1     -18.300 -10.056 -10.535  1.00  0.00     0.031 C 
ATOM     67  C   UNL     1     -18.469  -7.635 -11.046  1.00  0.00     0.034 A 
BRANCH  54  68
ATOM     68  C   UNL     1     -16.514  -2.057  -9.301  1.00  0.00     0.023 A 
ATOM     69  C   UNL     1     -15.505  -1.437 -10.063  1.00  0.00     0.012 A 
ATOM     70  C   UNL     1     -17.621  -1.300  -8.866  1.00  0.00     0.148 A 
ATOM     71  C   UNL     1     -15.591  -0.083 -10.384  1.00  0.00     0.002 A 
ATOM     72  C   UNL     1     -17.713   0.043  -9.213  1.00  0.00     0.091 A 
ATOM     73  F   UNL     1     -18.562  -1.911  -8.133  1.00  0.00    -0.205 F 
ATOM     74  C   UNL     1     -16.698   0.653  -9.969  1.00  0.00     0.022 A 
BRANCH  72  75
ATOM     75  S   UNL     1     -19.122   1.069  -8.776  1.00  0.00     0.127 S 
ATOM     76  O   UNL     1     -18.511   2.034  -7.863  1.00  0.00    -0.237 OA
ATOM     77  O   UNL     1     -19.515   1.619 -10.073  1.00  0.00    -0.237 OA
ATOM     78  O   UNL     1     -20.099   0.176  -8.168  1.00  0.00    -0.744 OA
ENDBRANCH  72  75
ENDBRANCH  54  68
BRANCH  55  79
ATOM     79  C   UNL     1     -15.837 -11.873  -7.607  1.00  0.00     0.023 A 
ATOM     80  C   UNL     1     -15.114 -12.660  -8.522  1.00  0.00     0.012 A 
ATOM     81  C   UNL     1     -16.338 -12.462  -6.430  1.00  0.00     0.148 A 
ATOM     82  C   UNL     1     -14.893 -14.014  -8.269  1.00  0.00     0.002 A 
ATOM     83  C   UNL     1     -16.075 -13.799  -6.162  1.00  0.00     0.091 A 
ATOM     84  F   UNL     1     -17.025 -11.687  -5.578  1.00  0.00    -0.205 F 
ATOM     85  C   UNL     1     -15.361 -14.579  -7.085  1.00  0.00     0.022 A 
BRANCH  83  86
ATOM     86  S   UNL     1     -16.530 -14.583  -4.612  1.00  0.00     0.127 S 
ATOM     87  O   UNL     1     -17.511 -15.570  -5.054  1.00  0.00    -0.237 OA
ATOM     88  O   UNL     1     -15.250 -15.139  -4.172  1.00  0.00    -0.237 OA
ATOM     89  O   UNL     1     -17.049 -13.518  -3.765  1.00  0.00    -0.744 OA
ENDBRANCH  83  86
ENDBRANCH  55  79
BRANCH  67  90
ATOM     90  C   UNL     1     -19.483  -7.957 -12.107  1.00  0.00     0.023 A 
ATOM     91  C   UNL     1     -20.815  -8.210 -11.728  1.00  0.00     0.012 A 
ATOM     92  C   UNL     1     -19.144  -7.894 -13.472  1.00  0.00     0.148 A 
ATOM     93  C   UNL     1     -21.798  -8.403 -12.696  1.00  0.00     0.002 A 
ATOM     94  C   UNL     1     -20.136  -8.056 -14.431  1.00  0.00     0.091 A 
ATOM     95  F   UNL     1     -17.865  -7.663 -13.802  1.00  0.00    -0.205 F 
ATOM     96  C   UNL     1     -21.462  -8.315 -14.045  1.00  0.00     0.022 A 
BRANCH  94  97
ATOM     97  S   UNL     1     -19.817  -7.888 -16.191  1.00  0.00     0.127 S 
ATOM     98  O   UNL     1     -20.018  -9.258 -16.661  1.00  0.00    -0.237 OA
ATOM     99  O   UNL     1     -20.853  -6.942 -16.604  1.00  0.00    -0.237 OA
ATOM    100  O   UNL     1     -18.454  -7.386 -16.308  1.00  0.00    -0.744 OA
ENDBRANCH  94  97
ENDBRANCH  67  90
ENDBRANCH  41  42
ENDBRANCH  33  36
ENDBRANCH  31  32
ENDBRANCH   1  31
TORSDOF 15
