REMARK SMILES Cc1cccc(C)c1Nc1ccccc1CC(=O)NCCCNC(=O)c1ccc(-c2c3nc(c(-c4cccc(S(=O)(=O)[O-])c4F)c4ccc([nH]4)c(-c4cccc(S(=O)(=O)[O-])c4F)c4nc(c(-c5cccc(S(=O)(=O)[O-])c5F)c5ccc2[nH]5)C=C4)C=C3)cc1
REMARK SMILES IDX 21 1 20 2 19 3 17 4 18 5 16 7 15 8 10 9 11 10 12 11 14 12
REMARK SMILES IDX 13 13 9 14 8 16 1 17 2 18 3 19 4 20 6 21 5 22 7 23 22 24
REMARK SMILES IDX 23 25 24 26 25 28 26 29 27 30 88 31 28 32 87 33 29 34 30 35
REMARK SMILES IDX 31 36 81 37 32 38 86 39 80 40 82 41 33 42 85 43 79 44 78 45
REMARK SMILES IDX 34 47 66 48 46 49 65 50 47 51 50 52 64 53 83 54 48 55 49 56
REMARK SMILES IDX 63 58 84 59 51 60 35 61 36 62 44 63 37 64 39 65 45 66 38 67
REMARK SMILES IDX 40 68 41 69 42 70 43 71 67 72 68 73 76 74 69 75 71 76 77 77
REMARK SMILES IDX 70 78 72 79 73 80 74 81 75 82 52 83 53 84 61 85 54 86 56 87
REMARK SMILES IDX 62 88 55 89 57 90 58 91 59 92 60 93
REMARK H PARENT 19 6 9 15 23 27 82 46 50 57
REMARK Flexibility Score: inf
ROOT
ATOM      1  C   UNL     1       0.441   5.295   2.382  1.00  0.00     0.042 C 
ENDROOT
BRANCH   1   2
ATOM      2  C   UNL     1       0.559   3.865   2.898  1.00  0.00     0.117 C 
BRANCH   2   3
ATOM      3  N   UNL     1      -0.502   3.534   3.829  1.00  0.00    -0.356 N 
ATOM      4  C   UNL     1      -1.655   2.845   3.585  1.00  0.00     0.224 C 
ATOM      5  O   UNL     1      -2.481   2.742   4.495  1.00  0.00    -0.275 OA
ATOM      6  H   UNL     1      -0.375   3.847   4.755  1.00  0.00     0.163 HD
BRANCH   4   7
ATOM      7  C   UNL     1      -1.863   2.173   2.240  1.00  0.00     0.137 C 
BRANCH   7   8
ATOM      8  C   UNL     1      -2.140   3.127   1.096  1.00  0.00    -0.015 A 
ATOM      9  C   UNL     1      -1.347   3.183  -0.071  1.00  0.00     0.042 A 
ATOM     10  C   UNL     1      -1.624   4.178  -1.029  1.00  0.00     0.026 A 
ATOM     11  C   UNL     1      -2.681   5.072  -0.868  1.00  0.00     0.002 A 
ATOM     12  C   UNL     1      -3.224   4.021   1.230  1.00  0.00     0.006 A 
ATOM     13  C   UNL     1      -3.492   4.982   0.256  1.00  0.00     0.000 A 
BRANCH   9  14
ATOM     14  N   UNL     1      -0.318   2.272  -0.385  1.00  0.00    -0.355 N 
ATOM     15  H   UNL     1       0.501   2.706  -0.717  1.00  0.00     0.167 HD
BRANCH  14  16
ATOM     16  C   UNL     1      -0.222   0.863  -0.320  1.00  0.00     0.044 A 
ATOM     17  C   UNL     1       2.307   1.135  -0.022  1.00  0.00     0.046 C 
ATOM     18  C   UNL     1       1.062   0.289  -0.107  1.00  0.00    -0.027 A 
ATOM     19  C   UNL     1       1.196  -1.099   0.061  1.00  0.00     0.005 A 
ATOM     20  C   UNL     1       0.083  -1.928   0.024  1.00  0.00     0.001 A 
ATOM     21  C   UNL     1      -1.341   0.001  -0.409  1.00  0.00    -0.027 A 
ATOM     22  C   UNL     1      -1.173  -1.382  -0.207  1.00  0.00     0.005 A 
ATOM     23  C   UNL     1      -2.731   0.473  -0.749  1.00  0.00     0.046 C 
ENDBRANCH  14  16
ENDBRANCH   9  14
ENDBRANCH   7   8
ENDBRANCH   4   7
ENDBRANCH   2   3
ENDBRANCH   1   2
BRANCH   1  24
ATOM     24  C   UNL     1       0.641   6.354   3.462  1.00  0.00     0.118 C 
BRANCH  24  25
ATOM     25  N   UNL     1       1.964   6.279   4.072  1.00  0.00    -0.352 N 
ATOM     26  C   UNL     1       2.940   7.235   4.175  1.00  0.00     0.251 C 
ATOM     27  H   UNL     1       2.190   5.409   4.472  1.00  0.00     0.163 HD
ATOM     28  O   UNL     1       4.072   6.907   4.534  1.00  0.00    -0.269 OA
BRANCH  26  29
ATOM     29  C   UNL     1       2.647   8.645   3.849  1.00  0.00     0.039 A 
ATOM     30  C   UNL     1       3.589   9.381   3.125  1.00  0.00     0.014 A 
ATOM     31  C   UNL     1       1.458   9.248   4.269  1.00  0.00     0.014 A 
ATOM     32  C   UNL     1       3.308  10.700   2.764  1.00  0.00     0.010 A 
ATOM     33  C   UNL     1       1.148  10.537   3.845  1.00  0.00     0.010 A 
ATOM     34  C   UNL     1       2.068  11.275   3.087  1.00  0.00    -0.014 A 
BRANCH  34  35
ATOM     35  C   UNL     1       1.698  12.627   2.598  1.00  0.00     0.031 A 
ATOM     36  C   UNL     1       1.423  13.744   3.566  1.00  0.00     0.074 A 
ATOM     37  C   UNL     1       1.517  12.818   1.276  1.00  0.00     0.049 A 
ATOM     38  N   UNL     1       1.034  14.968   3.320  1.00  0.00    -0.248 NA
ATOM     39  C   UNL     1       1.584  13.443   4.998  1.00  0.00     0.031 C 
ATOM     40  C   UNL     1       1.679  11.790   0.245  1.00  0.00     0.029 A 
ATOM     41  N   UNL     1       1.131  13.932   0.574  1.00  0.00    -0.354 N 
ATOM     42  C   UNL     1       0.869  15.572   4.560  1.00  0.00     0.074 A 
ATOM     43  C   UNL     1       1.175  14.572   5.560  1.00  0.00     0.031 C 
ATOM     44  C   UNL     1       1.399  12.321  -0.955  1.00  0.00     0.029 A 
ATOM     45  C   UNL     1       1.000  13.713  -0.778  1.00  0.00     0.049 A 
ATOM     46  H   UNL     1       0.963  14.805   0.998  1.00  0.00     0.167 HD
ATOM     47  C   UNL     1       0.517  16.850   4.841  1.00  0.00     0.034 A 
ATOM     48  C   UNL     1       0.590  14.535  -1.763  1.00  0.00     0.034 A 
ATOM     49  C   UNL     1       0.243  17.848   3.841  1.00  0.00     0.049 A 
ATOM     50  C   UNL     1       0.220  15.952  -1.424  1.00  0.00     0.074 A 
ATOM     51  C   UNL     1      -0.025  19.193   4.021  1.00  0.00     0.029 A 
ATOM     52  N   UNL     1       0.182  17.608   2.477  1.00  0.00    -0.354 N 
ATOM     53  N   UNL     1       0.237  16.553  -0.259  1.00  0.00    -0.248 NA
ATOM     54  C   UNL     1      -0.199  16.814  -2.538  1.00  0.00     0.031 C 
ATOM     55  C   UNL     1      -0.287  19.758   2.769  1.00  0.00     0.029 A 
ATOM     56  C   UNL     1      -0.146  18.773   1.805  1.00  0.00     0.049 A 
ATOM     57  H   UNL     1       0.347  16.737   2.049  1.00  0.00     0.167 HD
ATOM     58  C   UNL     1      -0.143  17.868  -0.502  1.00  0.00     0.074 A 
ATOM     59  C   UNL     1      -0.354  17.983  -1.931  1.00  0.00     0.031 C 
ATOM     60  C   UNL     1      -0.319  18.884   0.379  1.00  0.00     0.034 A 
BRANCH  47  61
ATOM     61  C   UNL     1       0.446  17.257   6.290  1.00  0.00     0.023 A 
ATOM     62  C   UNL     1       1.634  17.382   7.040  1.00  0.00     0.012 A 
ATOM     63  C   UNL     1      -0.786  17.581   6.892  1.00  0.00     0.148 A 
ATOM     64  C   UNL     1       1.594  17.787   8.374  1.00  0.00     0.002 A 
ATOM     65  C   UNL     1      -0.814  18.029   8.207  1.00  0.00     0.091 A 
ATOM     66  F   UNL     1      -1.907  17.439   6.170  1.00  0.00    -0.205 F 
ATOM     67  C   UNL     1       0.373  18.121   8.953  1.00  0.00     0.022 A 
BRANCH  65  68
ATOM     68  S   UNL     1      -2.324  18.561   9.021  1.00  0.00     0.127 S 
ATOM     69  O   UNL     1      -2.517  17.500  10.008  1.00  0.00    -0.237 OA
ATOM     70  O   UNL     1      -1.931  19.853   9.584  1.00  0.00    -0.237 OA
ATOM     71  O   UNL     1      -3.338  18.635   7.979  1.00  0.00    -0.744 OA
ENDBRANCH  65  68
ENDBRANCH  47  61
BRANCH  48  72
ATOM     72  C   UNL     1       0.555  14.049  -3.172  1.00  0.00     0.023 A 
ATOM     73  C   UNL     1       1.476  14.564  -4.104  1.00  0.00     0.012 A 
ATOM     74  C   UNL     1      -0.362  13.062  -3.585  1.00  0.00     0.148 A 
ATOM     75  C   UNL     1       1.464  14.130  -5.430  1.00  0.00     0.002 A 
ATOM     76  C   UNL     1      -0.330  12.592  -4.892  1.00  0.00     0.091 A 
ATOM     77  F   UNL     1      -1.237  12.592  -2.685  1.00  0.00    -0.205 F 
ATOM     78  C   UNL     1       0.569  13.138  -5.821  1.00  0.00     0.022 A 
BRANCH  76  79
ATOM     79  S   UNL     1      -1.350  11.222  -5.449  1.00  0.00     0.127 S 
ATOM     80  O   UNL     1      -2.275  11.889  -6.362  1.00  0.00    -0.237 OA
ATOM     81  O   UNL     1      -0.363  10.355  -6.095  1.00  0.00    -0.237 OA
ATOM     82  O   UNL     1      -1.946  10.658  -4.245  1.00  0.00    -0.744 OA
ENDBRANCH  76  79
ENDBRANCH  48  72
BRANCH  60  83
ATOM     83  C   UNL     1      -0.747  20.218  -0.175  1.00  0.00     0.023 A 
ATOM     84  C   UNL     1      -2.059  20.385  -0.661  1.00  0.00     0.012 A 
ATOM     85  C   UNL     1       0.127  21.323  -0.153  1.00  0.00     0.148 A 
ATOM     86  C   UNL     1      -2.484  21.620  -1.149  1.00  0.00     0.002 A 
ATOM     87  C   UNL     1      -0.319  22.564  -0.592  1.00  0.00     0.091 A 
ATOM     88  F   UNL     1       1.377  21.141   0.299  1.00  0.00    -0.205 F 
ATOM     89  C   UNL     1      -1.619  22.711  -1.103  1.00  0.00     0.022 A 
BRANCH  87  90
ATOM     90  S   UNL     1       0.689  24.047  -0.485  1.00  0.00     0.127 S 
ATOM     91  O   UNL     1       0.969  24.319  -1.895  1.00  0.00    -0.237 OA
ATOM     92  O   UNL     1      -0.226  24.996   0.149  1.00  0.00    -0.237 OA
ATOM     93  O   UNL     1       1.848  23.690   0.321  1.00  0.00    -0.744 OA
ENDBRANCH  87  90
ENDBRANCH  60  83
ENDBRANCH  34  35
ENDBRANCH  26  29
ENDBRANCH  24  25
ENDBRANCH   1  24
TORSDOF 16
