REMARK SMILES COc1cc([N+](=O)[O-])cc([C@H]2[NH2+][C@H](C(=O)NCCCNC(=O)c3ccc(-c4c5nc(c(-c6cccc(S(=O)(=O)[O-])c6F)c6ccc([nH]6)c(-c6cccc(S(=O)(=O)[O-])c6F)c6nc(c(-c7cccc(S(=O)(=O)[O-])c7F)c7ccc4[nH]7)C=C6)C=C5)cc3)CS2)c1O
REMARK SMILES IDX 18 1 17 2 16 3 14 4 15 5 13 7 11 8 12 9 87 10 86 13 10 14
REMARK SMILES IDX 3 15 4 16 88 17 5 18 9 19 2 20 1 21 89 22 6 24 7 25 8 26
REMARK SMILES IDX 19 27 20 28 21 29 22 31 23 32 24 33 85 34 25 35 84 36 26 37
REMARK SMILES IDX 27 38 28 39 78 40 29 41 83 42 77 43 79 44 30 45 82 46 76 47
REMARK SMILES IDX 75 48 31 50 63 51 43 52 62 53 44 54 47 55 61 56 80 57 45 58
REMARK SMILES IDX 46 59 60 61 81 62 48 63 32 64 33 65 41 66 34 67 36 68 42 69
REMARK SMILES IDX 35 70 37 71 38 72 39 73 40 74 64 75 65 76 73 77 66 78 68 79
REMARK SMILES IDX 74 80 67 81 69 82 70 83 71 84 72 85 49 86 50 87 58 88 51 89
REMARK SMILES IDX 53 90 59 91 52 92 54 93 55 94 56 95 57 96
REMARK H PARENT 16 6 12 11 12 12 89 23 20 30 79 49 47 60
REMARK Flexibility Score: inf
ROOT
ATOM      1  C   UNL     1       1.733  -2.490   1.275  1.00  0.00     0.042 C 
ENDROOT
BRANCH   1   2
ATOM      2  C   UNL     1       1.657  -1.865  -0.114  1.00  0.00     0.118 C 
BRANCH   2   3
ATOM      3  N   UNL     1       2.954  -1.481  -0.629  1.00  0.00    -0.351 N 
ATOM      4  C   UNL     1       3.780  -2.094  -1.522  1.00  0.00     0.279 C 
ATOM      5  O   UNL     1       4.825  -1.503  -1.814  1.00  0.00    -0.268 OA
ATOM      6  H   UNL     1       3.298  -0.630  -0.273  1.00  0.00     0.163 HD
BRANCH   4   7
ATOM      7  C   UNL     1       3.446  -3.439  -2.188  1.00  0.00     0.283 C 
ATOM      8  C   UNL     1       2.098  -5.178  -1.150  1.00  0.00     0.278 C 
ATOM      9  N   UNL     1       3.420  -4.549  -1.201  1.00  0.00    -0.320 N 
ATOM     10  S   UNL     1       1.365  -4.947  -2.786  1.00  0.00    -0.087 SA
ATOM     11  H   UNL     1       4.112  -5.249  -1.469  1.00  0.00     0.348 HD
ATOM     12  H   UNL     1       3.633  -4.167  -0.280  1.00  0.00     0.348 HD
ATOM     13  C   UNL     1       2.223  -3.391  -3.090  1.00  0.00     0.151 C 
BRANCH   8  14
ATOM     14  C   UNL     1       2.156  -6.593  -0.572  1.00  0.00     0.073 A 
ATOM     15  C   UNL     1       1.546  -8.973  -0.383  1.00  0.00     0.167 A 
ATOM     16  C   UNL     1       2.339  -9.097   0.763  1.00  0.00     0.136 A 
ATOM     17  C   UNL     1       1.450  -7.726  -1.039  1.00  0.00     0.168 A 
ATOM     18  C   UNL     1       3.022  -7.990   1.259  1.00  0.00     0.273 A 
ATOM     19  C   UNL     1       2.925  -6.753   0.610  1.00  0.00     0.100 A 
BRANCH  15  20
ATOM     20  O   UNL     1       0.951 -10.160  -0.723  1.00  0.00    -0.493 OA
ATOM     21  C   UNL     1       0.027 -10.187  -1.800  1.00  0.00     0.278 C 
ENDBRANCH  15  20
BRANCH  17  22
ATOM     22  O   UNL     1       0.641  -7.649  -2.139  1.00  0.00    -0.504 OA
ATOM     23  H   UNL     1       0.180  -8.409  -2.436  1.00  0.00     0.293 HD
ENDBRANCH  17  22
BRANCH  18  24
ATOM     24  N   UNL     1       3.874  -8.127   2.446  1.00  0.00     0.062 N 
ATOM     25  O   UNL     1       4.165  -9.273   2.812  1.00  0.00    -0.258 OA
ATOM     26  O   UNL     1       4.294  -7.083   2.966  1.00  0.00    -0.258 OA
ENDBRANCH  18  24
ENDBRANCH   8  14
ENDBRANCH   4   7
ENDBRANCH   2   3
ENDBRANCH   1   2
BRANCH   1  27
ATOM     27  C   UNL     1       1.937  -1.474   2.392  1.00  0.00     0.118 C 
BRANCH  27  28
ATOM     28  N   UNL     1       0.816  -0.549   2.499  1.00  0.00    -0.352 N 
ATOM     29  C   UNL     1       0.000  -0.253   3.561  1.00  0.00     0.251 C 
ATOM     30  H   UNL     1       0.610  -0.054   1.673  1.00  0.00     0.163 HD
ATOM     31  O   UNL     1      -1.025   0.393   3.354  1.00  0.00    -0.269 OA
BRANCH  29  32
ATOM     32  C   UNL     1       0.335  -0.692   4.934  1.00  0.00     0.039 A 
ATOM     33  C   UNL     1      -0.710  -1.031   5.800  1.00  0.00     0.014 A 
ATOM     34  C   UNL     1       1.653  -0.707   5.397  1.00  0.00     0.014 A 
ATOM     35  C   UNL     1      -0.429  -1.412   7.113  1.00  0.00     0.010 A 
ATOM     36  C   UNL     1       1.937  -1.167   6.680  1.00  0.00     0.010 A 
ATOM     37  C   UNL     1       0.899  -1.500   7.559  1.00  0.00    -0.014 A 
BRANCH  37  38
ATOM     38  C   UNL     1       1.212  -1.929   8.946  1.00  0.00     0.031 A 
ATOM     39  C   UNL     1       1.897  -0.988   9.900  1.00  0.00     0.074 A 
ATOM     40  C   UNL     1       0.937  -3.193   9.323  1.00  0.00     0.049 A 
ATOM     41  N   UNL     1       2.251  -1.189  11.143  1.00  0.00    -0.248 NA
ATOM     42  C   UNL     1       2.259   0.343   9.385  1.00  0.00     0.031 C 
ATOM     43  C   UNL     1       0.363  -4.226   8.457  1.00  0.00     0.029 A 
ATOM     44  N   UNL     1       1.124  -3.831  10.522  1.00  0.00    -0.354 N 
ATOM     45  C   UNL     1       2.908  -0.032  11.545  1.00  0.00     0.074 A 
ATOM     46  C   UNL     1       2.935   0.856  10.403  1.00  0.00     0.031 C 
ATOM     47  C   UNL     1       0.237  -5.365   9.157  1.00  0.00     0.029 A 
ATOM     48  C   UNL     1       0.739  -5.151  10.510  1.00  0.00     0.049 A 
ATOM     49  H   UNL     1       1.499  -3.386  11.316  1.00  0.00     0.167 HD
ATOM     50  C   UNL     1       3.415   0.279  12.762  1.00  0.00     0.034 A 
ATOM     51  C   UNL     1       0.782  -6.083  11.482  1.00  0.00     0.034 A 
ATOM     52  C   UNL     1       3.339  -0.589  13.907  1.00  0.00     0.049 A 
ATOM     53  C   UNL     1       1.279  -5.689  12.845  1.00  0.00     0.074 A 
ATOM     54  C   UNL     1       3.729  -0.333  15.209  1.00  0.00     0.029 A 
ATOM     55  N   UNL     1       2.845  -1.885  13.885  1.00  0.00    -0.354 N 
ATOM     56  N   UNL     1       1.732  -4.528  13.255  1.00  0.00    -0.248 NA
ATOM     57  C   UNL     1       1.229  -6.718  13.893  1.00  0.00     0.031 C 
ATOM     58  C   UNL     1       3.488  -1.481  15.972  1.00  0.00     0.029 A 
ATOM     59  C   UNL     1       2.925  -2.444  15.149  1.00  0.00     0.049 A 
ATOM     60  H   UNL     1       2.490  -2.340  13.088  1.00  0.00     0.167 HD
ATOM     61  C   UNL     1       1.988  -4.676  14.613  1.00  0.00     0.074 A 
ATOM     62  C   UNL     1       1.615  -6.033  14.961  1.00  0.00     0.031 C 
ATOM     63  C   UNL     1       2.502  -3.778  15.489  1.00  0.00     0.034 A 
BRANCH  50  64
ATOM     64  C   UNL     1       4.044   1.638  12.935  1.00  0.00     0.023 A 
ATOM     65  C   UNL     1       3.226   2.787  12.937  1.00  0.00     0.012 A 
ATOM     66  C   UNL     1       5.429   1.778  13.148  1.00  0.00     0.148 A 
ATOM     67  C   UNL     1       3.779   4.055  13.111  1.00  0.00     0.002 A 
ATOM     68  C   UNL     1       5.968   3.042  13.365  1.00  0.00     0.091 A 
ATOM     69  F   UNL     1       6.196   0.679  13.121  1.00  0.00    -0.205 F 
ATOM     70  C   UNL     1       5.147   4.181  13.335  1.00  0.00     0.022 A 
BRANCH  68  71
ATOM     71  S   UNL     1       7.705   3.303  13.743  1.00  0.00     0.127 S 
ATOM     72  O   UNL     1       8.189   3.905  12.502  1.00  0.00    -0.237 OA
ATOM     73  O   UNL     1       7.638   4.223  14.880  1.00  0.00    -0.237 OA
ATOM     74  O   UNL     1       8.248   1.990  14.057  1.00  0.00    -0.744 OA
ENDBRANCH  68  71
ENDBRANCH  50  64
BRANCH  51  75
ATOM     75  C   UNL     1       0.261  -7.453  11.217  1.00  0.00     0.023 A 
ATOM     76  C   UNL     1      -0.946  -7.862  11.819  1.00  0.00     0.012 A 
ATOM     77  C   UNL     1       0.926  -8.335  10.345  1.00  0.00     0.148 A 
ATOM     78  C   UNL     1      -1.464  -9.135  11.581  1.00  0.00     0.002 A 
ATOM     79  C   UNL     1       0.374  -9.581  10.068  1.00  0.00     0.091 A 
ATOM     80  F   UNL     1       2.078  -7.932   9.791  1.00  0.00    -0.205 F 
ATOM     81  C   UNL     1      -0.810  -9.990  10.698  1.00  0.00     0.022 A 
BRANCH  79  82
ATOM     82  S   UNL     1       1.072 -10.687   8.837  1.00  0.00     0.127 S 
ATOM     83  O   UNL     1       1.635 -11.747   9.674  1.00  0.00    -0.237 OA
ATOM     84  O   UNL     1      -0.116 -11.075   8.072  1.00  0.00    -0.237 OA
ATOM     85  O   UNL     1       2.030  -9.889   8.092  1.00  0.00    -0.744 OA
ENDBRANCH  79  82
ENDBRANCH  51  75
BRANCH  63  86
ATOM     86  C   UNL     1       2.662  -4.219  16.921  1.00  0.00     0.023 A 
ATOM     87  C   UNL     1       3.668  -5.145  17.261  1.00  0.00     0.012 A 
ATOM     88  C   UNL     1       1.853  -3.672  17.936  1.00  0.00     0.148 A 
ATOM     89  C   UNL     1       3.842  -5.549  18.584  1.00  0.00     0.002 A 
ATOM     90  C   UNL     1       2.065  -4.043  19.259  1.00  0.00     0.091 A 
ATOM     91  F   UNL     1       0.887  -2.809  17.592  1.00  0.00    -0.205 F 
ATOM     92  C   UNL     1       3.049  -4.990  19.583  1.00  0.00     0.022 A 
BRANCH  90  93
ATOM     93  S   UNL     1       1.154  -3.298  20.617  1.00  0.00     0.127 S 
ATOM     94  O   UNL     1       0.196  -4.352  20.948  1.00  0.00    -0.237 OA
ATOM     95  O   UNL     1       2.200  -3.089  21.619  1.00  0.00    -0.237 OA
ATOM     96  O   UNL     1       0.580  -2.070  20.084  1.00  0.00    -0.744 OA
ENDBRANCH  90  93
ENDBRANCH  63  86
ENDBRANCH  37  38
ENDBRANCH  29  32
ENDBRANCH  27  28
ENDBRANCH   1  27
TORSDOF 17
