REMARK SMILES Cc1ccccc1Sc1cncc(C(=O)NCCCNC(=O)c2ccc(-c3c4nc(c(-c5cccc(S(=O)(=O)[O-])c5F)c5ccc([nH]5)c(-c5cccc(S(=O)(=O)[O-])c5F)c5nc(c(-c6cccc(S(=O)(=O)[O-])c6F)c6ccc3[nH]6)C=C5)C=C4)cc2)n1
REMARK SMILES IDX 18 1 17 2 16 3 14 4 15 5 13 7 9 8 10 9 86 10 11 11 12 12
REMARK SMILES IDX 8 13 7 14 1 15 2 16 3 17 4 18 6 19 5 20 19 21 20 22 21 23
REMARK SMILES IDX 22 25 23 26 24 27 85 28 25 29 84 30 26 31 27 32 28 33 78 34
REMARK SMILES IDX 29 35 83 36 77 37 79 38 30 39 82 40 76 41 75 42 31 44 63 45
REMARK SMILES IDX 43 46 62 47 44 48 47 49 61 50 80 51 45 52 46 53 60 55 81 56
REMARK SMILES IDX 48 57 32 58 33 59 41 60 34 61 36 62 42 63 35 64 37 65 38 66
REMARK SMILES IDX 39 67 40 68 64 69 65 70 73 71 66 72 68 73 74 74 67 75 69 76
REMARK SMILES IDX 70 77 71 78 72 79 49 80 50 81 58 82 51 83 53 84 59 85 52 86
REMARK SMILES IDX 54 87 55 88 56 89 57 90
REMARK H PARENT 16 6 20 24 79 43 47 54
REMARK Flexibility Score: inf
ROOT
ATOM      1  C   UNL     1       2.887   3.810   3.387  1.00  0.00     0.042 C 
ENDROOT
BRANCH   1   2
ATOM      2  C   UNL     1       3.941   4.670   2.692  1.00  0.00     0.118 C 
BRANCH   2   3
ATOM      3  N   UNL     1       5.245   4.017   2.647  1.00  0.00    -0.351 N 
ATOM      4  C   UNL     1       5.770   3.162   1.699  1.00  0.00     0.271 C 
ATOM      5  O   UNL     1       6.941   2.796   1.803  1.00  0.00    -0.267 OA
ATOM      6  H   UNL     1       5.840   4.216   3.407  1.00  0.00     0.163 HD
BRANCH   4   7
ATOM      7  C   UNL     1       4.972   2.684   0.534  1.00  0.00     0.147 A 
ATOM      8  C   UNL     1       2.950   2.365  -0.525  1.00  0.00     0.120 A 
ATOM      9  C   UNL     1       3.623   1.869  -1.636  1.00  0.00     0.146 A 
ATOM     10  N   UNL     1       3.621   2.791   0.567  1.00  0.00    -0.233 NA
ATOM     11  N   UNL     1       4.972   1.720  -1.676  1.00  0.00    -0.259 NA
ATOM     12  C   UNL     1       5.629   2.135  -0.559  1.00  0.00     0.145 A 
BRANCH   8  13
ATOM     13  S   UNL     1       1.208   2.590  -0.488  1.00  0.00    -0.068 SA
BRANCH  13  14
ATOM     14  C   UNL     1       0.409   1.012  -0.205  1.00  0.00     0.017 A 
ATOM     15  C   UNL     1       2.417  -0.529   0.337  1.00  0.00     0.045 C 
ATOM     16  C   UNL     1       0.958  -0.249   0.106  1.00  0.00    -0.037 A 
ATOM     17  C   UNL     1       0.094  -1.363   0.217  1.00  0.00     0.004 A 
ATOM     18  C   UNL     1      -1.287  -1.238   0.086  1.00  0.00     0.000 A 
ATOM     19  C   UNL     1      -0.997   1.111  -0.310  1.00  0.00     0.016 A 
ATOM     20  C   UNL     1      -1.837   0.007  -0.162  1.00  0.00     0.001 A 
ENDBRANCH  13  14
ENDBRANCH   8  13
ENDBRANCH   4   7
ENDBRANCH   2   3
ENDBRANCH   1   2
BRANCH   1  21
ATOM     21  C   UNL     1       2.932   3.965   4.902  1.00  0.00     0.118 C 
BRANCH  21  22
ATOM     22  N   UNL     1       2.017   4.975   5.420  1.00  0.00    -0.352 N 
ATOM     23  C   UNL     1       1.910   5.519   6.690  1.00  0.00     0.251 C 
ATOM     24  H   UNL     1       1.375   5.328   4.763  1.00  0.00     0.163 HD
ATOM     25  O   UNL     1       0.965   6.253   6.935  1.00  0.00    -0.269 OA
BRANCH  23  26
ATOM     26  C   UNL     1       2.981   5.287   7.695  1.00  0.00     0.039 A 
ATOM     27  C   UNL     1       3.415   6.367   8.478  1.00  0.00     0.014 A 
ATOM     28  C   UNL     1       3.660   4.074   7.753  1.00  0.00     0.014 A 
ATOM     29  C   UNL     1       4.650   6.303   9.127  1.00  0.00     0.010 A 
ATOM     30  C   UNL     1       4.921   4.038   8.308  1.00  0.00     0.010 A 
ATOM     31  C   UNL     1       5.441   5.171   8.943  1.00  0.00    -0.014 A 
BRANCH  31  32
ATOM     32  C   UNL     1       6.860   5.087   9.257  1.00  0.00     0.031 A 
ATOM     33  C   UNL     1       7.342   4.309  10.414  1.00  0.00     0.074 A 
ATOM     34  C   UNL     1       7.736   5.523   8.325  1.00  0.00     0.049 A 
ATOM     35  N   UNL     1       8.528   4.410  10.912  1.00  0.00    -0.248 NA
ATOM     36  C   UNL     1       6.494   3.361  11.122  1.00  0.00     0.031 C 
ATOM     37  C   UNL     1       9.135   5.140   8.185  1.00  0.00     0.029 A 
ATOM     38  N   UNL     1       7.575   6.579   7.423  1.00  0.00    -0.354 N 
ATOM     39  C   UNL     1       8.696   3.367  11.801  1.00  0.00     0.074 A 
ATOM     40  C   UNL     1       7.376   2.803  11.957  1.00  0.00     0.031 C 
ATOM     41  C   UNL     1       9.771   6.092   7.486  1.00  0.00     0.029 A 
ATOM     42  C   UNL     1       8.835   7.188   7.308  1.00  0.00     0.049 A 
ATOM     43  H   UNL     1       6.746   6.843   6.962  1.00  0.00     0.167 HD
ATOM     44  C   UNL     1       9.959   3.011  12.177  1.00  0.00     0.034 A 
ATOM     45  C   UNL     1       9.080   8.496   7.606  1.00  0.00     0.034 A 
ATOM     46  C   UNL     1      10.958   3.912  11.581  1.00  0.00     0.049 A 
ATOM     47  C   UNL     1      10.164   8.677   8.652  1.00  0.00     0.074 A 
ATOM     48  C   UNL     1      11.777   3.794  10.469  1.00  0.00     0.029 A 
ATOM     49  N   UNL     1      11.039   5.236  11.992  1.00  0.00    -0.354 N 
ATOM     50  N   UNL     1      10.681   7.700   9.343  1.00  0.00    -0.248 NA
ATOM     51  C   UNL     1      10.729   9.971   9.024  1.00  0.00     0.031 C 
ATOM     52  C   UNL     1      12.297   5.079  10.169  1.00  0.00     0.029 A 
ATOM     53  C   UNL     1      11.816   5.972  11.111  1.00  0.00     0.049 A 
ATOM     54  H   UNL     1      10.604   5.601  12.796  1.00  0.00     0.167 HD
ATOM     55  C   UNL     1      11.507   8.201  10.315  1.00  0.00     0.074 A 
ATOM     56  C   UNL     1      11.566   9.622  10.018  1.00  0.00     0.031 C 
ATOM     57  C   UNL     1      12.011   7.405  11.310  1.00  0.00     0.034 A 
BRANCH  44  58
ATOM     58  C   UNL     1      10.357   1.680  12.808  1.00  0.00     0.023 A 
ATOM     59  C   UNL     1      11.717   1.299  12.709  1.00  0.00     0.012 A 
ATOM     60  C   UNL     1       9.506   0.734  13.422  1.00  0.00     0.148 A 
ATOM     61  C   UNL     1      12.178   0.027  13.068  1.00  0.00     0.002 A 
ATOM     62  C   UNL     1       9.946  -0.561  13.720  1.00  0.00     0.091 A 
ATOM     63  F   UNL     1       8.285   1.095  13.819  1.00  0.00    -0.205 F 
ATOM     64  C   UNL     1      11.282  -0.921  13.535  1.00  0.00     0.022 A 
BRANCH  62  65
ATOM     65  S   UNL     1       8.824  -1.860  14.271  1.00  0.00     0.127 S 
ATOM     66  O   UNL     1       9.112  -2.938  13.323  1.00  0.00    -0.237 OA
ATOM     67  O   UNL     1       9.281  -2.113  15.636  1.00  0.00    -0.237 OA
ATOM     68  O   UNL     1       7.478  -1.311  14.152  1.00  0.00    -0.744 OA
ENDBRANCH  62  65
ENDBRANCH  44  58
BRANCH  45  69
ATOM     69  C   UNL     1       7.908   9.395   7.406  1.00  0.00     0.023 A 
ATOM     70  C   UNL     1       7.448   9.552   6.077  1.00  0.00     0.012 A 
ATOM     71  C   UNL     1       7.056   9.750   8.466  1.00  0.00     0.148 A 
ATOM     72  C   UNL     1       6.135   9.942   5.812  1.00  0.00     0.002 A 
ATOM     73  C   UNL     1       5.743  10.135   8.193  1.00  0.00     0.091 A 
ATOM     74  F   UNL     1       7.509   9.628   9.720  1.00  0.00    -0.205 F 
ATOM     75  C   UNL     1       5.274  10.202   6.871  1.00  0.00     0.022 A 
BRANCH  73  76
ATOM     76  S   UNL     1       4.545  10.410   9.506  1.00  0.00     0.127 S 
ATOM     77  O   UNL     1       4.588  11.863   9.641  1.00  0.00    -0.237 OA
ATOM     78  O   UNL     1       3.314   9.879   8.922  1.00  0.00    -0.237 OA
ATOM     79  O   UNL     1       5.047   9.640  10.635  1.00  0.00    -0.744 OA
ENDBRANCH  73  76
ENDBRANCH  45  69
BRANCH  57  80
ATOM     80  C   UNL     1      12.721   7.888  12.563  1.00  0.00     0.023 A 
ATOM     81  C   UNL     1      12.586   9.203  13.049  1.00  0.00     0.012 A 
ATOM     82  C   UNL     1      13.435   6.980  13.390  1.00  0.00     0.148 A 
ATOM     83  C   UNL     1      13.165   9.613  14.257  1.00  0.00     0.002 A 
ATOM     84  C   UNL     1      13.916   7.365  14.641  1.00  0.00     0.091 A 
ATOM     85  F   UNL     1      13.674   5.730  12.966  1.00  0.00    -0.205 F 
ATOM     86  C   UNL     1      13.808   8.689  15.067  1.00  0.00     0.022 A 
BRANCH  84  87
ATOM     87  S   UNL     1      14.539   6.136  15.798  1.00  0.00     0.127 S 
ATOM     88  O   UNL     1      15.950   6.053  15.431  1.00  0.00    -0.237 OA
ATOM     89  O   UNL     1      14.286   6.760  17.099  1.00  0.00    -0.237 OA
ATOM     90  O   UNL     1      13.730   4.951  15.543  1.00  0.00    -0.744 OA
ENDBRANCH  84  87
ENDBRANCH  57  80
ENDBRANCH  31  32
ENDBRANCH  23  26
ENDBRANCH  21  22
ENDBRANCH   1  21
TORSDOF 15
