REMARK SMILES NS(=O)(=O)c1ccc(/N=N/c2ccc(O)c(C(=O)NCCCNC(=O)c3ccc(-c4c5nc(c(-c6cccc(S(=O)(=O)[O-])c6F)c6ccc([nH]6)c(-c6cccc(S(=O)(=O)[O-])c6F)c6nc(c(-c7cccc(S(=O)(=O)[O-])c7F)c7ccc4[nH]7)C=C6)C=C5)cc3)c2)cc1
REMARK SMILES IDX 20 1 19 2 17 3 18 4 16 6 11 7 12 8 89 9 13 10 14 11 10 12
REMARK SMILES IDX 9 13 8 14 5 15 6 16 91 17 7 18 90 19 2 20 3 21 4 22 1 23
REMARK SMILES IDX 15 26 21 28 22 29 23 30 24 31 25 33 26 34 27 35 88 36 28 37
REMARK SMILES IDX 87 38 29 39 30 40 31 41 81 42 32 43 86 44 80 45 82 46 33 47
REMARK SMILES IDX 85 48 79 49 78 50 34 52 66 53 46 54 65 55 47 56 50 57 64 58
REMARK SMILES IDX 83 59 48 60 49 61 63 63 84 64 51 65 35 66 36 67 44 68 37 69
REMARK SMILES IDX 39 70 45 71 38 72 40 73 41 74 42 75 43 76 67 77 68 78 76 79
REMARK SMILES IDX 69 80 71 81 77 82 70 83 72 84 73 85 74 86 75 87 52 88 53 89
REMARK SMILES IDX 61 90 54 91 56 92 62 93 55 94 57 95 58 96 59 97 60 98
REMARK H PARENT 19 5 1 24 1 25 15 27 23 32 82 51 50 62
REMARK Flexibility Score: inf
ROOT
ATOM      1  C   UNL     1       4.198  -5.623   6.678  1.00  0.00     0.118 C 
ENDROOT
BRANCH   1   2
ATOM      2  N   UNL     1       4.385  -6.192   8.011  1.00  0.00    -0.352 N 
ATOM      3  C   UNL     1       3.977  -5.803   9.266  1.00  0.00     0.255 C 
ATOM      4  O   UNL     1       4.357  -6.463  10.236  1.00  0.00    -0.269 OA
ATOM      5  H   UNL     1       4.909  -7.025   8.011  1.00  0.00     0.163 HD
BRANCH   3   6
ATOM      6  C   UNL     1       3.163  -4.589   9.533  1.00  0.00     0.083 A 
ATOM      7  C   UNL     1       1.725  -2.796   8.732  1.00  0.00     0.087 A 
ATOM      8  C   UNL     1       1.919  -2.108   9.932  1.00  0.00     0.034 A 
ATOM      9  C   UNL     1       2.253  -4.089   8.606  1.00  0.00     0.048 A 
ATOM     10  C   UNL     1       2.682  -2.677  10.955  1.00  0.00     0.049 A 
ATOM     11  C   UNL     1       3.320  -3.899  10.744  1.00  0.00     0.128 A 
BRANCH   7  12
ATOM     12  N   UNL     1       1.084  -2.155   7.645  1.00  0.00    -0.151 NA
ATOM     13  N   UNL     1       1.772  -2.337   6.612  1.00  0.00    -0.151 NA
BRANCH  13  14
ATOM     14  C   UNL     1       1.328  -1.595   5.508  1.00  0.00     0.086 A 
ATOM     15  C   UNL     1       0.701  -0.167   3.184  1.00  0.00     0.082 A 
ATOM     16  C   UNL     1       0.602  -1.561   3.187  1.00  0.00     0.024 A 
ATOM     17  C   UNL     1       1.113   0.521   4.328  1.00  0.00     0.024 A 
ATOM     18  C   UNL     1       0.924  -2.269   4.348  1.00  0.00     0.031 A 
ATOM     19  C   UNL     1       1.427  -0.198   5.485  1.00  0.00     0.031 A 
BRANCH  15  20
ATOM     20  S   UNL     1       0.307   0.728   1.709  1.00  0.00     0.238 S 
ATOM     21  O   UNL     1       0.714   2.102   1.853  1.00  0.00    -0.207 OA
ATOM     22  O   UNL     1      -1.034   0.357   1.306  1.00  0.00    -0.207 OA
BRANCH  20  23
ATOM     23  N   UNL     1       1.343   0.050   0.578  1.00  0.00    -0.225 NA
ATOM     24  H   UNL     1       1.200   0.498  -0.327  1.00  0.00     0.137 HD
ATOM     25  H   UNL     1       1.150  -0.949   0.497  1.00  0.00     0.137 HD
ENDBRANCH  20  23
ENDBRANCH  15  20
ENDBRANCH  13  14
ENDBRANCH   7  12
BRANCH  11  26
ATOM     26  O   UNL     1       4.093  -4.363  11.777  1.00  0.00    -0.507 OA
ATOM     27  H   UNL     1       4.166  -3.866  12.567  1.00  0.00     0.293 HD
ENDBRANCH  11  26
ENDBRANCH   3   6
ENDBRANCH   1   2
BRANCH   1  28
ATOM     28  C   UNL     1       5.491  -5.231   5.978  1.00  0.00     0.042 C 
BRANCH  28  29
ATOM     29  C   UNL     1       6.401  -6.393   5.617  1.00  0.00     0.118 C 
BRANCH  29  30
ATOM     30  N   UNL     1       5.786  -7.327   4.679  1.00  0.00    -0.352 N 
ATOM     31  C   UNL     1       5.976  -7.515   3.330  1.00  0.00     0.251 C 
ATOM     32  H   UNL     1       5.119  -7.928   5.082  1.00  0.00     0.163 HD
ATOM     33  O   UNL     1       5.189  -8.231   2.713  1.00  0.00    -0.269 OA
BRANCH  31  34
ATOM     34  C   UNL     1       7.094  -6.863   2.610  1.00  0.00     0.039 A 
ATOM     35  C   UNL     1       6.885  -6.393   1.307  1.00  0.00     0.014 A 
ATOM     36  C   UNL     1       8.359  -6.750   3.186  1.00  0.00     0.014 A 
ATOM     37  C   UNL     1       7.920  -5.747   0.621  1.00  0.00     0.010 A 
ATOM     38  C   UNL     1       9.355  -6.021   2.545  1.00  0.00     0.010 A 
ATOM     39  C   UNL     1       9.154  -5.521   1.250  1.00  0.00    -0.014 A 
BRANCH  39  40
ATOM     40  C   UNL     1      10.260  -4.782   0.587  1.00  0.00     0.031 A 
ATOM     41  C   UNL     1      11.592  -5.455   0.375  1.00  0.00     0.074 A 
ATOM     42  C   UNL     1      10.113  -3.474   0.295  1.00  0.00     0.049 A 
ATOM     43  N   UNL     1      12.722  -4.942  -0.036  1.00  0.00    -0.248 NA
ATOM     44  C   UNL     1      11.673  -6.888   0.711  1.00  0.00     0.031 C 
ATOM     45  C   UNL     1       8.901  -2.684   0.526  1.00  0.00     0.029 A 
ATOM     46  N   UNL     1      11.004  -2.567  -0.224  1.00  0.00    -0.354 N 
ATOM     47  C   UNL     1      13.657  -5.967   0.047  1.00  0.00     0.074 A 
ATOM     48  C   UNL     1      12.970  -7.125   0.575  1.00  0.00     0.031 C 
ATOM     49  C   UNL     1       9.125  -1.414   0.155  1.00  0.00     0.029 A 
ATOM     50  C   UNL     1      10.503  -1.288  -0.308  1.00  0.00     0.049 A 
ATOM     51  H   UNL     1      11.915  -2.808  -0.509  1.00  0.00     0.167 HD
ATOM     52  C   UNL     1      14.963  -5.958  -0.312  1.00  0.00     0.034 A 
ATOM     53  C   UNL     1      11.091  -0.140  -0.702  1.00  0.00     0.034 A 
ATOM     54  C   UNL     1      15.623  -4.828  -0.908  1.00  0.00     0.049 A 
ATOM     55  C   UNL     1      12.522  -0.174  -1.167  1.00  0.00     0.074 A 
ATOM     56  C   UNL     1      16.911  -4.748  -1.405  1.00  0.00     0.029 A 
ATOM     57  N   UNL     1      15.043  -3.583  -1.094  1.00  0.00    -0.354 N 
ATOM     58  N   UNL     1      13.346  -1.192  -1.224  1.00  0.00    -0.248 NA
ATOM     59  C   UNL     1      13.094   1.089  -1.656  1.00  0.00     0.031 C 
ATOM     60  C   UNL     1      17.113  -3.450  -1.885  1.00  0.00     0.029 A 
ATOM     61  C   UNL     1      15.945  -2.728  -1.700  1.00  0.00     0.049 A 
ATOM     62  H   UNL     1      14.124  -3.343  -0.833  1.00  0.00     0.167 HD
ATOM     63  C   UNL     1      14.517  -0.704  -1.790  1.00  0.00     0.074 A 
ATOM     64  C   UNL     1      14.291   0.699  -2.074  1.00  0.00     0.031 C 
ATOM     65  C   UNL     1      15.681  -1.353  -2.038  1.00  0.00     0.034 A 
BRANCH  52  66
ATOM     66  C   UNL     1      15.749  -7.230  -0.132  1.00  0.00     0.023 A 
ATOM     67  C   UNL     1      15.496  -8.328  -0.981  1.00  0.00     0.012 A 
ATOM     68  C   UNL     1      16.771  -7.325   0.832  1.00  0.00     0.148 A 
ATOM     69  C   UNL     1      16.220  -9.511  -0.848  1.00  0.00     0.002 A 
ATOM     70  C   UNL     1      17.519  -8.494   0.929  1.00  0.00     0.091 A 
ATOM     71  F   UNL     1      16.985  -6.280   1.645  1.00  0.00    -0.205 F 
ATOM     72  C   UNL     1      17.237  -9.591   0.098  1.00  0.00     0.022 A 
BRANCH  70  73
ATOM     73  S   UNL     1      18.903  -8.666   2.062  1.00  0.00     0.127 S 
ATOM     74  O   UNL     1      18.344  -9.561   3.075  1.00  0.00    -0.237 OA
ATOM     75  O   UNL     1      19.926  -9.274   1.210  1.00  0.00    -0.237 OA
ATOM     76  O   UNL     1      19.216  -7.320   2.518  1.00  0.00    -0.744 OA
ENDBRANCH  70  73
ENDBRANCH  52  66
BRANCH  53  77
ATOM     77  C   UNL     1      10.300   1.122  -0.746  1.00  0.00     0.023 A 
ATOM     78  C   UNL     1       9.943   1.664  -1.997  1.00  0.00     0.012 A 
ATOM     79  C   UNL     1       9.868   1.766   0.429  1.00  0.00     0.148 A 
ATOM     80  C   UNL     1       9.195   2.839  -2.077  1.00  0.00     0.002 A 
ATOM     81  C   UNL     1       9.076   2.906   0.342  1.00  0.00     0.091 A 
ATOM     82  F   UNL     1      10.227   1.242   1.610  1.00  0.00    -0.205 F 
ATOM     83  C   UNL     1       8.753   3.454  -0.909  1.00  0.00     0.022 A 
BRANCH  81  84
ATOM     84  S   UNL     1       8.344   3.680   1.788  1.00  0.00     0.127 S 
ATOM     85  O   UNL     1       9.131   4.905   1.903  1.00  0.00    -0.237 OA
ATOM     86  O   UNL     1       6.959   3.875   1.357  1.00  0.00    -0.237 OA
ATOM     87  O   UNL     1       8.502   2.717   2.869  1.00  0.00    -0.744 OA
ENDBRANCH  81  84
ENDBRANCH  53  77
BRANCH  65  88
ATOM     88  C   UNL     1      16.794  -0.576  -2.689  1.00  0.00     0.023 A 
ATOM     89  C   UNL     1      17.526   0.360  -1.935  1.00  0.00     0.012 A 
ATOM     90  C   UNL     1      17.171  -0.845  -4.020  1.00  0.00     0.148 A 
ATOM     91  C   UNL     1      18.605   1.037  -2.504  1.00  0.00     0.002 A 
ATOM     92  C   UNL     1      18.275  -0.201  -4.565  1.00  0.00     0.091 A 
ATOM     93  F   UNL     1      16.446  -1.725  -4.725  1.00  0.00    -0.205 F 
ATOM     94  C   UNL     1      18.987   0.747  -3.812  1.00  0.00     0.022 A 
BRANCH  92  95
ATOM     95  S   UNL     1      18.895  -0.583  -6.207  1.00  0.00     0.127 S 
ATOM     96  O   UNL     1      18.473   0.593  -6.966  1.00  0.00    -0.237 OA
ATOM     97  O   UNL     1      20.337  -0.679  -5.981  1.00  0.00    -0.237 OA
ATOM     98  O   UNL     1      18.261  -1.837  -6.592  1.00  0.00    -0.744 OA
ENDBRANCH  92  95
ENDBRANCH  65  88
ENDBRANCH  39  40
ENDBRANCH  31  34
ENDBRANCH  29  30
ENDBRANCH  28  29
ENDBRANCH   1  28
TORSDOF 18
