REMARK SMILES C[C@@H](C(=O)NCCCNC(=O)c1ccc(-c2c3nc(c(-c4cccc(S(=O)(=O)[O-])c4F)c4ccc([nH]4)c(-c4cccc(S(=O)(=O)[O-])c4F)c4nc(c(-c5cccc(S(=O)(=O)[O-])c5F)c5ccc2[nH]5)C=C4)C=C3)cc1)c1ccc(NC2CCCC2)cc1F
REMARK SMILES IDX 7 1 6 2 5 3 3 4 4 5 2 7 1 8 75 9 76 10 86 11 77 12 85 13
REMARK SMILES IDX 87 14 78 15 79 16 80 18 81 19 84 20 82 21 83 22 8 23 9 24
REMARK SMILES IDX 10 25 11 27 12 28 13 29 74 30 14 31 73 32 15 33 16 34 17 35
REMARK SMILES IDX 67 36 18 37 72 38 66 39 68 40 19 41 71 42 65 43 64 44 20 46
REMARK SMILES IDX 52 47 32 48 51 49 33 50 36 51 50 52 69 53 34 54 35 55 49 57
REMARK SMILES IDX 70 58 37 59 21 60 22 61 30 62 23 63 25 64 31 65 24 66 26 67
REMARK SMILES IDX 27 68 28 69 29 70 53 71 54 72 62 73 55 74 57 75 63 76 56 77
REMARK SMILES IDX 58 78 59 79 60 80 61 81 38 82 39 83 47 84 40 85 42 86 48 87
REMARK SMILES IDX 41 88 43 89 44 90 45 91 46 92
REMARK H PARENT 5 6 79 17 9 26 68 45 36 56
REMARK Flexibility Score: inf
ROOT
ATOM      1  C   UNL     1       4.322  -0.076   1.197  1.00  0.00     0.042 C 
ENDROOT
BRANCH   1   2
ATOM      2  C   UNL     1       3.489  -1.332   1.446  1.00  0.00     0.117 C 
BRANCH   2   3
ATOM      3  N   UNL     1       2.421  -1.073   2.387  1.00  0.00    -0.356 N 
ATOM      4  C   UNL     1       1.098  -0.835   2.171  1.00  0.00     0.227 C 
ATOM      5  O   UNL     1       0.428  -0.535   3.163  1.00  0.00    -0.274 OA
ATOM      6  H   UNL     1       2.694  -1.068   3.333  1.00  0.00     0.163 HD
BRANCH   4   7
ATOM      7  C   UNL     1       0.496  -0.990   0.764  1.00  0.00     0.108 C 
ATOM      8  C   UNL     1       1.005   0.067  -0.225  1.00  0.00     0.023 C 
BRANCH   7   9
ATOM      9  C   UNL     1      -1.022  -0.959   0.835  1.00  0.00     0.000 A 
ATOM     10  C   UNL     1      -1.716   0.250   0.925  1.00  0.00     0.009 A 
ATOM     11  C   UNL     1      -1.766  -2.137   0.880  1.00  0.00     0.129 A 
ATOM     12  C   UNL     1      -3.108   0.267   1.016  1.00  0.00     0.026 A 
ATOM     13  C   UNL     1      -3.159  -2.116   0.986  1.00  0.00     0.065 A 
ATOM     14  F   UNL     1      -1.144  -3.325   0.816  1.00  0.00    -0.207 F 
ATOM     15  C   UNL     1      -3.863  -0.908   1.055  1.00  0.00     0.037 A 
BRANCH  15  16
ATOM     16  N   UNL     1      -5.242  -0.932   1.127  1.00  0.00    -0.382 N 
ATOM     17  H   UNL     1      -5.652  -1.822   1.229  1.00  0.00     0.160 HD
BRANCH  16  18
ATOM     18  C   UNL     1      -6.165   0.191   1.071  1.00  0.00     0.079 C 
ATOM     19  C   UNL     1      -6.050   1.159   2.244  1.00  0.00     0.025 C 
ATOM     20  C   UNL     1      -6.050   1.022  -0.207  1.00  0.00     0.025 C 
ATOM     21  C   UNL     1      -6.590   2.472   1.699  1.00  0.00     0.002 C 
ATOM     22  C   UNL     1      -6.287   2.472   0.205  1.00  0.00     0.002 C 
ENDBRANCH  16  18
ENDBRANCH  15  16
ENDBRANCH   7   9
ENDBRANCH   4   7
ENDBRANCH   2   3
ENDBRANCH   1   2
BRANCH   1  23
ATOM     23  C   UNL     1       5.043   0.441   2.439  1.00  0.00     0.118 C 
BRANCH  23  24
ATOM     24  N   UNL     1       5.999  -0.524   2.967  1.00  0.00    -0.352 N 
ATOM     25  C   UNL     1       7.354  -0.414   3.134  1.00  0.00     0.251 C 
ATOM     26  H   UNL     1       5.613  -1.385   3.245  1.00  0.00     0.163 HD
ATOM     27  O   UNL     1       8.015  -1.422   3.393  1.00  0.00    -0.269 OA
BRANCH  25  28
ATOM     28  C   UNL     1       8.026   0.895   2.997  1.00  0.00     0.039 A 
ATOM     29  C   UNL     1       9.251   0.961   2.328  1.00  0.00     0.014 A 
ATOM     30  C   UNL     1       7.468   2.051   3.551  1.00  0.00     0.014 A 
ATOM     31  C   UNL     1       9.890   2.192   2.170  1.00  0.00     0.010 A 
ATOM     32  C   UNL     1       8.065   3.287   3.323  1.00  0.00     0.010 A 
ATOM     33  C   UNL     1       9.287   3.371   2.640  1.00  0.00    -0.014 A 
BRANCH  33  34
ATOM     34  C   UNL     1       9.917   4.699   2.426  1.00  0.00     0.031 A 
ATOM     35  C   UNL     1      10.339   5.538   3.602  1.00  0.00     0.074 A 
ATOM     36  C   UNL     1      10.030   5.187   1.175  1.00  0.00     0.049 A 
ATOM     37  N   UNL     1      10.844   6.744   3.615  1.00  0.00    -0.248 NA
ATOM     38  C   UNL     1      10.143   4.957   4.940  1.00  0.00     0.031 C 
ATOM     39  C   UNL     1       9.588   4.503  -0.043  1.00  0.00     0.029 A 
ATOM     40  N   UNL     1      10.522   6.386   0.721  1.00  0.00    -0.354 N 
ATOM     41  C   UNL     1      10.989   7.082   4.955  1.00  0.00     0.074 A 
ATOM     42  C   UNL     1      10.487   5.966   5.727  1.00  0.00     0.031 C 
ATOM     43  C   UNL     1       9.831   5.290  -1.102  1.00  0.00     0.029 A 
ATOM     44  C   UNL     1      10.412   6.546  -0.640  1.00  0.00     0.049 A 
ATOM     45  H   UNL     1      10.915   7.065   1.314  1.00  0.00     0.167 HD
ATOM     46  C   UNL     1      11.516   8.206   5.497  1.00  0.00     0.034 A 
ATOM     47  C   UNL     1      10.732   7.592  -1.428  1.00  0.00     0.034 A 
ATOM     48  C   UNL     1      12.049   9.297   4.725  1.00  0.00     0.049 A 
ATOM     49  C   UNL     1      11.347   8.815  -0.805  1.00  0.00     0.074 A 
ATOM     50  C   UNL     1      12.687  10.439   5.177  1.00  0.00     0.029 A 
ATOM     51  N   UNL     1      11.997   9.389   3.343  1.00  0.00    -0.354 N 
ATOM     52  N   UNL     1      11.621   9.051   0.455  1.00  0.00    -0.248 NA
ATOM     53  C   UNL     1      11.731   9.903  -1.716  1.00  0.00     0.031 C 
ATOM     54  C   UNL     1      12.992  11.236   4.069  1.00  0.00     0.029 A 
ATOM     55  C   UNL     1      12.578  10.573   2.924  1.00  0.00     0.049 A 
ATOM     56  H   UNL     1      11.604   8.711   2.746  1.00  0.00     0.167 HD
ATOM     57  C   UNL     1      12.242  10.294   0.485  1.00  0.00     0.074 A 
ATOM     58  C   UNL     1      12.320  10.754  -0.887  1.00  0.00     0.031 C 
ATOM     59  C   UNL     1      12.694  10.998   1.552  1.00  0.00     0.034 A 
BRANCH  46  60
ATOM     60  C   UNL     1      11.583   8.294   7.000  1.00  0.00     0.023 A 
ATOM     61  C   UNL     1      12.481   7.468   7.709  1.00  0.00     0.012 A 
ATOM     62  C   UNL     1      10.798   9.225   7.708  1.00  0.00     0.148 A 
ATOM     63  C   UNL     1      12.567   7.538   9.099  1.00  0.00     0.002 A 
ATOM     64  C   UNL     1      10.925   9.323   9.089  1.00  0.00     0.091 A 
ATOM     65  F   UNL     1       9.936   9.988   7.022  1.00  0.00    -0.205 F 
ATOM     66  C   UNL     1      11.797   8.471   9.787  1.00  0.00     0.022 A 
BRANCH  64  67
ATOM     67  S   UNL     1      10.039  10.549  10.059  1.00  0.00     0.127 S 
ATOM     68  O   UNL     1       9.073   9.717  10.774  1.00  0.00    -0.237 OA
ATOM     69  O   UNL     1      11.103  11.105  10.896  1.00  0.00    -0.237 OA
ATOM     70  O   UNL     1       9.470  11.485   9.100  1.00  0.00    -0.744 OA
ENDBRANCH  64  67
ENDBRANCH  46  60
BRANCH  47  71
ATOM     71  C   UNL     1      10.530   7.500  -2.901  1.00  0.00     0.023 A 
ATOM     72  C   UNL     1      11.651   7.413  -3.749  1.00  0.00     0.012 A 
ATOM     73  C   UNL     1       9.239   7.462  -3.463  1.00  0.00     0.148 A 
ATOM     74  C   UNL     1      11.492   7.324  -5.133  1.00  0.00     0.002 A 
ATOM     75  C   UNL     1       9.086   7.316  -4.837  1.00  0.00     0.091 A 
ATOM     76  F   UNL     1       8.186   7.553  -2.639  1.00  0.00    -0.205 F 
ATOM     77  C   UNL     1      10.211   7.265  -5.675  1.00  0.00     0.022 A 
BRANCH  75  78
ATOM     78  S   UNL     1       7.480   7.098  -5.611  1.00  0.00     0.127 S 
ATOM     79  O   UNL     1       7.336   8.344  -6.358  1.00  0.00    -0.237 OA
ATOM     80  O   UNL     1       7.703   5.907  -6.433  1.00  0.00    -0.237 OA
ATOM     81  O   UNL     1       6.538   6.904  -4.518  1.00  0.00    -0.744 OA
ENDBRANCH  75  78
ENDBRANCH  47  71
BRANCH  59  82
ATOM     82  C   UNL     1      13.355  12.326   1.286  1.00  0.00     0.023 A 
ATOM     83  C   UNL     1      12.580  13.430   0.881  1.00  0.00     0.012 A 
ATOM     84  C   UNL     1      14.736  12.496   1.512  1.00  0.00     0.148 A 
ATOM     85  C   UNL     1      13.174  14.674   0.672  1.00  0.00     0.002 A 
ATOM     86  C   UNL     1      15.311  13.750   1.352  1.00  0.00     0.091 A 
ATOM     87  F   UNL     1      15.460  11.429   1.880  1.00  0.00    -0.205 F 
ATOM     88  C   UNL     1      14.535  14.837   0.919  1.00  0.00     0.022 A 
BRANCH  86  89
ATOM     89  S   UNL     1      17.034  14.077   1.743  1.00  0.00     0.127 S 
ATOM     90  O   UNL     1      17.610  14.265   0.412  1.00  0.00    -0.237 OA
ATOM     91  O   UNL     1      16.944  15.296   2.547  1.00  0.00    -0.237 OA
ATOM     92  O   UNL     1      17.511  12.908   2.469  1.00  0.00    -0.744 OA
ENDBRANCH  86  89
ENDBRANCH  59  82
ENDBRANCH  33  34
ENDBRANCH  25  28
ENDBRANCH  23  24
ENDBRANCH   1  23
TORSDOF 16
