REMARK SMILES CC1=C[C@@H]([C@@H]2N=N[C@H](S)N2/N=C/c2ccc(C(=O)NCCCNC(=O)c3ccc(-c4c5nc(c(-c6cccc(S(=O)(=O)[O-])c6F)c6ccc([nH]6)c(-c6cccc(S(=O)(=O)[O-])c6F)c6nc(c(-c7cccc(S(=O)(=O)[O-])c7F)c7ccc4[nH]7)C=C6)C=C5)cc3)cc2)N=N1
REMARK SMILES IDX 21 1 20 2 19 3 17 4 18 5 16 7 13 8 14 9 90 10 15 11 89 12
REMARK SMILES IDX 12 13 11 14 10 15 5 16 6 17 7 18 8 19 4 20 1 21 2 22 3 23
REMARK SMILES IDX 92 24 91 25 9 26 22 28 23 29 24 30 25 32 26 33 27 34 88 35
REMARK SMILES IDX 28 36 87 37 29 38 30 39 31 40 81 41 32 42 86 43 80 44 82 45
REMARK SMILES IDX 33 46 85 47 79 48 78 49 34 51 66 52 46 53 65 54 47 55 50 56
REMARK SMILES IDX 64 57 83 58 48 59 49 60 63 62 84 63 51 64 35 65 36 66 44 67
REMARK SMILES IDX 37 68 39 69 45 70 38 71 40 72 41 73 42 74 43 75 67 76 68 77
REMARK SMILES IDX 76 78 69 79 71 80 77 81 70 82 72 83 73 84 74 85 75 86 52 87
REMARK SMILES IDX 53 88 61 89 54 90 56 91 62 92 55 93 57 94 58 95 59 96 60 97
REMARK H PARENT 19 6 9 27 23 31 82 50 50 61
REMARK Flexibility Score: inf
ROOT
ATOM      1  C   UNL     1      -3.043  -1.528   4.215  1.00  0.00     0.042 C 
ENDROOT
BRANCH   1   2
ATOM      2  C   UNL     1      -3.253  -2.471   3.020  1.00  0.00     0.118 C 
BRANCH   2   3
ATOM      3  N   UNL     1      -4.652  -2.807   2.813  1.00  0.00    -0.352 N 
ATOM      4  C   UNL     1      -5.607  -2.287   1.975  1.00  0.00     0.251 C 
ATOM      5  O   UNL     1      -6.671  -2.893   1.869  1.00  0.00    -0.269 OA
ATOM      6  H   UNL     1      -4.975  -3.544   3.379  1.00  0.00     0.163 HD
BRANCH   4   7
ATOM      7  C   UNL     1      -5.395  -1.067   1.147  1.00  0.00     0.039 A 
ATOM      8  C   UNL     1      -5.038   1.124  -0.556  1.00  0.00    -0.005 A 
ATOM      9  C   UNL     1      -6.071   0.222  -0.809  1.00  0.00     0.010 A 
ATOM     10  C   UNL     1      -4.223   0.977   0.559  1.00  0.00     0.010 A 
ATOM     11  C   UNL     1      -6.237  -0.879   0.036  1.00  0.00     0.014 A 
ATOM     12  C   UNL     1      -4.434  -0.092   1.422  1.00  0.00     0.014 A 
BRANCH   8  13
ATOM     13  C   UNL     1      -4.830   2.276  -1.442  1.00  0.00     0.141 C 
ATOM     14  N   UNL     1      -3.668   2.843  -1.530  1.00  0.00    -0.180 NA
BRANCH  14  15
ATOM     15  N   UNL     1      -3.551   3.940  -2.307  1.00  0.00    -0.233 NA
ATOM     16  C   UNL     1      -2.298   4.252  -2.994  1.00  0.00     0.274 C 
ATOM     17  N   UNL     1      -2.641   5.094  -4.174  1.00  0.00    -0.161 NA
ATOM     18  N   UNL     1      -3.872   5.330  -4.207  1.00  0.00    -0.153 NA
ATOM     19  C   UNL     1      -4.561   4.624  -3.107  1.00  0.00     0.298 C 
BRANCH  16  20
ATOM     20  C   UNL     1      -1.269   4.995  -2.088  1.00  0.00     0.201 C 
ATOM     21  C   UNL     1      -1.891   8.612  -1.688  1.00  0.00     0.068 C 
ATOM     22  C   UNL     1      -1.402   7.229  -1.915  1.00  0.00     0.058 C 
ATOM     23  C   UNL     1      -1.857   6.130  -1.319  1.00  0.00     0.031 C 
ATOM     24  N   UNL     1      -0.442   6.956  -2.857  1.00  0.00    -0.160 NA
ATOM     25  N   UNL     1      -0.267   5.705  -2.946  1.00  0.00    -0.177 NA
ENDBRANCH  16  20
BRANCH  19  26
ATOM     26  S   UNL     1      -5.595   5.700  -2.049  1.00  0.00    -0.128 SA
ATOM     27  H   UNL     1      -4.808   6.623  -1.435  1.00  0.00     0.106 HD
ENDBRANCH  19  26
ENDBRANCH  14  15
ENDBRANCH   8  13
ENDBRANCH   4   7
ENDBRANCH   2   3
ENDBRANCH   1   2
BRANCH   1  28
ATOM     28  C   UNL     1      -2.971  -2.283   5.525  1.00  0.00     0.118 C 
BRANCH  28  29
ATOM     29  N   UNL     1      -1.751  -3.096   5.630  1.00  0.00    -0.352 N 
ATOM     30  C   UNL     1      -1.362  -3.974   6.631  1.00  0.00     0.251 C 
ATOM     31  H   UNL     1      -1.119  -3.004   4.882  1.00  0.00     0.163 HD
ATOM     32  O   UNL     1      -0.193  -4.302   6.743  1.00  0.00    -0.269 OA
BRANCH  30  33
ATOM     33  C   UNL     1      -2.389  -4.503   7.548  1.00  0.00     0.039 A 
ATOM     34  C   UNL     1      -2.125  -4.802   8.887  1.00  0.00     0.014 A 
ATOM     35  C   UNL     1      -3.664  -4.671   7.031  1.00  0.00     0.014 A 
ATOM     36  C   UNL     1      -3.182  -5.228   9.690  1.00  0.00     0.010 A 
ATOM     37  C   UNL     1      -4.724  -4.773   7.875  1.00  0.00     0.010 A 
ATOM     38  C   UNL     1      -4.482  -5.204   9.164  1.00  0.00    -0.014 A 
BRANCH  38  39
ATOM     39  C   UNL     1      -5.665  -5.517   9.946  1.00  0.00     0.031 A 
ATOM     40  C   UNL     1      -5.833  -4.604  11.098  1.00  0.00     0.074 A 
ATOM     41  C   UNL     1      -6.626  -6.352   9.486  1.00  0.00     0.049 A 
ATOM     42  N   UNL     1      -5.621  -4.873  12.342  1.00  0.00    -0.248 NA
ATOM     43  C   UNL     1      -6.025  -3.168  10.824  1.00  0.00     0.031 C 
ATOM     44  C   UNL     1      -6.691  -7.025   8.177  1.00  0.00     0.029 A 
ATOM     45  N   UNL     1      -7.837  -6.658  10.024  1.00  0.00    -0.354 N 
ATOM     46  C   UNL     1      -5.968  -3.709  13.019  1.00  0.00     0.074 A 
ATOM     47  C   UNL     1      -5.896  -2.652  12.049  1.00  0.00     0.031 C 
ATOM     48  C   UNL     1      -7.959  -7.427   7.934  1.00  0.00     0.029 A 
ATOM     49  C   UNL     1      -8.757  -7.190   9.120  1.00  0.00     0.049 A 
ATOM     50  H   UNL     1      -8.047  -6.515  10.976  1.00  0.00     0.167 HD
ATOM     51  C   UNL     1      -6.631  -3.773  14.206  1.00  0.00     0.034 A 
ATOM     52  C   UNL     1     -10.089  -7.367   9.322  1.00  0.00     0.034 A 
ATOM     53  C   UNL     1      -6.596  -5.118  14.738  1.00  0.00     0.049 A 
ATOM     54  C   UNL     1     -10.307  -7.337  10.786  1.00  0.00     0.074 A 
ATOM     55  C   UNL     1      -5.601  -6.018  15.062  1.00  0.00     0.029 A 
ATOM     56  N   UNL     1      -7.747  -5.856  14.595  1.00  0.00    -0.354 N 
ATOM     57  N   UNL     1      -9.845  -8.246  11.597  1.00  0.00    -0.248 NA
ATOM     58  C   UNL     1     -10.631  -6.057  11.393  1.00  0.00     0.031 C 
ATOM     59  C   UNL     1      -6.103  -7.287  14.646  1.00  0.00     0.029 A 
ATOM     60  C   UNL     1      -7.407  -7.113  14.178  1.00  0.00     0.049 A 
ATOM     61  H   UNL     1      -8.662  -5.534  14.764  1.00  0.00     0.167 HD
ATOM     62  C   UNL     1      -9.359  -7.518  12.674  1.00  0.00     0.074 A 
ATOM     63  C   UNL     1      -9.976  -6.196  12.549  1.00  0.00     0.031 C 
ATOM     64  C   UNL     1      -8.269  -7.952  13.373  1.00  0.00     0.034 A 
BRANCH  51  65
ATOM     65  C   UNL     1      -7.678  -2.781  14.677  1.00  0.00     0.023 A 
ATOM     66  C   UNL     1      -8.183  -2.973  15.983  1.00  0.00     0.012 A 
ATOM     67  C   UNL     1      -8.385  -1.875  13.851  1.00  0.00     0.148 A 
ATOM     68  C   UNL     1      -9.366  -2.364  16.413  1.00  0.00     0.002 A 
ATOM     69  C   UNL     1      -9.517  -1.212  14.309  1.00  0.00     0.091 A 
ATOM     70  F   UNL     1      -8.060  -1.732  12.566  1.00  0.00    -0.205 F 
ATOM     71  C   UNL     1     -10.033  -1.480  15.577  1.00  0.00     0.022 A 
BRANCH  69  72
ATOM     72  S   UNL     1     -10.396  -0.025  13.281  1.00  0.00     0.127 S 
ATOM     73  O   UNL     1     -11.625  -0.755  12.982  1.00  0.00    -0.237 OA
ATOM     74  O   UNL     1     -10.550   1.103  14.198  1.00  0.00    -0.237 OA
ATOM     75  O   UNL     1      -9.521   0.242  12.147  1.00  0.00    -0.744 OA
ENDBRANCH  69  72
ENDBRANCH  51  65
BRANCH  52  76
ATOM     76  C   UNL     1     -11.232  -7.304   8.374  1.00  0.00     0.023 A 
ATOM     77  C   UNL     1     -12.475  -7.867   8.736  1.00  0.00     0.012 A 
ATOM     78  C   UNL     1     -11.198  -6.438   7.261  1.00  0.00     0.148 A 
ATOM     79  C   UNL     1     -13.648  -7.545   8.039  1.00  0.00     0.002 A 
ATOM     80  C   UNL     1     -12.366  -6.121   6.571  1.00  0.00     0.091 A 
ATOM     81  F   UNL     1     -10.038  -5.850   6.939  1.00  0.00    -0.205 F 
ATOM     82  C   UNL     1     -13.596  -6.663   6.964  1.00  0.00     0.022 A 
BRANCH  80  83
ATOM     83  S   UNL     1     -12.385  -4.957   5.200  1.00  0.00     0.127 S 
ATOM     84  O   UNL     1     -13.110  -5.709   4.175  1.00  0.00    -0.237 OA
ATOM     85  O   UNL     1     -13.121  -3.832   5.770  1.00  0.00    -0.237 OA
ATOM     86  O   UNL     1     -10.987  -4.700   4.882  1.00  0.00    -0.744 OA
ENDBRANCH  80  83
ENDBRANCH  52  76
BRANCH  64  87
ATOM     87  C   UNL     1      -7.787  -9.361  13.127  1.00  0.00     0.023 A 
ATOM     88  C   UNL     1      -7.271  -9.794  11.887  1.00  0.00     0.012 A 
ATOM     89  C   UNL     1      -7.705 -10.221  14.232  1.00  0.00     0.148 A 
ATOM     90  C   UNL     1      -6.704 -11.065  11.752  1.00  0.00     0.002 A 
ATOM     91  C   UNL     1      -7.099 -11.464  14.107  1.00  0.00     0.091 A 
ATOM     92  F   UNL     1      -8.200  -9.793  15.404  1.00  0.00    -0.205 F 
ATOM     93  C   UNL     1      -6.605 -11.895  12.866  1.00  0.00     0.022 A 
BRANCH  91  94
ATOM     94  S   UNL     1      -6.835 -12.518  15.533  1.00  0.00     0.127 S 
ATOM     95  O   UNL     1      -7.844 -13.556  15.335  1.00  0.00    -0.237 OA
ATOM     96  O   UNL     1      -5.453 -12.962  15.343  1.00  0.00    -0.237 OA
ATOM     97  O   UNL     1      -7.029 -11.668  16.701  1.00  0.00    -0.744 OA
ENDBRANCH  91  94
ENDBRANCH  64  87
ENDBRANCH  38  39
ENDBRANCH  30  33
ENDBRANCH  28  29
ENDBRANCH   1  28
TORSDOF 17
