REMARK SMILES Cc1[nH]c2ccc(Br)cc2c(=O)c1CCC(=O)NCCCNC(=O)c1ccc(-c2c3nc(c(-c4cccc(S(=O)(=O)[O-])c4F)c4ccc([nH]4)c(-c4cccc(S(=O)(=O)[O-])c4F)c4nc(c(-c5cccc(S(=O)(=O)[O-])c5F)c5ccc2[nH]5)C=C4)C=C3)cc1
REMARK SMILES IDX 20 1 19 2 18 3 16 4 17 5 15 7 14 8 13 9 1 10 2 11 3 12 4 13
REMARK SMILES IDX 11 15 5 16 10 17 12 18 6 19 9 20 7 21 8 22 21 23 22 24 23 25
REMARK SMILES IDX 24 27 25 28 26 29 87 30 27 31 86 32 28 33 29 34 30 35 80 36
REMARK SMILES IDX 31 37 85 38 79 39 81 40 32 41 84 42 78 43 77 44 33 46 65 47
REMARK SMILES IDX 45 48 64 49 46 50 49 51 63 52 82 53 47 54 48 55 62 57 83 58
REMARK SMILES IDX 50 59 34 60 35 61 43 62 36 63 38 64 44 65 37 66 39 67 40 68
REMARK SMILES IDX 41 69 42 70 66 71 67 72 75 73 68 74 70 75 76 76 69 77 71 78
REMARK SMILES IDX 72 79 73 80 74 81 51 82 52 83 60 84 53 85 55 86 61 87 54 88
REMARK SMILES IDX 56 89 57 90 58 91 59 92
REMARK H PARENT 18 6 3 14 22 26 81 45 49 56
REMARK Flexibility Score: inf
ROOT
ATOM      1  C   UNL     1       0.180  -0.650   5.296  1.00  0.00     0.042 C 
ENDROOT
BRANCH   1   2
ATOM      2  C   UNL     1       1.351  -1.633   5.122  1.00  0.00     0.117 C 
BRANCH   2   3
ATOM      3  N   UNL     1       0.896  -2.957   4.688  1.00  0.00    -0.356 N 
ATOM      4  C   UNL     1       0.856  -3.570   3.467  1.00  0.00     0.220 C 
ATOM      5  O   UNL     1       0.335  -4.687   3.402  1.00  0.00    -0.275 OA
ATOM      6  H   UNL     1       0.551  -3.516   5.422  1.00  0.00     0.163 HD
BRANCH   4   7
ATOM      7  C   UNL     1       1.509  -2.964   2.236  1.00  0.00     0.105 C 
BRANCH   7   8
ATOM      8  C   UNL     1       0.521  -2.543   1.137  1.00  0.00     0.051 C 
BRANCH   8   9
ATOM      9  C   UNL     1       0.051  -1.136   1.380  1.00  0.00     0.020 A 
ATOM     10  C   UNL     1       1.693   0.050  -0.113  1.00  0.00     0.064 C 
ATOM     11  C   UNL     1       0.622   0.011   0.948  1.00  0.00     0.019 A 
ATOM     12  N   UNL     1       0.258   1.245   1.454  1.00  0.00    -0.358 N 
ATOM     13  C   UNL     1      -0.821   1.403   2.324  1.00  0.00     0.050 A 
ATOM     14  H   UNL     1       0.778   2.039   1.191  1.00  0.00     0.166 HD
ATOM     15  C   UNL     1      -1.173  -1.036   2.229  1.00  0.00     0.192 A 
ATOM     16  C   UNL     1      -1.132   2.632   2.893  1.00  0.00     0.028 A 
ATOM     17  C   UNL     1      -1.610   0.298   2.658  1.00  0.00     0.047 A 
ATOM     18  O   UNL     1      -1.790  -2.031   2.591  1.00  0.00    -0.289 OA
ATOM     19  C   UNL     1      -2.315   2.766   3.623  1.00  0.00     0.018 A 
ATOM     20  C   UNL     1      -2.784   0.422   3.392  1.00  0.00     0.030 A 
ATOM     21  C   UNL     1      -3.177   1.683   3.787  1.00  0.00     0.018 A 
ATOM     22  Br  UNL     1      -4.957   1.905   4.368  1.00  0.00    -0.051 Br
ENDBRANCH   8   9
ENDBRANCH   7   8
ENDBRANCH   4   7
ENDBRANCH   2   3
ENDBRANCH   1   2
BRANCH   1  23
ATOM     23  C   UNL     1      -0.212  -0.229   6.721  1.00  0.00     0.118 C 
BRANCH  23  24
ATOM     24  N   UNL     1       0.487   0.959   7.201  1.00  0.00    -0.352 N 
ATOM     25  C   UNL     1       0.145   2.270   7.463  1.00  0.00     0.251 C 
ATOM     26  H   UNL     1       1.438   0.781   7.383  1.00  0.00     0.163 HD
ATOM     27  O   UNL     1       1.077   2.996   7.827  1.00  0.00    -0.269 OA
BRANCH  25  28
ATOM     28  C   UNL     1      -1.209   2.898   7.309  1.00  0.00     0.039 A 
ATOM     29  C   UNL     1      -2.427   2.249   7.460  1.00  0.00     0.014 A 
ATOM     30  C   UNL     1      -1.260   4.290   7.081  1.00  0.00     0.014 A 
ATOM     31  C   UNL     1      -3.640   2.941   7.229  1.00  0.00     0.010 A 
ATOM     32  C   UNL     1      -2.477   4.984   6.891  1.00  0.00     0.010 A 
ATOM     33  C   UNL     1      -3.699   4.308   6.869  1.00  0.00    -0.014 A 
BRANCH  33  34
ATOM     34  C   UNL     1      -5.001   4.967   6.437  1.00  0.00     0.031 A 
ATOM     35  C   UNL     1      -5.162   5.680   5.088  1.00  0.00     0.074 A 
ATOM     36  C   UNL     1      -6.120   4.856   7.189  1.00  0.00     0.049 A 
ATOM     37  N   UNL     1      -6.258   6.106   4.495  1.00  0.00    -0.248 NA
ATOM     38  C   UNL     1      -3.955   5.921   4.286  1.00  0.00     0.031 C 
ATOM     39  C   UNL     1      -6.189   4.230   8.507  1.00  0.00     0.029 A 
ATOM     40  N   UNL     1      -7.421   5.247   6.943  1.00  0.00    -0.354 N 
ATOM     41  C   UNL     1      -5.871   6.623   3.258  1.00  0.00     0.074 A 
ATOM     42  C   UNL     1      -4.441   6.446   3.170  1.00  0.00     0.031 C 
ATOM     43  C   UNL     1      -7.465   4.214   8.921  1.00  0.00     0.029 A 
ATOM     44  C   UNL     1      -8.305   4.897   7.938  1.00  0.00     0.049 A 
ATOM     45  H   UNL     1      -7.692   5.732   6.130  1.00  0.00     0.167 HD
ATOM     46  C   UNL     1      -6.606   7.214   2.281  1.00  0.00     0.034 A 
ATOM     47  C   UNL     1      -9.632   5.105   8.082  1.00  0.00     0.034 A 
ATOM     48  C   UNL     1      -8.014   7.497   2.353  1.00  0.00     0.049 A 
ATOM     49  C   UNL     1     -10.417   5.846   7.037  1.00  0.00     0.074 A 
ATOM     50  C   UNL     1      -8.806   8.146   1.418  1.00  0.00     0.029 A 
ATOM     51  N   UNL     1      -8.835   7.186   3.420  1.00  0.00    -0.354 N 
ATOM     52  N   UNL     1     -10.024   6.271   5.863  1.00  0.00    -0.248 NA
ATOM     53  C   UNL     1     -11.828   6.142   7.340  1.00  0.00     0.031 C 
ATOM     54  C   UNL     1     -10.101   8.251   1.932  1.00  0.00     0.029 A 
ATOM     55  C   UNL     1     -10.120   7.645   3.176  1.00  0.00     0.049 A 
ATOM     56  H   UNL     1      -8.550   6.709   4.233  1.00  0.00     0.167 HD
ATOM     57  C   UNL     1     -11.134   6.882   5.288  1.00  0.00     0.074 A 
ATOM     58  C   UNL     1     -12.224   6.755   6.230  1.00  0.00     0.031 C 
ATOM     59  C   UNL     1     -11.223   7.506   4.089  1.00  0.00     0.034 A 
BRANCH  46  60
ATOM     60  C   UNL     1      -5.903   7.620   1.007  1.00  0.00     0.023 A 
ATOM     61  C   UNL     1      -5.699   6.655  -0.000  1.00  0.00     0.012 A 
ATOM     62  C   UNL     1      -5.559   8.964   0.759  1.00  0.00     0.148 A 
ATOM     63  C   UNL     1      -5.157   7.021  -1.233  1.00  0.00     0.002 A 
ATOM     64  C   UNL     1      -5.037   9.324  -0.480  1.00  0.00     0.091 A 
ATOM     65  F   UNL     1      -5.756   9.862   1.734  1.00  0.00    -0.205 F 
ATOM     66  C   UNL     1      -4.835   8.354  -1.476  1.00  0.00     0.022 A 
BRANCH  64  67
ATOM     67  S   UNL     1      -4.627  11.021  -0.909  1.00  0.00     0.127 S 
ATOM     68  O   UNL     1      -3.168  10.955  -0.991  1.00  0.00    -0.237 OA
ATOM     69  O   UNL     1      -5.303  11.188  -2.195  1.00  0.00    -0.237 OA
ATOM     70  O   UNL     1      -5.151  11.847   0.169  1.00  0.00    -0.744 OA
ENDBRANCH  64  67
ENDBRANCH  46  60
BRANCH  47  71
ATOM     71  C   UNL     1     -10.307   4.581   9.304  1.00  0.00     0.023 A 
ATOM     72  C   UNL     1     -11.139   3.451   9.212  1.00  0.00     0.012 A 
ATOM     73  C   UNL     1     -10.033   5.141  10.567  1.00  0.00     0.148 A 
ATOM     74  C   UNL     1     -11.672   2.872  10.365  1.00  0.00     0.002 A 
ATOM     75  C   UNL     1     -10.517   4.524  11.713  1.00  0.00     0.091 A 
ATOM     76  F   UNL     1      -9.258   6.232  10.620  1.00  0.00    -0.205 F 
ATOM     77  C   UNL     1     -11.345   3.395  11.615  1.00  0.00     0.022 A 
BRANCH  75  78
ATOM     78  S   UNL     1     -10.021   5.040  13.361  1.00  0.00     0.127 S 
ATOM     79  O   UNL     1     -11.302   5.445  13.944  1.00  0.00    -0.237 OA
ATOM     80  O   UNL     1      -9.466   3.797  13.903  1.00  0.00    -0.237 OA
ATOM     81  O   UNL     1      -9.055   6.105  13.173  1.00  0.00    -0.744 OA
ENDBRANCH  75  78
ENDBRANCH  47  71
BRANCH  59  82
ATOM     82  C   UNL     1     -12.536   8.127   3.695  1.00  0.00     0.023 A 
ATOM     83  C   UNL     1     -12.898   9.377   4.235  1.00  0.00     0.012 A 
ATOM     84  C   UNL     1     -13.346   7.539   2.703  1.00  0.00     0.148 A 
ATOM     85  C   UNL     1     -14.053  10.028   3.801  1.00  0.00     0.002 A 
ATOM     86  C   UNL     1     -14.480   8.208   2.254  1.00  0.00     0.091 A 
ATOM     87  F   UNL     1     -12.983   6.348   2.208  1.00  0.00    -0.205 F 
ATOM     88  C   UNL     1     -14.837   9.450   2.805  1.00  0.00     0.022 A 
BRANCH  86  89
ATOM     89  S   UNL     1     -15.519   7.580   0.929  1.00  0.00     0.127 S 
ATOM     90  O   UNL     1     -16.771   7.311   1.634  1.00  0.00    -0.237 OA
ATOM     91  O   UNL     1     -15.569   8.718   0.010  1.00  0.00    -0.237 OA
ATOM     92  O   UNL     1     -14.840   6.403   0.405  1.00  0.00    -0.744 OA
ENDBRANCH  86  89
ENDBRANCH  59  82
ENDBRANCH  33  34
ENDBRANCH  25  28
ENDBRANCH  23  24
ENDBRANCH   1  23
TORSDOF 15
