REMARK SMILES C[C@H](Cc1ccco1)[NH2+]Cc1cc(C(=O)NCCCNC(=O)c2ccc(-c3c4nc(c(-c5cccc(S(=O)(=O)[O-])c5F)c5ccc([nH]5)c(-c5cccc(S(=O)(=O)[O-])c5F)c5nc(c(-c6cccc(S(=O)(=O)[O-])c6F)c6ccc3[nH]6)C=C5)C=C4)cc2)cs1
REMARK SMILES IDX 17 1 16 2 14 3 15 4 13 6 11 7 12 8 87 9 86 10 10 11 9 12
REMARK SMILES IDX 2 15 1 16 3 17 4 18 5 19 8 20 6 21 7 22 18 23 19 24 20 25
REMARK SMILES IDX 21 26 22 28 23 29 24 30 85 31 25 32 84 33 26 34 27 35 28 36
REMARK SMILES IDX 78 37 29 38 83 39 77 40 79 41 30 42 82 43 76 44 75 45 31 47
REMARK SMILES IDX 63 48 43 49 62 50 44 51 47 52 61 53 80 54 45 55 46 56 60 58
REMARK SMILES IDX 81 59 48 60 32 61 33 62 41 63 34 64 36 65 42 66 35 67 37 68
REMARK SMILES IDX 38 69 39 70 40 71 64 72 65 73 73 74 66 75 68 76 74 77 67 78
REMARK SMILES IDX 69 79 70 80 71 81 72 82 49 83 50 84 58 85 51 86 53 87 59 88
REMARK SMILES IDX 52 89 54 90 55 91 56 92 57 93
REMARK H PARENT 16 5 9 13 9 14 20 27 79 46 47 57
REMARK Flexibility Score: inf
ROOT
ATOM      1  C   UNL     1      -2.463   7.587   1.064  1.00  0.00     0.118 C 
ENDROOT
BRANCH   1   2
ATOM      2  N   UNL     1      -1.626   8.071  -0.019  1.00  0.00    -0.352 N 
ATOM      3  C   UNL     1      -0.958   7.388  -1.004  1.00  0.00     0.252 C 
ATOM      4  O   UNL     1      -0.411   8.034  -1.893  1.00  0.00    -0.269 OA
ATOM      5  H   UNL     1      -1.520   9.049  -0.052  1.00  0.00     0.163 HD
BRANCH   3   6
ATOM      6  C   UNL     1      -1.000   5.929  -1.021  1.00  0.00     0.051 A 
ATOM      7  C   UNL     1      -1.214   3.704  -0.297  1.00  0.00     0.059 A 
ATOM      8  C   UNL     1      -0.975   5.011   0.080  1.00  0.00     0.035 A 
ATOM      9  S   UNL     1      -1.322   3.566  -2.002  1.00  0.00    -0.142 S 
ATOM     10  C   UNL     1      -1.037   5.234  -2.216  1.00  0.00     0.079 A 
BRANCH   7  11
ATOM     11  C   UNL     1      -1.387   2.512   0.603  1.00  0.00     0.308 C 
BRANCH  11  12
ATOM     12  N   UNL     1      -0.676   1.330   0.130  1.00  0.00    -0.339 N 
ATOM     13  H   UNL     1      -1.174   0.507   0.471  1.00  0.00     0.346 HD
ATOM     14  H   UNL     1      -0.653   1.406  -0.887  1.00  0.00     0.346 HD
BRANCH  12  15
ATOM     15  C   UNL     1       0.730   1.218   0.557  1.00  0.00     0.187 C 
ATOM     16  C   UNL     1       1.614   2.443   0.274  1.00  0.00     0.075 C 
BRANCH  15  17
ATOM     17  C   UNL     1       1.340  -0.074  -0.046  1.00  0.00     0.140 C 
BRANCH  17  18
ATOM     18  C   UNL     1       1.813   0.072  -1.454  1.00  0.00     0.109 A 
ATOM     19  C   UNL     1       1.214   0.425  -2.647  1.00  0.00     0.046 A 
ATOM     20  O   UNL     1       3.145  -0.142  -1.654  1.00  0.00    -0.469 OA
ATOM     21  C   UNL     1       2.247   0.480  -3.613  1.00  0.00     0.042 A 
ATOM     22  C   UNL     1       3.400   0.112  -2.962  1.00  0.00     0.195 A 
ENDBRANCH  17  18
ENDBRANCH  15  17
ENDBRANCH  12  15
ENDBRANCH  11  12
ENDBRANCH   7  11
ENDBRANCH   3   6
ENDBRANCH   1   2
BRANCH   1  23
ATOM     23  C   UNL     1      -1.787   7.802   2.413  1.00  0.00     0.042 C 
BRANCH  23  24
ATOM     24  C   UNL     1      -1.826   9.260   2.857  1.00  0.00     0.118 C 
BRANCH  24  25
ATOM     25  N   UNL     1      -3.191   9.710   3.104  1.00  0.00    -0.352 N 
ATOM     26  C   UNL     1      -3.744  10.256   4.232  1.00  0.00     0.251 C 
ATOM     27  H   UNL     1      -3.809   9.605   2.345  1.00  0.00     0.163 HD
ATOM     28  O   UNL     1      -4.966  10.337   4.324  1.00  0.00    -0.269 OA
BRANCH  26  29
ATOM     29  C   UNL     1      -2.879  10.743   5.325  1.00  0.00     0.039 A 
ATOM     30  C   UNL     1      -3.284  10.542   6.646  1.00  0.00     0.014 A 
ATOM     31  C   UNL     1      -1.693  11.429   5.050  1.00  0.00     0.014 A 
ATOM     32  C   UNL     1      -2.481  11.000   7.691  1.00  0.00     0.010 A 
ATOM     33  C   UNL     1      -0.851  11.804   6.090  1.00  0.00     0.010 A 
ATOM     34  C   UNL     1      -1.246  11.614   7.421  1.00  0.00    -0.014 A 
BRANCH  34  35
ATOM     35  C   UNL     1      -0.367  12.080   8.522  1.00  0.00     0.031 A 
ATOM     36  C   UNL     1      -0.025  13.541   8.650  1.00  0.00     0.074 A 
ATOM     37  C   UNL     1       0.172  11.180   9.367  1.00  0.00     0.049 A 
ATOM     38  N   UNL     1       0.760  14.131   9.514  1.00  0.00    -0.248 NA
ATOM     39  C   UNL     1      -0.618  14.457   7.660  1.00  0.00     0.031 C 
ATOM     40  C   UNL     1      -0.022   9.729   9.293  1.00  0.00     0.029 A 
ATOM     41  N   UNL     1       1.012  11.348  10.438  1.00  0.00    -0.354 N 
ATOM     42  C   UNL     1       0.774  15.475   9.160  1.00  0.00     0.074 A 
ATOM     43  C   UNL     1      -0.039  15.607   7.971  1.00  0.00     0.031 C 
ATOM     44  C   UNL     1       0.676   9.142  10.278  1.00  0.00     0.029 A 
ATOM     45  C   UNL     1       1.391  10.166  11.031  1.00  0.00     0.049 A 
ATOM     46  H   UNL     1       1.315  12.230  10.752  1.00  0.00     0.167 HD
ATOM     47  C   UNL     1       1.377  16.512   9.787  1.00  0.00     0.034 A 
ATOM     48  C   UNL     1       2.231   9.935  12.058  1.00  0.00     0.034 A 
ATOM     49  C   UNL     1       2.161  16.378  10.985  1.00  0.00     0.049 A 
ATOM     50  C   UNL     1       2.866  11.108  12.754  1.00  0.00     0.074 A 
ATOM     51  C   UNL     1       2.769  17.371  11.732  1.00  0.00     0.029 A 
ATOM     52  N   UNL     1       2.451  15.174  11.608  1.00  0.00    -0.354 N 
ATOM     53  N   UNL     1       2.756  12.386  12.486  1.00  0.00    -0.248 NA
ATOM     54  C   UNL     1       3.706  10.809  13.922  1.00  0.00     0.031 C 
ATOM     55  C   UNL     1       3.447  16.765  12.794  1.00  0.00     0.029 A 
ATOM     56  C   UNL     1       3.228  15.398  12.732  1.00  0.00     0.049 A 
ATOM     57  H   UNL     1       2.150  14.290  11.298  1.00  0.00     0.167 HD
ATOM     58  C   UNL     1       3.476  13.046  13.475  1.00  0.00     0.074 A 
ATOM     59  C   UNL     1       3.999  12.026  14.360  1.00  0.00     0.031 C 
ATOM     60  C   UNL     1       3.695  14.375  13.632  1.00  0.00     0.034 A 
BRANCH  47  61
ATOM     61  C   UNL     1       1.164  17.893   9.218  1.00  0.00     0.023 A 
ATOM     62  C   UNL     1      -0.111  18.491   9.306  1.00  0.00     0.012 A 
ATOM     63  C   UNL     1       2.228  18.619   8.649  1.00  0.00     0.148 A 
ATOM     64  C   UNL     1      -0.333  19.771   8.802  1.00  0.00     0.002 A 
ATOM     65  C   UNL     1       2.010  19.914   8.193  1.00  0.00     0.091 A 
ATOM     66  F   UNL     1       3.428  18.029   8.557  1.00  0.00    -0.205 F 
ATOM     67  C   UNL     1       0.729  20.486   8.255  1.00  0.00     0.022 A 
BRANCH  65  68
ATOM     68  S   UNL     1       3.326  20.952   7.546  1.00  0.00     0.127 S 
ATOM     69  O   UNL     1       2.946  21.067   6.139  1.00  0.00    -0.237 OA
ATOM     70  O   UNL     1       3.158  22.179   8.325  1.00  0.00    -0.237 OA
ATOM     71  O   UNL     1       4.567  20.234   7.799  1.00  0.00    -0.744 OA
ENDBRANCH  65  68
ENDBRANCH  47  61
BRANCH  48  72
ATOM     72  C   UNL     1       2.484   8.541  12.519  1.00  0.00     0.023 A 
ATOM     73  C   UNL     1       2.010   8.123  13.778  1.00  0.00     0.012 A 
ATOM     74  C   UNL     1       3.185   7.625  11.711  1.00  0.00     0.148 A 
ATOM     75  C   UNL     1       2.271   6.833  14.244  1.00  0.00     0.002 A 
ATOM     76  C   UNL     1       3.388   6.324  12.155  1.00  0.00     0.091 A 
ATOM     77  F   UNL     1       3.634   8.043  10.519  1.00  0.00    -0.205 F 
ATOM     78  C   UNL     1       2.952   5.932  13.430  1.00  0.00     0.022 A 
BRANCH  76  79
ATOM     79  S   UNL     1       4.134   5.061  11.118  1.00  0.00     0.127 S 
ATOM     80  O   UNL     1       5.431   4.874  11.762  1.00  0.00    -0.237 OA
ATOM     81  O   UNL     1       3.198   3.948  11.279  1.00  0.00    -0.237 OA
ATOM     82  O   UNL     1       4.167   5.625   9.776  1.00  0.00    -0.744 OA
ENDBRANCH  76  79
ENDBRANCH  48  72
BRANCH  60  83
ATOM     83  C   UNL     1       4.486  14.812  14.837  1.00  0.00     0.023 A 
ATOM     84  C   UNL     1       5.868  14.548  14.914  1.00  0.00     0.012 A 
ATOM     85  C   UNL     1       3.862  15.537  15.872  1.00  0.00     0.148 A 
ATOM     86  C   UNL     1       6.606  14.958  16.023  1.00  0.00     0.002 A 
ATOM     87  C   UNL     1       4.615  15.991  16.947  1.00  0.00     0.091 A 
ATOM     88  F   UNL     1       2.542  15.763  15.790  1.00  0.00    -0.205 F 
ATOM     89  C   UNL     1       5.984  15.689  17.032  1.00  0.00     0.022 A 
BRANCH  87  90
ATOM     90  S   UNL     1       3.919  17.024  18.240  1.00  0.00     0.127 S 
ATOM     91  O   UNL     1       3.874  16.097  19.370  1.00  0.00    -0.237 OA
ATOM     92  O   UNL     1       4.919  18.085  18.360  1.00  0.00    -0.237 OA
ATOM     93  O   UNL     1       2.623  17.469  17.745  1.00  0.00    -0.744 OA
ENDBRANCH  87  90
ENDBRANCH  60  83
ENDBRANCH  34  35
ENDBRANCH  26  29
ENDBRANCH  24  25
ENDBRANCH  23  24
ENDBRANCH   1  23
TORSDOF 18
