REMARK SMILES O=C(NCCCNC(=O)[C@H]1[NH2+][C@@H]2CC[C@H]1CC2(F)F)c1ccc(-c2c3nc(c(-c4cccc(S(=O)(=O)[O-])c4F)c4ccc([nH]4)c(-c4cccc(S(=O)(=O)[O-])c4F)c4nc(c(-c5cccc(S(=O)(=O)[O-])c5F)c5ccc2[nH]5)C=C4)C=C3)cc1
REMARK SMILES IDX 1 1 2 2 3 3 20 5 21 6 82 7 22 8 81 9 23 10 24 11 25 12 75 13
REMARK SMILES IDX 26 14 80 15 74 16 76 17 27 18 79 19 73 20 72 21 28 23 60 24
REMARK SMILES IDX 40 25 59 26 41 27 44 28 58 29 77 30 42 31 43 32 57 34 78 35
REMARK SMILES IDX 45 36 29 37 30 38 38 39 31 40 33 41 39 42 32 43 34 44 35 45
REMARK SMILES IDX 36 46 37 47 61 48 62 49 70 50 63 51 65 52 71 53 64 54 66 55
REMARK SMILES IDX 67 56 68 57 69 58 46 59 47 60 55 61 48 62 50 63 56 64 49 65
REMARK SMILES IDX 51 66 52 67 53 68 54 69 4 70 5 71 6 72 7 73 8 74 9 76 10 77
REMARK SMILES IDX 11 78 15 79 12 80 14 83 16 84 13 85 17 86 18 87 19 88
REMARK H PARENT 3 4 76 22 44 33 7 75 11 81 11 82
REMARK Flexibility Score: inf
ROOT
ATOM      1  O   UNL     1       4.390   0.715   2.929  1.00  0.00    -0.269 OA
ATOM      2  C   UNL     1       4.256  -0.469   3.234  1.00  0.00     0.251 C 
ATOM      3  N   UNL     1       4.946  -1.421   2.521  1.00  0.00    -0.352 N 
ATOM      4  H   UNL     1       5.627  -1.065   1.905  1.00  0.00     0.163 HD
ENDROOT
BRANCH   2   5
ATOM      5  C   UNL     1       3.340  -0.856   4.332  1.00  0.00     0.039 A 
ATOM      6  C   UNL     1       3.678  -1.860   5.240  1.00  0.00     0.014 A 
ATOM      7  C   UNL     1       2.124  -0.179   4.471  1.00  0.00     0.014 A 
ATOM      8  C   UNL     1       2.740  -2.302   6.170  1.00  0.00     0.010 A 
ATOM      9  C   UNL     1       1.220  -0.561   5.468  1.00  0.00     0.010 A 
ATOM     10  C   UNL     1       1.499  -1.658   6.297  1.00  0.00    -0.014 A 
BRANCH  10  11
ATOM     11  C   UNL     1       0.531  -2.127   7.325  1.00  0.00     0.031 A 
ATOM     12  C   UNL     1      -0.815  -2.679   6.935  1.00  0.00     0.074 A 
ATOM     13  C   UNL     1       0.877  -2.063   8.627  1.00  0.00     0.049 A 
ATOM     14  N   UNL     1      -1.749  -3.185   7.701  1.00  0.00    -0.248 NA
ATOM     15  C   UNL     1      -1.166  -2.653   5.506  1.00  0.00     0.031 C 
ATOM     16  C   UNL     1       2.132  -1.505   9.137  1.00  0.00     0.029 A 
ATOM     17  N   UNL     1       0.215  -2.475   9.755  1.00  0.00    -0.354 N 
ATOM     18  C   UNL     1      -2.812  -3.492   6.859  1.00  0.00     0.074 A 
ATOM     19  C   UNL     1      -2.411  -3.110   5.522  1.00  0.00     0.031 C 
ATOM     20  C   UNL     1       2.165  -1.643  10.470  1.00  0.00     0.029 A 
ATOM     21  C   UNL     1       0.920  -2.257  10.916  1.00  0.00     0.049 A 
ATOM     22  H   UNL     1      -0.679  -2.886   9.736  1.00  0.00     0.167 HD
ATOM     23  C   UNL     1      -4.005  -4.057   7.167  1.00  0.00     0.034 A 
ATOM     24  C   UNL     1       0.603  -2.523  12.198  1.00  0.00     0.034 A 
ATOM     25  C   UNL     1      -4.381  -4.483   8.489  1.00  0.00     0.049 A 
ATOM     26  C   UNL     1      -0.707  -3.194  12.503  1.00  0.00     0.074 A 
ATOM     27  C   UNL     1      -5.535  -5.137   8.886  1.00  0.00     0.029 A 
ATOM     28  N   UNL     1      -3.618  -4.294   9.630  1.00  0.00    -0.354 N 
ATOM     29  N   UNL     1      -1.634  -3.606  11.674  1.00  0.00    -0.248 NA
ATOM     30  C   UNL     1      -0.999  -3.465  13.917  1.00  0.00     0.031 C 
ATOM     31  C   UNL     1      -5.476  -5.329  10.271  1.00  0.00     0.029 A 
ATOM     32  C   UNL     1      -4.277  -4.812  10.733  1.00  0.00     0.049 A 
ATOM     33  H   UNL     1      -2.737  -3.856   9.654  1.00  0.00     0.167 HD
ATOM     34  C   UNL     1      -2.603  -4.218  12.461  1.00  0.00     0.074 A 
ATOM     35  C   UNL     1      -2.138  -4.138  13.831  1.00  0.00     0.031 C 
ATOM     36  C   UNL     1      -3.777  -4.780  12.084  1.00  0.00     0.034 A 
BRANCH  23  37
ATOM     37  C   UNL     1      -4.983  -4.288   6.043  1.00  0.00     0.023 A 
ATOM     38  C   UNL     1      -4.749  -5.323   5.116  1.00  0.00     0.012 A 
ATOM     39  C   UNL     1      -6.162  -3.524   5.941  1.00  0.00     0.148 A 
ATOM     40  C   UNL     1      -5.655  -5.574   4.086  1.00  0.00     0.002 A 
ATOM     41  C   UNL     1      -7.081  -3.805   4.935  1.00  0.00     0.091 A 
ATOM     42  F   UNL     1      -6.359  -2.527   6.816  1.00  0.00    -0.205 F 
ATOM     43  C   UNL     1      -6.824  -4.823   4.001  1.00  0.00     0.022 A 
BRANCH  41  44
ATOM     44  S   UNL     1      -8.649  -2.940   4.795  1.00  0.00     0.127 S 
ATOM     45  O   UNL     1      -8.383  -2.026   3.686  1.00  0.00    -0.237 OA
ATOM     46  O   UNL     1      -9.578  -4.026   4.479  1.00  0.00    -0.237 OA
ATOM     47  O   UNL     1      -8.873  -2.314   6.090  1.00  0.00    -0.744 OA
ENDBRANCH  41  44
ENDBRANCH  23  37
BRANCH  24  48
ATOM     48  C   UNL     1       1.585  -2.225  13.278  1.00  0.00     0.023 A 
ATOM     49  C   UNL     1       2.228  -3.290  13.937  1.00  0.00     0.012 A 
ATOM     50  C   UNL     1       1.921  -0.901  13.620  1.00  0.00     0.148 A 
ATOM     51  C   UNL     1       3.172  -3.043  14.934  1.00  0.00     0.002 A 
ATOM     52  C   UNL     1       2.904  -0.662  14.573  1.00  0.00     0.091 A 
ATOM     53  F   UNL     1       1.287   0.098  12.991  1.00  0.00    -0.205 F 
ATOM     54  C   UNL     1       3.519  -1.731  15.242  1.00  0.00     0.022 A 
BRANCH  52  55
ATOM     55  S   UNL     1       3.510   0.990  14.932  1.00  0.00     0.127 S 
ATOM     56  O   UNL     1       2.936   1.239  16.251  1.00  0.00    -0.237 OA
ATOM     57  O   UNL     1       4.960   0.791  14.918  1.00  0.00    -0.237 OA
ATOM     58  O   UNL     1       3.012   1.832  13.853  1.00  0.00    -0.744 OA
ENDBRANCH  52  55
ENDBRANCH  24  48
BRANCH  36  59
ATOM     59  C   UNL     1      -4.631  -5.394  13.162  1.00  0.00     0.023 A 
ATOM     60  C   UNL     1      -5.332  -4.564  14.058  1.00  0.00     0.012 A 
ATOM     61  C   UNL     1      -4.788  -6.791  13.245  1.00  0.00     0.148 A 
ATOM     62  C   UNL     1      -6.150  -5.116  15.043  1.00  0.00     0.002 A 
ATOM     63  C   UNL     1      -5.642  -7.333  14.199  1.00  0.00     0.091 A 
ATOM     64  F   UNL     1      -4.094  -7.567  12.399  1.00  0.00    -0.205 F 
ATOM     65  C   UNL     1      -6.315  -6.498  15.106  1.00  0.00     0.022 A 
BRANCH  63  66
ATOM     66  S   UNL     1      -5.980  -9.095  14.283  1.00  0.00     0.127 S 
ATOM     67  O   UNL     1      -5.133  -9.510  15.400  1.00  0.00    -0.237 OA
ATOM     68  O   UNL     1      -7.416  -9.128  14.561  1.00  0.00    -0.237 OA
ATOM     69  O   UNL     1      -5.611  -9.630  12.978  1.00  0.00    -0.744 OA
ENDBRANCH  63  66
ENDBRANCH  36  59
ENDBRANCH  10  11
ENDBRANCH   2   5
BRANCH   3  70
ATOM     70  C   UNL     1       4.828  -2.871   2.531  1.00  0.00     0.118 C 
BRANCH  70  71
ATOM     71  C   UNL     1       4.322  -3.433   1.208  1.00  0.00     0.042 C 
BRANCH  71  72
ATOM     72  C   UNL     1       5.308  -3.299   0.051  1.00  0.00     0.118 C 
BRANCH  72  73
ATOM     73  N   UNL     1       6.538  -4.030   0.294  1.00  0.00    -0.351 N 
ATOM     74  C   UNL     1       6.975  -5.207  -0.232  1.00  0.00     0.278 C 
ATOM     75  H   UNL     1       7.152  -3.609   0.939  1.00  0.00     0.163 HD
ATOM     76  O   UNL     1       8.074  -5.636   0.133  1.00  0.00    -0.268 OA
BRANCH  74  77
ATOM     77  C   UNL     1       6.123  -5.972  -1.272  1.00  0.00     0.276 C 
ATOM     78  N   UNL     1       6.986  -6.986  -1.960  1.00  0.00    -0.328 N 
ATOM     79  C   UNL     1       4.872  -6.650  -0.662  1.00  0.00     0.064 C 
ATOM     80  C   UNL     1       6.388  -8.345  -1.838  1.00  0.00     0.253 C 
ATOM     81  H   UNL     1       7.912  -6.986  -1.532  1.00  0.00     0.347 HD
ATOM     82  H   UNL     1       7.058  -6.744  -2.949  1.00  0.00     0.347 HD
ATOM     83  C   UNL     1       4.096  -7.322  -1.811  1.00  0.00     0.017 C 
ATOM     84  C   UNL     1       5.293  -7.740   0.348  1.00  0.00     0.094 C 
ATOM     85  C   UNL     1       5.019  -8.308  -2.538  1.00  0.00     0.072 C 
ATOM     86  C   UNL     1       6.181  -8.760  -0.361  1.00  0.00     0.298 C 
ATOM     87  F   UNL     1       5.612  -9.990  -0.298  1.00  0.00    -0.200 F 
ATOM     88  F   UNL     1       7.376  -8.856   0.270  1.00  0.00    -0.200 F 
ENDBRANCH  74  77
ENDBRANCH  72  73
ENDBRANCH  71  72
ENDBRANCH  70  71
ENDBRANCH   3  70
TORSDOF 13
