REMARK SMILES O=C(CN(Cc1ccccc1Cl)S(=O)(=O)c1ccc(Cl)cc1)NCCCNC(=O)c1ccc(-c2c3nc(c(-c4cccc(S(=O)(=O)[O-])c4F)c4ccc([nH]4)c(-c4cccc(S(=O)(=O)[O-])c4F)c4nc(c(-c5cccc(S(=O)(=O)[O-])c5F)c5ccc2[nH]5)C=C4)C=C3)cc1
REMARK SMILES IDX 25 1 24 2 23 3 1 4 2 5 3 7 4 8 5 9 6 10 7 11 11 12 8 13
REMARK SMILES IDX 10 14 12 15 9 16 13 17 14 18 15 19 16 20 17 21 22 22 18 23
REMARK SMILES IDX 21 24 19 25 20 26 26 27 27 28 28 29 29 31 30 32 31 33 92 34
REMARK SMILES IDX 32 35 91 36 33 37 34 38 35 39 85 40 36 41 90 42 84 43 86 44
REMARK SMILES IDX 37 45 89 46 83 47 82 48 38 50 70 51 50 52 69 53 51 54 54 55
REMARK SMILES IDX 68 56 87 57 52 58 53 59 67 61 88 62 55 63 39 64 40 65 48 66
REMARK SMILES IDX 41 67 43 68 49 69 42 70 44 71 45 72 46 73 47 74 71 75 72 76
REMARK SMILES IDX 80 77 73 78 75 79 81 80 74 81 76 82 77 83 78 84 79 85 56 86
REMARK SMILES IDX 57 87 65 88 58 89 60 90 66 91 59 92 61 93 62 94 63 95 64 96
REMARK H PARENT 23 6 27 30 86 49 54 60
REMARK Flexibility Score: inf
ROOT
ATOM      1  C   UNL     1       2.471   2.480   2.416  1.00  0.00     0.042 C 
ENDROOT
BRANCH   1   2
ATOM      2  C   UNL     1       2.133   2.240   0.952  1.00  0.00     0.117 C 
BRANCH   2   3
ATOM      3  N   UNL     1       2.769   1.057   0.405  1.00  0.00    -0.355 N 
ATOM      4  O   UNL     1       0.834  -0.162   0.161  1.00  0.00    -0.274 OA
ATOM      5  C   UNL     1       2.039  -0.025  -0.038  1.00  0.00     0.235 C 
ATOM      6  H   UNL     1       3.751   1.025   0.349  1.00  0.00     0.163 HD
BRANCH   5   7
ATOM      7  C   UNL     1       2.854  -1.094  -0.742  1.00  0.00     0.202 C 
BRANCH   7   8
ATOM      8  N   UNL     1       3.652  -0.731  -1.966  1.00  0.00    -0.184 NA
BRANCH   8   9
ATOM      9  C   UNL     1       4.396  -1.923  -2.470  1.00  0.00     0.140 C 
BRANCH   9  10
ATOM     10  C   UNL     1       3.641  -3.188  -2.860  1.00  0.00    -0.014 A 
ATOM     11  C   UNL     1       2.506  -3.139  -3.688  1.00  0.00     0.006 A 
ATOM     12  C   UNL     1       4.085  -4.472  -2.483  1.00  0.00     0.045 A 
ATOM     13  C   UNL     1       1.812  -4.288  -4.078  1.00  0.00     0.000 A 
ATOM     14  C   UNL     1       3.393  -5.628  -2.877  1.00  0.00     0.021 A 
ATOM     15  Cl  UNL     1       5.515  -4.720  -1.543  1.00  0.00    -0.084 Cl
ATOM     16  C   UNL     1       2.252  -5.536  -3.668  1.00  0.00     0.002 A 
ENDBRANCH   9  10
ENDBRANCH   8   9
BRANCH   8  17
ATOM     17  S   UNL     1       2.944   0.425  -2.993  1.00  0.00     0.243 S 
ATOM     18  O   UNL     1       1.729  -0.118  -3.564  1.00  0.00    -0.207 OA
ATOM     19  O   UNL     1       2.898   1.663  -2.249  1.00  0.00    -0.207 OA
BRANCH  17  20
ATOM     20  C   UNL     1       4.044   0.753  -4.366  1.00  0.00     0.082 A 
ATOM     21  C   UNL     1       4.380  -0.239  -5.292  1.00  0.00     0.023 A 
ATOM     22  C   UNL     1       4.432   2.080  -4.606  1.00  0.00     0.023 A 
ATOM     23  C   UNL     1       5.173   0.076  -6.400  1.00  0.00     0.022 A 
ATOM     24  C   UNL     1       5.184   2.401  -5.740  1.00  0.00     0.022 A 
ATOM     25  C   UNL     1       5.565   1.395  -6.623  1.00  0.00     0.041 A 
ATOM     26  Cl  UNL     1       6.495   1.785  -8.017  1.00  0.00    -0.084 Cl
ENDBRANCH  17  20
ENDBRANCH   8  17
ENDBRANCH   7   8
ENDBRANCH   5   7
ENDBRANCH   2   3
ENDBRANCH   1   2
BRANCH   1  27
ATOM     27  C   UNL     1       3.956   2.680   2.705  1.00  0.00     0.118 C 
BRANCH  27  28
ATOM     28  N   UNL     1       4.526   3.851   2.051  1.00  0.00    -0.352 N 
ATOM     29  C   UNL     1       5.241   4.901   2.576  1.00  0.00     0.251 C 
ATOM     30  H   UNL     1       4.374   3.897   1.080  1.00  0.00     0.163 HD
ATOM     31  O   UNL     1       5.537   5.849   1.852  1.00  0.00    -0.269 OA
BRANCH  29  32
ATOM     32  C   UNL     1       5.635   4.917   4.004  1.00  0.00     0.039 A 
ATOM     33  C   UNL     1       5.495   6.108   4.725  1.00  0.00     0.014 A 
ATOM     34  C   UNL     1       6.154   3.783   4.633  1.00  0.00     0.014 A 
ATOM     35  C   UNL     1       5.805   6.140   6.089  1.00  0.00     0.010 A 
ATOM     36  C   UNL     1       6.396   3.797   6.006  1.00  0.00     0.010 A 
ATOM     37  C   UNL     1       6.222   4.974   6.750  1.00  0.00    -0.014 A 
BRANCH  37  38
ATOM     38  C   UNL     1       6.454   4.957   8.219  1.00  0.00     0.031 A 
ATOM     39  C   UNL     1       7.821   4.664   8.775  1.00  0.00     0.074 A 
ATOM     40  C   UNL     1       5.408   5.106   9.058  1.00  0.00     0.049 A 
ATOM     41  N   UNL     1       8.194   4.535  10.023  1.00  0.00    -0.248 NA
ATOM     42  C   UNL     1       8.908   4.464   7.803  1.00  0.00     0.031 C 
ATOM     43  C   UNL     1       4.018   5.312   8.648  1.00  0.00     0.029 A 
ATOM     44  N   UNL     1       5.348   5.075  10.430  1.00  0.00    -0.354 N 
ATOM     45  C   UNL     1       9.542   4.201   9.986  1.00  0.00     0.074 A 
ATOM     46  C   UNL     1       9.918   4.122   8.591  1.00  0.00     0.031 C 
ATOM     47  C   UNL     1       3.243   5.388   9.742  1.00  0.00     0.029 A 
ATOM     48  C   UNL     1       4.073   5.213  10.930  1.00  0.00     0.049 A 
ATOM     49  H   UNL     1       6.142   4.966  11.002  1.00  0.00     0.167 HD
ATOM     50  C   UNL     1      10.399   4.009  11.018  1.00  0.00     0.034 A 
ATOM     51  C   UNL     1       3.622   5.197  12.199  1.00  0.00     0.034 A 
ATOM     52  C   UNL     1      10.041   4.146  12.404  1.00  0.00     0.049 A 
ATOM     53  C   UNL     1       4.605   5.039  13.327  1.00  0.00     0.074 A 
ATOM     54  C   UNL     1      10.861   4.066  13.516  1.00  0.00     0.029 A 
ATOM     55  N   UNL     1       8.759   4.391  12.870  1.00  0.00    -0.354 N 
ATOM     56  N   UNL     1       5.906   4.892  13.272  1.00  0.00    -0.248 NA
ATOM     57  C   UNL     1       4.063   5.084  14.694  1.00  0.00     0.031 C 
ATOM     58  C   UNL     1      10.072   4.255  14.656  1.00  0.00     0.029 A 
ATOM     59  C   UNL     1       8.763   4.462  14.253  1.00  0.00     0.049 A 
ATOM     60  H   UNL     1       7.962   4.498  12.302  1.00  0.00     0.167 HD
ATOM     61  C   UNL     1       6.342   4.859  14.592  1.00  0.00     0.074 A 
ATOM     62  C   UNL     1       5.169   5.025  15.424  1.00  0.00     0.031 C 
ATOM     63  C   UNL     1       7.599   4.689  15.070  1.00  0.00     0.034 A 
BRANCH  50  64
ATOM     64  C   UNL     1      11.834   3.697  10.684  1.00  0.00     0.023 A 
ATOM     65  C   UNL     1      12.664   4.723  10.188  1.00  0.00     0.012 A 
ATOM     66  C   UNL     1      12.379   2.420  10.918  1.00  0.00     0.148 A 
ATOM     67  C   UNL     1      14.005   4.476   9.900  1.00  0.00     0.002 A 
ATOM     68  C   UNL     1      13.727   2.191  10.665  1.00  0.00     0.091 A 
ATOM     69  F   UNL     1      11.570   1.450  11.369  1.00  0.00    -0.205 F 
ATOM     70  C   UNL     1      14.539   3.214  10.148  1.00  0.00     0.022 A 
BRANCH  68  71
ATOM     71  S   UNL     1      14.523   0.619  11.020  1.00  0.00     0.127 S 
ATOM     72  O   UNL     1      14.670   0.054   9.680  1.00  0.00    -0.237 OA
ATOM     73  O   UNL     1      15.778   1.040  11.645  1.00  0.00    -0.237 OA
ATOM     74  O   UNL     1      13.616  -0.094  11.908  1.00  0.00    -0.744 OA
ENDBRANCH  68  71
ENDBRANCH  50  64
BRANCH  51  75
ATOM     75  C   UNL     1       2.174   5.417  12.473  1.00  0.00     0.023 A 
ATOM     76  C   UNL     1       1.761   6.637  13.043  1.00  0.00     0.012 A 
ATOM     77  C   UNL     1       1.205   4.449  12.145  1.00  0.00     0.148 A 
ATOM     78  C   UNL     1       0.413   6.880  13.305  1.00  0.00     0.002 A 
ATOM     79  C   UNL     1      -0.142   4.719  12.361  1.00  0.00     0.091 A 
ATOM     80  F   UNL     1       1.618   3.288  11.619  1.00  0.00    -0.205 F 
ATOM     81  C   UNL     1      -0.539   5.927  12.955  1.00  0.00     0.022 A 
BRANCH  79  82
ATOM     82  S   UNL     1      -1.441   3.601  11.821  1.00  0.00     0.127 S 
ATOM     83  O   UNL     1      -1.860   2.997  13.083  1.00  0.00    -0.237 OA
ATOM     84  O   UNL     1      -2.410   4.522  11.226  1.00  0.00    -0.237 OA
ATOM     85  O   UNL     1      -0.806   2.704  10.865  1.00  0.00    -0.744 OA
ENDBRANCH  79  82
ENDBRANCH  51  75
BRANCH  63  86
ATOM     86  C   UNL     1       7.787   4.698  16.564  1.00  0.00     0.023 A 
ATOM     87  C   UNL     1       7.381   3.583  17.322  1.00  0.00     0.012 A 
ATOM     88  C   UNL     1       8.434   5.773  17.205  1.00  0.00     0.148 A 
ATOM     89  C   UNL     1       7.592   3.548  18.700  1.00  0.00     0.002 A 
ATOM     90  C   UNL     1       8.679   5.713  18.572  1.00  0.00     0.091 A 
ATOM     91  F   UNL     1       8.793   6.836  16.470  1.00  0.00    -0.205 F 
ATOM     92  C   UNL     1       8.251   4.606  19.323  1.00  0.00     0.022 A 
BRANCH  90  93
ATOM     93  S   UNL     1       9.602   6.990  19.436  1.00  0.00     0.127 S 
ATOM     94  O   UNL     1       8.535   7.720  20.118  1.00  0.00    -0.237 OA
ATOM     95  O   UNL     1      10.467   6.208  20.321  1.00  0.00    -0.237 OA
ATOM     96  O   UNL     1      10.313   7.732  18.405  1.00  0.00    -0.744 OA
ENDBRANCH  90  93
ENDBRANCH  63  86
ENDBRANCH  37  38
ENDBRANCH  29  32
ENDBRANCH  27  28
ENDBRANCH   1  27
TORSDOF 18
