REMARK SMILES C[C@H]1[C@H](C(=O)NCCCNC(=O)c2ccc(-c3c4nc(c(-c5cccc(S(=O)(=O)[O-])c5F)c5ccc([nH]5)c(-c5cccc(S(=O)(=O)[O-])c5F)c5nc(c(-c6cccc(S(=O)(=O)[O-])c6F)c6ccc3[nH]6)C=C5)C=C4)cc2)CC[N@@H+]1Cc1cnn(-c2ccccc2)c1
REMARK SMILES IDX 8 1 7 2 6 3 4 4 5 5 3 7 1 8 2 9 78 10 76 11 77 12 79 14
REMARK SMILES IDX 80 15 81 16 90 17 82 18 83 19 84 20 85 21 89 22 86 23 88 24
REMARK SMILES IDX 87 25 9 26 10 27 11 28 12 30 13 31 14 32 75 33 15 34 74 35
REMARK SMILES IDX 16 36 17 37 18 38 68 39 19 40 73 41 67 42 69 43 20 44 72 45
REMARK SMILES IDX 66 46 65 47 21 49 53 50 33 51 52 52 34 53 37 54 51 55 70 56
REMARK SMILES IDX 35 57 36 58 50 60 71 61 38 62 22 63 23 64 31 65 24 66 26 67
REMARK SMILES IDX 32 68 25 69 27 70 28 71 29 72 30 73 54 74 55 75 63 76 56 77
REMARK SMILES IDX 58 78 64 79 57 80 59 81 60 82 61 83 62 84 39 85 40 86 48 87
REMARK SMILES IDX 41 88 43 89 49 90 42 91 44 92 45 93 46 94 47 95
REMARK H PARENT 6 6 78 13 10 29 69 48 37 59
REMARK Flexibility Score: inf
ROOT
ATOM      1  C   UNL     1       1.508   0.325   3.990  1.00  0.00     0.042 C 
ENDROOT
BRANCH   1   2
ATOM      2  C   UNL     1       0.541   1.205   3.198  1.00  0.00     0.117 C 
BRANCH   2   3
ATOM      3  N   UNL     1       1.166   2.071   2.230  1.00  0.00    -0.356 N 
ATOM      4  C   UNL     1       0.834   2.274   0.932  1.00  0.00     0.229 C 
ATOM      5  O   UNL     1       0.992   3.422   0.497  1.00  0.00    -0.275 OA
ATOM      6  H   UNL     1       1.938   2.586   2.557  1.00  0.00     0.163 HD
BRANCH   4   7
ATOM      7  C   UNL     1       0.327   1.188  -0.006  1.00  0.00     0.142 C 
ATOM      8  C   UNL     1       1.562  -0.901  -0.582  1.00  0.00     0.076 C 
ATOM      9  C   UNL     1       0.488  -0.300   0.348  1.00  0.00     0.193 C 
ATOM     10  N   UNL     1      -0.816  -0.937   0.060  1.00  0.00    -0.328 N 
ATOM     11  C   UNL     1      -1.130   1.348  -0.415  1.00  0.00     0.081 C 
ATOM     12  C   UNL     1      -1.514  -0.056  -0.864  1.00  0.00     0.263 C 
ATOM     13  H   UNL     1      -0.640  -1.841  -0.379  1.00  0.00     0.348 HD
BRANCH  10  14
ATOM     14  C   UNL     1      -1.595  -1.508   1.179  1.00  0.00     0.302 C 
BRANCH  14  15
ATOM     15  C   UNL     1      -2.505  -0.594   1.967  1.00  0.00     0.045 A 
ATOM     16  C   UNL     1      -3.515   0.301   1.541  1.00  0.00     0.145 A 
ATOM     17  C   UNL     1      -2.667  -0.539   3.343  1.00  0.00     0.124 A 
ATOM     18  N   UNL     1      -3.987   1.082   2.515  1.00  0.00    -0.176 NA
ATOM     19  N   UNL     1      -3.439   0.573   3.635  1.00  0.00    -0.240 N 
BRANCH  19  20
ATOM     20  C   UNL     1      -3.365   1.347   4.816  1.00  0.00     0.065 A 
ATOM     21  C   UNL     1      -4.041   0.945   5.967  1.00  0.00     0.028 A 
ATOM     22  C   UNL     1      -2.505   2.454   4.847  1.00  0.00     0.028 A 
ATOM     23  C   UNL     1      -3.811   1.626   7.168  1.00  0.00     0.002 A 
ATOM     24  C   UNL     1      -2.244   3.096   6.059  1.00  0.00     0.002 A 
ATOM     25  C   UNL     1      -2.893   2.678   7.221  1.00  0.00     0.000 A 
ENDBRANCH  19  20
ENDBRANCH  14  15
ENDBRANCH  10  14
ENDBRANCH   4   7
ENDBRANCH   2   3
ENDBRANCH   1   2
BRANCH   1  26
ATOM     26  C   UNL     1       1.142   0.309   5.476  1.00  0.00     0.118 C 
BRANCH  26  27
ATOM     27  N   UNL     1      -0.246  -0.071   5.702  1.00  0.00    -0.352 N 
ATOM     28  C   UNL     1      -0.923  -0.537   6.797  1.00  0.00     0.251 C 
ATOM     29  H   UNL     1      -0.813   0.026   4.903  1.00  0.00     0.163 HD
ATOM     30  O   UNL     1      -2.045  -1.022   6.640  1.00  0.00    -0.269 OA
BRANCH  28  31
ATOM     31  C   UNL     1      -0.313  -0.565   8.134  1.00  0.00     0.039 A 
ATOM     32  C   UNL     1      -0.785  -1.521   9.043  1.00  0.00     0.014 A 
ATOM     33  C   UNL     1       0.782   0.228   8.455  1.00  0.00     0.014 A 
ATOM     34  C   UNL     1      -0.026  -1.831  10.161  1.00  0.00     0.010 A 
ATOM     35  C   UNL     1       1.609  -0.169   9.483  1.00  0.00     0.010 A 
ATOM     36  C   UNL     1       1.235  -1.241  10.299  1.00  0.00    -0.014 A 
BRANCH  36  37
ATOM     37  C   UNL     1       2.259  -1.841  11.169  1.00  0.00     0.031 A 
ATOM     38  C   UNL     1       2.875  -1.028  12.259  1.00  0.00     0.074 A 
ATOM     39  C   UNL     1       2.729  -3.057  10.823  1.00  0.00     0.049 A 
ATOM     40  N   UNL     1       3.848  -1.347  13.065  1.00  0.00    -0.248 NA
ATOM     41  C   UNL     1       2.372   0.347  12.431  1.00  0.00     0.031 C 
ATOM     42  C   UNL     1       2.283  -3.841   9.661  1.00  0.00     0.029 A 
ATOM     43  N   UNL     1       3.701  -3.838  11.384  1.00  0.00    -0.354 N 
ATOM     44  C   UNL     1       4.097  -0.207  13.815  1.00  0.00     0.074 A 
ATOM     45  C   UNL     1       3.216   0.830  13.329  1.00  0.00     0.031 C 
ATOM     46  C   UNL     1       2.961  -4.997   9.615  1.00  0.00     0.029 A 
ATOM     47  C   UNL     1       3.903  -5.028  10.722  1.00  0.00     0.049 A 
ATOM     48  H   UNL     1       4.209  -3.575  12.186  1.00  0.00     0.167 HD
ATOM     49  C   UNL     1       4.959  -0.061  14.846  1.00  0.00     0.034 A 
ATOM     50  C   UNL     1       4.751  -6.036  10.996  1.00  0.00     0.034 A 
ATOM     51  C   UNL     1       5.789  -1.132  15.321  1.00  0.00     0.049 A 
ATOM     52  C   UNL     1       5.602  -5.899  12.226  1.00  0.00     0.074 A 
ATOM     53  C   UNL     1       6.644  -1.152  16.405  1.00  0.00     0.029 A 
ATOM     54  N   UNL     1       5.858  -2.387  14.728  1.00  0.00    -0.354 N 
ATOM     55  N   UNL     1       5.702  -4.876  13.043  1.00  0.00    -0.248 NA
ATOM     56  C   UNL     1       6.415  -7.058  12.605  1.00  0.00     0.031 C 
ATOM     57  C   UNL     1       7.231  -2.422  16.465  1.00  0.00     0.029 A 
ATOM     58  C   UNL     1       6.733  -3.196  15.426  1.00  0.00     0.049 A 
ATOM     59  H   UNL     1       5.356  -2.660  13.926  1.00  0.00     0.167 HD
ATOM     60  C   UNL     1       6.570  -5.273  14.048  1.00  0.00     0.074 A 
ATOM     61  C   UNL     1       6.942  -6.644  13.750  1.00  0.00     0.031 C 
ATOM     62  C   UNL     1       7.038  -4.569  15.109  1.00  0.00     0.034 A 
BRANCH  49  63
ATOM     63  C   UNL     1       4.972   1.272  15.545  1.00  0.00     0.023 A 
ATOM     64  C   UNL     1       3.846   1.664  16.302  1.00  0.00     0.012 A 
ATOM     65  C   UNL     1       6.070   2.146  15.444  1.00  0.00     0.148 A 
ATOM     66  C   UNL     1       3.791   2.921  16.904  1.00  0.00     0.002 A 
ATOM     67  C   UNL     1       6.026   3.381  16.084  1.00  0.00     0.091 A 
ATOM     68  F   UNL     1       7.120   1.772  14.700  1.00  0.00    -0.205 F 
ATOM     69  C   UNL     1       4.883   3.775  16.800  1.00  0.00     0.022 A 
BRANCH  67  70
ATOM     70  S   UNL     1       7.402   4.535  16.064  1.00  0.00     0.127 S 
ATOM     71  O   UNL     1       6.880   5.602  15.210  1.00  0.00    -0.237 OA
ATOM     72  O   UNL     1       7.524   4.891  17.478  1.00  0.00    -0.237 OA
ATOM     73  O   UNL     1       8.535   3.799  15.522  1.00  0.00    -0.744 OA
ENDBRANCH  67  70
ENDBRANCH  49  63
BRANCH  50  74
ATOM     74  C   UNL     1       4.729  -7.277  10.171  1.00  0.00     0.023 A 
ATOM     75  C   UNL     1       4.172  -8.452  10.712  1.00  0.00     0.012 A 
ATOM     76  C   UNL     1       5.179  -7.288   8.836  1.00  0.00     0.148 A 
ATOM     77  C   UNL     1       4.091  -9.621   9.953  1.00  0.00     0.002 A 
ATOM     78  C   UNL     1       5.050  -8.442   8.068  1.00  0.00     0.091 A 
ATOM     79  F   UNL     1       5.707  -6.163   8.334  1.00  0.00    -0.205 F 
ATOM     80  C   UNL     1       4.520  -9.614   8.629  1.00  0.00     0.022 A 
BRANCH  78  81
ATOM     81  S   UNL     1       5.450  -8.478   6.315  1.00  0.00     0.127 S 
ATOM     82  O   UNL     1       6.723  -9.193   6.313  1.00  0.00    -0.237 OA
ATOM     83  O   UNL     1       4.323  -9.227   5.758  1.00  0.00    -0.237 OA
ATOM     84  O   UNL     1       5.500  -7.082   5.901  1.00  0.00    -0.744 OA
ENDBRANCH  78  81
ENDBRANCH  50  74
BRANCH  62  85
ATOM     85  C   UNL     1       7.995  -5.281  16.021  1.00  0.00     0.023 A 
ATOM     86  C   UNL     1       9.322  -5.498  15.600  1.00  0.00     0.012 A 
ATOM     87  C   UNL     1       7.601  -5.663  17.316  1.00  0.00     0.148 A 
ATOM     88  C   UNL     1      10.238  -6.113  16.449  1.00  0.00     0.002 A 
ATOM     89  C   UNL     1       8.532  -6.231  18.174  1.00  0.00     0.091 A 
ATOM     90  F   UNL     1       6.325  -5.469  17.682  1.00  0.00    -0.205 F 
ATOM     91  C   UNL     1       9.847  -6.466  17.739  1.00  0.00     0.022 A 
BRANCH  89  92
ATOM     92  S   UNL     1       8.136  -6.619  19.881  1.00  0.00     0.127 S 
ATOM     93  O   UNL     1       7.949  -8.067  19.821  1.00  0.00    -0.237 OA
ATOM     94  O   UNL     1       9.343  -6.187  20.588  1.00  0.00    -0.237 OA
ATOM     95  O   UNL     1       6.946  -5.841  20.197  1.00  0.00    -0.744 OA
ENDBRANCH  89  92
ENDBRANCH  62  85
ENDBRANCH  36  37
ENDBRANCH  28  31
ENDBRANCH  26  27
ENDBRANCH   1  26
TORSDOF 16
