REMARK SMILES CC1=C[C@H](C)[C@@H](C(=O)NCCCNC(=O)c2ccc(-c3c4nc(c(-c5cccc(S(=O)(=O)[O-])c5F)c5ccc([nH]5)c(-c5cccc(S(=O)(=O)[O-])c5F)c5nc(c(-c6cccc(S(=O)(=O)[O-])c6F)c6ccc3[nH]6)C=C5)C=C4)cc2)[C@H](C(=O)Nc2cccnc2)C1
REMARK SMILES IDX 11 1 10 2 9 3 7 4 8 5 6 7 1 8 2 9 3 10 89 11 4 12 79 13 5 14
REMARK SMILES IDX 80 15 81 16 82 17 83 19 84 20 88 21 85 22 87 23 86 24 12 25
REMARK SMILES IDX 13 26 14 27 15 29 16 30 17 31 78 32 18 33 77 34 19 35 20 36
REMARK SMILES IDX 21 37 71 38 22 39 76 40 70 41 72 42 23 43 75 44 69 45 68 46
REMARK SMILES IDX 24 48 56 49 36 50 55 51 37 52 40 53 54 54 73 55 38 56 39 57
REMARK SMILES IDX 53 59 74 60 41 61 25 62 26 63 34 64 27 65 29 66 35 67 28 68
REMARK SMILES IDX 30 69 31 70 32 71 33 72 57 73 58 74 66 75 59 76 61 77 67 78
REMARK SMILES IDX 60 79 62 80 63 81 64 82 65 83 42 84 43 85 51 86 44 87 46 88
REMARK SMILES IDX 52 89 45 90 47 91 48 92 49 93 50 94
REMARK H PARENT 9 6 82 18 13 28 72 47 40 58
REMARK Flexibility Score: inf
ROOT
ATOM      1  C   UNL     1      -0.811  -1.836   3.567  1.00  0.00     0.042 C 
ENDROOT
BRANCH   1   2
ATOM      2  C   UNL     1       0.002  -2.945   2.940  1.00  0.00     0.117 C 
BRANCH   2   3
ATOM      3  N   UNL     1      -0.770  -4.136   2.649  1.00  0.00    -0.356 N 
ATOM      4  C   UNL     1      -0.932  -4.816   1.478  1.00  0.00     0.224 C 
ATOM      5  O   UNL     1      -1.521  -5.898   1.531  1.00  0.00    -0.275 OA
ATOM      6  H   UNL     1      -1.253  -4.515   3.418  1.00  0.00     0.163 HD
BRANCH   4   7
ATOM      7  C   UNL     1      -0.399  -4.285   0.137  1.00  0.00     0.098 C 
ATOM      8  C   UNL     1       1.394  -0.215  -0.252  1.00  0.00     0.039 C 
ATOM      9  C   UNL     1       0.844  -1.615  -0.195  1.00  0.00    -0.076 C 
ATOM     10  C   UNL     1       1.635  -2.697  -0.065  1.00  0.00    -0.024 C 
ATOM     11  C   UNL     1      -0.659  -1.691  -0.194  1.00  0.00     0.044 C 
ATOM     12  C   UNL     1       1.139  -4.097   0.224  1.00  0.00     0.022 C 
ATOM     13  C   UNL     1      -1.250  -3.093  -0.362  1.00  0.00     0.096 C 
ATOM     14  C   UNL     1       1.901  -5.209  -0.518  1.00  0.00     0.013 C 
BRANCH  13  15
ATOM     15  C   UNL     1      -1.932  -3.319  -1.735  1.00  0.00     0.228 C 
ATOM     16  O   UNL     1      -2.978  -3.974  -1.796  1.00  0.00    -0.274 OA
ATOM     17  N   UNL     1      -1.509  -2.707  -2.886  1.00  0.00    -0.324 N 
ATOM     18  H   UNL     1      -2.220  -2.501  -3.535  1.00  0.00     0.169 HD
BRANCH  17  19
ATOM     19  C   UNL     1      -0.220  -2.331  -3.279  1.00  0.00     0.059 A 
ATOM     20  C   UNL     1       0.868  -3.159  -3.058  1.00  0.00     0.029 A 
ATOM     21  C   UNL     1       0.014  -1.146  -3.962  1.00  0.00     0.137 A 
ATOM     22  C   UNL     1       2.155  -2.727  -3.370  1.00  0.00     0.022 A 
ATOM     23  N   UNL     1       1.251  -0.696  -4.295  1.00  0.00    -0.263 NA
ATOM     24  C   UNL     1       2.296  -1.482  -3.954  1.00  0.00     0.111 A 
ENDBRANCH  17  19
ENDBRANCH  13  15
ENDBRANCH   4   7
ENDBRANCH   2   3
ENDBRANCH   1   2
BRANCH   1  25
ATOM     25  C   UNL     1      -0.931  -2.005   5.064  1.00  0.00     0.118 C 
BRANCH  25  26
ATOM     26  N   UNL     1       0.361  -1.888   5.738  1.00  0.00    -0.352 N 
ATOM     27  C   UNL     1       0.755  -1.030   6.733  1.00  0.00     0.251 C 
ATOM     28  H   UNL     1       1.052  -2.519   5.433  1.00  0.00     0.163 HD
ATOM     29  O   UNL     1       1.944  -0.950   7.037  1.00  0.00    -0.269 OA
BRANCH  27  30
ATOM     30  C   UNL     1      -0.252  -0.194   7.412  1.00  0.00     0.039 A 
ATOM     31  C   UNL     1       0.055   1.132   7.719  1.00  0.00     0.014 A 
ATOM     32  C   UNL     1      -1.513  -0.715   7.710  1.00  0.00     0.014 A 
ATOM     33  C   UNL     1      -0.932   1.951   8.264  1.00  0.00     0.010 A 
ATOM     34  C   UNL     1      -2.527   0.134   8.121  1.00  0.00     0.010 A 
ATOM     35  C   UNL     1      -2.242   1.469   8.429  1.00  0.00    -0.014 A 
BRANCH  35  36
ATOM     36  C   UNL     1      -3.327   2.344   8.931  1.00  0.00     0.031 A 
ATOM     37  C   UNL     1      -4.071   1.980  10.187  1.00  0.00     0.074 A 
ATOM     38  C   UNL     1      -3.695   3.420   8.209  1.00  0.00     0.049 A 
ATOM     39  N   UNL     1      -5.062   2.605  10.766  1.00  0.00    -0.248 NA
ATOM     40  C   UNL     1      -3.677   0.732  10.863  1.00  0.00     0.031 C 
ATOM     41  C   UNL     1      -3.122   3.808   6.918  1.00  0.00     0.029 A 
ATOM     42  N   UNL     1      -4.654   4.369   8.447  1.00  0.00    -0.354 N 
ATOM     43  C   UNL     1      -5.428   1.813  11.848  1.00  0.00     0.074 A 
ATOM     44  C   UNL     1      -4.596   0.633  11.810  1.00  0.00     0.031 C 
ATOM     45  C   UNL     1      -3.730   4.923   6.486  1.00  0.00     0.029 A 
ATOM     46  C   UNL     1      -4.755   5.309   7.449  1.00  0.00     0.049 A 
ATOM     47  H   UNL     1      -5.217   4.378   9.254  1.00  0.00     0.167 HD
ATOM     48  C   UNL     1      -6.344   2.064  12.812  1.00  0.00     0.034 A 
ATOM     49  C   UNL     1      -5.586   6.361   7.322  1.00  0.00     0.034 A 
ATOM     50  C   UNL     1      -7.147   3.255  12.857  1.00  0.00     0.049 A 
ATOM     51  C   UNL     1      -6.563   6.650   8.426  1.00  0.00     0.074 A 
ATOM     52  C   UNL     1      -8.043   3.654  13.832  1.00  0.00     0.029 A 
ATOM     53  N   UNL     1      -7.161   4.234  11.875  1.00  0.00    -0.354 N 
ATOM     54  N   UNL     1      -6.777   5.980   9.533  1.00  0.00    -0.248 NA
ATOM     55  C   UNL     1      -7.383   7.860   8.286  1.00  0.00     0.031 C 
ATOM     56  C   UNL     1      -8.623   4.859  13.422  1.00  0.00     0.029 A 
ATOM     57  C   UNL     1      -8.061   5.231  12.211  1.00  0.00     0.049 A 
ATOM     58  H   UNL     1      -6.612   4.222  11.058  1.00  0.00     0.167 HD
ATOM     59  C   UNL     1      -7.739   6.697  10.233  1.00  0.00     0.074 A 
ATOM     60  C   UNL     1      -8.042   7.870   9.437  1.00  0.00     0.031 C 
ATOM     61  C   UNL     1      -8.329   6.405  11.419  1.00  0.00     0.034 A 
BRANCH  48  62
ATOM     62  C   UNL     1      -6.483   1.044  13.915  1.00  0.00     0.023 A 
ATOM     63  C   UNL     1      -5.423   0.853  14.827  1.00  0.00     0.012 A 
ATOM     64  C   UNL     1      -7.661   0.287  14.062  1.00  0.00     0.148 A 
ATOM     65  C   UNL     1      -5.510  -0.110  15.831  1.00  0.00     0.002 A 
ATOM     66  C   UNL     1      -7.761  -0.634  15.099  1.00  0.00     0.091 A 
ATOM     67  F   UNL     1      -8.650   0.462  13.175  1.00  0.00    -0.205 F 
ATOM     68  C   UNL     1      -6.682  -0.846  15.972  1.00  0.00     0.022 A 
BRANCH  66  69
ATOM     69  S   UNL     1      -9.259  -1.572  15.418  1.00  0.00     0.127 S 
ATOM     70  O   UNL     1      -8.860  -2.916  15.000  1.00  0.00    -0.237 OA
ATOM     71  O   UNL     1      -9.423  -1.407  16.862  1.00  0.00    -0.237 OA
ATOM     72  O   UNL     1     -10.301  -0.950  14.613  1.00  0.00    -0.744 OA
ENDBRANCH  66  69
ENDBRANCH  48  62
BRANCH  49  73
ATOM     73  C   UNL     1      -5.478   7.240   6.125  1.00  0.00     0.023 A 
ATOM     74  C   UNL     1      -4.947   8.538   6.256  1.00  0.00     0.012 A 
ATOM     75  C   UNL     1      -5.837   6.769   4.847  1.00  0.00     0.148 A 
ATOM     76  C   UNL     1      -4.799   9.360   5.138  1.00  0.00     0.002 A 
ATOM     77  C   UNL     1      -5.632   7.571   3.731  1.00  0.00     0.091 A 
ATOM     78  F   UNL     1      -6.344   5.532   4.747  1.00  0.00    -0.205 F 
ATOM     79  C   UNL     1      -5.130   8.874   3.876  1.00  0.00     0.022 A 
BRANCH  77  80
ATOM     80  S   UNL     1      -5.892   6.978   2.056  1.00  0.00     0.127 S 
ATOM     81  O   UNL     1      -7.017   7.800   1.618  1.00  0.00    -0.237 OA
ATOM     82  O   UNL     1      -4.611   7.296   1.424  1.00  0.00    -0.237 OA
ATOM     83  O   UNL     1      -6.164   5.552   2.179  1.00  0.00    -0.744 OA
ENDBRANCH  77  80
ENDBRANCH  49  73
BRANCH  61  84
ATOM     84  C   UNL     1      -9.352   7.381  11.940  1.00  0.00     0.023 A 
ATOM     85  C   UNL     1     -10.605   7.493  11.305  1.00  0.00     0.012 A 
ATOM     86  C   UNL     1      -9.091   8.146  13.094  1.00  0.00     0.148 A 
ATOM     87  C   UNL     1     -11.566   8.382  11.784  1.00  0.00     0.002 A 
ATOM     88  C   UNL     1     -10.074   8.990  13.598  1.00  0.00     0.091 A 
ATOM     89  F   UNL     1      -7.888   8.039  13.675  1.00  0.00    -0.205 F 
ATOM     90  C   UNL     1     -11.305   9.121  12.935  1.00  0.00     0.022 A 
BRANCH  88  91
ATOM     91  S   UNL     1      -9.864   9.905  15.128  1.00  0.00     0.127 S 
ATOM     92  O   UNL     1      -9.721  11.275  14.638  1.00  0.00    -0.237 OA
ATOM     93  O   UNL     1     -11.122   9.635  15.825  1.00  0.00    -0.237 OA
ATOM     94  O   UNL     1      -8.683   9.346  15.773  1.00  0.00    -0.744 OA
ENDBRANCH  88  91
ENDBRANCH  61  84
ENDBRANCH  35  36
ENDBRANCH  27  30
ENDBRANCH  25  26
ENDBRANCH   1  25
TORSDOF 15
