REMARK SMILES CCc1sc(NC(=O)[C@H]2CC(C)=C(C)C[C@H]2C(=O)NCCCNC(=O)c2ccc(-c3c4nc(c(-c5cccc(S(=O)(=O)[O-])c5F)c5ccc([nH]5)c(-c5cccc(S(=O)(=O)[O-])c5F)c5nc(c(-c6cccc(S(=O)(=O)[O-])c6F)c6ccc3[nH]6)C=C5)C=C4)cc2)nc1-c1ccccc1
REMARK SMILES IDX 21 1 20 2 19 3 17 4 18 5 16 7 9 8 10 9 11 10 15 11 12 12
REMARK SMILES IDX 13 13 14 14 7 15 6 16 8 18 5 19 3 20 4 21 90 22 89 23 2 24
REMARK SMILES IDX 1 25 91 26 92 27 96 28 93 29 95 30 94 31 22 32 23 33 24 34
REMARK SMILES IDX 25 36 26 37 27 38 88 39 28 40 87 41 29 42 30 43 31 44 81 45
REMARK SMILES IDX 32 46 86 47 80 48 82 49 33 50 85 51 79 52 78 53 34 55 66 56
REMARK SMILES IDX 46 57 65 58 47 59 50 60 64 61 83 62 48 63 49 64 63 66 84 67
REMARK SMILES IDX 51 68 35 69 36 70 44 71 37 72 39 73 45 74 38 75 40 76 41 77
REMARK SMILES IDX 42 78 43 79 67 80 68 81 76 82 69 83 71 84 77 85 70 86 72 87
REMARK SMILES IDX 73 88 74 89 75 90 52 91 53 92 61 93 54 94 56 95 62 96 55 97
REMARK SMILES IDX 57 98 58 99 59 100 60 101
REMARK H PARENT 19 6 6 17 23 35 82 54 50 65
REMARK Flexibility Score: inf
ROOT
ATOM      1  C   UNL     1       3.365  -0.695  10.054  1.00  0.00     0.042 C 
ENDROOT
BRANCH   1   2
ATOM      2  C   UNL     1       2.146  -1.560   9.775  1.00  0.00     0.117 C 
BRANCH   2   3
ATOM      3  N   UNL     1       1.155  -0.907   8.941  1.00  0.00    -0.356 N 
ATOM      4  C   UNL     1       0.827  -1.021   7.636  1.00  0.00     0.224 C 
ATOM      5  O   UNL     1      -0.106  -0.311   7.242  1.00  0.00    -0.275 OA
ATOM      6  H   UNL     1       0.611  -0.246   9.425  1.00  0.00     0.163 HD
BRANCH   4   7
ATOM      7  C   UNL     1       1.525  -1.945   6.636  1.00  0.00     0.095 C 
ATOM      8  C   UNL     1       2.836  -1.419   6.029  1.00  0.00     0.095 C 
ATOM      9  C   UNL     1       4.114  -2.009   6.655  1.00  0.00     0.045 C 
ATOM     10  C   UNL     1       4.013  -3.390   7.260  1.00  0.00    -0.074 C 
ATOM     11  C   UNL     1       1.519  -3.424   7.029  1.00  0.00     0.045 C 
ATOM     12  C   UNL     1       5.345  -3.935   7.720  1.00  0.00     0.039 C 
ATOM     13  C   UNL     1       2.840  -4.035   7.422  1.00  0.00    -0.074 C 
ATOM     14  C   UNL     1       2.732  -5.387   8.080  1.00  0.00     0.039 C 
BRANCH   8  15
ATOM     15  C   UNL     1       2.881   0.113   6.055  1.00  0.00     0.230 C 
ATOM     16  N   UNL     1       2.260   0.925   5.168  1.00  0.00    -0.302 N 
ATOM     17  H   UNL     1       2.297   1.869   5.447  1.00  0.00     0.172 HD
ATOM     18  O   UNL     1       3.458   0.693   6.985  1.00  0.00    -0.274 OA
BRANCH  16  19
ATOM     19  C   UNL     1       1.596   0.769   3.986  1.00  0.00     0.190 A 
ATOM     20  C   UNL     1       0.644   0.086   1.863  1.00  0.00     0.034 A 
ATOM     21  S   UNL     1       1.420  -0.705   3.173  1.00  0.00    -0.101 S 
ATOM     22  C   UNL     1       0.531   1.434   2.165  1.00  0.00     0.087 A 
ATOM     23  N   UNL     1       1.101   1.814   3.366  1.00  0.00    -0.220 NA
BRANCH  20  24
ATOM     24  C   UNL     1       0.253  -0.691   0.645  1.00  0.00     0.046 C 
ATOM     25  C   UNL     1       1.089  -0.309  -0.569  1.00  0.00     0.010 C 
ENDBRANCH  20  24
BRANCH  22  26
ATOM     26  C   UNL     1      -0.036   2.425   1.266  1.00  0.00     0.001 A 
ATOM     27  C   UNL     1      -1.353   2.316   0.803  1.00  0.00     0.010 A 
ATOM     28  C   UNL     1       0.762   3.488   0.827  1.00  0.00     0.010 A 
ATOM     29  C   UNL     1      -1.850   3.234  -0.124  1.00  0.00     0.001 A 
ATOM     30  C   UNL     1       0.264   4.404  -0.102  1.00  0.00     0.001 A 
ATOM     31  C   UNL     1      -1.038   4.271  -0.584  1.00  0.00     0.000 A 
ENDBRANCH  22  26
ENDBRANCH  16  19
ENDBRANCH   8  15
ENDBRANCH   4   7
ENDBRANCH   2   3
ENDBRANCH   1   2
BRANCH   1  32
ATOM     32  C   UNL     1       3.049   0.592  10.800  1.00  0.00     0.118 C 
BRANCH  32  33
ATOM     33  N   UNL     1       2.673   0.327  12.182  1.00  0.00    -0.352 N 
ATOM     34  C   UNL     1       3.333   0.675  13.334  1.00  0.00     0.251 C 
ATOM     35  H   UNL     1       1.831  -0.168  12.306  1.00  0.00     0.163 HD
ATOM     36  O   UNL     1       3.030   0.138  14.395  1.00  0.00    -0.269 OA
BRANCH  34  37
ATOM     37  C   UNL     1       4.402   1.697  13.293  1.00  0.00     0.039 A 
ATOM     38  C   UNL     1       5.568   1.496  14.037  1.00  0.00     0.014 A 
ATOM     39  C   UNL     1       4.235   2.871  12.553  1.00  0.00     0.014 A 
ATOM     40  C   UNL     1       6.580   2.459  14.012  1.00  0.00     0.010 A 
ATOM     41  C   UNL     1       5.272   3.793  12.471  1.00  0.00     0.010 A 
ATOM     42  C   UNL     1       6.444   3.610  13.219  1.00  0.00    -0.014 A 
BRANCH  42  43
ATOM     43  C   UNL     1       7.494   4.657  13.185  1.00  0.00     0.031 A 
ATOM     44  C   UNL     1       7.194   6.033  13.718  1.00  0.00     0.074 A 
ATOM     45  C   UNL     1       8.681   4.399  12.604  1.00  0.00     0.049 A 
ATOM     46  N   UNL     1       7.951   7.099  13.724  1.00  0.00    -0.248 NA
ATOM     47  C   UNL     1       5.855   6.246  14.294  1.00  0.00     0.031 C 
ATOM     48  C   UNL     1       9.061   3.127  11.985  1.00  0.00     0.029 A 
ATOM     49  N   UNL     1       9.777   5.201  12.416  1.00  0.00    -0.354 N 
ATOM     50  C   UNL     1       7.171   8.114  14.265  1.00  0.00     0.074 A 
ATOM     51  C   UNL     1       5.869   7.547  14.541  1.00  0.00     0.031 C 
ATOM     52  C   UNL     1      10.307   3.233  11.495  1.00  0.00     0.029 A 
ATOM     53  C   UNL     1      10.805   4.582  11.744  1.00  0.00     0.049 A 
ATOM     54  H   UNL     1       9.824   6.132  12.733  1.00  0.00     0.167 HD
ATOM     55  C   UNL     1       7.516   9.394  14.544  1.00  0.00     0.034 A 
ATOM     56  C   UNL     1      12.014   5.051  11.377  1.00  0.00     0.034 A 
ATOM     57  C   UNL     1       8.828   9.936  14.324  1.00  0.00     0.049 A 
ATOM     58  C   UNL     1      12.392   6.460  11.744  1.00  0.00     0.074 A 
ATOM     59  C   UNL     1       9.308  11.191  14.651  1.00  0.00     0.029 A 
ATOM     60  N   UNL     1       9.873   9.251  13.723  1.00  0.00    -0.354 N 
ATOM     61  N   UNL     1      11.694   7.359  12.397  1.00  0.00    -0.248 NA
ATOM     62  C   UNL     1      13.737   6.910  11.358  1.00  0.00     0.031 C 
ATOM     63  C   UNL     1      10.646  11.266  14.244  1.00  0.00     0.029 A 
ATOM     64  C   UNL     1      10.998  10.055  13.670  1.00  0.00     0.049 A 
ATOM     65  H   UNL     1       9.822   8.328  13.385  1.00  0.00     0.167 HD
ATOM     66  C   UNL     1      12.525   8.466  12.529  1.00  0.00     0.074 A 
ATOM     67  C   UNL     1      13.786   8.117  11.905  1.00  0.00     0.031 C 
ATOM     68  C   UNL     1      12.263   9.668  13.098  1.00  0.00     0.034 A 
BRANCH  55  69
ATOM     69  C   UNL     1       6.473  10.268  15.191  1.00  0.00     0.023 A 
ATOM     70  C   UNL     1       6.123  10.039  16.538  1.00  0.00     0.012 A 
ATOM     71  C   UNL     1       5.863  11.326  14.490  1.00  0.00     0.148 A 
ATOM     72  C   UNL     1       5.157  10.823  17.166  1.00  0.00     0.002 A 
ATOM     73  C   UNL     1       4.929  12.130  15.136  1.00  0.00     0.091 A 
ATOM     74  F   UNL     1       6.186  11.515  13.203  1.00  0.00    -0.205 F 
ATOM     75  C   UNL     1       4.567  11.873  16.469  1.00  0.00     0.022 A 
BRANCH  73  76
ATOM     76  S   UNL     1       4.172  13.552  14.340  1.00  0.00     0.127 S 
ATOM     77  O   UNL     1       2.854  13.027  13.986  1.00  0.00    -0.237 OA
ATOM     78  O   UNL     1       4.161  14.545  15.416  1.00  0.00    -0.237 OA
ATOM     79  O   UNL     1       5.042  13.887  13.222  1.00  0.00    -0.744 OA
ENDBRANCH  73  76
ENDBRANCH  55  69
BRANCH  56  80
ATOM     80  C   UNL     1      12.990   4.141  10.714  1.00  0.00     0.023 A 
ATOM     81  C   UNL     1      14.105   3.689  11.447  1.00  0.00     0.012 A 
ATOM     82  C   UNL     1      12.804   3.685   9.395  1.00  0.00     0.148 A 
ATOM     83  C   UNL     1      15.030   2.819  10.872  1.00  0.00     0.002 A 
ATOM     84  C   UNL     1      13.705   2.779   8.844  1.00  0.00     0.091 A 
ATOM     85  F   UNL     1      11.745   4.137   8.708  1.00  0.00    -0.205 F 
ATOM     86  C   UNL     1      14.825   2.355   9.575  1.00  0.00     0.022 A 
BRANCH  84  87
ATOM     87  S   UNL     1      13.454   2.032   7.229  1.00  0.00     0.127 S 
ATOM     88  O   UNL     1      14.461   2.715   6.423  1.00  0.00    -0.237 OA
ATOM     89  O   UNL     1      13.732   0.621   7.498  1.00  0.00    -0.237 OA
ATOM     90  O   UNL     1      12.066   2.311   6.881  1.00  0.00    -0.744 OA
ENDBRANCH  84  87
ENDBRANCH  56  80
BRANCH  68  91
ATOM     91  C   UNL     1      13.365  10.694  13.097  1.00  0.00     0.023 A 
ATOM     92  C   UNL     1      13.678  11.373  11.903  1.00  0.00     0.012 A 
ATOM     93  C   UNL     1      14.031  11.041  14.288  1.00  0.00     0.148 A 
ATOM     94  C   UNL     1      14.656  12.366  11.890  1.00  0.00     0.002 A 
ATOM     95  C   UNL     1      14.975  12.061  14.276  1.00  0.00     0.091 A 
ATOM     96  F   UNL     1      13.734  10.368  15.409  1.00  0.00    -0.205 F 
ATOM     97  C   UNL     1      15.295  12.719  13.077  1.00  0.00     0.022 A 
BRANCH  95  98
ATOM     98  S   UNL     1      15.780  12.638  15.775  1.00  0.00     0.127 S 
ATOM     99  O   UNL     1      17.098  12.015  15.666  1.00  0.00    -0.237 OA
ATOM    100  O   UNL     1      15.776  14.091  15.596  1.00  0.00    -0.237 OA
ATOM    101  O   UNL     1      14.950  12.168  16.876  1.00  0.00    -0.744 OA
ENDBRANCH  95  98
ENDBRANCH  68  91
ENDBRANCH  42  43
ENDBRANCH  34  37
ENDBRANCH  32  33
ENDBRANCH   1  32
TORSDOF 17
