REMARK SMILES COc1ccc(OC)c(/C=C2\S/C(=[NH+]\c3ccc(C(=O)NCCCNC(=O)c4ccc(-c5c6nc(c(-c7cccc(S(=O)(=O)[O-])c7F)c7ccc([nH]7)c(-c7cccc(S(=O)(=O)[O-])c7F)c7nc(c(-c8cccc(S(=O)(=O)[O-])c8F)c8ccc5[nH]8)C=C7)C=C6)cc4)cc3)N(C)C2=O)c1
REMARK SMILES IDX 23 1 22 2 21 3 19 4 20 5 18 7 15 8 16 9 92 10 17 11 91 12
REMARK SMILES IDX 14 13 10 14 11 15 12 16 95 17 13 18 93 19 96 20 94 21 9 23
REMARK SMILES IDX 3 24 4 25 97 26 5 27 6 28 2 29 1 30 7 31 8 32 24 33 25 34
REMARK SMILES IDX 26 35 27 37 28 38 29 39 90 40 30 41 89 42 31 43 32 44 33 45
REMARK SMILES IDX 83 46 34 47 88 48 82 49 84 50 35 51 87 52 81 53 80 54 36 56
REMARK SMILES IDX 68 57 48 58 67 59 49 60 52 61 66 62 85 63 50 64 51 65 65 67
REMARK SMILES IDX 86 68 53 69 37 70 38 71 46 72 39 73 41 74 47 75 40 76 42 77
REMARK SMILES IDX 43 78 44 79 45 80 69 81 70 82 78 83 71 84 73 85 79 86 72 87
REMARK SMILES IDX 74 88 75 89 76 90 77 91 54 92 55 93 63 94 56 95 58 96 64 97
REMARK SMILES IDX 57 98 59 99 60 100 61 101 62 102
REMARK H PARENT 21 6 14 22 25 36 84 55 52 66
REMARK Flexibility Score: inf
ROOT
ATOM      1  C   UNL     1      -2.046   2.424 -10.585  1.00  0.00     0.042 C 
ENDROOT
BRANCH   1   2
ATOM      2  C   UNL     1      -1.825   1.443  -9.433  1.00  0.00     0.118 C 
BRANCH   2   3
ATOM      3  N   UNL     1      -1.728   0.072  -9.905  1.00  0.00    -0.352 N 
ATOM      4  C   UNL     1      -0.671  -0.779 -10.107  1.00  0.00     0.251 C 
ATOM      5  O   UNL     1      -0.940  -1.938 -10.430  1.00  0.00    -0.269 OA
ATOM      6  H   UNL     1      -2.600  -0.328 -10.127  1.00  0.00     0.163 HD
BRANCH   4   7
ATOM      7  C   UNL     1       0.759  -0.404  -9.905  1.00  0.00     0.040 A 
ATOM      8  C   UNL     1       3.479   0.121  -9.341  1.00  0.00     0.125 A 
ATOM      9  C   UNL     1       3.011  -1.191  -9.364  1.00  0.00     0.052 A 
ATOM     10  C   UNL     1       2.610   1.150  -9.717  1.00  0.00     0.052 A 
ATOM     11  C   UNL     1       1.658  -1.448  -9.619  1.00  0.00     0.018 A 
ATOM     12  C   UNL     1       1.267   0.890 -10.017  1.00  0.00     0.018 A 
BRANCH   8  13
ATOM     13  N   UNL     1       4.767   0.469  -8.895  1.00  0.00    -0.234 N 
ATOM     14  C   UNL     1       4.115   1.194  -4.080  1.00  0.00     0.036 C 
ATOM     15  C   UNL     1       4.711   0.716  -5.181  1.00  0.00     0.110 C 
ATOM     16  S   UNL     1       4.003  -0.285  -6.377  1.00  0.00     0.007 SA
ATOM     17  C   UNL     1       6.030   1.203  -5.673  1.00  0.00     0.348 C 
ATOM     18  C   UNL     1       5.007   0.419  -7.623  1.00  0.00     0.324 C 
ATOM     19  N   UNL     1       6.103   1.008  -7.040  1.00  0.00    -0.189 N 
ATOM     20  O   UNL     1       6.844   1.782  -4.965  1.00  0.00    -0.240 OA
ATOM     21  C   UNL     1       7.151   1.613  -7.831  1.00  0.00     0.301 C 
ATOM     22  H   UNL     1       5.467   0.743  -9.531  1.00  0.00     0.313 HD
BRANCH  14  23
ATOM     23  C   UNL     1       2.702   0.947  -3.736  1.00  0.00     0.022 A 
ATOM     24  C   UNL     1       1.122  -0.086  -2.208  1.00  0.00     0.119 A 
ATOM     25  C   UNL     1       0.075   0.176  -3.086  1.00  0.00     0.050 A 
ATOM     26  C   UNL     1       2.433   0.272  -2.536  1.00  0.00     0.058 A 
ATOM     27  C   UNL     1       0.324   0.872  -4.265  1.00  0.00     0.051 A 
ATOM     28  C   UNL     1       1.620   1.296  -4.574  1.00  0.00     0.126 A 
BRANCH  24  29
ATOM     29  O   UNL     1       0.819  -0.779  -1.067  1.00  0.00    -0.497 OA
ATOM     30  C   UNL     1       1.157  -0.034   0.101  1.00  0.00     0.278 C 
ENDBRANCH  24  29
BRANCH  28  31
ATOM     31  O   UNL     1       1.722   1.946  -5.779  1.00  0.00    -0.496 OA
ATOM     32  C   UNL     1       2.390   3.203  -5.723  1.00  0.00     0.278 C 
ENDBRANCH  28  31
ENDBRANCH  14  23
ENDBRANCH   8  13
ENDBRANCH   4   7
ENDBRANCH   2   3
ENDBRANCH   1   2
BRANCH   1  33
ATOM     33  C   UNL     1      -3.442   2.351 -11.205  1.00  0.00     0.118 C 
BRANCH  33  34
ATOM     34  N   UNL     1      -4.471   2.869 -10.312  1.00  0.00    -0.352 N 
ATOM     35  C   UNL     1      -5.371   3.891 -10.491  1.00  0.00     0.251 C 
ATOM     36  H   UNL     1      -4.530   2.413  -9.442  1.00  0.00     0.163 HD
ATOM     37  O   UNL     1      -6.013   4.294  -9.524  1.00  0.00    -0.269 OA
BRANCH  35  38
ATOM     38  C   UNL     1      -5.573   4.517 -11.819  1.00  0.00     0.039 A 
ATOM     39  C   UNL     1      -5.754   5.903 -11.886  1.00  0.00     0.014 A 
ATOM     40  C   UNL     1      -5.649   3.752 -12.986  1.00  0.00     0.014 A 
ATOM     41  C   UNL     1      -5.958   6.525 -13.122  1.00  0.00     0.010 A 
ATOM     42  C   UNL     1      -5.794   4.380 -14.225  1.00  0.00     0.010 A 
ATOM     43  C   UNL     1      -5.955   5.772 -14.306  1.00  0.00    -0.014 A 
BRANCH  43  44
ATOM     44  C   UNL     1      -6.098   6.422 -15.636  1.00  0.00     0.031 A 
ATOM     45  C   UNL     1      -7.295   6.137 -16.503  1.00  0.00     0.074 A 
ATOM     46  C   UNL     1      -5.105   7.205 -16.102  1.00  0.00     0.049 A 
ATOM     47  N   UNL     1      -7.558   6.565 -17.712  1.00  0.00    -0.248 NA
ATOM     48  C   UNL     1      -8.320   5.236 -15.951  1.00  0.00     0.031 C 
ATOM     49  C   UNL     1      -3.859   7.500 -15.391  1.00  0.00     0.029 A 
ATOM     50  N   UNL     1      -4.971   7.870 -17.295  1.00  0.00    -0.354 N 
ATOM     51  C   UNL     1      -8.754   5.959 -18.080  1.00  0.00     0.074 A 
ATOM     52  C   UNL     1      -9.154   5.114 -16.975  1.00  0.00     0.031 C 
ATOM     53  C   UNL     1      -3.086   8.281 -16.162  1.00  0.00     0.029 A 
ATOM     54  C   UNL     1      -3.768   8.524 -17.430  1.00  0.00     0.049 A 
ATOM     55  H   UNL     1      -5.669   7.879 -17.989  1.00  0.00     0.167 HD
ATOM     56  C   UNL     1      -9.470   6.114 -19.220  1.00  0.00     0.034 A 
ATOM     57  C   UNL     1      -3.265   9.233 -18.460  1.00  0.00     0.034 A 
ATOM     58  C   UNL     1      -9.098   6.994 -20.295  1.00  0.00     0.049 A 
ATOM     59  C   UNL     1      -4.100   9.424 -19.697  1.00  0.00     0.074 A 
ATOM     60  C   UNL     1      -9.806   7.294 -21.446  1.00  0.00     0.029 A 
ATOM     61  N   UNL     1      -7.913   7.711 -20.358  1.00  0.00    -0.354 N 
ATOM     62  N   UNL     1      -5.306   8.980 -19.954  1.00  0.00    -0.248 NA
ATOM     63  C   UNL     1      -3.520  10.242 -20.772  1.00  0.00     0.031 C 
ATOM     64  C   UNL     1      -9.043   8.182 -22.211  1.00  0.00     0.029 A 
ATOM     65  C   UNL     1      -7.865   8.445 -21.531  1.00  0.00     0.049 A 
ATOM     66  H   UNL     1      -7.210   7.700 -19.670  1.00  0.00     0.167 HD
ATOM     67  C   UNL     1      -5.642   9.487 -21.204  1.00  0.00     0.074 A 
ATOM     68  C   UNL     1      -4.521  10.293 -21.642  1.00  0.00     0.031 C 
ATOM     69  C   UNL     1      -6.768   9.287 -21.933  1.00  0.00     0.034 A 
BRANCH  56  70
ATOM     70  C   UNL     1     -10.770   5.361 -19.338  1.00  0.00     0.023 A 
ATOM     71  C   UNL     1     -11.881   5.779 -18.579  1.00  0.00     0.012 A 
ATOM     72  C   UNL     1     -10.913   4.288 -20.240  1.00  0.00     0.148 A 
ATOM     73  C   UNL     1     -13.107   5.124 -18.691  1.00  0.00     0.002 A 
ATOM     74  C   UNL     1     -12.149   3.664 -20.376  1.00  0.00     0.091 A 
ATOM     75  F   UNL     1      -9.841   3.890 -20.939  1.00  0.00    -0.205 F 
ATOM     76  C   UNL     1     -13.243   4.074 -19.595  1.00  0.00     0.022 A 
BRANCH  74  77
ATOM     77  S   UNL     1     -12.446   2.352 -21.566  1.00  0.00     0.127 S 
ATOM     78  O   UNL     1     -12.528   1.179 -20.697  1.00  0.00    -0.237 OA
ATOM     79  O   UNL     1     -13.720   2.757 -22.163  1.00  0.00    -0.237 OA
ATOM     80  O   UNL     1     -11.314   2.378 -22.481  1.00  0.00    -0.744 OA
ENDBRANCH  74  77
ENDBRANCH  56  70
BRANCH  57  81
ATOM     81  C   UNL     1      -1.926   9.877 -18.334  1.00  0.00     0.023 A 
ATOM     82  C   UNL     1      -1.846  11.278 -18.215  1.00  0.00     0.012 A 
ATOM     83  C   UNL     1      -0.743   9.115 -18.292  1.00  0.00     0.148 A 
ATOM     84  C   UNL     1      -0.610  11.911 -18.084  1.00  0.00     0.002 A 
ATOM     85  C   UNL     1       0.481   9.748 -18.108  1.00  0.00     0.091 A 
ATOM     86  F   UNL     1      -0.837   7.784 -18.424  1.00  0.00    -0.205 F 
ATOM     87  C   UNL     1       0.552  11.147 -18.019  1.00  0.00     0.022 A 
BRANCH  85  88
ATOM     88  S   UNL     1       2.009   8.831 -17.875  1.00  0.00     0.127 S 
ATOM     89  O   UNL     1       2.675   9.027 -19.160  1.00  0.00    -0.237 OA
ATOM     90  O   UNL     1       2.622   9.539 -16.750  1.00  0.00    -0.237 OA
ATOM     91  O   UNL     1       1.601   7.467 -17.569  1.00  0.00    -0.744 OA
ENDBRANCH  85  88
ENDBRANCH  57  81
BRANCH  69  92
ATOM     92  C   UNL     1      -6.859   9.962 -23.276  1.00  0.00     0.023 A 
ATOM     93  C   UNL     1      -6.099   9.468 -24.354  1.00  0.00     0.012 A 
ATOM     94  C   UNL     1      -7.751  11.031 -23.490  1.00  0.00     0.148 A 
ATOM     95  C   UNL     1      -6.204  10.045 -25.619  1.00  0.00     0.002 A 
ATOM     96  C   UNL     1      -7.883  11.574 -24.764  1.00  0.00     0.091 A 
ATOM     97  F   UNL     1      -8.450  11.501 -22.447  1.00  0.00    -0.205 F 
ATOM     98  C   UNL     1      -7.103  11.089 -25.826  1.00  0.00     0.022 A 
BRANCH  96  99
ATOM     99  S   UNL     1      -9.080  12.858 -25.141  1.00  0.00     0.127 S 
ATOM    100  O   UNL     1      -8.225  14.037 -25.264  1.00  0.00    -0.237 OA
ATOM    101  O   UNL     1      -9.656  12.389 -26.403  1.00  0.00    -0.237 OA
ATOM    102  O   UNL     1     -10.014  12.874 -24.023  1.00  0.00    -0.744 OA
ENDBRANCH  96  99
ENDBRANCH  69  92
ENDBRANCH  43  44
ENDBRANCH  35  38
ENDBRANCH  33  34
ENDBRANCH   1  33
TORSDOF 17
