REMARK SMILES O=C(NCCCNC(=O)c1cc(F)ccc1NS(=O)(=O)c1ccc(Cl)s1)c1ccc(-c2c3nc(c(-c4cccc(S(=O)(=O)[O-])c4F)c4ccc([nH]4)c(-c4cccc(S(=O)(=O)[O-])c4F)c4nc(c(-c5cccc(S(=O)(=O)[O-])c5F)c5ccc2[nH]5)C=C4)C=C3)cc1
REMARK SMILES IDX 5 1 4 2 3 3 1 4 2 5 27 7 28 8 89 9 29 10 88 11 30 12 31 13
REMARK SMILES IDX 32 14 82 15 33 16 87 17 81 18 83 19 34 20 86 21 80 22 79 23
REMARK SMILES IDX 35 25 67 26 47 27 66 28 48 29 51 30 65 31 84 32 49 33 50 34
REMARK SMILES IDX 64 36 85 37 52 38 36 39 37 40 45 41 38 42 40 43 46 44 39 45
REMARK SMILES IDX 41 46 42 47 43 48 44 49 68 50 69 51 77 52 70 53 72 54 78 55
REMARK SMILES IDX 71 56 73 57 74 58 75 59 76 60 53 61 54 62 62 63 55 64 57 65
REMARK SMILES IDX 63 66 56 67 58 68 59 69 60 70 61 71 6 72 7 73 8 74 9 76
REMARK SMILES IDX 10 77 11 78 16 79 12 80 15 81 13 82 14 83 17 84 18 86 19 87
REMARK SMILES IDX 20 88 21 89 22 90 26 91 23 92 24 93 25 94
REMARK H PARENT 3 6 83 24 51 35 7 75 17 85
REMARK Flexibility Score: inf
ROOT
ATOM      1  C   UNL     1       4.933  -0.481   2.423  1.00  0.00     0.042 C 
ENDROOT
BRANCH   1   2
ATOM      2  C   UNL     1       4.538  -0.895   1.011  1.00  0.00     0.118 C 
BRANCH   2   3
ATOM      3  N   UNL     1       3.099  -0.869   0.804  1.00  0.00    -0.352 N 
ATOM      4  O   UNL     1       1.105  -0.065   0.166  1.00  0.00    -0.269 OA
ATOM      5  C   UNL     1       2.326  -0.039   0.029  1.00  0.00     0.251 C 
ATOM      6  H   UNL     1       2.598  -1.557   1.299  1.00  0.00     0.163 HD
BRANCH   5   7
ATOM      7  C   UNL     1       2.947   0.891  -0.942  1.00  0.00     0.039 A 
ATOM      8  C   UNL     1       4.013   0.492  -1.753  1.00  0.00     0.014 A 
ATOM      9  C   UNL     1       2.416   2.177  -1.078  1.00  0.00     0.014 A 
ATOM     10  C   UNL     1       4.631   1.411  -2.598  1.00  0.00     0.010 A 
ATOM     11  C   UNL     1       2.987   3.075  -1.985  1.00  0.00     0.010 A 
ATOM     12  C   UNL     1       4.115   2.708  -2.735  1.00  0.00    -0.014 A 
BRANCH  12  13
ATOM     13  C   UNL     1       4.709   3.656  -3.714  1.00  0.00     0.031 A 
ATOM     14  C   UNL     1       5.338   4.944  -3.256  1.00  0.00     0.074 A 
ATOM     15  C   UNL     1       4.642   3.367  -5.029  1.00  0.00     0.049 A 
ATOM     16  N   UNL     1       5.804   5.933  -3.975  1.00  0.00    -0.248 NA
ATOM     17  C   UNL     1       5.463   5.152  -1.803  1.00  0.00     0.031 C 
ATOM     18  C   UNL     1       4.050   2.153  -5.598  1.00  0.00     0.029 A 
ATOM     19  N   UNL     1       5.054   4.078  -6.128  1.00  0.00    -0.354 N 
ATOM     20  C   UNL     1       6.245   6.892  -3.071  1.00  0.00     0.074 A 
ATOM     21  C   UNL     1       5.988   6.370  -1.746  1.00  0.00     0.031 C 
ATOM     22  C   UNL     1       4.138   2.203  -6.935  1.00  0.00     0.029 A 
ATOM     23  C   UNL     1       4.734   3.476  -7.323  1.00  0.00     0.049 A 
ATOM     24  H   UNL     1       5.532   4.936  -6.067  1.00  0.00     0.167 HD
ATOM     25  C   UNL     1       6.823   8.090  -3.325  1.00  0.00     0.034 A 
ATOM     26  C   UNL     1       4.870   3.912  -8.590  1.00  0.00     0.034 A 
ATOM     27  C   UNL     1       7.101   8.593  -4.646  1.00  0.00     0.049 A 
ATOM     28  C   UNL     1       5.488   5.261  -8.833  1.00  0.00     0.074 A 
ATOM     29  C   UNL     1       7.707   9.787  -4.998  1.00  0.00     0.029 A 
ATOM     30  N   UNL     1       6.796   7.938  -5.828  1.00  0.00    -0.354 N 
ATOM     31  N   UNL     1       5.973   6.117  -7.966  1.00  0.00    -0.248 NA
ATOM     32  C   UNL     1       5.602   5.694 -10.233  1.00  0.00     0.031 C 
ATOM     33  C   UNL     1       7.750   9.863  -6.392  1.00  0.00     0.029 A 
ATOM     34  C   UNL     1       7.200   8.703  -6.910  1.00  0.00     0.049 A 
ATOM     35  H   UNL     1       6.358   7.059  -5.890  1.00  0.00     0.167 HD
ATOM     36  C   UNL     1       6.478   7.172  -8.716  1.00  0.00     0.074 A 
ATOM     37  C   UNL     1       6.271   6.832 -10.108  1.00  0.00     0.031 C 
ATOM     38  C   UNL     1       7.041   8.330  -8.291  1.00  0.00     0.034 A 
BRANCH  25  39
ATOM     39  C   UNL     1       7.253   8.944  -2.159  1.00  0.00     0.023 A 
ATOM     40  C   UNL     1       8.420   8.602  -1.449  1.00  0.00     0.012 A 
ATOM     41  C   UNL     1       6.592  10.154  -1.867  1.00  0.00     0.148 A 
ATOM     42  C   UNL     1       8.923   9.450  -0.462  1.00  0.00     0.002 A 
ATOM     43  C   UNL     1       7.123  11.014  -0.912  1.00  0.00     0.091 A 
ATOM     44  F   UNL     1       5.477  10.453  -2.548  1.00  0.00    -0.205 F 
ATOM     45  C   UNL     1       8.284  10.660  -0.205  1.00  0.00     0.022 A 
BRANCH  43  46
ATOM     46  S   UNL     1       6.428  12.633  -0.561  1.00  0.00     0.127 S 
ATOM     47  O   UNL     1       6.048  12.492   0.845  1.00  0.00    -0.237 OA
ATOM     48  O   UNL     1       7.572  13.513  -0.798  1.00  0.00    -0.237 OA
ATOM     49  O   UNL     1       5.316  12.806  -1.484  1.00  0.00    -0.744 OA
ENDBRANCH  43  46
ENDBRANCH  25  39
BRANCH  26  50
ATOM     50  C   UNL     1       4.440   3.054  -9.731  1.00  0.00     0.023 A 
ATOM     51  C   UNL     1       5.411   2.545 -10.615  1.00  0.00     0.012 A 
ATOM     52  C   UNL     1       3.084   2.734  -9.944  1.00  0.00     0.148 A 
ATOM     53  C   UNL     1       5.038   1.767 -11.711  1.00  0.00     0.002 A 
ATOM     54  C   UNL     1       2.726   1.906 -11.000  1.00  0.00     0.091 A 
ATOM     55  F   UNL     1       2.171   3.241  -9.103  1.00  0.00    -0.205 F 
ATOM     56  C   UNL     1       3.699   1.439 -11.898  1.00  0.00     0.022 A 
BRANCH  54  57
ATOM     57  S   UNL     1       1.045   1.316 -11.232  1.00  0.00     0.127 S 
ATOM     58  O   UNL     1       0.620   2.079 -12.403  1.00  0.00    -0.237 OA
ATOM     59  O   UNL     1       1.256  -0.113 -11.469  1.00  0.00    -0.237 OA
ATOM     60  O   UNL     1       0.350   1.620  -9.989  1.00  0.00    -0.744 OA
ENDBRANCH  54  57
ENDBRANCH  26  50
BRANCH  38  61
ATOM     61  C   UNL     1       7.509   9.304  -9.341  1.00  0.00     0.023 A 
ATOM     62  C   UNL     1       6.565  10.005 -10.118  1.00  0.00     0.012 A 
ATOM     63  C   UNL     1       8.882   9.573  -9.516  1.00  0.00     0.148 A 
ATOM     64  C   UNL     1       6.979  10.923 -11.082  1.00  0.00     0.002 A 
ATOM     65  C   UNL     1       9.285  10.530 -10.439  1.00  0.00     0.091 A 
ATOM     66  F   UNL     1       9.768   8.885  -8.782  1.00  0.00    -0.205 F 
ATOM     67  C   UNL     1       8.336  11.195 -11.234  1.00  0.00     0.022 A 
BRANCH  65  68
ATOM     68  S   UNL     1      11.003  11.021 -10.627  1.00  0.00     0.127 S 
ATOM     69  O   UNL     1      11.357  10.386 -11.895  1.00  0.00    -0.237 OA
ATOM     70  O   UNL     1      10.905  12.480 -10.682  1.00  0.00    -0.237 OA
ATOM     71  O   UNL     1      11.695  10.508  -9.453  1.00  0.00    -0.744 OA
ENDBRANCH  65  68
ENDBRANCH  38  61
ENDBRANCH  12  13
ENDBRANCH   5   7
ENDBRANCH   2   3
ENDBRANCH   1   2
BRANCH   1  72
ATOM     72  C   UNL     1       4.427  -1.418   3.514  1.00  0.00     0.118 C 
BRANCH  72  73
ATOM     73  N   UNL     1       5.016  -2.751   3.419  1.00  0.00    -0.352 N 
ATOM     74  C   UNL     1       5.867  -3.387   4.290  1.00  0.00     0.253 C 
ATOM     75  H   UNL     1       4.767  -3.267   2.619  1.00  0.00     0.163 HD
ATOM     76  O   UNL     1       6.497  -4.380   3.941  1.00  0.00    -0.269 OA
BRANCH  74  77
ATOM     77  C   UNL     1       6.081  -2.831   5.637  1.00  0.00     0.066 A 
ATOM     78  C   UNL     1       4.956  -2.532   6.423  1.00  0.00     0.055 A 
ATOM     79  C   UNL     1       7.379  -2.537   6.089  1.00  0.00     0.062 A 
ATOM     80  C   UNL     1       5.120  -1.822   7.601  1.00  0.00     0.124 A 
ATOM     81  C   UNL     1       7.494  -1.736   7.229  1.00  0.00     0.030 A 
ATOM     82  F   UNL     1       4.048  -1.481   8.324  1.00  0.00    -0.207 F 
ATOM     83  C   UNL     1       6.378  -1.398   7.998  1.00  0.00     0.041 A 
BRANCH  79  84
ATOM     84  N   UNL     1       8.559  -2.871   5.322  1.00  0.00    -0.278 N 
ATOM     85  H   UNL     1       8.662  -2.545   4.399  1.00  0.00     0.180 HD
BRANCH  84  86
ATOM     86  S   UNL     1       9.775  -3.841   6.037  1.00  0.00     0.271 S 
ATOM     87  O   UNL     1       9.219  -5.158   6.280  1.00  0.00    -0.200 OA
ATOM     88  O   UNL     1      10.961  -3.673   5.230  1.00  0.00    -0.200 OA
BRANCH  86  89
ATOM     89  C   UNL     1      10.243  -3.180   7.626  1.00  0.00     0.141 A 
ATOM     90  C   UNL     1      11.044  -2.104   7.979  1.00  0.00     0.036 A 
ATOM     91  S   UNL     1       9.553  -3.922   9.014  1.00  0.00    -0.110 S 
ATOM     92  C   UNL     1      10.966  -1.810   9.375  1.00  0.00     0.034 A 
ATOM     93  C   UNL     1      10.162  -2.711  10.023  1.00  0.00     0.094 A 
ATOM     94  Cl  UNL     1       9.730  -2.695  11.684  1.00  0.00    -0.072 Cl
ENDBRANCH  86  89
ENDBRANCH  84  86
ENDBRANCH  79  84
ENDBRANCH  74  77
ENDBRANCH  72  73
ENDBRANCH   1  72
TORSDOF 16
