REMARK SMILES CC(=O)Nc1cccc(-c2cc(F)ccc2C(=O)NCCCNC(=O)c2ccc(-c3c4nc(c(-c5cccc(S(=O)(=O)[O-])c5F)c5ccc([nH]5)c(-c5cccc(S(=O)(=O)[O-])c5F)c5nc(c(-c6cccc(S(=O)(=O)[O-])c6F)c6ccc3[nH]6)C=C5)C=C4)cc2)c1
REMARK SMILES IDX 21 1 20 2 19 3 17 4 18 5 16 7 10 8 11 9 12 10 15 11 13 12
REMARK SMILES IDX 14 13 9 14 5 15 6 16 89 17 7 18 8 19 4 20 1 21 2 22 3 23
REMARK SMILES IDX 22 25 23 26 24 27 25 29 26 30 27 31 88 32 28 33 87 34 29 35
REMARK SMILES IDX 30 36 31 37 81 38 32 39 86 40 80 41 82 42 33 43 85 44 79 45
REMARK SMILES IDX 78 46 34 48 66 49 46 50 65 51 47 52 50 53 64 54 83 55 48 56
REMARK SMILES IDX 49 57 63 59 84 60 51 61 35 62 36 63 44 64 37 65 39 66 45 67
REMARK SMILES IDX 38 68 40 69 41 70 42 71 43 72 67 73 68 74 76 75 69 76 71 77
REMARK SMILES IDX 77 78 70 79 72 80 73 81 74 82 75 83 52 84 53 85 61 86 54 87
REMARK SMILES IDX 56 88 62 89 55 90 57 91 58 92 59 93 60 94
REMARK H PARENT 19 6 4 24 23 28 82 47 50 58
REMARK Flexibility Score: inf
ROOT
ATOM      1  C   UNL     1       3.555  -3.555   3.794  1.00  0.00     0.042 C 
ENDROOT
BRANCH   1   2
ATOM      2  C   UNL     1       3.867  -2.762   2.551  1.00  0.00     0.118 C 
BRANCH   2   3
ATOM      3  N   UNL     1       4.911  -1.787   2.571  1.00  0.00    -0.352 N 
ATOM      4  C   UNL     1       5.615  -1.295   1.494  1.00  0.00     0.251 C 
ATOM      5  O   UNL     1       6.261  -0.261   1.702  1.00  0.00    -0.269 OA
ATOM      6  H   UNL     1       5.155  -1.426   3.454  1.00  0.00     0.163 HD
BRANCH   4   7
ATOM      7  C   UNL     1       5.760  -1.956   0.136  1.00  0.00     0.047 A 
ATOM      8  C   UNL     1       4.819  -2.631  -0.700  1.00  0.00    -0.003 A 
ATOM      9  C   UNL     1       5.272  -3.111  -1.957  1.00  0.00     0.048 A 
ATOM     10  C   UNL     1       6.582  -2.942  -2.385  1.00  0.00     0.123 A 
ATOM     11  C   UNL     1       7.090  -1.807  -0.348  1.00  0.00     0.017 A 
ATOM     12  F   UNL     1       6.955  -3.415  -3.581  1.00  0.00    -0.207 F 
ATOM     13  C   UNL     1       7.500  -2.292  -1.589  1.00  0.00     0.040 A 
BRANCH   8  14
ATOM     14  C   UNL     1       3.402  -2.939  -0.398  1.00  0.00    -0.015 A 
ATOM     15  C   UNL     1       1.201  -2.270   0.427  1.00  0.00     0.041 A 
ATOM     16  C   UNL     1       0.863  -3.618   0.604  1.00  0.00     0.026 A 
ATOM     17  C   UNL     1       2.456  -1.939  -0.118  1.00  0.00     0.034 A 
ATOM     18  C   UNL     1       1.743  -4.627   0.221  1.00  0.00     0.003 A 
ATOM     19  C   UNL     1       3.000  -4.290  -0.280  1.00  0.00     0.009 A 
BRANCH  15  20
ATOM     20  N   UNL     1       0.340  -1.323   1.016  1.00  0.00    -0.326 N 
ATOM     21  C   UNL     1       0.823   0.691  -0.352  1.00  0.00     0.114 C 
ATOM     22  C   UNL     1       0.257   0.031   0.874  1.00  0.00     0.221 C 
ATOM     23  O   UNL     1      -0.320   0.707   1.727  1.00  0.00    -0.275 OA
ATOM     24  H   UNL     1      -0.318  -1.706   1.640  1.00  0.00     0.169 HD
ENDBRANCH  15  20
ENDBRANCH   8  14
ENDBRANCH   4   7
ENDBRANCH   2   3
ENDBRANCH   1   2
BRANCH   1  25
ATOM     25  C   UNL     1       2.701  -2.840   4.829  1.00  0.00     0.118 C 
BRANCH  25  26
ATOM     26  N   UNL     1       1.427  -2.320   4.321  1.00  0.00    -0.352 N 
ATOM     27  C   UNL     1       0.128  -2.775   4.346  1.00  0.00     0.251 C 
ATOM     28  H   UNL     1       1.522  -1.455   3.861  1.00  0.00     0.163 HD
ATOM     29  O   UNL     1      -0.687  -2.227   3.600  1.00  0.00    -0.269 OA
BRANCH  27  30
ATOM     30  C   UNL     1      -0.311  -3.921   5.180  1.00  0.00     0.039 A 
ATOM     31  C   UNL     1      -1.474  -4.621   4.828  1.00  0.00     0.014 A 
ATOM     32  C   UNL     1       0.381  -4.317   6.317  1.00  0.00     0.014 A 
ATOM     33  C   UNL     1      -1.865  -5.752   5.557  1.00  0.00     0.010 A 
ATOM     34  C   UNL     1       0.104  -5.535   6.920  1.00  0.00     0.010 A 
ATOM     35  C   UNL     1      -1.044  -6.253   6.577  1.00  0.00    -0.014 A 
BRANCH  35  36
ATOM     36  C   UNL     1      -1.369  -7.492   7.332  1.00  0.00     0.031 A 
ATOM     37  C   UNL     1      -1.440  -7.462   8.841  1.00  0.00     0.074 A 
ATOM     38  C   UNL     1      -1.489  -8.662   6.674  1.00  0.00     0.049 A 
ATOM     39  N   UNL     1      -1.595  -8.452   9.681  1.00  0.00    -0.248 NA
ATOM     40  C   UNL     1      -1.259  -6.154   9.497  1.00  0.00     0.031 C 
ATOM     41  C   UNL     1      -1.332  -8.844   5.228  1.00  0.00     0.029 A 
ATOM     42  N   UNL     1      -1.743  -9.928   7.139  1.00  0.00    -0.354 N 
ATOM     43  C   UNL     1      -1.477  -7.896  10.950  1.00  0.00     0.074 A 
ATOM     44  C   UNL     1      -1.169  -6.497  10.771  1.00  0.00     0.031 C 
ATOM     45  C   UNL     1      -1.514 -10.138   4.923  1.00  0.00     0.029 A 
ATOM     46  C   UNL     1      -1.760 -10.885   6.151  1.00  0.00     0.049 A 
ATOM     47  H   UNL     1      -1.899 -10.131   8.089  1.00  0.00     0.167 HD
ATOM     48  C   UNL     1      -1.656  -8.480  12.159  1.00  0.00     0.034 A 
ATOM     49  C   UNL     1      -1.949 -12.216   6.227  1.00  0.00     0.034 A 
ATOM     50  C   UNL     1      -2.024  -9.858  12.328  1.00  0.00     0.049 A 
ATOM     51  C   UNL     1      -2.227 -12.830   7.571  1.00  0.00     0.074 A 
ATOM     52  C   UNL     1      -2.319 -10.536  13.497  1.00  0.00     0.029 A 
ATOM     53  N   UNL     1      -2.152 -10.771  11.292  1.00  0.00    -0.354 N 
ATOM     54  N   UNL     1      -2.253 -12.258   8.751  1.00  0.00    -0.248 NA
ATOM     55  C   UNL     1      -2.550 -14.263   7.589  1.00  0.00     0.031 C 
ATOM     56  C   UNL     1      -2.603 -11.866  13.169  1.00  0.00     0.029 A 
ATOM     57  C   UNL     1      -2.524 -12.006  11.792  1.00  0.00     0.049 A 
ATOM     58  H   UNL     1      -2.001 -10.570  10.341  1.00  0.00     0.167 HD
ATOM     59  C   UNL     1      -2.630 -13.250   9.647  1.00  0.00     0.074 A 
ATOM     60  C   UNL     1      -2.847 -14.452   8.867  1.00  0.00     0.031 C 
ATOM     61  C   UNL     1      -2.774 -13.179  10.994  1.00  0.00     0.034 A 
BRANCH  48  62
ATOM     62  C   UNL     1      -1.514  -7.608  13.383  1.00  0.00     0.023 A 
ATOM     63  C   UNL     1      -2.452  -6.581  13.624  1.00  0.00     0.012 A 
ATOM     64  C   UNL     1      -0.471  -7.815  14.308  1.00  0.00     0.148 A 
ATOM     65  C   UNL     1      -2.326  -5.743  14.731  1.00  0.00     0.002 A 
ATOM     66  C   UNL     1      -0.384  -7.010  15.439  1.00  0.00     0.091 A 
ATOM     67  F   UNL     1       0.425  -8.780  14.057  1.00  0.00    -0.205 F 
ATOM     68  C   UNL     1      -1.299  -5.964  15.643  1.00  0.00     0.022 A 
BRANCH  66  69
ATOM     69  S   UNL     1       0.849  -7.264  16.720  1.00  0.00     0.127 S 
ATOM     70  O   UNL     1       1.701  -6.091  16.547  1.00  0.00    -0.237 OA
ATOM     71  O   UNL     1       0.035  -7.256  17.935  1.00  0.00    -0.237 OA
ATOM     72  O   UNL     1       1.480  -8.545  16.421  1.00  0.00    -0.744 OA
ENDBRANCH  66  69
ENDBRANCH  48  62
BRANCH  49  73
ATOM     73  C   UNL     1      -1.955 -13.037   4.984  1.00  0.00     0.023 A 
ATOM     74  C   UNL     1      -3.167 -13.582   4.516  1.00  0.00     0.012 A 
ATOM     75  C   UNL     1      -0.778 -13.243   4.239  1.00  0.00     0.148 A 
ATOM     76  C   UNL     1      -3.200 -14.348   3.350  1.00  0.00     0.002 A 
ATOM     77  C   UNL     1      -0.828 -13.956   3.047  1.00  0.00     0.091 A 
ATOM     78  F   UNL     1       0.365 -12.718   4.703  1.00  0.00    -0.205 F 
ATOM     79  C   UNL     1      -2.034 -14.526   2.611  1.00  0.00     0.022 A 
BRANCH  77  80
ATOM     80  S   UNL     1       0.590 -14.117   1.958  1.00  0.00     0.127 S 
ATOM     81  O   UNL     1       0.892 -15.540   2.067  1.00  0.00    -0.237 OA
ATOM     82  O   UNL     1       0.032 -13.698   0.673  1.00  0.00    -0.237 OA
ATOM     83  O   UNL     1       1.603 -13.213   2.494  1.00  0.00    -0.744 OA
ENDBRANCH  77  80
ENDBRANCH  49  73
BRANCH  61  84
ATOM     84  C   UNL     1      -3.234 -14.425  11.705  1.00  0.00     0.023 A 
ATOM     85  C   UNL     1      -2.375 -15.536  11.814  1.00  0.00     0.012 A 
ATOM     86  C   UNL     1      -4.508 -14.474  12.303  1.00  0.00     0.148 A 
ATOM     87  C   UNL     1      -2.797 -16.697  12.462  1.00  0.00     0.002 A 
ATOM     88  C   UNL     1      -4.901 -15.612  12.995  1.00  0.00     0.091 A 
ATOM     89  F   UNL     1      -5.319 -13.414  12.173  1.00  0.00    -0.205 F 
ATOM     90  C   UNL     1      -4.055 -16.731  13.060  1.00  0.00     0.022 A 
BRANCH  88  91
ATOM     91  S   UNL     1      -6.459 -15.702  13.882  1.00  0.00     0.127 S 
ATOM     92  O   UNL     1      -7.256 -16.552  13.000  1.00  0.00    -0.237 OA
ATOM     93  O   UNL     1      -6.064 -16.331  15.143  1.00  0.00    -0.237 OA
ATOM     94  O   UNL     1      -6.922 -14.327  14.016  1.00  0.00    -0.744 OA
ENDBRANCH  88  91
ENDBRANCH  61  84
ENDBRANCH  35  36
ENDBRANCH  27  30
ENDBRANCH  25  26
ENDBRANCH   1  25
TORSDOF 15
