REMARK SMILES C[C@H](O)[C@H](NC(=O)N1CC[N@H+]2CCC[C@@H]2C1)C(=O)NCCCNC(=O)c1ccc(-c2c3nc(c(-c4cccc(S(=O)(=O)[O-])c4F)c4ccc([nH]4)c(-c4cccc(S(=O)(=O)[O-])c4F)c4nc(c(-c5cccc(S(=O)(=O)[O-])c5F)c5ccc2[nH]5)C=C4)C=C3)cc1
REMARK SMILES IDX 21 1 20 2 19 3 17 4 18 5 4 7 2 8 1 9 3 10 5 12 6 13 7 15
REMARK SMILES IDX 8 16 9 17 16 18 10 19 15 20 11 21 14 22 12 23 13 25 22 26
REMARK SMILES IDX 23 27 24 28 25 30 26 31 27 32 88 33 28 34 87 35 29 36 30 37
REMARK SMILES IDX 31 38 81 39 32 40 86 41 80 42 82 43 33 44 85 45 79 46 78 47
REMARK SMILES IDX 34 49 66 50 46 51 65 52 47 53 50 54 64 55 83 56 48 57 49 58
REMARK SMILES IDX 63 60 84 61 51 62 35 63 36 64 44 65 37 66 39 67 45 68 38 69
REMARK SMILES IDX 40 70 41 71 42 72 43 73 67 74 68 75 76 76 69 77 71 78 77 79
REMARK SMILES IDX 70 80 72 81 73 82 74 83 75 84 52 85 53 86 61 87 54 88 56 89
REMARK SMILES IDX 62 90 55 91 57 92 58 93 59 94 60 95
REMARK H PARENT 19 6 3 11 5 14 11 24 23 29 82 48 50 59
REMARK Flexibility Score: inf
ROOT
ATOM      1  C   UNL     1       0.922   3.940   2.643  1.00  0.00     0.042 C 
ENDROOT
BRANCH   1   2
ATOM      2  C   UNL     1      -0.393   3.236   2.356  1.00  0.00     0.117 C 
BRANCH   2   3
ATOM      3  N   UNL     1      -0.998   3.652   1.094  1.00  0.00    -0.354 N 
ATOM      4  C   UNL     1      -1.558   2.854   0.126  1.00  0.00     0.245 C 
ATOM      5  O   UNL     1      -2.265   3.378  -0.739  1.00  0.00    -0.273 OA
ATOM      6  H   UNL     1      -1.006   4.620   0.916  1.00  0.00     0.163 HD
BRANCH   4   7
ATOM      7  C   UNL     1      -1.315   1.331   0.146  1.00  0.00     0.201 C 
BRANCH   7   8
ATOM      8  C   UNL     1      -2.193   0.631   1.230  1.00  0.00     0.143 C 
ATOM      9  C   UNL     1      -3.400  -0.055   0.596  1.00  0.00     0.041 C 
BRANCH   8  10
ATOM     10  O   UNL     1      -2.704   1.510   2.238  1.00  0.00    -0.391 OA
ATOM     11  H   UNL     1      -3.310   2.150   1.832  1.00  0.00     0.211 HD
ENDBRANCH   8  10
ENDBRANCH   7   8
BRANCH   7  12
ATOM     12  N   UNL     1       0.154   1.175   0.198  1.00  0.00    -0.324 N 
ATOM     13  C   UNL     1       0.968   0.280   0.784  1.00  0.00     0.318 C 
ATOM     14  H   UNL     1       0.637   1.872  -0.301  1.00  0.00     0.166 HD
ATOM     15  O   UNL     1       2.108   0.645   1.060  1.00  0.00    -0.249 OA
BRANCH  13  16
ATOM     16  N   UNL     1       0.478  -0.942   1.133  1.00  0.00    -0.313 N 
ATOM     17  C   UNL     1      -0.138  -1.835   0.141  1.00  0.00     0.183 C 
ATOM     18  C   UNL     1       0.969  -1.503   2.395  1.00  0.00     0.186 C 
ATOM     19  C   UNL     1      -0.807  -3.128   0.686  1.00  0.00     0.284 C 
ATOM     20  C   UNL     1       0.747  -3.002   2.519  1.00  0.00     0.204 C 
ATOM     21  N   UNL     1      -0.621  -3.349   2.118  1.00  0.00    -0.330 N 
ATOM     22  C   UNL     1       0.772  -3.529   3.941  1.00  0.00     0.073 C 
ATOM     23  C   UNL     1      -0.868  -4.707   2.593  1.00  0.00     0.262 C 
ATOM     24  H   UNL     1      -1.326  -2.747   2.542  1.00  0.00     0.348 HD
ATOM     25  C   UNL     1       0.064  -4.871   3.798  1.00  0.00     0.068 C 
ENDBRANCH  13  16
ENDBRANCH   7  12
ENDBRANCH   4   7
ENDBRANCH   2   3
ENDBRANCH   1   2
BRANCH   1  26
ATOM     26  C   UNL     1       0.748   5.411   2.988  1.00  0.00     0.118 C 
BRANCH  26  27
ATOM     27  N   UNL     1       0.004   5.615   4.227  1.00  0.00    -0.352 N 
ATOM     28  C   UNL     1       0.355   6.315   5.357  1.00  0.00     0.251 C 
ATOM     29  H   UNL     1      -0.882   5.187   4.259  1.00  0.00     0.163 HD
ATOM     30  O   UNL     1      -0.328   6.231   6.368  1.00  0.00    -0.269 OA
BRANCH  28  31
ATOM     31  C   UNL     1       1.574   7.153   5.346  1.00  0.00     0.039 A 
ATOM     32  C   UNL     1       2.436   7.110   6.444  1.00  0.00     0.014 A 
ATOM     33  C   UNL     1       1.871   7.965   4.250  1.00  0.00     0.014 A 
ATOM     34  C   UNL     1       3.632   7.829   6.409  1.00  0.00     0.010 A 
ATOM     35  C   UNL     1       3.103   8.603   4.177  1.00  0.00     0.010 A 
ATOM     36  C   UNL     1       3.994   8.550   5.259  1.00  0.00    -0.014 A 
BRANCH  36  37
ATOM     37  C   UNL     1       5.300   9.250   5.161  1.00  0.00     0.031 A 
ATOM     38  C   UNL     1       5.345  10.741   4.959  1.00  0.00     0.074 A 
ATOM     39  C   UNL     1       6.441   8.532   5.160  1.00  0.00     0.049 A 
ATOM     40  N   UNL     1       6.383  11.517   4.787  1.00  0.00    -0.248 NA
ATOM     41  C   UNL     1       4.054  11.449   4.913  1.00  0.00     0.031 C 
ATOM     42  C   UNL     1       6.524   7.073   5.262  1.00  0.00     0.029 A 
ATOM     43  N   UNL     1       7.749   8.930   5.041  1.00  0.00    -0.354 N 
ATOM     44  C   UNL     1       5.872  12.792   4.573  1.00  0.00     0.074 A 
ATOM     45  C   UNL     1       4.431  12.680   4.600  1.00  0.00     0.031 C 
ATOM     46  C   UNL     1       7.812   6.700   5.209  1.00  0.00     0.029 A 
ATOM     47  C   UNL     1       8.645   7.886   5.034  1.00  0.00     0.049 A 
ATOM     48  H   UNL     1       8.020   9.873   4.968  1.00  0.00     0.167 HD
ATOM     49  C   UNL     1       6.541  13.956   4.400  1.00  0.00     0.034 A 
ATOM     50  C   UNL     1       9.985   7.883   4.892  1.00  0.00     0.034 A 
ATOM     51  C   UNL     1       7.974  14.069   4.418  1.00  0.00     0.049 A 
ATOM     52  C   UNL     1      10.705   9.195   4.742  1.00  0.00     0.074 A 
ATOM     53  C   UNL     1       8.747  15.214   4.348  1.00  0.00     0.029 A 
ATOM     54  N   UNL     1       8.851  12.999   4.501  1.00  0.00    -0.354 N 
ATOM     55  N   UNL     1      10.212  10.409   4.707  1.00  0.00    -0.248 NA
ATOM     56  C   UNL     1      12.171   9.141   4.647  1.00  0.00     0.031 C 
ATOM     57  C   UNL     1      10.093  14.834   4.358  1.00  0.00     0.029 A 
ATOM     58  C   UNL     1      10.158  13.455   4.471  1.00  0.00     0.049 A 
ATOM     59  H   UNL     1       8.584  12.054   4.572  1.00  0.00     0.167 HD
ATOM     60  C   UNL     1      11.305  11.263   4.625  1.00  0.00     0.074 A 
ATOM     61  C   UNL     1      12.488  10.428   4.636  1.00  0.00     0.031 C 
ATOM     62  C   UNL     1      11.327  12.616   4.535  1.00  0.00     0.034 A 
BRANCH  49  63
ATOM     63  C   UNL     1       5.728  15.213   4.224  1.00  0.00     0.023 A 
ATOM     64  C   UNL     1       5.005  15.735   5.317  1.00  0.00     0.012 A 
ATOM     65  C   UNL     1       5.726  15.909   3.000  1.00  0.00     0.148 A 
ATOM     66  C   UNL     1       4.262  16.907   5.184  1.00  0.00     0.002 A 
ATOM     67  C   UNL     1       5.022  17.103   2.889  1.00  0.00     0.091 A 
ATOM     68  F   UNL     1       6.402  15.388   1.966  1.00  0.00    -0.205 F 
ATOM     69  C   UNL     1       4.280  17.596   3.975  1.00  0.00     0.022 A 
BRANCH  67  70
ATOM     70  S   UNL     1       5.049  18.110   1.402  1.00  0.00     0.127 S 
ATOM     71  O   UNL     1       3.681  17.948   0.911  1.00  0.00    -0.237 OA
ATOM     72  O   UNL     1       5.350  19.439   1.937  1.00  0.00    -0.237 OA
ATOM     73  O   UNL     1       6.088  17.547   0.552  1.00  0.00    -0.744 OA
ENDBRANCH  67  70
ENDBRANCH  49  63
BRANCH  50  74
ATOM     74  C   UNL     1      10.738   6.598   4.947  1.00  0.00     0.023 A 
ATOM     75  C   UNL     1      11.562   6.326   6.057  1.00  0.00     0.012 A 
ATOM     76  C   UNL     1      10.626   5.638   3.923  1.00  0.00     0.148 A 
ATOM     77  C   UNL     1      12.290   5.138   6.129  1.00  0.00     0.002 A 
ATOM     78  C   UNL     1      11.311   4.432   4.028  1.00  0.00     0.091 A 
ATOM     79  F   UNL     1       9.844   5.918   2.872  1.00  0.00    -0.205 F 
ATOM     80  C   UNL     1      12.157   4.188   5.120  1.00  0.00     0.022 A 
BRANCH  78  81
ATOM     81  S   UNL     1      11.104   3.098   2.843  1.00  0.00     0.127 S 
ATOM     82  O   UNL     1      12.408   3.079   2.185  1.00  0.00    -0.237 OA
ATOM     83  O   UNL     1      10.839   1.956   3.719  1.00  0.00    -0.237 OA
ATOM     84  O   UNL     1       9.979   3.487   2.005  1.00  0.00    -0.744 OA
ENDBRANCH  78  81
ENDBRANCH  50  74
BRANCH  62  85
ATOM     85  C   UNL     1      12.673  13.292   4.484  1.00  0.00     0.023 A 
ATOM     86  C   UNL     1      13.466  13.195   3.324  1.00  0.00     0.012 A 
ATOM     87  C   UNL     1      13.115  14.087   5.560  1.00  0.00     0.148 A 
ATOM     88  C   UNL     1      14.695  13.850   3.250  1.00  0.00     0.002 A 
ATOM     89  C   UNL     1      14.316  14.778   5.458  1.00  0.00     0.091 A 
ATOM     90  F   UNL     1      12.354  14.153   6.662  1.00  0.00    -0.205 F 
ATOM     91  C   UNL     1      15.113  14.650   4.310  1.00  0.00     0.022 A 
BRANCH  89  92
ATOM     92  S   UNL     1      14.886  15.911   6.731  1.00  0.00     0.127 S 
ATOM     93  O   UNL     1      16.012  15.174   7.303  1.00  0.00    -0.237 OA
ATOM     94  O   UNL     1      15.263  17.090   5.950  1.00  0.00    -0.237 OA
ATOM     95  O   UNL     1      13.755  16.114   7.626  1.00  0.00    -0.744 OA
ENDBRANCH  89  92
ENDBRANCH  62  85
ENDBRANCH  36  37
ENDBRANCH  28  31
ENDBRANCH  26  27
ENDBRANCH   1  26
TORSDOF 17
