REMARK SMILES O=C(NCCCNC(=O)c1cc(/C=C/c2cc(O)cc(O)c2)ccc1O)c1ccc(-c2c3nc(c(-c4cccc(S(=O)(=O)[O-])c4F)c4ccc([nH]4)c(-c4cccc(S(=O)(=O)[O-])c4F)c4nc(c(-c5cccc(S(=O)(=O)[O-])c5F)c5ccc2[nH]5)C=C4)C=C3)cc1
REMARK SMILES IDX 5 1 4 2 3 3 1 4 2 5 27 7 28 8 89 9 29 10 88 11 30 12 31 13
REMARK SMILES IDX 32 14 82 15 33 16 87 17 81 18 83 19 34 20 86 21 80 22 79 23
REMARK SMILES IDX 35 25 67 26 47 27 66 28 48 29 51 30 65 31 84 32 49 33 50 34
REMARK SMILES IDX 64 36 85 37 52 38 36 39 37 40 45 41 38 42 40 43 46 44 39 45
REMARK SMILES IDX 41 46 42 47 43 48 44 49 68 50 69 51 77 52 70 53 72 54 78 55
REMARK SMILES IDX 71 56 73 57 74 58 75 59 76 60 53 61 54 62 62 63 55 64 57 65
REMARK SMILES IDX 63 66 56 67 58 68 59 69 60 70 61 71 6 72 7 73 8 74 9 76
REMARK SMILES IDX 10 77 11 78 25 79 12 80 24 81 23 82 26 83 13 85 14 86 15 87
REMARK SMILES IDX 16 88 22 89 17 90 20 91 19 92 18 93 21 95
REMARK H PARENT 3 6 83 24 51 35 7 75 26 84 18 94 21 96
REMARK Flexibility Score: inf
ROOT
ATOM      1  C   UNL     1       5.108   0.034   2.265  1.00  0.00     0.042 C 
ENDROOT
BRANCH   1   2
ATOM      2  C   UNL     1       4.669  -0.707   1.012  1.00  0.00     0.118 C 
BRANCH   2   3
ATOM      3  N   UNL     1       3.224  -0.714   0.837  1.00  0.00    -0.352 N 
ATOM      4  O   UNL     1       1.221  -0.051   0.062  1.00  0.00    -0.269 OA
ATOM      5  C   UNL     1       2.441  -0.074  -0.092  1.00  0.00     0.251 C 
ATOM      6  H   UNL     1       2.730  -1.264   1.487  1.00  0.00     0.163 HD
BRANCH   5   7
ATOM      7  C   UNL     1       3.059   0.607  -1.250  1.00  0.00     0.039 A 
ATOM      8  C   UNL     1       4.117   0.020  -1.948  1.00  0.00     0.014 A 
ATOM      9  C   UNL     1       2.556   1.845  -1.659  1.00  0.00     0.014 A 
ATOM     10  C   UNL     1       4.776   0.734  -2.942  1.00  0.00     0.010 A 
ATOM     11  C   UNL     1       3.156   2.518  -2.726  1.00  0.00     0.010 A 
ATOM     12  C   UNL     1       4.293   1.984  -3.354  1.00  0.00    -0.014 A 
BRANCH  12  13
ATOM     13  C   UNL     1       4.933   2.687  -4.493  1.00  0.00     0.031 A 
ATOM     14  C   UNL     1       5.558   4.041  -4.315  1.00  0.00     0.074 A 
ATOM     15  C   UNL     1       4.897   2.112  -5.711  1.00  0.00     0.049 A 
ATOM     16  N   UNL     1       6.090   4.826  -5.216  1.00  0.00    -0.248 NA
ATOM     17  C   UNL     1       5.579   4.593  -2.951  1.00  0.00     0.031 C 
ATOM     18  C   UNL     1       4.279   0.819  -6.010  1.00  0.00     0.029 A 
ATOM     19  N   UNL     1       5.358   2.551  -6.926  1.00  0.00    -0.354 N 
ATOM     20  C   UNL     1       6.462   5.983  -4.543  1.00  0.00     0.074 A 
ATOM     21  C   UNL     1       6.093   5.798  -3.155  1.00  0.00     0.031 C 
ATOM     22  C   UNL     1       4.387   0.573  -7.323  1.00  0.00     0.029 A 
ATOM     23  C   UNL     1       5.023   1.717  -7.966  1.00  0.00     0.049 A 
ATOM     24  H   UNL     1       5.876   3.380  -7.042  1.00  0.00     0.167 HD
ATOM     25  C   UNL     1       7.061   7.093  -5.037  1.00  0.00     0.034 A 
ATOM     26  C   UNL     1       5.166   1.869  -9.296  1.00  0.00     0.034 A 
ATOM     27  C   UNL     1       7.443   7.255  -6.415  1.00  0.00     0.049 A 
ATOM     28  C   UNL     1       5.839   3.102  -9.820  1.00  0.00     0.074 A 
ATOM     29  C   UNL     1       8.131   8.305  -6.999  1.00  0.00     0.029 A 
ATOM     30  N   UNL     1       7.150   6.356  -7.430  1.00  0.00    -0.354 N 
ATOM     31  N   UNL     1       6.309   4.127  -9.151  1.00  0.00    -0.248 NA
ATOM     32  C   UNL     1       6.031   3.191 -11.273  1.00  0.00     0.031 C 
ATOM     33  C   UNL     1       8.219   8.058  -8.373  1.00  0.00     0.029 A 
ATOM     34  C   UNL     1       7.623   6.835  -8.640  1.00  0.00     0.049 A 
ATOM     35  H   UNL     1       6.676   5.503  -7.308  1.00  0.00     0.167 HD
ATOM     36  C   UNL     1       6.879   4.970 -10.096  1.00  0.00     0.074 A 
ATOM     37  C   UNL     1       6.705   4.329 -11.385  1.00  0.00     0.031 C 
ATOM     38  C   UNL     1       7.485   6.167  -9.910  1.00  0.00     0.034 A 
BRANCH  25  39
ATOM     39  C   UNL     1       7.351   8.219  -4.076  1.00  0.00     0.023 A 
ATOM     40  C   UNL     1       8.355   8.069  -3.098  1.00  0.00     0.012 A 
ATOM     41  C   UNL     1       6.655   9.441  -4.167  1.00  0.00     0.148 A 
ATOM     42  C   UNL     1       8.630   9.099  -2.198  1.00  0.00     0.002 A 
ATOM     43  C   UNL     1       6.966  10.479  -3.296  1.00  0.00     0.091 A 
ATOM     44  F   UNL     1       5.689   9.562  -5.089  1.00  0.00    -0.205 F 
ATOM     45  C   UNL     1       7.942  10.305  -2.302  1.00  0.00     0.022 A 
BRANCH  43  46
ATOM     46  S   UNL     1       6.189  12.095  -3.407  1.00  0.00     0.127 S 
ATOM     47  O   UNL     1       5.250  12.048  -2.287  1.00  0.00    -0.237 OA
ATOM     48  O   UNL     1       7.322  12.999  -3.213  1.00  0.00    -0.237 OA
ATOM     49  O   UNL     1       5.589  12.156  -4.732  1.00  0.00    -0.744 OA
ENDBRANCH  43  46
ENDBRANCH  25  39
BRANCH  26  50
ATOM     50  C   UNL     1       4.663   0.800 -10.201  1.00  0.00     0.023 A 
ATOM     51  C   UNL     1       5.577  -0.044 -10.859  1.00  0.00     0.012 A 
ATOM     52  C   UNL     1       3.281   0.556 -10.329  1.00  0.00     0.148 A 
ATOM     53  C   UNL     1       5.121  -1.106 -11.640  1.00  0.00     0.002 A 
ATOM     54  C   UNL     1       2.837  -0.538 -11.059  1.00  0.00     0.091 A 
ATOM     55  F   UNL     1       2.432   1.377  -9.694  1.00  0.00    -0.205 F 
ATOM     56  C   UNL     1       3.754  -1.362 -11.728  1.00  0.00     0.022 A 
BRANCH  54  57
ATOM     57  S   UNL     1       1.110  -1.031 -11.106  1.00  0.00     0.127 S 
ATOM     58  O   UNL     1       0.775  -0.808 -12.511  1.00  0.00    -0.237 OA
ATOM     59  O   UNL     1       1.190  -2.437 -10.707  1.00  0.00    -0.237 OA
ATOM     60  O   UNL     1       0.425  -0.171 -10.152  1.00  0.00    -0.744 OA
ENDBRANCH  54  57
ENDBRANCH  26  50
BRANCH  38  61
ATOM     61  C   UNL     1       8.055   6.862 -11.118  1.00  0.00     0.023 A 
ATOM     62  C   UNL     1       7.197   7.494 -12.038  1.00  0.00     0.012 A 
ATOM     63  C   UNL     1       9.450   6.980 -11.276  1.00  0.00     0.148 A 
ATOM     64  C   UNL     1       7.720   8.221 -13.107  1.00  0.00     0.002 A 
ATOM     65  C   UNL     1       9.964   7.748 -12.313  1.00  0.00     0.091 A 
ATOM     66  F   UNL     1      10.247   6.353 -10.398  1.00  0.00    -0.205 F 
ATOM     67  C   UNL     1       9.100   8.361 -13.236  1.00  0.00     0.022 A 
BRANCH  65  68
ATOM     68  S   UNL     1      11.721   8.067 -12.499  1.00  0.00     0.127 S 
ATOM     69  O   UNL     1      12.025   7.352 -13.738  1.00  0.00    -0.237 OA
ATOM     70  O   UNL     1      11.759   9.526 -12.611  1.00  0.00    -0.237 OA
ATOM     71  O   UNL     1      12.359   7.533 -11.303  1.00  0.00    -0.744 OA
ENDBRANCH  65  68
ENDBRANCH  38  61
ENDBRANCH  12  13
ENDBRANCH   5   7
ENDBRANCH   2   3
ENDBRANCH   1   2
BRANCH   1  72
ATOM     72  C   UNL     1       4.614  -0.586   3.563  1.00  0.00     0.118 C 
BRANCH  72  73
ATOM     73  N   UNL     1       5.075  -1.952   3.744  1.00  0.00    -0.352 N 
ATOM     74  C   UNL     1       5.721  -2.515   4.814  1.00  0.00     0.255 C 
ATOM     75  H   UNL     1       4.896  -2.561   2.991  1.00  0.00     0.163 HD
ATOM     76  O   UNL     1       6.102  -3.683   4.751  1.00  0.00    -0.269 OA
BRANCH  74  77
ATOM     77  C   UNL     1       6.043  -1.714   6.013  1.00  0.00     0.082 A 
ATOM     78  C   UNL     1       7.379  -1.740   6.446  1.00  0.00     0.025 A 
ATOM     79  C   UNL     1       5.090  -0.993   6.736  1.00  0.00     0.128 A 
ATOM     80  C   UNL     1       7.783  -1.013   7.572  1.00  0.00    -0.025 A 
ATOM     81  C   UNL     1       5.482  -0.237   7.837  1.00  0.00     0.047 A 
ATOM     82  C   UNL     1       6.820  -0.245   8.245  1.00  0.00     0.012 A 
BRANCH  79  83
ATOM     83  O   UNL     1       3.771  -1.027   6.380  1.00  0.00    -0.507 OA
ATOM     84  H   UNL     1       3.498  -1.533   5.641  1.00  0.00     0.293 HD
ENDBRANCH  79  83
BRANCH  80  85
ATOM     85  C   UNL     1       9.158  -1.036   8.105  1.00  0.00     0.009 C 
ATOM     86  C   UNL     1      10.183  -1.756   7.620  1.00  0.00     0.009 C 
BRANCH  86  87
ATOM     87  C   UNL     1      11.513  -1.774   8.246  1.00  0.00    -0.018 A 
ATOM     88  C   UNL     1      11.666  -1.980   9.625  1.00  0.00     0.054 A 
ATOM     89  C   UNL     1      12.651  -1.657   7.438  1.00  0.00     0.054 A 
ATOM     90  C   UNL     1      12.943  -2.042  10.180  1.00  0.00     0.119 A 
ATOM     91  C   UNL     1      13.919  -1.719   8.016  1.00  0.00     0.119 A 
ATOM     92  C   UNL     1      14.072  -1.909   9.383  1.00  0.00     0.092 A 
BRANCH  90  93
ATOM     93  O   UNL     1      13.123  -2.243  11.518  1.00  0.00    -0.508 OA
ATOM     94  H   UNL     1      12.381  -2.336  12.082  1.00  0.00     0.293 HD
ENDBRANCH  90  93
BRANCH  91  95
ATOM     95  O   UNL     1      15.048  -1.602   7.259  1.00  0.00    -0.508 OA
ATOM     96  H   UNL     1      15.891  -1.647   7.666  1.00  0.00     0.293 HD
ENDBRANCH  91  95
ENDBRANCH  86  87
ENDBRANCH  80  85
ENDBRANCH  74  77
ENDBRANCH  72  73
ENDBRANCH   1  72
TORSDOF 18
