REMARK SMILES C[N@@H+](CC(=O)NCCCNC(=O)c1ccc(-c2c3nc(c(-c4cccc(S(=O)(=O)[O-])c4F)c4ccc([nH]4)c(-c4cccc(S(=O)(=O)[O-])c4F)c4nc(c(-c5cccc(S(=O)(=O)[O-])c5F)c5ccc2[nH]5)C=C4)C=C3)cc1)Cc1csc(-c2ccco2)n1
REMARK SMILES IDX 7 1 6 2 4 3 5 4 3 6 2 7 1 8 76 10 77 11 78 12 86 13 79 14
REMARK SMILES IDX 80 15 81 16 82 17 85 18 83 19 84 20 8 21 9 22 10 23 11 24
REMARK SMILES IDX 12 26 13 27 14 28 75 29 15 30 74 31 16 32 17 33 18 34 68 35
REMARK SMILES IDX 19 36 73 37 67 38 69 39 20 40 72 41 66 42 65 43 21 45 53 46
REMARK SMILES IDX 33 47 52 48 34 49 37 50 51 51 70 52 35 53 36 54 50 56 71 57
REMARK SMILES IDX 38 58 22 59 23 60 31 61 24 62 26 63 32 64 25 65 27 66 28 67
REMARK SMILES IDX 29 68 30 69 54 70 55 71 63 72 56 73 58 74 64 75 57 76 59 77
REMARK SMILES IDX 60 78 61 79 62 80 39 81 40 82 48 83 41 84 43 85 49 86 42 87
REMARK SMILES IDX 44 88 45 89 46 90 47 91
REMARK H PARENT 6 5 2 9 10 25 69 44 37 55
REMARK Flexibility Score: inf
ROOT
ATOM      1  C   UNL     1      -0.887  -0.649   1.765  1.00  0.00     0.118 C 
ENDROOT
BRANCH   1   2
ATOM      2  N   UNL     1      -1.529   0.521   1.192  1.00  0.00    -0.351 N 
ATOM      3  C   UNL     1      -1.652   0.950  -0.096  1.00  0.00     0.275 C 
ATOM      4  O   UNL     1      -2.376   1.930  -0.298  1.00  0.00    -0.269 OA
ATOM      5  H   UNL     1      -1.953   1.112   1.855  1.00  0.00     0.163 HD
BRANCH   3   6
ATOM      6  C   UNL     1      -0.961   0.236  -1.251  1.00  0.00     0.363 C 
BRANCH   6   7
ATOM      7  N   UNL     1       0.385   0.709  -1.557  1.00  0.00    -0.325 N 
ATOM      8  C   UNL     1       1.508  -0.083  -1.116  1.00  0.00     0.333 C 
ATOM      9  H   UNL     1       0.371   0.409  -2.532  1.00  0.00     0.348 HD
BRANCH   7  10
ATOM     10  C   UNL     1       0.604   2.124  -1.865  1.00  0.00     0.320 C 
BRANCH  10  11
ATOM     11  C   UNL     1       0.674   3.068  -0.689  1.00  0.00     0.106 A 
ATOM     12  C   UNL     1       1.014   2.772   0.615  1.00  0.00     0.097 A 
ATOM     13  N   UNL     1       0.436   4.435  -0.899  1.00  0.00    -0.232 NA
ATOM     14  S   UNL     1       0.985   4.154   1.604  1.00  0.00    -0.119 S 
ATOM     15  C   UNL     1       0.605   5.105   0.227  1.00  0.00     0.159 A 
BRANCH  15  16
ATOM     16  C   UNL     1       0.513   6.534   0.357  1.00  0.00     0.162 A 
ATOM     17  C   UNL     1      -0.049   7.469  -0.498  1.00  0.00     0.053 A 
ATOM     18  O   UNL     1       1.024   7.205   1.445  1.00  0.00    -0.462 OA
ATOM     19  C   UNL     1       0.127   8.746   0.097  1.00  0.00     0.043 A 
ATOM     20  C   UNL     1       0.798   8.527   1.274  1.00  0.00     0.196 A 
ENDBRANCH  15  16
ENDBRANCH  10  11
ENDBRANCH   7  10
ENDBRANCH   6   7
ENDBRANCH   3   6
ENDBRANCH   1   2
BRANCH   1  21
ATOM     21  C   UNL     1       0.356  -0.341   2.603  1.00  0.00     0.042 C 
BRANCH  21  22
ATOM     22  C   UNL     1       0.219   0.806   3.605  1.00  0.00     0.118 C 
BRANCH  22  23
ATOM     23  N   UNL     1      -0.367   0.380   4.862  1.00  0.00    -0.352 N 
ATOM     24  C   UNL     1       0.178   0.375   6.124  1.00  0.00     0.251 C 
ATOM     25  H   UNL     1      -1.291   0.045   4.802  1.00  0.00     0.163 HD
ATOM     26  O   UNL     1      -0.418  -0.213   7.024  1.00  0.00    -0.269 OA
BRANCH  24  27
ATOM     27  C   UNL     1       1.470   1.046   6.416  1.00  0.00     0.039 A 
ATOM     28  C   UNL     1       2.378   0.399   7.262  1.00  0.00     0.014 A 
ATOM     29  C   UNL     1       1.769   2.326   5.937  1.00  0.00     0.014 A 
ATOM     30  C   UNL     1       3.587   1.016   7.603  1.00  0.00     0.010 A 
ATOM     31  C   UNL     1       3.004   2.916   6.231  1.00  0.00     0.010 A 
ATOM     32  C   UNL     1       3.920   2.277   7.081  1.00  0.00    -0.014 A 
BRANCH  32  33
ATOM     33  C   UNL     1       5.207   2.936   7.439  1.00  0.00     0.031 A 
ATOM     34  C   UNL     1       5.220   4.206   8.250  1.00  0.00     0.074 A 
ATOM     35  C   UNL     1       6.373   2.414   7.007  1.00  0.00     0.049 A 
ATOM     36  N   UNL     1       6.242   4.913   8.663  1.00  0.00    -0.248 NA
ATOM     37  C   UNL     1       3.914   4.764   8.635  1.00  0.00     0.031 C 
ATOM     38  C   UNL     1       6.505   1.220   6.171  1.00  0.00     0.029 A 
ATOM     39  N   UNL     1       7.668   2.830   7.199  1.00  0.00    -0.354 N 
ATOM     40  C   UNL     1       5.706   6.009   9.329  1.00  0.00     0.074 A 
ATOM     41  C   UNL     1       4.267   5.892   9.235  1.00  0.00     0.031 C 
ATOM     42  C   UNL     1       7.806   0.991   5.935  1.00  0.00     0.029 A 
ATOM     43  C   UNL     1       8.602   2.032   6.580  1.00  0.00     0.049 A 
ATOM     44  H   UNL     1       7.906   3.624   7.730  1.00  0.00     0.167 HD
ATOM     45  C   UNL     1       6.346   7.006   9.990  1.00  0.00     0.034 A 
ATOM     46  C   UNL     1       9.947   2.123   6.539  1.00  0.00     0.034 A 
ATOM     47  C   UNL     1       7.776   7.107  10.117  1.00  0.00     0.049 A 
ATOM     48  C   UNL     1      10.636   3.231   7.289  1.00  0.00     0.074 A 
ATOM     49  C   UNL     1       8.514   8.041  10.823  1.00  0.00     0.029 A 
ATOM     50  N   UNL     1       8.687   6.249   9.520  1.00  0.00    -0.354 N 
ATOM     51  N   UNL     1      10.112   4.172   8.038  1.00  0.00    -0.248 NA
ATOM     52  C   UNL     1      12.104   3.269   7.218  1.00  0.00     0.031 C 
ATOM     53  C   UNL     1       9.873   7.756  10.640  1.00  0.00     0.029 A 
ATOM     54  C   UNL     1       9.979   6.634   9.834  1.00  0.00     0.049 A 
ATOM     55  H   UNL     1       8.449   5.479   8.955  1.00  0.00     0.167 HD
ATOM     56  C   UNL     1      11.185   4.887   8.559  1.00  0.00     0.074 A 
ATOM     57  C   UNL     1      12.390   4.261   8.052  1.00  0.00     0.031 C 
ATOM     58  C   UNL     1      11.173   5.972   9.373  1.00  0.00     0.034 A 
BRANCH  45  59
ATOM     59  C   UNL     1       5.491   8.041  10.679  1.00  0.00     0.023 A 
ATOM     60  C   UNL     1       4.769   7.680  11.836  1.00  0.00     0.012 A 
ATOM     61  C   UNL     1       5.426   9.368  10.213  1.00  0.00     0.148 A 
ATOM     62  C   UNL     1       3.962   8.609  12.491  1.00  0.00     0.002 A 
ATOM     63  C   UNL     1       4.653  10.301  10.897  1.00  0.00     0.091 A 
ATOM     64  F   UNL     1       6.101   9.693   9.101  1.00  0.00    -0.205 F 
ATOM     65  C   UNL     1       3.911   9.920  12.027  1.00  0.00     0.022 A 
BRANCH  63  66
ATOM     66  S   UNL     1       4.586  12.032  10.418  1.00  0.00     0.127 S 
ATOM     67  O   UNL     1       3.295  12.101   9.736  1.00  0.00    -0.237 OA
ATOM     68  O   UNL     1       4.629  12.716  11.711  1.00  0.00    -0.237 OA
ATOM     69  O   UNL     1       5.757  12.255   9.581  1.00  0.00    -0.744 OA
ENDBRANCH  63  66
ENDBRANCH  45  59
BRANCH  46  70
ATOM     70  C   UNL     1      10.739   1.075   5.834  1.00  0.00     0.023 A 
ATOM     71  C   UNL     1      11.499   0.164   6.594  1.00  0.00     0.012 A 
ATOM     72  C   UNL     1      10.718   0.949   4.431  1.00  0.00     0.148 A 
ATOM     73  C   UNL     1      12.243  -0.838   5.970  1.00  0.00     0.002 A 
ATOM     74  C   UNL     1      11.419  -0.084   3.819  1.00  0.00     0.091 A 
ATOM     75  F   UNL     1       9.999   1.833   3.726  1.00  0.00    -0.205 F 
ATOM     76  C   UNL     1      12.195  -0.968   4.585  1.00  0.00     0.022 A 
BRANCH  74  77
ATOM     77  S   UNL     1      11.316  -0.411   2.056  1.00  0.00     0.127 S 
ATOM     78  O   UNL     1      12.658  -0.053   1.605  1.00  0.00    -0.237 OA
ATOM     79  O   UNL     1      11.018  -1.843   2.032  1.00  0.00    -0.237 OA
ATOM     80  O   UNL     1      10.236   0.434   1.561  1.00  0.00    -0.744 OA
ENDBRANCH  74  77
ENDBRANCH  46  70
BRANCH  58  81
ATOM     81  C   UNL     1      12.501   6.540   9.803  1.00  0.00     0.023 A 
ATOM     82  C   UNL     1      13.287   7.258   8.880  1.00  0.00     0.012 A 
ATOM     83  C   UNL     1      12.936   6.426  11.139  1.00  0.00     0.148 A 
ATOM     84  C   UNL     1      14.499   7.827   9.271  1.00  0.00     0.002 A 
ATOM     85  C   UNL     1      14.123   7.034  11.533  1.00  0.00     0.091 A 
ATOM     86  F   UNL     1      12.186   5.721  11.998  1.00  0.00    -0.205 F 
ATOM     87  C   UNL     1      14.911   7.726  10.598  1.00  0.00     0.022 A 
BRANCH  85  88
ATOM     88  S   UNL     1      14.684   7.034  13.240  1.00  0.00     0.127 S 
ATOM     89  O   UNL     1      15.778   6.066  13.194  1.00  0.00    -0.237 OA
ATOM     90  O   UNL     1      15.105   8.422  13.431  1.00  0.00    -0.237 OA
ATOM     91  O   UNL     1      13.531   6.639  14.038  1.00  0.00    -0.744 OA
ENDBRANCH  85  88
ENDBRANCH  58  81
ENDBRANCH  32  33
ENDBRANCH  24  27
ENDBRANCH  22  23
ENDBRANCH  21  22
ENDBRANCH   1  21
TORSDOF 17
