REMARK SMILES C[N@H+]1C[C@@H](Oc2cccc3cccnc23)C[C@H]1C(=O)NCCCNC(=O)c1ccc(-c2c3nc(c(-c4cccc(S(=O)(=O)[O-])c4F)c4ccc([nH]4)c(-c4cccc(S(=O)(=O)[O-])c4F)c4nc(c(-c5cccc(S(=O)(=O)[O-])c5F)c5ccc2[nH]5)C=C4)C=C3)cc1
REMARK SMILES IDX 22 1 21 2 20 3 18 4 19 5 17 7 1 8 2 9 3 10 4 12 16 13 5 14
REMARK SMILES IDX 6 15 7 16 15 17 8 18 10 19 14 20 9 21 11 22 13 23 12 24
REMARK SMILES IDX 23 25 24 26 25 27 26 29 27 30 28 31 89 32 29 33 88 34 30 35
REMARK SMILES IDX 31 36 32 37 82 38 33 39 87 40 81 41 83 42 34 43 86 44 80 45
REMARK SMILES IDX 79 46 35 48 67 49 47 50 66 51 48 52 51 53 65 54 84 55 49 56
REMARK SMILES IDX 50 57 64 59 85 60 52 61 36 62 37 63 45 64 38 65 40 66 46 67
REMARK SMILES IDX 39 68 41 69 42 70 43 71 44 72 68 73 69 74 77 75 70 76 72 77
REMARK SMILES IDX 78 78 71 79 73 80 74 81 75 82 76 83 53 84 54 85 62 86 55 87
REMARK SMILES IDX 57 88 63 89 56 90 58 91 59 92 60 93 61 94
REMARK H PARENT 20 6 2 11 24 28 83 47 51 58
REMARK Flexibility Score: inf
ROOT
ATOM      1  C   UNL     1      -0.962   1.673   3.099  1.00  0.00     0.042 C 
ENDROOT
BRANCH   1   2
ATOM      2  C   UNL     1      -0.141   0.420   2.845  1.00  0.00     0.118 C 
BRANCH   2   3
ATOM      3  N   UNL     1      -0.879  -0.762   2.489  1.00  0.00    -0.351 N 
ATOM      4  C   UNL     1      -0.745  -1.558   1.392  1.00  0.00     0.278 C 
ATOM      5  O   UNL     1      -1.104  -2.735   1.548  1.00  0.00    -0.268 OA
ATOM      6  H   UNL     1      -1.577  -1.034   3.127  1.00  0.00     0.163 HD
BRANCH   4   7
ATOM      7  C   UNL     1      -0.155  -1.135   0.022  1.00  0.00     0.278 C 
ATOM      8  C   UNL     1      -1.919   0.555  -0.423  1.00  0.00     0.333 C 
ATOM      9  N   UNL     1      -0.539   0.155  -0.545  1.00  0.00    -0.324 N 
ATOM     10  C   UNL     1       0.515   1.145  -0.346  1.00  0.00     0.308 C 
ATOM     11  H   UNL     1      -0.587   0.035  -1.557  1.00  0.00     0.348 HD
ATOM     12  C   UNL     1       1.814   0.307  -0.256  1.00  0.00     0.234 C 
ATOM     13  C   UNL     1       1.363  -1.151  -0.075  1.00  0.00     0.126 C 
BRANCH  12  14
ATOM     14  O   UNL     1       2.889   0.854   0.531  1.00  0.00    -0.482 OA
BRANCH  14  15
ATOM     15  C   UNL     1       3.011   0.648   1.884  1.00  0.00     0.146 A 
ATOM     16  C   UNL     1       3.290  -0.627   2.392  1.00  0.00     0.049 A 
ATOM     17  C   UNL     1       3.009   1.767   2.743  1.00  0.00     0.112 A 
ATOM     18  C   UNL     1       3.398  -0.846   3.762  1.00  0.00     0.005 A 
ATOM     19  C   UNL     1       3.192   1.532   4.130  1.00  0.00     0.004 A 
ATOM     20  N   UNL     1       2.829   3.025   2.279  1.00  0.00    -0.252 NA
ATOM     21  C   UNL     1       3.342   0.232   4.633  1.00  0.00     0.010 A 
ATOM     22  C   UNL     1       3.223   2.622   5.005  1.00  0.00     0.012 A 
ATOM     23  C   UNL     1       2.865   4.056   3.158  1.00  0.00     0.112 A 
ATOM     24  C   UNL     1       3.065   3.908   4.514  1.00  0.00     0.021 A 
ENDBRANCH  14  15
ENDBRANCH  12  14
ENDBRANCH   4   7
ENDBRANCH   2   3
ENDBRANCH   1   2
BRANCH   1  25
ATOM     25  C   UNL     1      -1.489   1.772   4.520  1.00  0.00     0.118 C 
BRANCH  25  26
ATOM     26  N   UNL     1      -0.424   1.872   5.517  1.00  0.00    -0.352 N 
ATOM     27  C   UNL     1      -0.105   2.893   6.377  1.00  0.00     0.251 C 
ATOM     28  H   UNL     1       0.157   1.080   5.581  1.00  0.00     0.163 HD
ATOM     29  O   UNL     1       0.901   2.824   7.077  1.00  0.00    -0.269 OA
BRANCH  27  30
ATOM     30  C   UNL     1      -0.976   4.077   6.468  1.00  0.00     0.039 A 
ATOM     31  C   UNL     1      -0.407   5.356   6.473  1.00  0.00     0.014 A 
ATOM     32  C   UNL     1      -2.355   3.913   6.593  1.00  0.00     0.014 A 
ATOM     33  C   UNL     1      -1.231   6.479   6.566  1.00  0.00     0.010 A 
ATOM     34  C   UNL     1      -3.177   5.026   6.598  1.00  0.00     0.010 A 
ATOM     35  C   UNL     1      -2.622   6.315   6.619  1.00  0.00    -0.014 A 
BRANCH  35  36
ATOM     36  C   UNL     1      -3.555   7.446   6.807  1.00  0.00     0.031 A 
ATOM     37  C   UNL     1      -4.375   7.480   8.066  1.00  0.00     0.074 A 
ATOM     38  C   UNL     1      -3.785   8.306   5.800  1.00  0.00     0.049 A 
ATOM     39  N   UNL     1      -5.445   8.172   8.342  1.00  0.00    -0.248 NA
ATOM     40  C   UNL     1      -3.965   6.552   9.136  1.00  0.00     0.031 C 
ATOM     41  C   UNL     1      -3.088   8.310   4.514  1.00  0.00     0.029 A 
ATOM     42  N   UNL     1      -4.715   9.306   5.682  1.00  0.00    -0.354 N 
ATOM     43  C   UNL     1      -5.884   7.705   9.575  1.00  0.00     0.074 A 
ATOM     44  C   UNL     1      -4.975   6.658   9.984  1.00  0.00     0.031 C 
ATOM     45  C   UNL     1      -3.635   9.248   3.723  1.00  0.00     0.029 A 
ATOM     46  C   UNL     1      -4.739   9.883   4.435  1.00  0.00     0.049 A 
ATOM     47  H   UNL     1      -5.308   9.582   6.418  1.00  0.00     0.167 HD
ATOM     48  C   UNL     1      -6.940   8.128  10.309  1.00  0.00     0.034 A 
ATOM     49  C   UNL     1      -5.578  10.804   3.922  1.00  0.00     0.034 A 
ATOM     50  C   UNL     1      -7.777   9.229   9.918  1.00  0.00     0.049 A 
ATOM     51  C   UNL     1      -6.670  11.349   4.803  1.00  0.00     0.074 A 
ATOM     52  C   UNL     1      -8.806   9.825  10.620  1.00  0.00     0.029 A 
ATOM     53  N   UNL     1      -7.662   9.910   8.714  1.00  0.00    -0.354 N 
ATOM     54  N   UNL     1      -7.001  10.988   6.021  1.00  0.00    -0.248 NA
ATOM     55  C   UNL     1      -7.478  12.448   4.260  1.00  0.00     0.031 C 
ATOM     56  C   UNL     1      -9.311  10.873   9.841  1.00  0.00     0.029 A 
ATOM     57  C   UNL     1      -8.591  10.931   8.656  1.00  0.00     0.049 A 
ATOM     58  H   UNL     1      -7.013   9.697   8.005  1.00  0.00     0.167 HD
ATOM     59  C   UNL     1      -8.038  11.831   6.402  1.00  0.00     0.074 A 
ATOM     60  C   UNL     1      -8.264  12.736   5.291  1.00  0.00     0.031 C 
ATOM     61  C   UNL     1      -8.751  11.848   7.555  1.00  0.00     0.034 A 
BRANCH  48  62
ATOM     62  C   UNL     1      -7.197   7.433  11.621  1.00  0.00     0.023 A 
ATOM     63  C   UNL     1      -6.294   7.610  12.691  1.00  0.00     0.012 A 
ATOM     64  C   UNL     1      -8.321   6.604  11.801  1.00  0.00     0.148 A 
ATOM     65  C   UNL     1      -6.475   6.933  13.896  1.00  0.00     0.002 A 
ATOM     66  C   UNL     1      -8.520   5.969  13.023  1.00  0.00     0.091 A 
ATOM     67  F   UNL     1      -9.157   6.421  10.769  1.00  0.00    -0.205 F 
ATOM     68  C   UNL     1      -7.591   6.120  14.065  1.00  0.00     0.022 A 
BRANCH  66  69
ATOM     69  S   UNL     1      -9.971   4.963  13.358  1.00  0.00     0.127 S 
ATOM     70  O   UNL     1      -9.436   3.611  13.210  1.00  0.00    -0.237 OA
ATOM     71  O   UNL     1     -10.302   5.340  14.733  1.00  0.00    -0.237 OA
ATOM     72  O   UNL     1     -10.964   5.364  12.370  1.00  0.00    -0.744 OA
ENDBRANCH  66  69
ENDBRANCH  48  62
BRANCH  49  73
ATOM     73  C   UNL     1      -5.350  11.313   2.541  1.00  0.00     0.023 A 
ATOM     74  C   UNL     1      -4.800  12.598   2.369  1.00  0.00     0.012 A 
ATOM     75  C   UNL     1      -5.580  10.508   1.408  1.00  0.00     0.148 A 
ATOM     76  C   UNL     1      -4.496  13.079   1.095  1.00  0.00     0.002 A 
ATOM     77  C   UNL     1      -5.228  10.973   0.145  1.00  0.00     0.091 A 
ATOM     78  F   UNL     1      -6.111   9.291   1.592  1.00  0.00    -0.205 F 
ATOM     79  C   UNL     1      -4.697  12.263  -0.014  1.00  0.00     0.022 A 
BRANCH  77  80
ATOM     80  S   UNL     1      -5.319   9.943  -1.325  1.00  0.00     0.127 S 
ATOM     81  O   UNL     1      -6.429  10.553  -2.050  1.00  0.00    -0.237 OA
ATOM     82  O   UNL     1      -4.001  10.154  -1.924  1.00  0.00    -0.237 OA
ATOM     83  O   UNL     1      -5.545   8.587  -0.840  1.00  0.00    -0.744 OA
ENDBRANCH  77  80
ENDBRANCH  49  73
BRANCH  61  84
ATOM     84  C   UNL     1      -9.828  12.890   7.688  1.00  0.00     0.023 A 
ATOM     85  C   UNL     1     -11.049  12.715   7.010  1.00  0.00     0.012 A 
ATOM     86  C   UNL     1      -9.662  13.988   8.554  1.00  0.00     0.148 A 
ATOM     87  C   UNL     1     -12.086  13.632   7.176  1.00  0.00     0.002 A 
ATOM     88  C   UNL     1     -10.715  14.873   8.747  1.00  0.00     0.091 A 
ATOM     89  F   UNL     1      -8.482  14.145   9.171  1.00  0.00    -0.205 F 
ATOM     90  C   UNL     1     -11.924  14.702   8.053  1.00  0.00     0.022 A 
BRANCH  88  91
ATOM     91  S   UNL     1     -10.619  16.223   9.928  1.00  0.00     0.127 S 
ATOM     92  O   UNL     1     -10.387  17.370   9.053  1.00  0.00    -0.237 OA
ATOM     93  O   UNL     1     -11.943  16.190  10.552  1.00  0.00    -0.237 OA
ATOM     94  O   UNL     1      -9.524  15.885  10.828  1.00  0.00    -0.744 OA
ENDBRANCH  88  91
ENDBRANCH  61  84
ENDBRANCH  35  36
ENDBRANCH  27  30
ENDBRANCH  25  26
ENDBRANCH   1  25
TORSDOF 15
