REMARK SMILES C[C@@H]1CCC[C@H]1NC(=O)c1csc(/C=C/C(=O)NCCCNC(=O)c2ccc(-c3c4nc(c(-c5cccc(S(=O)(=O)[O-])c5F)c5ccc([nH]5)c(-c5cccc(S(=O)(=O)[O-])c5F)c5nc(c(-c6cccc(S(=O)(=O)[O-])c6F)c6ccc3[nH]6)C=C5)C=C4)cc2)c1
REMARK SMILES IDX 20 1 19 2 18 3 16 4 17 5 15 7 14 8 13 9 10 10 11 11 88 12
REMARK SMILES IDX 12 13 8 14 7 15 9 17 6 18 1 19 2 20 3 21 4 22 5 23 21 24
REMARK SMILES IDX 22 25 23 26 24 28 25 29 26 30 87 31 27 32 86 33 28 34 29 35
REMARK SMILES IDX 30 36 80 37 31 38 85 39 79 40 81 41 32 42 84 43 78 44 77 45
REMARK SMILES IDX 33 47 65 48 45 49 64 50 46 51 49 52 63 53 82 54 47 55 48 56
REMARK SMILES IDX 62 58 83 59 50 60 34 61 35 62 43 63 36 64 38 65 44 66 37 67
REMARK SMILES IDX 39 68 40 69 41 70 42 71 66 72 67 73 75 74 68 75 70 76 76 77
REMARK SMILES IDX 69 78 71 79 72 80 73 81 74 82 51 83 52 84 60 85 53 86 55 87
REMARK SMILES IDX 61 88 54 89 56 90 57 91 58 92 59 93
REMARK H PARENT 18 6 7 16 22 27 81 46 49 57
REMARK Flexibility Score: inf
ROOT
ATOM      1  C   UNL     1       4.915   7.118   4.859  1.00  0.00     0.042 C 
ENDROOT
BRANCH   1   2
ATOM      2  C   UNL     1       3.893   8.113   4.313  1.00  0.00     0.118 C 
BRANCH   2   3
ATOM      3  N   UNL     1       4.368   8.755   3.096  1.00  0.00    -0.352 N 
ATOM      4  C   UNL     1       3.942   8.643   1.809  1.00  0.00     0.244 C 
ATOM      5  O   UNL     1       4.405   9.386   0.947  1.00  0.00    -0.270 OA
ATOM      6  H   UNL     1       5.123   9.373   3.226  1.00  0.00     0.163 HD
BRANCH   4   7
ATOM      7  C   UNL     1       2.847   7.716   1.455  1.00  0.00     0.072 C 
ATOM      8  C   UNL     1       2.809   6.434   1.842  1.00  0.00     0.024 C 
BRANCH   8   9
ATOM      9  C   UNL     1       1.718   5.564   1.556  1.00  0.00     0.028 A 
ATOM     10  C   UNL     1       0.181   3.784   1.781  1.00  0.00     0.051 A 
ATOM     11  C   UNL     1      -0.201   4.338   0.576  1.00  0.00     0.079 A 
ATOM     12  C   UNL     1       1.262   4.529   2.355  1.00  0.00     0.033 A 
ATOM     13  S   UNL     1       0.786   5.651   0.113  1.00  0.00    -0.144 S 
BRANCH  10  14
ATOM     14  C   UNL     1      -0.459   2.645   2.423  1.00  0.00     0.252 C 
ATOM     15  N   UNL     1      -0.582   1.469   1.729  1.00  0.00    -0.349 N 
ATOM     16  H   UNL     1      -1.083   0.760   2.193  1.00  0.00     0.164 HD
ATOM     17  O   UNL     1      -0.860   2.703   3.582  1.00  0.00    -0.269 OA
BRANCH  15  18
ATOM     18  C   UNL     1      -0.081   1.111   0.405  1.00  0.00     0.085 C 
ATOM     19  C   UNL     1       1.792  -0.160  -0.734  1.00  0.00     0.010 C 
ATOM     20  C   UNL     1       0.846  -0.112   0.468  1.00  0.00     0.008 C 
ATOM     21  C   UNL     1      -0.127  -1.290   0.470  1.00  0.00     0.005 C 
ATOM     22  C   UNL     1      -1.292  -0.856  -0.413  1.00  0.00     0.002 C 
ATOM     23  C   UNL     1      -1.242   0.671  -0.489  1.00  0.00     0.025 C 
ENDBRANCH  15  18
ENDBRANCH  10  14
ENDBRANCH   8   9
ENDBRANCH   4   7
ENDBRANCH   2   3
ENDBRANCH   1   2
BRANCH   1  24
ATOM     24  C   UNL     1       6.122   7.784   5.516  1.00  0.00     0.118 C 
BRANCH  24  25
ATOM     25  N   UNL     1       5.760   8.485   6.742  1.00  0.00    -0.352 N 
ATOM     26  C   UNL     1       6.224   8.323   8.023  1.00  0.00     0.251 C 
ATOM     27  H   UNL     1       5.076   9.185   6.633  1.00  0.00     0.163 HD
ATOM     28  O   UNL     1       5.627   8.868   8.949  1.00  0.00    -0.269 OA
BRANCH  26  29
ATOM     29  C   UNL     1       7.423   7.501   8.299  1.00  0.00     0.039 A 
ATOM     30  C   UNL     1       7.432   6.683   9.433  1.00  0.00     0.014 A 
ATOM     31  C   UNL     1       8.552   7.568   7.479  1.00  0.00     0.014 A 
ATOM     32  C   UNL     1       8.552   5.897   9.716  1.00  0.00     0.010 A 
ATOM     33  C   UNL     1       9.639   6.731   7.722  1.00  0.00     0.010 A 
ATOM     34  C   UNL     1       9.655   5.893   8.847  1.00  0.00    -0.014 A 
BRANCH  34  35
ATOM     35  C   UNL     1      10.827   5.013   9.091  1.00  0.00     0.031 A 
ATOM     36  C   UNL     1      12.187   5.605   9.347  1.00  0.00     0.074 A 
ATOM     37  C   UNL     1      10.682   3.676   8.990  1.00  0.00     0.049 A 
ATOM     38  N   UNL     1      13.332   4.997   9.516  1.00  0.00    -0.248 NA
ATOM     39  C   UNL     1      12.277   7.074   9.391  1.00  0.00     0.031 C 
ATOM     40  C   UNL     1       9.433   2.984   8.667  1.00  0.00     0.029 A 
ATOM     41  N   UNL     1      11.599   2.663   9.118  1.00  0.00    -0.354 N 
ATOM     42  C   UNL     1      14.283   6.003   9.647  1.00  0.00     0.074 A 
ATOM     43  C   UNL     1      13.584   7.263   9.508  1.00  0.00     0.031 C 
ATOM     44  C   UNL     1       9.661   1.662   8.621  1.00  0.00     0.029 A 
ATOM     45  C   UNL     1      11.075   1.413   8.883  1.00  0.00     0.049 A 
ATOM     46  H   UNL     1      12.542   2.816   9.357  1.00  0.00     0.167 HD
ATOM     47  C   UNL     1      15.611   5.891   9.888  1.00  0.00     0.034 A 
ATOM     48  C   UNL     1      11.667   0.202   8.869  1.00  0.00     0.034 A 
ATOM     49  C   UNL     1      16.292   4.638  10.073  1.00  0.00     0.049 A 
ATOM     50  C   UNL     1      13.134   0.103   9.190  1.00  0.00     0.074 A 
ATOM     51  C   UNL     1      17.615   4.420  10.417  1.00  0.00     0.029 A 
ATOM     52  N   UNL     1      15.708   3.389   9.921  1.00  0.00    -0.354 N 
ATOM     53  N   UNL     1      13.982   1.061   9.475  1.00  0.00    -0.248 NA
ATOM     54  C   UNL     1      13.717  -1.246   9.224  1.00  0.00     0.031 C 
ATOM     55  C   UNL     1      17.836   3.039  10.451  1.00  0.00     0.029 A 
ATOM     56  C   UNL     1      16.645   2.397  10.155  1.00  0.00     0.049 A 
ATOM     57  H   UNL     1      14.766   3.232   9.683  1.00  0.00     0.167 HD
ATOM     58  C   UNL     1      15.189   0.431   9.756  1.00  0.00     0.074 A 
ATOM     59  C   UNL     1      14.955  -0.993   9.629  1.00  0.00     0.031 C 
ATOM     60  C   UNL     1      16.386   0.982  10.076  1.00  0.00     0.034 A 
BRANCH  47  61
ATOM     61  C   UNL     1      16.410   7.162  10.022  1.00  0.00     0.023 A 
ATOM     62  C   UNL     1      16.239   7.974  11.162  1.00  0.00     0.012 A 
ATOM     63  C   UNL     1      17.371   7.522   9.057  1.00  0.00     0.148 A 
ATOM     64  C   UNL     1      16.984   9.142  11.323  1.00  0.00     0.002 A 
ATOM     65  C   UNL     1      18.142   8.664   9.246  1.00  0.00     0.091 A 
ATOM     66  F   UNL     1      17.507   6.749   7.970  1.00  0.00    -0.205 F 
ATOM     67  C   UNL     1      17.942   9.480  10.371  1.00  0.00     0.022 A 
BRANCH  65  68
ATOM     68  S   UNL     1      19.457   9.143   8.119  1.00  0.00     0.127 S 
ATOM     69  O   UNL     1      18.876  10.319   7.472  1.00  0.00    -0.237 OA
ATOM     70  O   UNL     1      20.559   9.435   9.037  1.00  0.00    -0.237 OA
ATOM     71  O   UNL     1      19.679   7.997   7.250  1.00  0.00    -0.744 OA
ENDBRANCH  65  68
ENDBRANCH  47  61
BRANCH  48  72
ATOM     72  C   UNL     1      10.854  -1.019   8.609  1.00  0.00     0.023 A 
ATOM     73  C   UNL     1      10.603  -1.919   9.663  1.00  0.00     0.012 A 
ATOM     74  C   UNL     1      10.300  -1.277   7.340  1.00  0.00     0.148 A 
ATOM     75  C   UNL     1       9.842  -3.069   9.451  1.00  0.00     0.002 A 
ATOM     76  C   UNL     1       9.496  -2.395   7.149  1.00  0.00     0.091 A 
ATOM     77  F   UNL     1      10.559  -0.414   6.347  1.00  0.00    -0.205 F 
ATOM     78  C   UNL     1       9.280  -3.302   8.198  1.00  0.00     0.022 A 
BRANCH  76  79
ATOM     79  S   UNL     1       8.623  -2.701   5.609  1.00  0.00     0.127 S 
ATOM     80  O   UNL     1       9.364  -3.837   5.066  1.00  0.00    -0.237 OA
ATOM     81  O   UNL     1       7.274  -3.015   6.082  1.00  0.00    -0.237 OA
ATOM     82  O   UNL     1       8.718  -1.461   4.851  1.00  0.00    -0.744 OA
ENDBRANCH  76  79
ENDBRANCH  48  72
BRANCH  60  83
ATOM     83  C   UNL     1      17.535   0.046  10.345  1.00  0.00     0.023 A 
ATOM     84  C   UNL     1      18.142  -0.644   9.278  1.00  0.00     0.012 A 
ATOM     85  C   UNL     1      18.061  -0.090  11.646  1.00  0.00     0.148 A 
ATOM     86  C   UNL     1      19.235  -1.480   9.504  1.00  0.00     0.002 A 
ATOM     87  C   UNL     1      19.180  -0.887  11.856  1.00  0.00     0.091 A 
ATOM     88  F   UNL     1      17.457   0.559  12.652  1.00  0.00    -0.205 F 
ATOM     89  C   UNL     1      19.760  -1.592  10.789  1.00  0.00     0.022 A 
BRANCH  87  90
ATOM     90  S   UNL     1      19.983  -1.015  13.458  1.00  0.00     0.127 S 
ATOM     91  O   UNL     1      19.599  -2.361  13.877  1.00  0.00    -0.237 OA
ATOM     92  O   UNL     1      21.396  -0.863  13.111  1.00  0.00    -0.237 OA
ATOM     93  O   UNL     1      19.441   0.070  14.265  1.00  0.00    -0.744 OA
ENDBRANCH  87  90
ENDBRANCH  60  83
ENDBRANCH  34  35
ENDBRANCH  26  29
ENDBRANCH  24  25
ENDBRANCH   1  24
TORSDOF 16
