REMARK SMILES Cc1ccc(/C=C(\NC(=O)c2cccc(C)c2)C(=O)NCCCNC(=O)c2ccc(-c3c4nc(c(-c5cccc(S(=O)(=O)[O-])c5F)c5ccc([nH]5)c(-c5cccc(S(=O)(=O)[O-])c5F)c5nc(c(-c6cccc(S(=O)(=O)[O-])c6F)c6ccc3[nH]6)C=C5)C=C4)cc2)cc1
REMARK SMILES IDX 22 1 21 2 20 3 18 4 19 5 7 7 6 8 5 9 1 10 2 11 3 12 91 13
REMARK SMILES IDX 4 14 90 15 8 16 9 17 10 19 11 20 12 21 17 22 13 23 15 24
REMARK SMILES IDX 14 25 16 26 23 27 24 28 25 29 26 31 27 32 28 33 89 34 29 35
REMARK SMILES IDX 88 36 30 37 31 38 32 39 82 40 33 41 87 42 81 43 83 44 34 45
REMARK SMILES IDX 86 46 80 47 79 48 35 50 67 51 47 52 66 53 48 54 51 55 65 56
REMARK SMILES IDX 84 57 49 58 50 59 64 61 85 62 52 63 36 64 37 65 45 66 38 67
REMARK SMILES IDX 40 68 46 69 39 70 41 71 42 72 43 73 44 74 68 75 69 76 77 77
REMARK SMILES IDX 70 78 72 79 78 80 71 81 73 82 74 83 75 84 76 85 53 86 54 87
REMARK SMILES IDX 62 88 55 89 57 90 63 91 56 92 58 93 59 94 60 95 61 96
REMARK H PARENT 20 6 8 18 24 30 83 49 51 60
REMARK Flexibility Score: inf
ROOT
ATOM      1  C   UNL     1      -5.532  -4.054   2.052  1.00  0.00     0.042 C 
ENDROOT
BRANCH   1   2
ATOM      2  C   UNL     1      -5.880  -3.427   0.712  1.00  0.00     0.118 C 
BRANCH   2   3
ATOM      3  N   UNL     1      -5.953  -1.990   0.625  1.00  0.00    -0.351 N 
ATOM      4  C   UNL     1      -5.157  -1.115  -0.057  1.00  0.00     0.267 C 
ATOM      5  O   UNL     1      -5.651  -0.039  -0.406  1.00  0.00    -0.268 OA
ATOM      6  H   UNL     1      -6.687  -1.577   1.134  1.00  0.00     0.163 HD
BRANCH   4   7
ATOM      7  C   UNL     1      -3.676  -1.371  -0.234  1.00  0.00     0.107 C 
ATOM      8  C   UNL     1      -2.907  -0.264  -0.098  1.00  0.00     0.040 C 
BRANCH   8   9
ATOM      9  C   UNL     1      -1.428  -0.104  -0.125  1.00  0.00    -0.023 A 
ATOM     10  C   UNL     1       2.866   0.490   0.030  1.00  0.00     0.044 C 
ATOM     11  C   UNL     1       1.381   0.324  -0.035  1.00  0.00    -0.051 A 
ATOM     12  C   UNL     1       0.863  -0.953  -0.217  1.00  0.00     0.004 A 
ATOM     13  C   UNL     1       0.495   1.398   0.077  1.00  0.00     0.004 A 
ATOM     14  C   UNL     1      -0.513  -1.151  -0.299  1.00  0.00     0.008 A 
ATOM     15  C   UNL     1      -0.892   1.184   0.043  1.00  0.00     0.008 A 
ENDBRANCH   8   9
BRANCH   7  16
ATOM     16  N   UNL     1      -3.099  -2.611  -0.318  1.00  0.00    -0.317 N 
ATOM     17  C   UNL     1      -3.218  -3.696  -1.159  1.00  0.00     0.255 C 
ATOM     18  H   UNL     1      -2.439  -2.764   0.396  1.00  0.00     0.170 HD
ATOM     19  O   UNL     1      -2.415  -4.619  -1.002  1.00  0.00    -0.269 OA
BRANCH  17  20
ATOM     20  C   UNL     1      -4.319  -3.860  -2.142  1.00  0.00     0.040 A 
ATOM     21  C   UNL     1      -4.879  -5.149  -2.219  1.00  0.00     0.014 A 
ATOM     22  C   UNL     1      -4.921  -2.800  -2.818  1.00  0.00     0.017 A 
ATOM     23  C   UNL     1      -6.068  -5.361  -2.908  1.00  0.00     0.001 A 
ATOM     24  C   UNL     1      -6.131  -3.005  -3.495  1.00  0.00    -0.050 A 
ATOM     25  C   UNL     1      -6.693  -4.289  -3.540  1.00  0.00     0.003 A 
ATOM     26  C   UNL     1      -6.866  -1.857  -4.121  1.00  0.00     0.044 C 
ENDBRANCH  17  20
ENDBRANCH   7  16
ENDBRANCH   4   7
ENDBRANCH   2   3
ENDBRANCH   1   2
BRANCH   1  27
ATOM     27  C   UNL     1      -6.439  -5.246   2.349  1.00  0.00     0.118 C 
BRANCH  27  28
ATOM     28  N   UNL     1      -6.476  -6.235   1.244  1.00  0.00    -0.352 N 
ATOM     29  C   UNL     1      -7.490  -7.094   0.842  1.00  0.00     0.251 C 
ATOM     30  H   UNL     1      -5.651  -6.291   0.711  1.00  0.00     0.163 HD
ATOM     31  O   UNL     1      -7.232  -8.045   0.095  1.00  0.00    -0.269 OA
BRANCH  29  32
ATOM     32  C   UNL     1      -8.871  -6.783   1.226  1.00  0.00     0.039 A 
ATOM     33  C   UNL     1      -9.925  -7.684   1.400  1.00  0.00     0.014 A 
ATOM     34  C   UNL     1      -9.112  -5.429   1.331  1.00  0.00     0.014 A 
ATOM     35  C   UNL     1     -11.205  -7.162   1.601  1.00  0.00     0.010 A 
ATOM     36  C   UNL     1     -10.205  -4.988   1.974  1.00  0.00     0.010 A 
ATOM     37  C   UNL     1     -11.316  -5.792   1.801  1.00  0.00    -0.014 A 
BRANCH  37  38
ATOM     38  C   UNL     1     -12.487  -4.947   1.698  1.00  0.00     0.031 A 
ATOM     39  C   UNL     1     -13.325  -4.803   2.876  1.00  0.00     0.074 A 
ATOM     40  C   UNL     1     -12.354  -3.997   0.737  1.00  0.00     0.049 A 
ATOM     41  N   UNL     1     -14.361  -4.053   2.922  1.00  0.00    -0.248 NA
ATOM     42  C   UNL     1     -13.044  -5.509   4.117  1.00  0.00     0.031 C 
ATOM     43  C   UNL     1     -12.735  -2.591   0.741  1.00  0.00     0.029 A 
ATOM     44  N   UNL     1     -11.688  -4.131  -0.481  1.00  0.00    -0.354 N 
ATOM     45  C   UNL     1     -14.693  -3.923   4.251  1.00  0.00     0.074 A 
ATOM     46  C   UNL     1     -13.965  -4.972   4.920  1.00  0.00     0.031 C 
ATOM     47  C   UNL     1     -12.552  -2.086  -0.498  1.00  0.00     0.029 A 
ATOM     48  C   UNL     1     -12.222  -3.203  -1.373  1.00  0.00     0.049 A 
ATOM     49  H   UNL     1     -10.965  -4.770  -0.678  1.00  0.00     0.167 HD
ATOM     50  C   UNL     1     -15.397  -2.818   4.619  1.00  0.00     0.034 A 
ATOM     51  C   UNL     1     -13.021  -3.706  -2.368  1.00  0.00     0.034 A 
ATOM     52  C   UNL     1     -15.730  -2.021   3.415  1.00  0.00     0.049 A 
ATOM     53  C   UNL     1     -14.483  -3.369  -2.130  1.00  0.00     0.074 A 
ATOM     54  C   UNL     1     -15.168  -0.888   2.846  1.00  0.00     0.029 A 
ATOM     55  N   UNL     1     -16.523  -2.595   2.422  1.00  0.00    -0.354 N 
ATOM     56  N   UNL     1     -14.952  -2.850  -1.027  1.00  0.00    -0.248 NA
ATOM     57  C   UNL     1     -15.525  -3.555  -3.131  1.00  0.00     0.031 C 
ATOM     58  C   UNL     1     -15.542  -0.857   1.467  1.00  0.00     0.029 A 
ATOM     59  C   UNL     1     -16.360  -1.946   1.203  1.00  0.00     0.049 A 
ATOM     60  H   UNL     1     -17.122  -3.362   2.566  1.00  0.00     0.167 HD
ATOM     61  C   UNL     1     -16.311  -2.752  -1.084  1.00  0.00     0.074 A 
ATOM     62  C   UNL     1     -16.610  -3.123  -2.461  1.00  0.00     0.031 C 
ATOM     63  C   UNL     1     -17.069  -2.432   0.014  1.00  0.00     0.034 A 
BRANCH  50  64
ATOM     64  C   UNL     1     -15.574  -2.294   6.039  1.00  0.00     0.023 A 
ATOM     65  C   UNL     1     -16.133  -1.004   6.172  1.00  0.00     0.012 A 
ATOM     66  C   UNL     1     -15.213  -2.927   7.256  1.00  0.00     0.148 A 
ATOM     67  C   UNL     1     -16.282  -0.367   7.410  1.00  0.00     0.002 A 
ATOM     68  C   UNL     1     -15.351  -2.292   8.495  1.00  0.00     0.091 A 
ATOM     69  F   UNL     1     -14.747  -4.172   7.260  1.00  0.00    -0.205 F 
ATOM     70  C   UNL     1     -15.883  -1.006   8.574  1.00  0.00     0.022 A 
BRANCH  68  71
ATOM     71  S   UNL     1     -14.846  -3.063  10.049  1.00  0.00     0.127 S 
ATOM     72  O   UNL     1     -13.902  -2.081  10.585  1.00  0.00    -0.237 OA
ATOM     73  O   UNL     1     -16.110  -3.152  10.777  1.00  0.00    -0.237 OA
ATOM     74  O   UNL     1     -14.242  -4.345   9.704  1.00  0.00    -0.744 OA
ENDBRANCH  68  71
ENDBRANCH  50  64
BRANCH  51  75
ATOM     75  C   UNL     1     -12.482  -5.037  -2.858  1.00  0.00     0.023 A 
ATOM     76  C   UNL     1     -11.152  -5.021  -3.359  1.00  0.00     0.012 A 
ATOM     77  C   UNL     1     -12.989  -6.252  -2.356  1.00  0.00     0.148 A 
ATOM     78  C   UNL     1     -10.291  -6.101  -3.133  1.00  0.00     0.002 A 
ATOM     79  C   UNL     1     -12.125  -7.335  -2.164  1.00  0.00     0.091 A 
ATOM     80  F   UNL     1     -14.280  -6.317  -2.007  1.00  0.00    -0.205 F 
ATOM     81  C   UNL     1     -10.764  -7.236  -2.486  1.00  0.00     0.022 A 
BRANCH  79  82
ATOM     82  S   UNL     1     -12.711  -8.861  -1.413  1.00  0.00     0.127 S 
ATOM     83  O   UNL     1     -13.257  -9.566  -2.570  1.00  0.00    -0.237 OA
ATOM     84  O   UNL     1     -11.494  -9.458  -0.861  1.00  0.00    -0.237 OA
ATOM     85  O   UNL     1     -13.670  -8.433  -0.404  1.00  0.00    -0.744 OA
ENDBRANCH  79  82
ENDBRANCH  51  75
BRANCH  63  86
ATOM     86  C   UNL     1     -18.580  -2.576   0.080  1.00  0.00     0.023 A 
ATOM     87  C   UNL     1     -19.300  -3.394  -0.810  1.00  0.00     0.012 A 
ATOM     88  C   UNL     1     -19.317  -2.007   1.151  1.00  0.00     0.148 A 
ATOM     89  C   UNL     1     -20.682  -3.571  -0.705  1.00  0.00     0.002 A 
ATOM     90  C   UNL     1     -20.661  -2.309   1.339  1.00  0.00     0.091 A 
ATOM     91  F   UNL     1     -18.728  -1.145   1.992  1.00  0.00    -0.205 F 
ATOM     92  C   UNL     1     -21.359  -3.052   0.387  1.00  0.00     0.022 A 
BRANCH  90  93
ATOM     93  S   UNL     1     -21.496  -1.916   2.881  1.00  0.00     0.127 S 
ATOM     94  O   UNL     1     -22.214  -0.693   2.531  1.00  0.00    -0.237 OA
ATOM     95  O   UNL     1     -22.350  -3.090   3.078  1.00  0.00    -0.237 OA
ATOM     96  O   UNL     1     -20.436  -1.778   3.870  1.00  0.00    -0.744 OA
ENDBRANCH  90  93
ENDBRANCH  63  86
ENDBRANCH  37  38
ENDBRANCH  29  32
ENDBRANCH  27  28
ENDBRANCH   1  27
TORSDOF 16
