REMARK SMILES O=C(NCCCNC(=O)c1ccc(-c2c3nc(c(-c4cccc(S(=O)(=O)[O-])c4F)c4ccc([nH]4)c(-c4cccc(S(=O)(=O)[O-])c4F)c4nc(c(-c5cccc(S(=O)(=O)[O-])c5F)c5ccc2[nH]5)C=C4)C=C3)cc1)c1ccc(N/C=C\C(=O)c2ccco2)cc1
REMARK SMILES IDX 4 1 3 2 1 3 2 4 73 6 74 7 88 8 75 9 87 10 76 11 77 12 78 14
REMARK SMILES IDX 79 15 80 16 81 17 82 18 83 19 86 20 84 21 85 22 5 23 6 24
REMARK SMILES IDX 7 25 8 26 9 28 10 29 11 30 72 31 12 32 71 33 13 34 14 35
REMARK SMILES IDX 15 36 65 37 16 38 70 39 64 40 66 41 17 42 69 43 63 44 62 45
REMARK SMILES IDX 18 47 50 48 30 49 49 50 31 51 34 52 48 53 67 54 32 55 33 56
REMARK SMILES IDX 47 58 68 59 35 60 19 61 20 62 28 63 21 64 23 65 29 66 22 67
REMARK SMILES IDX 24 68 25 69 26 70 27 71 51 72 52 73 60 74 53 75 55 76 61 77
REMARK SMILES IDX 54 78 56 79 57 80 58 81 59 82 36 83 37 84 45 85 38 86 40 87
REMARK SMILES IDX 46 88 39 89 41 90 42 91 43 92 44 93
REMARK H PARENT 3 5 77 13 7 27 66 46 34 57
REMARK Flexibility Score: inf
ROOT
ATOM      1  C   UNL     1       4.660  -1.112   0.619  1.00  0.00     0.118 C 
ENDROOT
BRANCH   1   2
ATOM      2  N   UNL     1       3.215  -1.084   0.452  1.00  0.00    -0.352 N 
ATOM      3  O   UNL     1       1.201  -0.185  -0.025  1.00  0.00    -0.269 OA
ATOM      4  C   UNL     1       2.425  -0.127  -0.127  1.00  0.00     0.251 C 
ATOM      5  H   UNL     1       2.735  -1.867   0.807  1.00  0.00     0.163 HD
BRANCH   4   6
ATOM      6  C   UNL     1       3.042   0.990  -0.867  1.00  0.00     0.039 A 
ATOM      7  C   UNL     1       4.013   0.763  -1.847  1.00  0.00     0.016 A 
ATOM      8  C   UNL     1       2.618   2.287  -0.589  1.00  0.00     0.016 A 
ATOM      9  C   UNL     1       4.622   1.842  -2.492  1.00  0.00     0.027 A 
ATOM     10  C   UNL     1       3.203   3.356  -1.265  1.00  0.00     0.027 A 
ATOM     11  C   UNL     1       4.213   3.150  -2.223  1.00  0.00     0.038 A 
BRANCH  11  12
ATOM     12  N   UNL     1       4.806   4.282  -2.800  1.00  0.00    -0.362 N 
ATOM     13  H   UNL     1       4.235   5.084  -2.829  1.00  0.00     0.166 HD
BRANCH  12  14
ATOM     14  C   UNL     1       6.058   4.440  -3.329  1.00  0.00     0.087 C 
ATOM     15  C   UNL     1       6.671   5.562  -3.738  1.00  0.00     0.074 C 
BRANCH  15  16
ATOM     16  C   UNL     1       6.131   6.956  -3.699  1.00  0.00     0.222 C 
ATOM     17  O   UNL     1       6.558   7.749  -4.539  1.00  0.00    -0.286 OA
BRANCH  16  18
ATOM     18  C   UNL     1       5.142   7.302  -2.701  1.00  0.00     0.173 A 
ATOM     19  C   UNL     1       5.058   7.055  -1.341  1.00  0.00     0.054 A 
ATOM     20  O   UNL     1       3.992   7.919  -3.118  1.00  0.00    -0.461 OA
ATOM     21  C   UNL     1       3.780   7.500  -0.923  1.00  0.00     0.043 A 
ATOM     22  C   UNL     1       3.173   8.020  -2.041  1.00  0.00     0.196 A 
ENDBRANCH  16  18
ENDBRANCH  15  16
ENDBRANCH  12  14
ENDBRANCH  11  12
ENDBRANCH   4   6
ENDBRANCH   1   2
BRANCH   1  23
ATOM     23  C   UNL     1       5.082  -1.057   2.079  1.00  0.00     0.042 C 
BRANCH  23  24
ATOM     24  C   UNL     1       4.577  -2.217   2.923  1.00  0.00     0.118 C 
BRANCH  24  25
ATOM     25  N   UNL     1       5.011  -3.514   2.423  1.00  0.00    -0.352 N 
ATOM     26  C   UNL     1       5.769  -4.490   3.024  1.00  0.00     0.251 C 
ATOM     27  H   UNL     1       4.715  -3.726   1.508  1.00  0.00     0.163 HD
ATOM     28  O   UNL     1       6.168  -5.439   2.353  1.00  0.00    -0.269 OA
BRANCH  26  29
ATOM     29  C   UNL     1       6.119  -4.394   4.458  1.00  0.00     0.039 A 
ATOM     30  C   UNL     1       7.401  -4.774   4.866  1.00  0.00     0.014 A 
ATOM     31  C   UNL     1       5.191  -3.950   5.402  1.00  0.00     0.014 A 
ATOM     32  C   UNL     1       7.766  -4.649   6.208  1.00  0.00     0.010 A 
ATOM     33  C   UNL     1       5.588  -3.732   6.717  1.00  0.00     0.010 A 
ATOM     34  C   UNL     1       6.875  -4.093   7.140  1.00  0.00    -0.014 A 
BRANCH  34  35
ATOM     35  C   UNL     1       7.268  -3.886   8.558  1.00  0.00     0.031 A 
ATOM     36  C   UNL     1       6.512  -4.573   9.665  1.00  0.00     0.074 A 
ATOM     37  C   UNL     1       8.250  -3.013   8.856  1.00  0.00     0.049 A 
ATOM     38  N   UNL     1       6.680  -4.480  10.959  1.00  0.00    -0.248 NA
ATOM     39  C   UNL     1       5.401  -5.456   9.270  1.00  0.00     0.031 C 
ATOM     40  C   UNL     1       8.997  -2.215   7.881  1.00  0.00     0.029 A 
ATOM     41  N   UNL     1       8.772  -2.629  10.066  1.00  0.00    -0.354 N 
ATOM     42  C   UNL     1       5.677  -5.254  11.530  1.00  0.00     0.074 A 
ATOM     43  C   UNL     1       4.880  -5.780  10.445  1.00  0.00     0.031 C 
ATOM     44  C   UNL     1       9.884  -1.444   8.530  1.00  0.00     0.029 A 
ATOM     45  C   UNL     1       9.749  -1.667   9.965  1.00  0.00     0.049 A 
ATOM     46  H   UNL     1       8.475  -3.008  10.925  1.00  0.00     0.167 HD
ATOM     47  C   UNL     1       5.455  -5.528  12.838  1.00  0.00     0.034 A 
ATOM     48  C   UNL     1      10.453  -1.028  10.921  1.00  0.00     0.034 A 
ATOM     49  C   UNL     1       6.278  -5.041  13.911  1.00  0.00     0.049 A 
ATOM     50  C   UNL     1      10.225  -1.392  12.363  1.00  0.00     0.074 A 
ATOM     51  C   UNL     1       6.201  -5.345  15.259  1.00  0.00     0.029 A 
ATOM     52  N   UNL     1       7.322  -4.141  13.763  1.00  0.00    -0.354 N 
ATOM     53  N   UNL     1       9.384  -2.260  12.871  1.00  0.00    -0.248 NA
ATOM     54  C   UNL     1      11.070  -0.720  13.360  1.00  0.00     0.031 C 
ATOM     55  C   UNL     1       7.178  -4.603  15.930  1.00  0.00     0.029 A 
ATOM     56  C   UNL     1       7.888  -3.865  14.996  1.00  0.00     0.049 A 
ATOM     57  H   UNL     1       7.616  -3.754  12.907  1.00  0.00     0.167 HD
ATOM     58  C   UNL     1       9.621  -2.264  14.241  1.00  0.00     0.074 A 
ATOM     59  C   UNL     1      10.701  -1.328  14.479  1.00  0.00     0.031 C 
ATOM     60  C   UNL     1       8.994  -2.969  15.215  1.00  0.00     0.034 A 
BRANCH  47  61
ATOM     61  C   UNL     1       4.300  -6.435  13.178  1.00  0.00     0.023 A 
ATOM     62  C   UNL     1       4.367  -7.805  12.852  1.00  0.00     0.012 A 
ATOM     63  C   UNL     1       3.175  -5.944  13.870  1.00  0.00     0.148 A 
ATOM     64  C   UNL     1       3.317  -8.665  13.173  1.00  0.00     0.002 A 
ATOM     65  C   UNL     1       2.155  -6.817  14.230  1.00  0.00     0.091 A 
ATOM     66  F   UNL     1       3.119  -4.636  14.154  1.00  0.00    -0.205 F 
ATOM     67  C   UNL     1       2.218  -8.174  13.870  1.00  0.00     0.022 A 
BRANCH  65  68
ATOM     68  S   UNL     1       0.736  -6.300  15.203  1.00  0.00     0.127 S 
ATOM     69  O   UNL     1      -0.339  -6.364  14.213  1.00  0.00    -0.237 OA
ATOM     70  O   UNL     1       0.677  -7.336  16.235  1.00  0.00    -0.237 OA
ATOM     71  O   UNL     1       1.052  -4.968  15.697  1.00  0.00    -0.744 OA
ENDBRANCH  65  68
ENDBRANCH  47  61
BRANCH  48  72
ATOM     72  C   UNL     1      11.484  -0.023  10.537  1.00  0.00     0.023 A 
ATOM     73  C   UNL     1      12.848  -0.325  10.717  1.00  0.00     0.012 A 
ATOM     74  C   UNL     1      11.123   1.212   9.966  1.00  0.00     0.148 A 
ATOM     75  C   UNL     1      13.833   0.599  10.366  1.00  0.00     0.002 A 
ATOM     76  C   UNL     1      12.111   2.104   9.565  1.00  0.00     0.091 A 
ATOM     77  F   UNL     1       9.820   1.483   9.811  1.00  0.00    -0.205 F 
ATOM     78  C   UNL     1      13.466   1.808   9.781  1.00  0.00     0.022 A 
BRANCH  76  79
ATOM     79  S   UNL     1      11.736   3.622   8.680  1.00  0.00     0.127 S 
ATOM     80  O   UNL     1      12.073   4.638   9.673  1.00  0.00    -0.237 OA
ATOM     81  O   UNL     1      12.655   3.542   7.543  1.00  0.00    -0.237 OA
ATOM     82  O   UNL     1      10.328   3.531   8.319  1.00  0.00    -0.744 OA
ENDBRANCH  76  79
ENDBRANCH  48  72
BRANCH  60  83
ATOM     83  C   UNL     1       9.479  -2.791  16.630  1.00  0.00     0.023 A 
ATOM     84  C   UNL     1       9.221  -1.589  17.318  1.00  0.00     0.012 A 
ATOM     85  C   UNL     1      10.130  -3.845  17.301  1.00  0.00     0.148 A 
ATOM     86  C   UNL     1       9.635  -1.426  18.639  1.00  0.00     0.002 A 
ATOM     87  C   UNL     1      10.492  -3.695  18.634  1.00  0.00     0.091 A 
ATOM     88  F   UNL     1      10.383  -4.975  16.624  1.00  0.00    -0.205 F 
ATOM     89  C   UNL     1      10.259  -2.482  19.300  1.00  0.00     0.022 A 
BRANCH  87  90
ATOM     90  S   UNL     1      11.210  -5.034  19.593  1.00  0.00     0.127 S 
ATOM     91  O   UNL     1      12.597  -4.592  19.730  1.00  0.00    -0.237 OA
ATOM     92  O   UNL     1      10.428  -4.983  20.829  1.00  0.00    -0.237 OA
ATOM     93  O   UNL     1      11.013  -6.243  18.804  1.00  0.00    -0.744 OA
ENDBRANCH  87  90
ENDBRANCH  60  83
ENDBRANCH  34  35
ENDBRANCH  26  29
ENDBRANCH  24  25
ENDBRANCH  23  24
ENDBRANCH   1  23
TORSDOF 17
