REMARK SMILES C[C@@H](C(=O)NCCCNC(=O)c1ccc(-c2c3nc(c(-c4cccc(S(=O)(=O)[O-])c4F)c4ccc([nH]4)c(-c4cccc(S(=O)(=O)[O-])c4F)c4nc(c(-c5cccc(S(=O)(=O)[O-])c5F)c5ccc2[nH]5)C=C4)C=C3)cc1)c1cc(/C=C/S(C)(=O)=O)cc(C(=O)c2ccccc2)c1
REMARK SMILES IDX 7 1 6 2 5 3 3 4 4 5 2 7 1 8 75 9 76 10 94 11 77 12 85 13
REMARK SMILES IDX 84 14 78 15 79 16 80 17 81 18 82 19 83 20 86 21 87 22 88 23
REMARK SMILES IDX 89 24 93 25 90 26 92 27 91 28 8 29 9 30 10 31 11 33 12 34
REMARK SMILES IDX 13 35 74 36 14 37 73 38 15 39 16 40 17 41 67 42 18 43 72 44
REMARK SMILES IDX 66 45 68 46 19 47 71 48 65 49 64 50 20 52 52 53 32 54 51 55
REMARK SMILES IDX 33 56 36 57 50 58 69 59 34 60 35 61 49 63 70 64 37 65 21 66
REMARK SMILES IDX 22 67 30 68 23 69 25 70 31 71 24 72 26 73 27 74 28 75 29 76
REMARK SMILES IDX 53 77 54 78 62 79 55 80 57 81 63 82 56 83 58 84 59 85 60 86
REMARK SMILES IDX 61 87 38 88 39 89 47 90 40 91 42 92 48 93 41 94 43 95 44 96
REMARK SMILES IDX 45 97 46 98
REMARK H PARENT 5 6 9 32 68 51 36 62
REMARK Flexibility Score: inf
ROOT
ATOM      1  C   UNL     1       4.244   0.447  -1.204  1.00  0.00     0.042 C 
ENDROOT
BRANCH   1   2
ATOM      2  C   UNL     1       3.389   1.710  -1.150  1.00  0.00     0.117 C 
BRANCH   2   3
ATOM      3  N   UNL     1       2.305   1.659  -2.112  1.00  0.00    -0.356 N 
ATOM      4  C   UNL     1       0.985   1.366  -1.927  1.00  0.00     0.227 C 
ATOM      5  O   UNL     1       0.272   1.316  -2.930  1.00  0.00    -0.274 OA
ATOM      6  H   UNL     1       2.560   1.868  -3.040  1.00  0.00     0.163 HD
BRANCH   4   7
ATOM      7  C   UNL     1       0.444   1.175  -0.505  1.00  0.00     0.105 C 
ATOM      8  C   UNL     1       0.976  -0.105   0.157  1.00  0.00     0.023 C 
BRANCH   7   9
ATOM      9  C   UNL     1      -1.081   1.216  -0.462  1.00  0.00    -0.035 A 
ATOM     10  C   UNL     1      -1.752   2.429  -0.247  1.00  0.00     0.012 A 
ATOM     11  C   UNL     1      -1.837   0.049  -0.603  1.00  0.00     0.016 A 
ATOM     12  C   UNL     1      -3.148   2.480  -0.101  1.00  0.00    -0.024 A 
ATOM     13  C   UNL     1      -3.214   0.054  -0.375  1.00  0.00     0.023 A 
ATOM     14  C   UNL     1      -3.868   1.273  -0.145  1.00  0.00     0.020 A 
BRANCH  12  15
ATOM     15  C   UNL     1      -3.879   3.738   0.157  1.00  0.00     0.020 C 
ATOM     16  C   UNL     1      -3.322   4.959   0.212  1.00  0.00     0.106 C 
BRANCH  16  17
ATOM     17  S   UNL     1      -4.282   6.354   0.593  1.00  0.00     0.168 S 
ATOM     18  C   UNL     1      -3.452   6.955   2.046  1.00  0.00     0.163 C 
ATOM     19  O   UNL     1      -4.085   7.345  -0.445  1.00  0.00    -0.225 OA
ATOM     20  O   UNL     1      -5.620   5.965   1.000  1.00  0.00    -0.225 OA
ENDBRANCH  16  17
ENDBRANCH  12  15
BRANCH  13  21
ATOM     21  C   UNL     1      -3.982  -1.226  -0.350  1.00  0.00     0.193 C 
ATOM     22  O   UNL     1      -5.205  -1.219  -0.452  1.00  0.00    -0.289 OA
BRANCH  21  23
ATOM     23  C   UNL     1      -3.271  -2.525  -0.209  1.00  0.00     0.022 A 
ATOM     24  C   UNL     1      -3.522  -3.529  -1.148  1.00  0.00     0.012 A 
ATOM     25  C   UNL     1      -2.325  -2.731   0.806  1.00  0.00     0.012 A 
ATOM     26  C   UNL     1      -2.787  -4.716  -1.104  1.00  0.00     0.001 A 
ATOM     27  C   UNL     1      -1.589  -3.917   0.840  1.00  0.00     0.001 A 
ATOM     28  C   UNL     1      -1.815  -4.904  -0.120  1.00  0.00     0.000 A 
ENDBRANCH  21  23
ENDBRANCH  13  21
ENDBRANCH   7   9
ENDBRANCH   4   7
ENDBRANCH   2   3
ENDBRANCH   1   2
BRANCH   1  29
ATOM     29  C   UNL     1       5.008   0.279  -2.512  1.00  0.00     0.118 C 
BRANCH  29  30
ATOM     30  N   UNL     1       5.963   1.355  -2.736  1.00  0.00    -0.352 N 
ATOM     31  C   UNL     1       7.323   1.304  -2.907  1.00  0.00     0.251 C 
ATOM     32  H   UNL     1       5.572   2.258  -2.771  1.00  0.00     0.163 HD
ATOM     33  O   UNL     1       7.973   2.345  -2.864  1.00  0.00    -0.269 OA
BRANCH  31  34
ATOM     34  C   UNL     1       8.004   0.009  -3.126  1.00  0.00     0.039 A 
ATOM     35  C   UNL     1       9.226  -0.224  -2.491  1.00  0.00     0.014 A 
ATOM     36  C   UNL     1       7.458  -0.961  -3.971  1.00  0.00     0.014 A 
ATOM     37  C   UNL     1       9.870  -1.452  -2.657  1.00  0.00     0.010 A 
ATOM     38  C   UNL     1       8.059  -2.213  -4.070  1.00  0.00     0.010 A 
ATOM     39  C   UNL     1       9.274  -2.471  -3.419  1.00  0.00    -0.014 A 
BRANCH  39  40
ATOM     40  C   UNL     1       9.898  -3.815  -3.527  1.00  0.00     0.031 A 
ATOM     41  C   UNL     1      10.335  -4.350  -4.864  1.00  0.00     0.074 A 
ATOM     42  C   UNL     1       9.999  -4.588  -2.426  1.00  0.00     0.049 A 
ATOM     43  N   UNL     1      10.850  -5.517  -5.155  1.00  0.00    -0.248 NA
ATOM     44  C   UNL     1      10.148  -3.472  -6.032  1.00  0.00     0.031 C 
ATOM     45  C   UNL     1       9.544  -4.212  -1.085  1.00  0.00     0.029 A 
ATOM     46  N   UNL     1      10.492  -5.858  -2.263  1.00  0.00    -0.354 N 
ATOM     47  C   UNL     1      11.017  -5.527  -6.535  1.00  0.00     0.074 A 
ATOM     48  C   UNL     1      10.520  -4.262  -7.029  1.00  0.00     0.031 C 
ATOM     49  C   UNL     1       9.783  -5.225  -0.238  1.00  0.00     0.029 A 
ATOM     50  C   UNL     1      10.371  -6.337  -0.979  1.00  0.00     0.049 A 
ATOM     51  H   UNL     1      10.893  -6.379  -2.996  1.00  0.00     0.167 HD
ATOM     52  C   UNL     1      11.557  -6.492  -7.317  1.00  0.00     0.034 A 
ATOM     53  C   UNL     1      10.682  -7.539  -0.457  1.00  0.00     0.034 A 
ATOM     54  C   UNL     1      12.080  -7.735  -6.818  1.00  0.00     0.049 A 
ATOM     55  C   UNL     1      11.302  -8.583  -1.347  1.00  0.00     0.074 A 
ATOM     56  C   UNL     1      12.725  -8.739  -7.520  1.00  0.00     0.029 A 
ATOM     57  N   UNL     1      12.008  -8.154  -5.499  1.00  0.00    -0.354 N 
ATOM     58  N   UNL     1      11.594  -8.512  -2.623  1.00  0.00    -0.248 NA
ATOM     59  C   UNL     1      11.668  -9.860  -0.718  1.00  0.00     0.031 C 
ATOM     60  C   UNL     1      13.008  -9.781  -6.632  1.00  0.00     0.029 A 
ATOM     61  C   UNL     1      12.581  -9.407  -5.369  1.00  0.00     0.049 A 
ATOM     62  H   UNL     1      11.608  -7.636  -4.763  1.00  0.00     0.167 HD
ATOM     63  C   UNL     1      12.214  -9.715  -2.939  1.00  0.00     0.074 A 
ATOM     64  C   UNL     1      12.274 -10.488  -1.716  1.00  0.00     0.031 C 
ATOM     65  C   UNL     1      12.682 -10.146  -4.136  1.00  0.00     0.034 A 
BRANCH  52  66
ATOM     66  C   UNL     1      11.649  -6.231  -8.799  1.00  0.00     0.023 A 
ATOM     67  C   UNL     1      12.569  -5.279  -9.285  1.00  0.00     0.012 A 
ATOM     68  C   UNL     1      10.886  -6.984  -9.713  1.00  0.00     0.148 A 
ATOM     69  C   UNL     1      12.705  -5.059 -10.655  1.00  0.00     0.002 A 
ATOM     70  C   UNL     1      11.062  -6.793 -11.078  1.00  0.00     0.091 A 
ATOM     71  F   UNL     1      10.004  -7.871  -9.230  1.00  0.00    -0.205 F 
ATOM     72  C   UNL     1      11.961  -5.823 -11.550  1.00  0.00     0.022 A 
BRANCH  70  73
ATOM     73  S   UNL     1      10.215  -7.783 -12.314  1.00  0.00     0.127 S 
ATOM     74  O   UNL     1       9.336  -6.792 -12.934  1.00  0.00    -0.237 OA
ATOM     75  O   UNL     1      11.323  -8.228 -13.160  1.00  0.00    -0.237 OA
ATOM     76  O   UNL     1       9.538  -8.846 -11.586  1.00  0.00    -0.744 OA
ENDBRANCH  70  73
ENDBRANCH  52  66
BRANCH  53  77
ATOM     77  C   UNL     1      10.455  -7.811   0.991  1.00  0.00     0.023 A 
ATOM     78  C   UNL     1      11.559  -7.982   1.849  1.00  0.00     0.012 A 
ATOM     79  C   UNL     1       9.154  -7.893   1.523  1.00  0.00     0.148 A 
ATOM     80  C   UNL     1      11.371  -8.274   3.200  1.00  0.00     0.002 A 
ATOM     81  C   UNL     1       8.974  -8.124   2.881  1.00  0.00     0.091 A 
ATOM     82  F   UNL     1       8.116  -7.736   0.689  1.00  0.00    -0.205 F 
ATOM     83  C   UNL     1      10.081  -8.336   3.718  1.00  0.00     0.022 A 
BRANCH  81  84
ATOM     84  S   UNL     1       7.355  -8.084   3.657  1.00  0.00     0.127 S 
ATOM     85  O   UNL     1       7.148  -9.491   3.991  1.00  0.00    -0.237 OA
ATOM     86  O   UNL     1       7.590  -7.205   4.803  1.00  0.00    -0.237 OA
ATOM     87  O   UNL     1       6.452  -7.532   2.656  1.00  0.00    -0.744 OA
ENDBRANCH  81  84
ENDBRANCH  53  77
BRANCH  65  88
ATOM     88  C   UNL     1      13.349 -11.496  -4.183  1.00  0.00     0.023 A 
ATOM     89  C   UNL     1      12.583 -12.670  -4.043  1.00  0.00     0.012 A 
ATOM     90  C   UNL     1      14.732 -11.598  -4.438  1.00  0.00     0.148 A 
ATOM     91  C   UNL     1      13.189 -13.924  -4.117  1.00  0.00     0.002 A 
ATOM     92  C   UNL     1      15.318 -12.851  -4.566  1.00  0.00     0.091 A 
ATOM     93  F   UNL     1      15.446 -10.469  -4.552  1.00  0.00    -0.205 F 
ATOM     94  C   UNL     1      14.552 -14.014  -4.391  1.00  0.00     0.022 A 
BRANCH  92  95
ATOM     95  S   UNL     1      17.044 -13.066  -5.015  1.00  0.00     0.127 S 
ATOM     96  O   UNL     1      17.614 -13.575  -3.769  1.00  0.00    -0.237 OA
ATOM     97  O   UNL     1      16.961 -14.049  -6.095  1.00  0.00    -0.237 OA
ATOM     98  O   UNL     1      17.520 -11.752  -5.427  1.00  0.00    -0.744 OA
ENDBRANCH  92  95
ENDBRANCH  65  88
ENDBRANCH  39  40
ENDBRANCH  31  34
ENDBRANCH  29  30
ENDBRANCH   1  29
TORSDOF 18
