REMARK SMILES C#CCN(CC(=O)NCCCNC(=O)c1ccc(-c2c3nc(c(-c4cccc(S(=O)(=O)[O-])c4F)c4ccc([nH]4)c(-c4cccc(S(=O)(=O)[O-])c4F)c4nc(c(-c5cccc(S(=O)(=O)[O-])c5F)c5ccc2[nH]5)C=C4)C=C3)cc1)C(=O)N[C@@H]1CCOC1
REMARK SMILES IDX 10 1 9 2 8 3 6 4 7 5 5 7 4 8 3 9 2 10 1 11 78 12 79 13 80 14
REMARK SMILES IDX 81 16 82 17 85 18 83 19 84 20 11 21 12 22 13 23 14 25 15 26
REMARK SMILES IDX 16 27 77 28 17 29 76 30 18 31 19 32 20 33 70 34 21 35 75 36
REMARK SMILES IDX 69 37 71 38 22 39 74 40 68 41 67 42 23 44 55 45 35 46 54 47
REMARK SMILES IDX 36 48 39 49 53 50 72 51 37 52 38 53 52 55 73 56 40 57 24 58
REMARK SMILES IDX 25 59 33 60 26 61 28 62 34 63 27 64 29 65 30 66 31 67 32 68
REMARK SMILES IDX 56 69 57 70 65 71 58 72 60 73 66 74 59 75 61 76 62 77 63 78
REMARK SMILES IDX 64 79 41 80 42 81 50 82 43 83 45 84 51 85 44 86 46 87 47 88
REMARK SMILES IDX 48 89 49 90
REMARK H PARENT 8 6 80 15 12 24 71 43 39 54
REMARK Flexibility Score: inf
ROOT
ATOM      1  C   UNL     1      -4.987  -0.818   1.222  1.00  0.00     0.042 C 
ENDROOT
BRANCH   1   2
ATOM      2  C   UNL     1      -5.167  -0.288  -0.196  1.00  0.00     0.117 C 
BRANCH   2   3
ATOM      3  N   UNL     1      -5.460   1.128  -0.265  1.00  0.00    -0.354 N 
ATOM      4  C   UNL     1      -4.675   2.156  -0.689  1.00  0.00     0.239 C 
ATOM      5  O   UNL     1      -5.255   3.192  -1.036  1.00  0.00    -0.273 OA
ATOM      6  H   UNL     1      -6.360   1.385   0.041  1.00  0.00     0.163 HD
BRANCH   4   7
ATOM      7  C   UNL     1      -3.153   2.022  -0.871  1.00  0.00     0.222 C 
BRANCH   7   8
ATOM      8  N   UNL     1      -2.429   1.393   0.229  1.00  0.00    -0.304 N 
BRANCH   8   9
ATOM      9  C   UNL     1      -1.849   0.079  -0.056  1.00  0.00     0.211 C 
BRANCH   9  10
ATOM     10  C   UNL     1      -0.329   0.079  -0.056  1.00  0.00    -0.085 C 
ATOM     11  C   UNL     1       0.975   0.079  -0.056  1.00  0.00     0.006 C 
ENDBRANCH   9  10
ENDBRANCH   8   9
BRANCH   8  12
ATOM     12  C   UNL     1      -2.168   1.917   1.465  1.00  0.00     0.318 C 
ATOM     13  O   UNL     1      -1.547   1.276   2.319  1.00  0.00    -0.249 OA
ATOM     14  N   UNL     1      -2.548   3.142   1.869  1.00  0.00    -0.333 N 
ATOM     15  H   UNL     1      -2.080   3.408   2.693  1.00  0.00     0.165 HD
BRANCH  14  16
ATOM     16  C   UNL     1      -3.467   4.186   1.419  1.00  0.00     0.112 C 
ATOM     17  C   UNL     1      -3.065   5.556   1.927  1.00  0.00     0.056 C 
ATOM     18  C   UNL     1      -4.847   4.010   2.045  1.00  0.00     0.185 C 
ATOM     19  C   UNL     1      -3.782   5.692   3.254  1.00  0.00     0.162 C 
ATOM     20  O   UNL     1      -4.843   4.733   3.285  1.00  0.00    -0.379 OA
ENDBRANCH  14  16
ENDBRANCH   8  12
ENDBRANCH   7   8
ENDBRANCH   4   7
ENDBRANCH   2   3
ENDBRANCH   1   2
BRANCH   1  21
ATOM     21  C   UNL     1      -6.241  -0.783   2.089  1.00  0.00     0.118 C 
BRANCH  21  22
ATOM     22  N   UNL     1      -7.368  -1.474   1.479  1.00  0.00    -0.352 N 
ATOM     23  C   UNL     1      -8.056  -2.600   1.851  1.00  0.00     0.251 C 
ATOM     24  H   UNL     1      -7.694  -1.058   0.649  1.00  0.00     0.163 HD
ATOM     25  O   UNL     1      -8.831  -3.102   1.038  1.00  0.00    -0.269 OA
BRANCH  23  26
ATOM     26  C   UNL     1      -7.895  -3.216   3.189  1.00  0.00     0.039 A 
ATOM     27  C   UNL     1      -8.014  -4.607   3.300  1.00  0.00     0.014 A 
ATOM     28  C   UNL     1      -7.721  -2.448   4.343  1.00  0.00     0.014 A 
ATOM     29  C   UNL     1      -7.921  -5.223   4.551  1.00  0.00     0.010 A 
ATOM     30  C   UNL     1      -7.549  -3.070   5.580  1.00  0.00     0.010 A 
ATOM     31  C   UNL     1      -7.667  -4.462   5.702  1.00  0.00    -0.014 A 
BRANCH  31  32
ATOM     32  C   UNL     1      -7.532  -5.106   7.035  1.00  0.00     0.031 A 
ATOM     33  C   UNL     1      -8.511  -4.797   8.138  1.00  0.00     0.074 A 
ATOM     34  C   UNL     1      -6.487  -5.923   7.274  1.00  0.00     0.049 A 
ATOM     35  N   UNL     1      -8.538  -5.248   9.366  1.00  0.00    -0.248 NA
ATOM     36  C   UNL     1      -9.585  -3.838   7.831  1.00  0.00     0.031 C 
ATOM     37  C   UNL     1      -5.426  -6.240   6.316  1.00  0.00     0.029 A 
ATOM     38  N   UNL     1      -6.133  -6.620   8.402  1.00  0.00    -0.354 N 
ATOM     39  C   UNL     1      -9.603  -4.604   9.986  1.00  0.00     0.074 A 
ATOM     40  C   UNL     1     -10.177  -3.705   9.009  1.00  0.00     0.031 C 
ATOM     41  C   UNL     1      -4.547  -7.074   6.892  1.00  0.00     0.029 A 
ATOM     42  C   UNL     1      -4.965  -7.334   8.266  1.00  0.00     0.049 A 
ATOM     43  H   UNL     1      -6.663  -6.608   9.231  1.00  0.00     0.167 HD
ATOM     44  C   UNL     1     -10.082  -4.769  11.243  1.00  0.00     0.034 A 
ATOM     45  C   UNL     1      -4.308  -8.114   9.146  1.00  0.00     0.034 A 
ATOM     46  C   UNL     1      -9.540  -5.699  12.196  1.00  0.00     0.049 A 
ATOM     47  C   UNL     1      -4.893  -8.324  10.516  1.00  0.00     0.074 A 
ATOM     48  C   UNL     1     -10.004  -6.002  13.464  1.00  0.00     0.029 A 
ATOM     49  N   UNL     1      -8.412  -6.478  11.988  1.00  0.00    -0.354 N 
ATOM     50  N   UNL     1      -5.993  -7.829  11.028  1.00  0.00    -0.248 NA
ATOM     51  C   UNL     1      -4.168  -9.234  11.416  1.00  0.00     0.031 C 
ATOM     52  C   UNL     1      -9.148  -6.954  14.028  1.00  0.00     0.029 A 
ATOM     53  C   UNL     1      -8.163  -7.260  13.103  1.00  0.00     0.049 A 
ATOM     54  H   UNL     1      -7.868  -6.475  11.167  1.00  0.00     0.167 HD
ATOM     55  C   UNL     1      -6.115  -8.397  12.291  1.00  0.00     0.074 A 
ATOM     56  C   UNL     1      -4.986  -9.288  12.459  1.00  0.00     0.031 C 
ATOM     57  C   UNL     1      -7.069  -8.188  13.232  1.00  0.00     0.034 A 
BRANCH  44  58
ATOM     58  C   UNL     1     -11.297  -3.968  11.640  1.00  0.00     0.023 A 
ATOM     59  C   UNL     1     -12.551  -4.291  11.081  1.00  0.00     0.012 A 
ATOM     60  C   UNL     1     -11.215  -2.942  12.601  1.00  0.00     0.148 A 
ATOM     61  C   UNL     1     -13.696  -3.582  11.442  1.00  0.00     0.002 A 
ATOM     62  C   UNL     1     -12.369  -2.268  12.989  1.00  0.00     0.091 A 
ATOM     63  F   UNL     1     -10.013  -2.633  13.109  1.00  0.00    -0.205 F 
ATOM     64  C   UNL     1     -13.607  -2.579  12.402  1.00  0.00     0.022 A 
BRANCH  62  65
ATOM     65  S   UNL     1     -12.372  -1.015  14.277  1.00  0.00     0.127 S 
ATOM     66  O   UNL     1     -12.550   0.209  13.497  1.00  0.00    -0.237 OA
ATOM     67  O   UNL     1     -13.533  -1.399  15.080  1.00  0.00    -0.237 OA
ATOM     68  O   UNL     1     -11.094  -1.142  14.962  1.00  0.00    -0.744 OA
ENDBRANCH  62  65
ENDBRANCH  44  58
BRANCH  45  69
ATOM     69  C   UNL     1      -3.070  -8.829   8.723  1.00  0.00     0.023 A 
ATOM     70  C   UNL     1      -3.109 -10.226   8.545  1.00  0.00     0.012 A 
ATOM     71  C   UNL     1      -1.871  -8.137   8.463  1.00  0.00     0.148 A 
ATOM     72  C   UNL     1      -1.971 -10.925   8.145  1.00  0.00     0.002 A 
ATOM     73  C   UNL     1      -0.755  -8.833   8.013  1.00  0.00     0.091 A 
ATOM     74  F   UNL     1      -1.851  -6.810   8.649  1.00  0.00    -0.205 F 
ATOM     75  C   UNL     1      -0.798 -10.229   7.869  1.00  0.00     0.022 A 
BRANCH  73  76
ATOM     76  S   UNL     1       0.757  -8.006   7.508  1.00  0.00     0.127 S 
ATOM     77  O   UNL     1       1.667  -8.356   8.594  1.00  0.00    -0.237 OA
ATOM     78  O   UNL     1       1.045  -8.655   6.228  1.00  0.00    -0.237 OA
ATOM     79  O   UNL     1       0.412  -6.594   7.398  1.00  0.00    -0.744 OA
ENDBRANCH  73  76
ENDBRANCH  45  69
BRANCH  57  80
ATOM     80  C   UNL     1      -6.965  -8.967  14.518  1.00  0.00     0.023 A 
ATOM     81  C   UNL     1      -5.974  -8.631  15.462  1.00  0.00     0.012 A 
ATOM     82  C   UNL     1      -7.894  -9.982  14.820  1.00  0.00     0.148 A 
ATOM     83  C   UNL     1      -5.891  -9.316  16.674  1.00  0.00     0.002 A 
ATOM     84  C   UNL     1      -7.834 -10.627  16.050  1.00  0.00     0.091 A 
ATOM     85  F   UNL     1      -8.816 -10.301  13.900  1.00  0.00    -0.205 F 
ATOM     86  C   UNL     1      -6.826 -10.303  16.973  1.00  0.00     0.022 A 
BRANCH  84  87
ATOM     87  S   UNL     1      -9.055 -11.843  16.555  1.00  0.00     0.127 S 
ATOM     88  O   UNL     1      -8.312 -13.093  16.407  1.00  0.00    -0.237 OA
ATOM     89  O   UNL     1      -9.327 -11.457  17.940  1.00  0.00    -0.237 OA
ATOM     90  O   UNL     1     -10.185 -11.673  15.651  1.00  0.00    -0.744 OA
ENDBRANCH  84  87
ENDBRANCH  57  80
ENDBRANCH  31  32
ENDBRANCH  23  26
ENDBRANCH  21  22
ENDBRANCH   1  21
TORSDOF 18
