REMARK SMILES O=C(NCCCNC(=O)c1cncc(C(=O)c2ccsc2)c1)c1ccc(-c2c3nc(c(-c4cccc(S(=O)(=O)[O-])c4F)c4ccc([nH]4)c(-c4cccc(S(=O)(=O)[O-])c4F)c4nc(c(-c5cccc(S(=O)(=O)[O-])c5F)c5ccc2[nH]5)C=C4)C=C3)cc1
REMARK SMILES IDX 4 1 3 2 1 3 2 4 23 6 24 7 85 8 25 9 84 10 26 11 27 12 28 13
REMARK SMILES IDX 78 14 29 15 83 16 77 17 79 18 30 19 82 20 76 21 75 22 31 24
REMARK SMILES IDX 63 25 43 26 62 27 44 28 47 29 61 30 80 31 45 32 46 33 60 35
REMARK SMILES IDX 81 36 48 37 32 38 33 39 41 40 34 41 36 42 42 43 35 44 37 45
REMARK SMILES IDX 38 46 39 47 40 48 64 49 65 50 73 51 66 52 68 53 74 54 67 55
REMARK SMILES IDX 69 56 70 57 71 58 72 59 49 60 50 61 58 62 51 63 53 64 59 65
REMARK SMILES IDX 52 66 54 67 55 68 56 69 57 70 5 71 6 72 7 73 8 74 9 76 10 77
REMARK SMILES IDX 11 78 22 79 12 80 14 81 13 82 15 83 16 84 17 85 18 86 21 87
REMARK SMILES IDX 19 88 20 89
REMARK H PARENT 3 5 79 23 47 34 7 75
REMARK Flexibility Score: inf
ROOT
ATOM      1  C   UNL     1       4.514   0.875   0.992  1.00  0.00     0.118 C 
ENDROOT
BRANCH   1   2
ATOM      2  N   UNL     1       3.078   0.674   0.858  1.00  0.00    -0.352 N 
ATOM      3  O   UNL     1       1.156   0.138  -0.169  1.00  0.00    -0.269 OA
ATOM      4  C   UNL     1       2.372  -0.011  -0.101  1.00  0.00     0.251 C 
ATOM      5  H   UNL     1       2.530   1.093   1.560  1.00  0.00     0.163 HD
BRANCH   4   6
ATOM      6  C   UNL     1       3.076  -0.906  -1.046  1.00  0.00     0.039 A 
ATOM      7  C   UNL     1       4.120  -1.724  -0.607  1.00  0.00     0.014 A 
ATOM      8  C   UNL     1       2.657  -0.966  -2.378  1.00  0.00     0.014 A 
ATOM      9  C   UNL     1       4.835  -2.491  -1.517  1.00  0.00     0.010 A 
ATOM     10  C   UNL     1       3.310  -1.817  -3.274  1.00  0.00     0.010 A 
ATOM     11  C   UNL     1       4.413  -2.575  -2.852  1.00  0.00    -0.014 A 
BRANCH  11  12
ATOM     12  C   UNL     1       5.048  -3.576  -3.744  1.00  0.00     0.031 A 
ATOM     13  C   UNL     1       5.807  -3.170  -4.973  1.00  0.00     0.074 A 
ATOM     14  C   UNL     1       4.895  -4.880  -3.433  1.00  0.00     0.049 A 
ATOM     15  N   UNL     1       6.409  -3.932  -5.848  1.00  0.00    -0.248 NA
ATOM     16  C   UNL     1       5.900  -1.731  -5.267  1.00  0.00     0.031 C 
ATOM     17  C   UNL     1       4.124  -5.387  -2.292  1.00  0.00     0.029 A 
ATOM     18  N   UNL     1       5.356  -6.014  -4.048  1.00  0.00    -0.354 N 
ATOM     19  C   UNL     1       6.912  -3.077  -6.820  1.00  0.00     0.074 A 
ATOM     20  C   UNL     1       6.554  -1.732  -6.424  1.00  0.00     0.031 C 
ATOM     21  C   UNL     1       4.170  -6.725  -2.286  1.00  0.00     0.029 A 
ATOM     22  C   UNL     1       4.921  -7.175  -3.451  1.00  0.00     0.049 A 
ATOM     23  H   UNL     1       5.941  -6.000  -4.840  1.00  0.00     0.167 HD
ATOM     24  C   UNL     1       7.615  -3.392  -7.933  1.00  0.00     0.034 A 
ATOM     25  C   UNL     1       5.074  -8.461  -3.817  1.00  0.00     0.034 A 
ATOM     26  C   UNL     1       8.005  -4.731  -8.290  1.00  0.00     0.049 A 
ATOM     27  C   UNL     1       5.872  -8.769  -5.049  1.00  0.00     0.074 A 
ATOM     28  C   UNL     1       8.824  -5.137  -9.328  1.00  0.00     0.029 A 
ATOM     29  N   UNL     1       7.586  -5.880  -7.638  1.00  0.00    -0.354 N 
ATOM     30  N   UNL     1       6.498  -7.943  -5.850  1.00  0.00    -0.248 NA
ATOM     31  C   UNL     1       6.002 -10.185  -5.418  1.00  0.00     0.031 C 
ATOM     32  C   UNL     1       8.874  -6.535  -9.325  1.00  0.00     0.029 A 
ATOM     33  C   UNL     1       8.100  -6.998  -8.273  1.00  0.00     0.049 A 
ATOM     34  H   UNL     1       7.008  -5.899  -6.841  1.00  0.00     0.167 HD
ATOM     35  C   UNL     1       7.104  -8.736  -6.815  1.00  0.00     0.074 A 
ATOM     36  C   UNL     1       6.803 -10.112  -6.473  1.00  0.00     0.031 C 
ATOM     37  C   UNL     1       7.821  -8.360  -7.901  1.00  0.00     0.034 A 
BRANCH  24  38
ATOM     38  C   UNL     1       8.052  -2.278  -8.846  1.00  0.00     0.023 A 
ATOM     39  C   UNL     1       9.155  -1.479  -8.491  1.00  0.00     0.012 A 
ATOM     40  C   UNL     1       7.450  -2.109 -10.110  1.00  0.00     0.148 A 
ATOM     41  C   UNL     1       9.650  -0.521  -9.375  1.00  0.00     0.002 A 
ATOM     42  C   UNL     1       7.970  -1.176 -10.999  1.00  0.00     0.091 A 
ATOM     43  F   UNL     1       6.390  -2.869 -10.418  1.00  0.00    -0.205 F 
ATOM     44  C   UNL     1       9.066  -0.378 -10.632  1.00  0.00     0.022 A 
BRANCH  42  45
ATOM     45  S   UNL     1       7.336  -0.964 -12.667  1.00  0.00     0.127 S 
ATOM     46  O   UNL     1       6.742   0.370 -12.588  1.00  0.00    -0.237 OA
ATOM     47  O   UNL     1       8.556  -1.040 -13.471  1.00  0.00    -0.237 OA
ATOM     48  O   UNL     1       6.394  -2.052 -12.882  1.00  0.00    -0.744 OA
ENDBRANCH  42  45
ENDBRANCH  24  38
BRANCH  25  49
ATOM     49  C   UNL     1       4.458  -9.542  -2.999  1.00  0.00     0.023 A 
ATOM     50  C   UNL     1       5.281 -10.420  -2.271  1.00  0.00     0.012 A 
ATOM     51  C   UNL     1       3.059  -9.675  -2.906  1.00  0.00     0.148 A 
ATOM     52  C   UNL     1       4.722 -11.428  -1.484  1.00  0.00     0.002 A 
ATOM     53  C   UNL     1       2.508 -10.641  -2.073  1.00  0.00     0.091 A 
ATOM     54  F   UNL     1       2.288  -8.845  -3.624  1.00  0.00    -0.205 F 
ATOM     55  C   UNL     1       3.337 -11.530  -1.374  1.00  0.00     0.022 A 
BRANCH  53  56
ATOM     56  S   UNL     1       0.739 -10.721  -1.768  1.00  0.00     0.127 S 
ATOM     57  O   UNL     1       0.324 -11.778  -2.685  1.00  0.00    -0.237 OA
ATOM     58  O   UNL     1       0.684 -11.079  -0.349  1.00  0.00    -0.237 OA
ATOM     59  O   UNL     1       0.244  -9.382  -2.060  1.00  0.00    -0.744 OA
ENDBRANCH  53  56
ENDBRANCH  25  49
BRANCH  37  60
ATOM     60  C   UNL     1       8.324  -9.450  -8.806  1.00  0.00     0.023 A 
ATOM     61  C   UNL     1       7.417 -10.115  -9.654  1.00  0.00     0.012 A 
ATOM     62  C   UNL     1       9.694  -9.768  -8.867  1.00  0.00     0.148 A 
ATOM     63  C   UNL     1       7.862 -11.100 -10.533  1.00  0.00     0.002 A 
ATOM     64  C   UNL     1      10.137 -10.720  -9.778  1.00  0.00     0.091 A 
ATOM     65  F   UNL     1      10.536  -9.135  -8.038  1.00  0.00    -0.205 F 
ATOM     66  C   UNL     1       9.221 -11.394 -10.603  1.00  0.00     0.022 A 
BRANCH  64  67
ATOM     67  S   UNL     1      11.877 -11.103 -10.003  1.00  0.00     0.127 S 
ATOM     68  O   UNL     1      11.963 -12.445  -9.431  1.00  0.00    -0.237 OA
ATOM     69  O   UNL     1      12.021 -11.049 -11.458  1.00  0.00    -0.237 OA
ATOM     70  O   UNL     1      12.612 -10.071  -9.284  1.00  0.00    -0.744 OA
ENDBRANCH  64  67
ENDBRANCH  37  60
ENDBRANCH  11  12
ENDBRANCH   4   6
ENDBRANCH   1   2
BRANCH   1  71
ATOM     71  C   UNL     1       4.916   2.318   0.749  1.00  0.00     0.042 C 
BRANCH  71  72
ATOM     72  C   UNL     1       4.375   3.278   1.794  1.00  0.00     0.118 C 
BRANCH  72  73
ATOM     73  N   UNL     1       4.962   3.054   3.113  1.00  0.00    -0.352 N 
ATOM     74  C   UNL     1       5.831   3.835   3.834  1.00  0.00     0.252 C 
ATOM     75  H   UNL     1       4.693   2.215   3.553  1.00  0.00     0.163 HD
ATOM     76  O   UNL     1       6.377   3.401   4.843  1.00  0.00    -0.269 OA
BRANCH  74  77
ATOM     77  C   UNL     1       6.104   5.213   3.401  1.00  0.00     0.058 A 
ATOM     78  C   UNL     1       7.403   5.687   3.368  1.00  0.00     0.124 A 
ATOM     79  C   UNL     1       5.069   6.057   3.000  1.00  0.00     0.029 A 
ATOM     80  N   UNL     1       7.725   6.915   2.892  1.00  0.00    -0.263 NA
ATOM     81  C   UNL     1       5.366   7.299   2.445  1.00  0.00     0.042 A 
ATOM     82  C   UNL     1       6.704   7.679   2.416  1.00  0.00     0.123 A 
BRANCH  81  83
ATOM     83  C   UNL     1       4.348   8.152   1.774  1.00  0.00     0.195 C 
ATOM     84  O   UNL     1       4.707   9.178   1.204  1.00  0.00    -0.289 OA
BRANCH  83  85
ATOM     85  C   UNL     1       2.961   7.691   1.711  1.00  0.00     0.033 A 
ATOM     86  C   UNL     1       2.094   7.376   2.812  1.00  0.00     0.024 A 
ATOM     87  C   UNL     1       2.303   7.514   0.507  1.00  0.00     0.077 A 
ATOM     88  C   UNL     1       0.863   6.912   2.402  1.00  0.00     0.065 A 
ATOM     89  S   UNL     1       0.719   6.898   0.700  1.00  0.00    -0.152 S 
ENDBRANCH  83  85
ENDBRANCH  81  83
ENDBRANCH  74  77
ENDBRANCH  72  73
ENDBRANCH  71  72
ENDBRANCH   1  71
TORSDOF 15
