REMARK SMILES O=C(NCCCNC(=O)c1ccc(-c2c3nc(c(-c4cccc(S(=O)(=O)[O-])c4F)c4ccc([nH]4)c(-c4cccc(S(=O)(=O)[O-])c4F)c4nc(c(-c5cccc(S(=O)(=O)[O-])c5F)c5ccc2[nH]5)C=C4)C=C3)cc1)C1=Cc2cc(Cl)c(Cl)c(Cl)c2O[C@@H]1C(F)(F)F
REMARK SMILES IDX 6 1 5 2 4 3 3 4 1 5 2 6 73 8 74 9 85 10 75 11 84 12 76 13
REMARK SMILES IDX 83 14 77 15 81 16 78 17 79 18 82 19 80 20 86 21 87 22 88 23
REMARK SMILES IDX 89 24 7 25 8 26 9 28 10 29 11 30 72 31 12 32 71 33 13 34
REMARK SMILES IDX 14 35 15 36 65 37 16 38 70 39 64 40 66 41 17 42 69 43 63 44
REMARK SMILES IDX 62 45 18 47 50 48 30 49 49 50 31 51 34 52 48 53 67 54 32 55
REMARK SMILES IDX 33 56 47 58 68 59 35 60 19 61 20 62 28 63 21 64 23 65 29 66
REMARK SMILES IDX 22 67 24 68 25 69 26 70 27 71 51 72 52 73 60 74 53 75 55 76
REMARK SMILES IDX 61 77 54 78 56 79 57 80 58 81 59 82 36 83 37 84 45 85 38 86
REMARK SMILES IDX 40 87 46 88 39 89 41 90 42 91 43 92 44 93
REMARK H PARENT 3 7 7 27 66 46 34 57
REMARK Flexibility Score: inf
ROOT
ATOM      1  C   UNL     1       3.931   3.675   1.707  1.00  0.00     0.118 C 
ENDROOT
BRANCH   1   2
ATOM      2  C   UNL     1       4.138   2.718   0.542  1.00  0.00     0.042 C 
BRANCH   2   3
ATOM      3  C   UNL     1       3.417   1.396   0.762  1.00  0.00     0.118 C 
BRANCH   3   4
ATOM      4  N   UNL     1       2.423   1.095  -0.271  1.00  0.00    -0.352 N 
ATOM      5  O   UNL     1       1.210  -0.265  -1.629  1.00  0.00    -0.270 OA
ATOM      6  C   UNL     1       2.234  -0.057  -0.995  1.00  0.00     0.251 C 
ATOM      7  H   UNL     1       1.798   1.827  -0.476  1.00  0.00     0.163 HD
BRANCH   6   8
ATOM      8  C   UNL     1       3.289  -1.083  -0.894  1.00  0.00     0.067 C 
ATOM      9  C   UNL     1       4.505  -0.753  -1.347  1.00  0.00     0.025 C 
ATOM     10  C   UNL     1       3.043  -2.210   0.056  1.00  0.00     0.314 C 
ATOM     11  C   UNL     1       5.592  -1.110  -0.426  1.00  0.00     0.020 A 
ATOM     12  O   UNL     1       4.067  -2.289   1.077  1.00  0.00    -0.474 OA
ATOM     13  C   UNL     1       6.812  -0.452  -0.599  1.00  0.00     0.034 A 
ATOM     14  C   UNL     1       5.287  -1.704   0.815  1.00  0.00     0.148 A 
ATOM     15  C   UNL     1       7.667  -0.268   0.490  1.00  0.00     0.062 A 
ATOM     16  C   UNL     1       6.162  -1.538   1.904  1.00  0.00     0.103 A 
ATOM     17  Cl  UNL     1       9.061   0.722   0.227  1.00  0.00    -0.083 Cl
ATOM     18  C   UNL     1       7.338  -0.784   1.753  1.00  0.00     0.082 A 
ATOM     19  Cl  UNL     1       5.676  -2.144   3.462  1.00  0.00    -0.079 Cl
ATOM     20  Cl  UNL     1       8.332  -0.418   3.131  1.00  0.00    -0.081 Cl
BRANCH  10  21
ATOM     21  C   UNL     1       2.893  -3.555  -0.671  1.00  0.00     0.429 C 
ATOM     22  F   UNL     1       2.533  -4.535   0.195  1.00  0.00    -0.167 F 
ATOM     23  F   UNL     1       1.940  -3.515  -1.630  1.00  0.00    -0.167 F 
ATOM     24  F   UNL     1       4.045  -3.950  -1.261  1.00  0.00    -0.167 F 
ENDBRANCH  10  21
ENDBRANCH   6   8
ENDBRANCH   3   4
ENDBRANCH   2   3
ENDBRANCH   1   2
BRANCH   1  25
ATOM     25  N   UNL     1       4.607   3.264   2.937  1.00  0.00    -0.352 N 
ATOM     26  C   UNL     1       5.519   3.949   3.720  1.00  0.00     0.251 C 
ATOM     27  H   UNL     1       4.377   2.362   3.258  1.00  0.00     0.163 HD
ATOM     28  O   UNL     1       6.032   3.403   4.684  1.00  0.00    -0.269 OA
BRANCH  26  29
ATOM     29  C   UNL     1       5.896   5.334   3.356  1.00  0.00     0.039 A 
ATOM     30  C   UNL     1       7.244   5.703   3.339  1.00  0.00     0.014 A 
ATOM     31  C   UNL     1       4.917   6.243   2.965  1.00  0.00     0.014 A 
ATOM     32  C   UNL     1       7.614   6.946   2.812  1.00  0.00     0.010 A 
ATOM     33  C   UNL     1       5.293   7.412   2.324  1.00  0.00     0.010 A 
ATOM     34  C   UNL     1       6.645   7.784   2.238  1.00  0.00    -0.014 A 
BRANCH  34  35
ATOM     35  C   UNL     1       6.971   9.060   1.546  1.00  0.00     0.031 A 
ATOM     36  C   UNL     1       6.270  10.322   1.977  1.00  0.00     0.074 A 
ATOM     37  C   UNL     1       7.744   9.062   0.440  1.00  0.00     0.049 A 
ATOM     38  N   UNL     1       6.162  11.466   1.356  1.00  0.00    -0.248 NA
ATOM     39  C   UNL     1       5.527  10.259   3.249  1.00  0.00     0.031 C 
ATOM     40  C   UNL     1       8.426   7.898  -0.129  1.00  0.00     0.029 A 
ATOM     41  N   UNL     1       8.050  10.080  -0.431  1.00  0.00    -0.354 N 
ATOM     42  C   UNL     1       5.273  12.222   2.112  1.00  0.00     0.074 A 
ATOM     43  C   UNL     1       4.843  11.392   3.216  1.00  0.00     0.031 C 
ATOM     44  C   UNL     1       9.077   8.268  -1.244  1.00  0.00     0.029 A 
ATOM     45  C   UNL     1       8.821   9.681  -1.499  1.00  0.00     0.049 A 
ATOM     46  H   UNL     1       7.746  11.007  -0.303  1.00  0.00     0.167 HD
ATOM     47  C   UNL     1       4.874  13.502   1.926  1.00  0.00     0.034 A 
ATOM     48  C   UNL     1       9.261  10.374  -2.568  1.00  0.00     0.034 A 
ATOM     49  C   UNL     1       5.394  14.354   0.894  1.00  0.00     0.049 A 
ATOM     50  C   UNL     1       8.894  11.828  -2.694  1.00  0.00     0.074 A 
ATOM     51  C   UNL     1       5.147  15.697   0.679  1.00  0.00     0.029 A 
ATOM     52  N   UNL     1       6.293  13.949  -0.081  1.00  0.00    -0.354 N 
ATOM     53  N   UNL     1       8.140  12.559  -1.909  1.00  0.00    -0.248 NA
ATOM     54  C   UNL     1       9.461  12.563  -3.834  1.00  0.00     0.031 C 
ATOM     55  C   UNL     1       5.904  16.107  -0.425  1.00  0.00     0.029 A 
ATOM     56  C   UNL     1       6.627  15.019  -0.890  1.00  0.00     0.049 A 
ATOM     57  H   UNL     1       6.643  13.034  -0.182  1.00  0.00     0.167 HD
ATOM     58  C   UNL     1       8.178  13.846  -2.432  1.00  0.00     0.074 A 
ATOM     59  C   UNL     1       9.037  13.798  -3.598  1.00  0.00     0.031 C 
ATOM     60  C   UNL     1       7.547  14.964  -1.997  1.00  0.00     0.034 A 
BRANCH  47  61
ATOM     61  C   UNL     1       3.884  14.072   2.909  1.00  0.00     0.023 A 
ATOM     62  C   UNL     1       4.286  14.317   4.239  1.00  0.00     0.012 A 
ATOM     63  C   UNL     1       2.566  14.383   2.521  1.00  0.00     0.148 A 
ATOM     64  C   UNL     1       3.381  14.807   5.179  1.00  0.00     0.002 A 
ATOM     65  C   UNL     1       1.683  14.920   3.452  1.00  0.00     0.091 A 
ATOM     66  F   UNL     1       2.189  14.125   1.260  1.00  0.00    -0.205 F 
ATOM     67  C   UNL     1       2.083  15.117   4.783  1.00  0.00     0.022 A 
BRANCH  65  68
ATOM     68  S   UNL     1       0.017  15.430   3.013  1.00  0.00     0.127 S 
ATOM     69  O   UNL     1      -0.780  14.324   3.543  1.00  0.00    -0.237 OA
ATOM     70  O   UNL     1      -0.127  16.689   3.745  1.00  0.00    -0.237 OA
ATOM     71  O   UNL     1       0.016  15.573   1.564  1.00  0.00    -0.744 OA
ENDBRANCH  65  68
ENDBRANCH  47  61
BRANCH  48  72
ATOM     72  C   UNL     1      10.177   9.725  -3.550  1.00  0.00     0.023 A 
ATOM     73  C   UNL     1      11.536  10.098  -3.557  1.00  0.00     0.012 A 
ATOM     74  C   UNL     1       9.737   8.723  -4.436  1.00  0.00     0.148 A 
ATOM     75  C   UNL     1      12.434   9.507  -4.446  1.00  0.00     0.002 A 
ATOM     76  C   UNL     1      10.648   8.101  -5.285  1.00  0.00     0.091 A 
ATOM     77  F   UNL     1       8.439   8.386  -4.421  1.00  0.00    -0.205 F 
ATOM     78  C   UNL     1      11.993   8.502  -5.302  1.00  0.00     0.022 A 
BRANCH  76  79
ATOM     79  S   UNL     1      10.199   6.712  -6.333  1.00  0.00     0.127 S 
ATOM     80  O   UNL     1      10.251   7.311  -7.664  1.00  0.00    -0.237 OA
ATOM     81  O   UNL     1      11.270   5.757  -6.045  1.00  0.00    -0.237 OA
ATOM     82  O   UNL     1       8.881   6.287  -5.880  1.00  0.00    -0.744 OA
ENDBRANCH  76  79
ENDBRANCH  48  72
BRANCH  60  83
ATOM     83  C   UNL     1       7.800  16.248  -2.739  1.00  0.00     0.023 A 
ATOM     84  C   UNL     1       7.183  16.471  -3.984  1.00  0.00     0.012 A 
ATOM     85  C   UNL     1       8.563  17.275  -2.147  1.00  0.00     0.148 A 
ATOM     86  C   UNL     1       7.336  17.692  -4.639  1.00  0.00     0.002 A 
ATOM     87  C   UNL     1       8.674  18.504  -2.785  1.00  0.00     0.091 A 
ATOM     88  F   UNL     1       9.158  17.032  -0.970  1.00  0.00    -0.205 F 
ATOM     89  C   UNL     1       8.069  18.711  -4.035  1.00  0.00     0.022 A 
BRANCH  87  90
ATOM     90  S   UNL     1       9.515  19.902  -2.034  1.00  0.00     0.127 S 
ATOM     91  O   UNL     1      10.747  19.965  -2.818  1.00  0.00    -0.237 OA
ATOM     92  O   UNL     1       8.578  20.998  -2.280  1.00  0.00    -0.237 OA
ATOM     93  O   UNL     1       9.684  19.559  -0.628  1.00  0.00    -0.744 OA
ENDBRANCH  87  90
ENDBRANCH  60  83
ENDBRANCH  34  35
ENDBRANCH  26  29
ENDBRANCH   1  25
TORSDOF 14
