REMARK SMILES C[C@@H]1C[N@@H+](C[C@]2(C(=O)NCCCNC(=O)c3ccc(-c4c5nc(c(-c6cccc(S(=O)(=O)[O-])c6F)c6ccc([nH]6)c(-c6cccc(S(=O)(=O)[O-])c6F)c6nc(c(-c7cccc(S(=O)(=O)[O-])c7F)c7ccc4[nH]7)C=C6)C=C5)cc3)CCOC2)C[C@@H]1C
REMARK SMILES IDX 11 1 10 2 9 3 7 4 8 5 6 7 79 8 82 9 80 10 81 11 5 12 4 13
REMARK SMILES IDX 1 14 2 15 3 16 84 17 83 18 85 19 12 21 13 22 14 23 15 25
REMARK SMILES IDX 16 26 17 27 78 28 18 29 77 30 19 31 20 32 21 33 71 34 22 35
REMARK SMILES IDX 76 36 70 37 72 38 23 39 75 40 69 41 68 42 24 44 56 45 36 46
REMARK SMILES IDX 55 47 37 48 40 49 54 50 73 51 38 52 39 53 53 55 74 56 41 57
REMARK SMILES IDX 25 58 26 59 34 60 27 61 29 62 35 63 28 64 30 65 31 66 32 67
REMARK SMILES IDX 33 68 57 69 58 70 66 71 59 72 61 73 67 74 60 75 62 76 63 77
REMARK SMILES IDX 64 78 65 79 42 80 43 81 51 82 44 83 46 84 52 85 45 86 47 87
REMARK SMILES IDX 48 88 49 89 50 90
REMARK H PARENT 9 6 4 20 13 24 72 43 40 54
REMARK Flexibility Score: inf
ROOT
ATOM      1  C   UNL     1      -1.252   8.153  -1.179  1.00  0.00     0.042 C 
ENDROOT
BRANCH   1   2
ATOM      2  C   UNL     1      -0.900   7.066  -2.188  1.00  0.00     0.117 C 
BRANCH   2   3
ATOM      3  N   UNL     1       0.008   6.079  -1.626  1.00  0.00    -0.355 N 
ATOM      4  C   UNL     1      -0.080   4.832  -1.119  1.00  0.00     0.234 C 
ATOM      5  O   UNL     1       0.999   4.417  -0.665  1.00  0.00    -0.274 OA
ATOM      6  H   UNL     1       0.935   6.410  -1.612  1.00  0.00     0.163 HD
BRANCH   4   7
ATOM      7  C   UNL     1      -1.325   3.919  -1.074  1.00  0.00     0.123 C 
ATOM      8  C   UNL     1      -0.913   2.573  -1.684  1.00  0.00     0.054 C 
ATOM      9  C   UNL     1      -1.527   3.525   0.393  1.00  0.00     0.183 C 
ATOM     10  C   UNL     1      -1.497   1.516  -0.772  1.00  0.00     0.161 C 
ATOM     11  O   UNL     1      -1.915   2.146   0.438  1.00  0.00    -0.380 OA
BRANCH   7  12
ATOM     12  C   UNL     1      -2.607   4.492  -1.728  1.00  0.00     0.281 C 
BRANCH  12  13
ATOM     13  N   UNL     1      -3.870   3.788  -1.780  1.00  0.00    -0.333 N 
ATOM     14  C   UNL     1      -6.398   1.992   0.228  1.00  0.00     0.014 C 
ATOM     15  C   UNL     1      -5.191   2.267  -0.650  1.00  0.00     0.049 C 
ATOM     16  C   UNL     1      -4.749   3.722  -0.633  1.00  0.00     0.265 C 
ATOM     17  C   UNL     1      -5.316   1.950  -2.149  1.00  0.00     0.049 C 
ATOM     18  C   UNL     1      -4.165   2.767  -2.763  1.00  0.00     0.265 C 
ATOM     19  C   UNL     1      -6.658   2.326  -2.775  1.00  0.00     0.014 C 
ATOM     20  H   UNL     1      -4.073   4.659  -2.270  1.00  0.00     0.348 HD
ENDBRANCH  12  13
ENDBRANCH   7  12
ENDBRANCH   4   7
ENDBRANCH   2   3
ENDBRANCH   1   2
BRANCH   1  21
ATOM     21  C   UNL     1      -0.070   9.047  -0.806  1.00  0.00     0.118 C 
BRANCH  21  22
ATOM     22  N   UNL     1       0.495   9.727  -1.966  1.00  0.00    -0.352 N 
ATOM     23  C   UNL     1       0.594  11.065  -2.251  1.00  0.00     0.251 C 
ATOM     24  H   UNL     1       0.866   9.130  -2.655  1.00  0.00     0.163 HD
ATOM     25  O   UNL     1       0.884  11.415  -3.392  1.00  0.00    -0.269 OA
BRANCH  23  26
ATOM     26  C   UNL     1       0.360  12.079  -1.202  1.00  0.00     0.039 A 
ATOM     27  C   UNL     1      -0.317  13.256  -1.537  1.00  0.00     0.014 A 
ATOM     28  C   UNL     1       0.849  11.899   0.095  1.00  0.00     0.014 A 
ATOM     29  C   UNL     1      -0.545  14.227  -0.560  1.00  0.00     0.010 A 
ATOM     30  C   UNL     1       0.555  12.832   1.084  1.00  0.00     0.010 A 
ATOM     31  C   UNL     1      -0.134  14.011   0.765  1.00  0.00    -0.014 A 
BRANCH  31  32
ATOM     32  C   UNL     1      -0.413  15.006   1.831  1.00  0.00     0.031 A 
ATOM     33  C   UNL     1       0.724  15.691   2.543  1.00  0.00     0.074 A 
ATOM     34  C   UNL     1      -1.687  15.232   2.209  1.00  0.00     0.049 A 
ATOM     35  N   UNL     1       0.682  16.534   3.542  1.00  0.00    -0.248 NA
ATOM     36  C   UNL     1       2.088  15.371   2.089  1.00  0.00     0.031 C 
ATOM     37  C   UNL     1      -2.868  14.573   1.646  1.00  0.00     0.029 A 
ATOM     38  N   UNL     1      -2.201  16.061   3.175  1.00  0.00    -0.354 N 
ATOM     39  C   UNL     1       2.006  16.825   3.852  1.00  0.00     0.074 A 
ATOM     40  C   UNL     1       2.830  16.036   2.962  1.00  0.00     0.031 C 
ATOM     41  C   UNL     1      -3.966  15.025   2.273  1.00  0.00     0.029 A 
ATOM     42  C   UNL     1      -3.569  15.983   3.298  1.00  0.00     0.049 A 
ATOM     43  H   UNL     1      -1.643  16.655   3.727  1.00  0.00     0.167 HD
ATOM     44  C   UNL     1       2.492  17.698   4.766  1.00  0.00     0.034 A 
ATOM     45  C   UNL     1      -4.406  16.612   4.146  1.00  0.00     0.034 A 
ATOM     46  C   UNL     1       1.668  18.512   5.617  1.00  0.00     0.049 A 
ATOM     47  C   UNL     1      -3.837  17.602   5.127  1.00  0.00     0.074 A 
ATOM     48  C   UNL     1       2.061  19.464   6.542  1.00  0.00     0.029 A 
ATOM     49  N   UNL     1       0.283  18.477   5.643  1.00  0.00    -0.354 N 
ATOM     50  N   UNL     1      -2.590  17.964   5.307  1.00  0.00    -0.248 NA
ATOM     51  C   UNL     1      -4.796  18.302   5.995  1.00  0.00     0.031 C 
ATOM     52  C   UNL     1       0.912  20.003   7.129  1.00  0.00     0.029 A 
ATOM     53  C   UNL     1      -0.196  19.397   6.559  1.00  0.00     0.049 A 
ATOM     54  H   UNL     1      -0.278  17.886   5.091  1.00  0.00     0.167 HD
ATOM     55  C   UNL     1      -2.619  18.960   6.276  1.00  0.00     0.074 A 
ATOM     56  C   UNL     1      -4.009  19.163   6.626  1.00  0.00     0.031 C 
ATOM     57  C   UNL     1      -1.587  19.634   6.841  1.00  0.00     0.034 A 
BRANCH  44  58
ATOM     58  C   UNL     1       3.986  17.881   4.836  1.00  0.00     0.023 A 
ATOM     59  C   UNL     1       4.640  18.575   3.798  1.00  0.00     0.012 A 
ATOM     60  C   UNL     1       4.729  17.443   5.950  1.00  0.00     0.148 A 
ATOM     61  C   UNL     1       6.013  18.808   3.851  1.00  0.00     0.002 A 
ATOM     62  C   UNL     1       6.092  17.716   6.016  1.00  0.00     0.091 A 
ATOM     63  F   UNL     1       4.093  16.771   6.919  1.00  0.00    -0.205 F 
ATOM     64  C   UNL     1       6.736  18.389   4.964  1.00  0.00     0.022 A 
BRANCH  62  65
ATOM     65  S   UNL     1       7.105  17.286   7.436  1.00  0.00     0.127 S 
ATOM     66  O   UNL     1       7.986  16.265   6.872  1.00  0.00    -0.237 OA
ATOM     67  O   UNL     1       7.762  18.557   7.740  1.00  0.00    -0.237 OA
ATOM     68  O   UNL     1       6.184  16.814   8.461  1.00  0.00    -0.744 OA
ENDBRANCH  62  65
ENDBRANCH  44  58
BRANCH  45  69
ATOM     69  C   UNL     1      -5.877  16.384   4.062  1.00  0.00     0.023 A 
ATOM     70  C   UNL     1      -6.712  17.427   3.614  1.00  0.00     0.012 A 
ATOM     71  C   UNL     1      -6.455  15.152   4.421  1.00  0.00     0.148 A 
ATOM     72  C   UNL     1      -8.097  17.263   3.570  1.00  0.00     0.002 A 
ATOM     73  C   UNL     1      -7.831  14.976   4.321  1.00  0.00     0.091 A 
ATOM     74  F   UNL     1      -5.650  14.173   4.860  1.00  0.00    -0.205 F 
ATOM     75  C   UNL     1      -8.656  16.035   3.915  1.00  0.00     0.022 A 
BRANCH  73  76
ATOM     76  S   UNL     1      -8.607  13.383   4.619  1.00  0.00     0.127 S 
ATOM     77  O   UNL     1      -9.119  13.547   5.976  1.00  0.00    -0.237 OA
ATOM     78  O   UNL     1      -9.632  13.338   3.574  1.00  0.00    -0.237 OA
ATOM     79  O   UNL     1      -7.543  12.403   4.448  1.00  0.00    -0.744 OA
ENDBRANCH  73  76
ENDBRANCH  45  69
BRANCH  57  80
ATOM     80  C   UNL     1      -1.922  20.686   7.865  1.00  0.00     0.023 A 
ATOM     81  C   UNL     1      -2.363  20.300   9.146  1.00  0.00     0.012 A 
ATOM     82  C   UNL     1      -1.736  22.052   7.578  1.00  0.00     0.148 A 
ATOM     83  C   UNL     1      -2.649  21.261  10.115  1.00  0.00     0.002 A 
ATOM     84  C   UNL     1      -1.977  23.001   8.564  1.00  0.00     0.091 A 
ATOM     85  F   UNL     1      -1.334  22.400   6.346  1.00  0.00    -0.205 F 
ATOM     86  C   UNL     1      -2.445  22.608   9.828  1.00  0.00     0.022 A 
BRANCH  84  87
ATOM     87  S   UNL     1      -1.652  24.750   8.313  1.00  0.00     0.127 S 
ATOM     88  O   UNL     1      -3.003  25.286   8.164  1.00  0.00    -0.237 OA
ATOM     89  O   UNL     1      -0.981  25.124   9.559  1.00  0.00    -0.237 OA
ATOM     90  O   UNL     1      -0.809  24.833   7.127  1.00  0.00    -0.744 OA
ENDBRANCH  84  87
ENDBRANCH  57  80
ENDBRANCH  31  32
ENDBRANCH  23  26
ENDBRANCH  21  22
ENDBRANCH   1  21
TORSDOF 15
