REMARK SMILES CCC(CC)(CC(=O)NNC(=O)c1cc(C)oc1C)C(=O)NCCCNC(=O)c1ccc(-c2c3nc(c(-c4cccc(S(=O)(=O)[O-])c4F)c4ccc([nH]4)c(-c4cccc(S(=O)(=O)[O-])c4F)c4nc(c(-c5cccc(S(=O)(=O)[O-])c5F)c5ccc2[nH]5)C=C4)C=C3)cc1
REMARK SMILES IDX 23 1 22 2 20 3 21 4 3 6 2 7 1 8 4 9 5 10 6 11 7 12 8 13 9 14
REMARK SMILES IDX 10 16 11 17 12 19 13 20 14 21 18 22 15 23 17 24 19 25 16 26
REMARK SMILES IDX 24 27 25 28 26 29 27 30 28 32 29 33 30 34 91 35 31 36 90 37
REMARK SMILES IDX 32 38 33 39 34 40 84 41 35 42 89 43 83 44 85 45 36 46 88 47
REMARK SMILES IDX 82 48 81 49 37 51 69 52 49 53 68 54 50 55 53 56 67 57 86 58
REMARK SMILES IDX 51 59 52 60 66 62 87 63 54 64 38 65 39 66 47 67 40 68 42 69
REMARK SMILES IDX 48 70 41 71 43 72 44 73 45 74 46 75 70 76 71 77 79 78 72 79
REMARK SMILES IDX 74 80 80 81 73 82 75 83 76 84 77 85 78 86 55 87 56 88 64 89
REMARK SMILES IDX 57 90 59 91 65 92 58 93 60 94 61 95 62 96 63 97
REMARK H PARENT 22 5 9 15 10 18 26 31 85 50 53 61
REMARK Flexibility Score: inf
ROOT
ATOM      1  C   UNL     1       2.398  -3.211  -3.872  1.00  0.00     0.117 C 
ENDROOT
BRANCH   1   2
ATOM      2  N   UNL     1       2.937  -2.203  -2.974  1.00  0.00    -0.356 N 
ATOM      3  C   UNL     1       2.387  -1.266  -2.160  1.00  0.00     0.226 C 
ATOM      4  O   UNL     1       3.195  -0.563  -1.543  1.00  0.00    -0.274 OA
ATOM      5  H   UNL     1       3.921  -2.198  -2.951  1.00  0.00     0.163 HD
BRANCH   3   6
ATOM      6  C   UNL     1       0.858  -1.078  -1.974  1.00  0.00     0.057 C 
BRANCH   6   7
ATOM      7  C   UNL     1       0.620   0.085  -0.943  1.00  0.00     0.014 C 
ATOM      8  C   UNL     1       0.961  -0.212   0.517  1.00  0.00     0.005 C 
ENDBRANCH   6   7
BRANCH   6   9
ATOM      9  C   UNL     1       0.232  -2.397  -1.425  1.00  0.00     0.014 C 
ATOM     10  C   UNL     1      -1.282  -2.385  -1.244  1.00  0.00     0.005 C 
ENDBRANCH   6   9
BRANCH   6  11
ATOM     11  C   UNL     1       0.207  -0.653  -3.319  1.00  0.00     0.118 C 
BRANCH  11  12
ATOM     12  C   UNL     1       0.879   0.530  -4.007  1.00  0.00     0.239 C 
ATOM     13  O   UNL     1       1.909   0.378  -4.663  1.00  0.00    -0.273 OA
ATOM     14  N   UNL     1       0.322   1.782  -3.917  1.00  0.00    -0.267 N 
ATOM     15  H   UNL     1       0.731   2.500  -4.453  1.00  0.00     0.191 HD
BRANCH  14  16
ATOM     16  N   UNL     1      -0.779   2.119  -3.126  1.00  0.00    -0.263 N 
ATOM     17  C   UNL     1      -0.861   3.282  -2.386  1.00  0.00     0.273 C 
ATOM     18  H   UNL     1      -1.538   1.492  -3.094  1.00  0.00     0.191 HD
ATOM     19  O   UNL     1      -1.586   3.313  -1.387  1.00  0.00    -0.267 OA
BRANCH  17  20
ATOM     20  C   UNL     1      -0.127   4.447  -2.841  1.00  0.00     0.082 A 
ATOM     21  C   UNL     1      -0.004   4.968  -4.164  1.00  0.00     0.059 A 
ATOM     22  C   UNL     1       0.533   5.352  -2.027  1.00  0.00     0.113 A 
ATOM     23  C   UNL     1       0.707   6.143  -4.065  1.00  0.00     0.101 A 
ATOM     24  O   UNL     1       1.045   6.375  -2.768  1.00  0.00    -0.466 OA
ATOM     25  C   UNL     1       0.781   5.432  -0.572  1.00  0.00     0.088 C 
ATOM     26  C   UNL     1       1.124   7.166  -5.044  1.00  0.00     0.087 C 
ENDBRANCH  17  20
ENDBRANCH  14  16
ENDBRANCH  11  12
ENDBRANCH   6  11
ENDBRANCH   3   6
ENDBRANCH   1   2
BRANCH   1  27
ATOM     27  C   UNL     1       2.800  -3.001  -5.328  1.00  0.00     0.042 C 
BRANCH  27  28
ATOM     28  C   UNL     1       4.302  -2.997  -5.591  1.00  0.00     0.118 C 
BRANCH  28  29
ATOM     29  N   UNL     1       4.940  -4.265  -5.257  1.00  0.00    -0.352 N 
ATOM     30  C   UNL     1       5.607  -5.159  -6.061  1.00  0.00     0.251 C 
ATOM     31  H   UNL     1       4.884  -4.522  -4.309  1.00  0.00     0.163 HD
ATOM     32  O   UNL     1       5.929  -6.256  -5.609  1.00  0.00    -0.269 OA
BRANCH  30  33
ATOM     33  C   UNL     1       5.919  -4.822  -7.467  1.00  0.00     0.039 A 
ATOM     34  C   UNL     1       5.685  -5.780  -8.459  1.00  0.00     0.014 A 
ATOM     35  C   UNL     1       6.454  -3.578  -7.810  1.00  0.00     0.014 A 
ATOM     36  C   UNL     1       5.907  -5.461  -9.802  1.00  0.00     0.010 A 
ATOM     37  C   UNL     1       6.621  -3.241  -9.151  1.00  0.00     0.010 A 
ATOM     38  C   UNL     1       6.339  -4.174 -10.160  1.00  0.00    -0.014 A 
BRANCH  38  39
ATOM     39  C   UNL     1       6.473  -3.761 -11.579  1.00  0.00     0.031 A 
ATOM     40  C   UNL     1       7.821  -3.407 -12.139  1.00  0.00     0.074 A 
ATOM     41  C   UNL     1       5.365  -3.592 -12.328  1.00  0.00     0.049 A 
ATOM     42  N   UNL     1       8.117  -2.881 -13.298  1.00  0.00    -0.248 NA
ATOM     43  C   UNL     1       8.986  -3.654 -11.273  1.00  0.00     0.031 C 
ATOM     44  C   UNL     1       3.994  -3.843 -11.879  1.00  0.00     0.029 A 
ATOM     45  N   UNL     1       5.216  -3.138 -13.615  1.00  0.00    -0.354 N 
ATOM     46  C   UNL     1       9.491  -2.680 -13.281  1.00  0.00     0.074 A 
ATOM     47  C   UNL     1       9.973  -3.147 -11.999  1.00  0.00     0.031 C 
ATOM     48  C   UNL     1       3.144  -3.541 -12.873  1.00  0.00     0.029 A 
ATOM     49  C   UNL     1       3.904  -3.049 -14.019  1.00  0.00     0.049 A 
ATOM     50  H   UNL     1       5.975  -2.899 -14.193  1.00  0.00     0.167 HD
ATOM     51  C   UNL     1      10.283  -2.171 -14.253  1.00  0.00     0.034 A 
ATOM     52  C   UNL     1       3.372  -2.614 -15.178  1.00  0.00     0.034 A 
ATOM     53  C   UNL     1       9.821  -1.783 -15.556  1.00  0.00     0.049 A 
ATOM     54  C   UNL     1       4.284  -2.134 -16.271  1.00  0.00     0.074 A 
ATOM     55  C   UNL     1      10.562  -1.327 -16.633  1.00  0.00     0.029 A 
ATOM     56  N   UNL     1       8.498  -1.820 -15.967  1.00  0.00    -0.354 N 
ATOM     57  N   UNL     1       5.593  -2.061 -16.277  1.00  0.00    -0.248 NA
ATOM     58  C   UNL     1       3.651  -1.697 -17.525  1.00  0.00     0.031 C 
ATOM     59  C   UNL     1       9.688  -1.111 -17.704  1.00  0.00     0.029 A 
ATOM     60  C   UNL     1       8.402  -1.410 -17.285  1.00  0.00     0.049 A 
ATOM     61  H   UNL     1       7.739  -2.097 -15.404  1.00  0.00     0.167 HD
ATOM     62  C   UNL     1       5.942  -1.591 -17.536  1.00  0.00     0.074 A 
ATOM     63  C   UNL     1       4.709  -1.411 -18.275  1.00  0.00     0.031 C 
ATOM     64  C   UNL     1       7.173  -1.307 -18.027  1.00  0.00     0.034 A 
BRANCH  51  65
ATOM     65  C   UNL     1      11.753  -2.079 -13.965  1.00  0.00     0.023 A 
ATOM     66  C   UNL     1      12.557  -3.220 -14.153  1.00  0.00     0.012 A 
ATOM     67  C   UNL     1      12.347  -0.874 -13.550  1.00  0.00     0.148 A 
ATOM     68  C   UNL     1      13.930  -3.164 -13.921  1.00  0.00     0.002 A 
ATOM     69  C   UNL     1      13.721  -0.821 -13.339  1.00  0.00     0.091 A 
ATOM     70  F   UNL     1      11.565   0.196 -13.341  1.00  0.00    -0.205 F 
ATOM     71  C   UNL     1      14.515  -1.964 -13.521  1.00  0.00     0.022 A 
BRANCH  69  72
ATOM     72  S   UNL     1      14.515   0.718 -12.861  1.00  0.00     0.127 S 
ATOM     73  O   UNL     1      14.288   0.742 -11.418  1.00  0.00    -0.237 OA
ATOM     74  O   UNL     1      15.910   0.504 -13.252  1.00  0.00    -0.237 OA
ATOM     75  O   UNL     1      13.829   1.740 -13.642  1.00  0.00    -0.744 OA
ENDBRANCH  69  72
ENDBRANCH  51  65
BRANCH  52  76
ATOM     76  C   UNL     1       1.902  -2.704 -15.386  1.00  0.00     0.023 A 
ATOM     77  C   UNL     1       1.395  -3.729 -16.209  1.00  0.00     0.012 A 
ATOM     78  C   UNL     1       1.003  -1.843 -14.732  1.00  0.00     0.148 A 
ATOM     79  C   UNL     1       0.020  -3.886 -16.383  1.00  0.00     0.002 A 
ATOM     80  C   UNL     1      -0.368  -2.034 -14.876  1.00  0.00     0.091 A 
ATOM     81  F   UNL     1       1.495  -0.861 -13.962  1.00  0.00    -0.205 F 
ATOM     82  C   UNL     1      -0.864  -3.047 -15.708  1.00  0.00     0.022 A 
BRANCH  80  83
ATOM     83  S   UNL     1      -1.523  -1.050 -13.914  1.00  0.00     0.127 S 
ATOM     84  O   UNL     1      -1.582   0.194 -14.675  1.00  0.00    -0.237 OA
ATOM     85  O   UNL     1      -2.749  -1.849 -13.951  1.00  0.00    -0.237 OA
ATOM     86  O   UNL     1      -0.906  -0.979 -12.594  1.00  0.00    -0.744 OA
ENDBRANCH  80  83
ENDBRANCH  52  76
BRANCH  64  87
ATOM     87  C   UNL     1       7.258  -0.783 -19.431  1.00  0.00     0.023 A 
ATOM     88  C   UNL     1       7.071   0.594 -19.656  1.00  0.00     0.012 A 
ATOM     89  C   UNL     1       7.608  -1.622 -20.504  1.00  0.00     0.148 A 
ATOM     90  C   UNL     1       7.228   1.129 -20.934  1.00  0.00     0.002 A 
ATOM     91  C   UNL     1       7.785  -1.077 -21.772  1.00  0.00     0.091 A 
ATOM     92  F   UNL     1       7.756  -2.936 -20.277  1.00  0.00    -0.205 F 
ATOM     93  C   UNL     1       7.596   0.296 -21.990  1.00  0.00     0.022 A 
BRANCH  91  94
ATOM     94  S   UNL     1       8.320  -2.103 -23.147  1.00  0.00     0.127 S 
ATOM     95  O   UNL     1       7.052  -2.629 -23.646  1.00  0.00    -0.237 OA
ATOM     96  O   UNL     1       8.972  -1.143 -24.039  1.00  0.00    -0.237 OA
ATOM     97  O   UNL     1       9.231  -3.074 -22.554  1.00  0.00    -0.744 OA
ENDBRANCH  91  94
ENDBRANCH  64  87
ENDBRANCH  38  39
ENDBRANCH  30  33
ENDBRANCH  28  29
ENDBRANCH  27  28
ENDBRANCH   1  27
TORSDOF 19
