REMARK SMILES O=C(CCCOc1ccc(Cl)cc1Cl)Nc1cccc(C(=O)NCCCNC(=O)c2ccc(-c3c4nc(c(-c5cccc(S(=O)(=O)[O-])c5F)c5ccc([nH]5)c(-c5cccc(S(=O)(=O)[O-])c5F)c5nc(c(-c6cccc(S(=O)(=O)[O-])c6F)c6ccc3[nH]6)C=C5)C=C4)cc2)c1
REMARK SMILES IDX 21 1 22 2 23 3 20 5 16 6 17 7 93 8 18 9 19 10 15 11 1 12
REMARK SMILES IDX 2 13 3 15 4 16 5 17 6 18 7 19 8 20 13 21 9 22 12 23 14 24
REMARK SMILES IDX 10 25 11 26 24 27 25 28 26 29 27 30 28 31 29 33 30 34 31 35
REMARK SMILES IDX 92 36 32 37 91 38 33 39 34 40 35 41 85 42 36 43 90 44 84 45
REMARK SMILES IDX 86 46 37 47 89 48 83 49 82 50 38 52 70 53 50 54 69 55 51 56
REMARK SMILES IDX 54 57 68 58 87 59 52 60 53 61 67 63 88 64 55 65 39 66 40 67
REMARK SMILES IDX 48 68 41 69 43 70 49 71 42 72 44 73 45 74 46 75 47 76 71 77
REMARK SMILES IDX 72 78 80 79 73 80 75 81 81 82 74 83 76 84 77 85 78 86 79 87
REMARK SMILES IDX 56 88 57 89 65 90 58 91 60 92 66 93 59 94 61 95 62 96 63 97
REMARK SMILES IDX 64 98
REMARK H PARENT 23 4 15 14 27 32 86 51 54 62
REMARK Flexibility Score: inf
ROOT
ATOM      1  C   UNL     1      -0.494   0.561   4.495  1.00  0.00     0.251 C 
ATOM      2  O   UNL     1      -1.075   0.971   5.500  1.00  0.00    -0.269 OA
ATOM      3  N   UNL     1      -0.835  -0.675   3.988  1.00  0.00    -0.352 N 
ATOM      4  H   UNL     1      -1.539  -1.137   4.499  1.00  0.00     0.163 HD
ENDROOT
BRANCH   1   5
ATOM      5  C   UNL     1       0.613   1.370   3.923  1.00  0.00     0.041 A 
ATOM      6  C   UNL     1       2.157   1.786   2.125  1.00  0.00     0.041 A 
ATOM      7  C   UNL     1       3.018   2.431   3.018  1.00  0.00     0.026 A 
ATOM      8  C   UNL     1       0.901   1.375   2.559  1.00  0.00     0.040 A 
ATOM      9  C   UNL     1       2.632   2.636   4.342  1.00  0.00     0.003 A 
ATOM     10  C   UNL     1       1.445   2.070   4.805  1.00  0.00     0.014 A 
BRANCH   6  11
ATOM     11  N   UNL     1       2.675   1.415   0.869  1.00  0.00    -0.326 N 
ATOM     12  O   UNL     1       0.762   1.019  -0.359  1.00  0.00    -0.275 OA
ATOM     13  C   UNL     1       1.977   0.910  -0.203  1.00  0.00     0.224 C 
ATOM     14  H   UNL     1       3.645   1.528   0.746  1.00  0.00     0.169 HD
BRANCH  13  15
ATOM     15  C   UNL     1       2.792   0.062  -1.169  1.00  0.00     0.104 C 
BRANCH  15  16
ATOM     16  C   UNL     1       4.090   0.626  -1.756  1.00  0.00     0.051 C 
BRANCH  16  17
ATOM     17  C   UNL     1       5.376   0.622  -0.909  1.00  0.00     0.230 C 
BRANCH  17  18
ATOM     18  O   UNL     1       6.064  -0.630  -0.849  1.00  0.00    -0.492 OA
BRANCH  18  19
ATOM     19  C   UNL     1       5.520  -1.549   0.005  1.00  0.00     0.137 A 
ATOM     20  C   UNL     1       4.777  -2.567  -0.594  1.00  0.00     0.049 A 
ATOM     21  C   UNL     1       5.763  -1.588   1.384  1.00  0.00     0.084 A 
ATOM     22  C   UNL     1       4.177  -3.553   0.186  1.00  0.00     0.024 A 
ATOM     23  C   UNL     1       5.198  -2.604   2.164  1.00  0.00     0.045 A 
ATOM     24  Cl  UNL     1       6.753  -0.408   2.166  1.00  0.00    -0.080 Cl
ATOM     25  C   UNL     1       4.386  -3.566   1.563  1.00  0.00     0.042 A 
ATOM     26  Cl  UNL     1       3.609  -4.763   2.523  1.00  0.00    -0.084 Cl
ENDBRANCH  18  19
ENDBRANCH  17  18
ENDBRANCH  16  17
ENDBRANCH  15  16
ENDBRANCH  13  15
ENDBRANCH   6  11
ENDBRANCH   1   5
BRANCH   3  27
ATOM     27  C   UNL     1      -0.347  -1.429   2.836  1.00  0.00     0.118 C 
BRANCH  27  28
ATOM     28  C   UNL     1       0.124  -2.839   3.150  1.00  0.00     0.042 C 
BRANCH  28  29
ATOM     29  C   UNL     1      -0.959  -3.794   3.619  1.00  0.00     0.118 C 
BRANCH  29  30
ATOM     30  N   UNL     1      -2.007  -4.006   2.626  1.00  0.00    -0.352 N 
ATOM     31  C   UNL     1      -2.350  -5.122   1.904  1.00  0.00     0.251 C 
ATOM     32  H   UNL     1      -2.562  -3.214   2.443  1.00  0.00     0.163 HD
ATOM     33  O   UNL     1      -3.172  -5.012   0.990  1.00  0.00    -0.269 OA
BRANCH  31  34
ATOM     34  C   UNL     1      -1.742  -6.442   2.185  1.00  0.00     0.039 A 
ATOM     35  C   UNL     1      -1.453  -7.296   1.115  1.00  0.00     0.014 A 
ATOM     36  C   UNL     1      -1.476  -6.859   3.490  1.00  0.00     0.014 A 
ATOM     37  C   UNL     1      -0.831  -8.525   1.352  1.00  0.00     0.010 A 
ATOM     38  C   UNL     1      -0.758  -8.030   3.715  1.00  0.00     0.010 A 
ATOM     39  C   UNL     1      -0.436  -8.883   2.651  1.00  0.00    -0.014 A 
BRANCH  39  40
ATOM     40  C   UNL     1       0.326 -10.133   2.912  1.00  0.00     0.031 A 
ATOM     41  C   UNL     1      -0.226 -11.190   3.833  1.00  0.00     0.074 A 
ATOM     42  C   UNL     1       1.559 -10.277   2.386  1.00  0.00     0.049 A 
ATOM     43  N   UNL     1       0.314 -12.322   4.205  1.00  0.00    -0.248 NA
ATOM     44  C   UNL     1      -1.541 -10.930   4.441  1.00  0.00     0.031 C 
ATOM     45  C   UNL     1       2.246  -9.283   1.559  1.00  0.00     0.029 A 
ATOM     46  N   UNL     1       2.465 -11.303   2.490  1.00  0.00    -0.354 N 
ATOM     47  C   UNL     1      -0.570 -12.886   5.117  1.00  0.00     0.074 A 
ATOM     48  C   UNL     1      -1.666 -11.954   5.272  1.00  0.00     0.031 C 
ATOM     49  C   UNL     1       3.456  -9.752   1.218  1.00  0.00     0.029 A 
ATOM     50  C   UNL     1       3.649 -11.061   1.833  1.00  0.00     0.049 A 
ATOM     51  H   UNL     1       2.285 -12.133   2.989  1.00  0.00     0.167 HD
ATOM     52  C   UNL     1      -0.494 -14.082   5.749  1.00  0.00     0.034 A 
ATOM     53  C   UNL     1       4.770 -11.804   1.741  1.00  0.00     0.034 A 
ATOM     54  C   UNL     1       0.579 -15.021   5.562  1.00  0.00     0.049 A 
ATOM     55  C   UNL     1       4.809 -13.150   2.411  1.00  0.00     0.074 A 
ATOM     56  C   UNL     1       0.700 -16.300   6.074  1.00  0.00     0.029 A 
ATOM     57  N   UNL     1       1.724 -14.778   4.819  1.00  0.00    -0.354 N 
ATOM     58  N   UNL     1       3.886 -13.740   3.131  1.00  0.00    -0.248 NA
ATOM     59  C   UNL     1       6.030 -13.948   2.227  1.00  0.00     0.031 C 
ATOM     60  C   UNL     1       1.936 -16.817   5.672  1.00  0.00     0.029 A 
ATOM     61  C   UNL     1       2.566 -15.875   4.874  1.00  0.00     0.049 A 
ATOM     62  H   UNL     1       1.910 -13.947   4.325  1.00  0.00     0.167 HD
ATOM     63  C   UNL     1       4.400 -14.989   3.460  1.00  0.00     0.074 A 
ATOM     64  C   UNL     1       5.705 -15.079   2.838  1.00  0.00     0.031 C 
ATOM     65  C   UNL     1       3.846 -15.968   4.219  1.00  0.00     0.034 A 
BRANCH  52  66
ATOM     66  C   UNL     1      -1.625 -14.461   6.672  1.00  0.00     0.023 A 
ATOM     67  C   UNL     1      -2.898 -14.753   6.139  1.00  0.00     0.012 A 
ATOM     68  C   UNL     1      -1.417 -14.579   8.060  1.00  0.00     0.148 A 
ATOM     69  C   UNL     1      -3.955 -15.114   6.974  1.00  0.00     0.002 A 
ATOM     70  C   UNL     1      -2.462 -14.988   8.881  1.00  0.00     0.091 A 
ATOM     71  F   UNL     1      -0.207 -14.279   8.554  1.00  0.00    -0.205 F 
ATOM     72  C   UNL     1      -3.734 -15.242   8.342  1.00  0.00     0.022 A 
BRANCH  70  73
ATOM     73  S   UNL     1      -2.259 -15.265  10.644  1.00  0.00     0.127 S 
ATOM     74  O   UNL     1      -3.025 -14.154  11.207  1.00  0.00    -0.237 OA
ATOM     75  O   UNL     1      -2.875 -16.581  10.821  1.00  0.00    -0.237 OA
ATOM     76  O   UNL     1      -0.826 -15.226  10.895  1.00  0.00    -0.744 OA
ENDBRANCH  70  73
ENDBRANCH  52  66
BRANCH  53  77
ATOM     77  C   UNL     1       5.921 -11.311   0.933  1.00  0.00     0.023 A 
ATOM     78  C   UNL     1       6.241 -11.949  -0.281  1.00  0.00     0.012 A 
ATOM     79  C   UNL     1       6.672 -10.191   1.339  1.00  0.00     0.148 A 
ATOM     80  C   UNL     1       7.307 -11.500  -1.062  1.00  0.00     0.002 A 
ATOM     81  C   UNL     1       7.693  -9.711   0.527  1.00  0.00     0.091 A 
ATOM     82  F   UNL     1       6.357  -9.603   2.501  1.00  0.00    -0.205 F 
ATOM     83  C   UNL     1       8.025 -10.376  -0.664  1.00  0.00     0.022 A 
BRANCH  81  84
ATOM     84  S   UNL     1       8.576  -8.188   0.885  1.00  0.00     0.127 S 
ATOM     85  O   UNL     1       9.918  -8.684   1.182  1.00  0.00    -0.237 OA
ATOM     86  O   UNL     1       8.451  -7.465  -0.381  1.00  0.00    -0.237 OA
ATOM     87  O   UNL     1       7.870  -7.573   2.000  1.00  0.00    -0.744 OA
ENDBRANCH  81  84
ENDBRANCH  53  77
BRANCH  65  88
ATOM     88  C   UNL     1       4.633 -17.241   4.397  1.00  0.00     0.023 A 
ATOM     89  C   UNL     1       5.793 -17.246   5.197  1.00  0.00     0.012 A 
ATOM     90  C   UNL     1       4.183 -18.447   3.825  1.00  0.00     0.148 A 
ATOM     91  C   UNL     1       6.514 -18.424   5.393  1.00  0.00     0.002 A 
ATOM     92  C   UNL     1       4.876 -19.626   4.068  1.00  0.00     0.091 A 
ATOM     93  F   UNL     1       3.087 -18.419   3.053  1.00  0.00    -0.205 F 
ATOM     94  C   UNL     1       6.049 -19.614   4.839  1.00  0.00     0.022 A 
BRANCH  92  95
ATOM     95  S   UNL     1       4.299 -21.222   3.478  1.00  0.00     0.127 S 
ATOM     96  O   UNL     1       5.280 -21.528   2.439  1.00  0.00    -0.237 OA
ATOM     97  O   UNL     1       4.403 -22.051   4.680  1.00  0.00    -0.237 OA
ATOM     98  O   UNL     1       2.937 -21.009   3.007  1.00  0.00    -0.744 OA
ENDBRANCH  92  95
ENDBRANCH  65  88
ENDBRANCH  39  40
ENDBRANCH  31  34
ENDBRANCH  29  30
ENDBRANCH  28  29
ENDBRANCH  27  28
ENDBRANCH   3  27
TORSDOF 19
