REMARK SMILES CCN(CC)c1ccc([C@@H]2[NH2+][C@H](C(=O)NCCCNC(=O)c3ccc(-c4c5nc(c(-c6cccc(S(=O)(=O)[O-])c6F)c6ccc([nH]6)c(-c6cccc(S(=O)(=O)[O-])c6F)c6nc(c(-c7cccc(S(=O)(=O)[O-])c7F)c7ccc4[nH]7)C=C6)C=C5)cc3)Cc3c2[nH]c2ccccc32)cc1
REMARK SMILES IDX 17 1 16 2 15 3 13 4 14 5 12 7 10 8 11 9 87 10 86 13 88 14
REMARK SMILES IDX 85 15 94 16 89 17 93 19 90 20 92 21 91 22 9 23 6 24 7 25
REMARK SMILES IDX 96 26 8 27 95 28 3 29 2 30 1 31 4 32 5 33 18 34 19 35 20 36
REMARK SMILES IDX 21 38 22 39 23 40 84 41 24 42 83 43 25 44 26 45 27 46 77 47
REMARK SMILES IDX 28 48 82 49 76 50 78 51 29 52 81 53 75 54 74 55 30 57 62 58
REMARK SMILES IDX 42 59 61 60 43 61 46 62 60 63 79 64 44 65 45 66 59 68 80 69
REMARK SMILES IDX 47 70 31 71 32 72 40 73 33 74 35 75 41 76 34 77 36 78 37 79
REMARK SMILES IDX 38 80 39 81 63 82 64 83 72 84 65 85 67 86 73 87 66 88 68 89
REMARK SMILES IDX 69 90 70 91 71 92 48 93 49 94 57 95 50 96 52 97 58 98 51 99
REMARK SMILES IDX 53 100 54 101 55 102 56 103
REMARK H PARENT 15 6 11 11 11 12 88 18 19 37 78 56 46 67
REMARK Flexibility Score: inf
ROOT
ATOM      1  C   UNL     1       7.843   4.661  -0.214  1.00  0.00     0.042 C 
ENDROOT
BRANCH   1   2
ATOM      2  C   UNL     1       7.484   3.225   0.172  1.00  0.00     0.118 C 
BRANCH   2   3
ATOM      3  N   UNL     1       6.242   2.752  -0.419  1.00  0.00    -0.351 N 
ATOM      4  C   UNL     1       5.960   1.751  -1.304  1.00  0.00     0.278 C 
ATOM      5  O   UNL     1       4.767   1.549  -1.536  1.00  0.00    -0.268 OA
ATOM      6  H   UNL     1       5.448   3.252  -0.123  1.00  0.00     0.163 HD
BRANCH   4   7
ATOM      7  C   UNL     1       7.079   0.951  -1.992  1.00  0.00     0.277 C 
ATOM      8  C   UNL     1       6.607  -1.537  -2.357  1.00  0.00     0.262 C 
ATOM      9  N   UNL     1       7.151  -0.467  -1.487  1.00  0.00    -0.325 N 
ATOM     10  C   UNL     1       7.000  -1.191  -3.760  1.00  0.00     0.083 A 
ATOM     11  H   UNL     1       8.134  -0.680  -1.319  1.00  0.00     0.347 HD
ATOM     12  H   UNL     1       6.553  -0.477  -0.661  1.00  0.00     0.347 HD
ATOM     13  C   UNL     1       6.801   0.044  -4.330  1.00  0.00    -0.006 A 
ATOM     14  N   UNL     1       7.388  -1.986  -4.806  1.00  0.00    -0.353 N 
ATOM     15  C   UNL     1       6.987   1.258  -3.516  1.00  0.00     0.114 C 
ATOM     16  C   UNL     1       6.099  -0.315  -5.505  1.00  0.00     0.003 A 
ATOM     17  C   UNL     1       6.692  -1.517  -5.911  1.00  0.00     0.046 A 
ATOM     18  H   UNL     1       8.028  -2.734  -4.780  1.00  0.00     0.166 HD
ATOM     19  C   UNL     1       4.981   0.154  -6.221  1.00  0.00     0.010 A 
ATOM     20  C   UNL     1       6.434  -2.113  -7.145  1.00  0.00     0.026 A 
ATOM     21  C   UNL     1       4.556  -0.575  -7.342  1.00  0.00     0.001 A 
ATOM     22  C   UNL     1       5.317  -1.637  -7.837  1.00  0.00     0.002 A 
BRANCH   8  23
ATOM     23  C   UNL     1       5.070  -1.724  -2.208  1.00  0.00     0.016 A 
ATOM     24  C   UNL     1       2.193  -1.483  -2.074  1.00  0.00     0.037 A 
ATOM     25  C   UNL     1       2.838  -1.901  -3.234  1.00  0.00     0.026 A 
ATOM     26  C   UNL     1       3.005  -1.449  -0.933  1.00  0.00     0.026 A 
ATOM     27  C   UNL     1       4.237  -2.035  -3.296  1.00  0.00     0.012 A 
ATOM     28  C   UNL     1       4.408  -1.579  -0.986  1.00  0.00     0.012 A 
BRANCH  24  29
ATOM     29  N   UNL     1       0.853  -1.099  -2.038  1.00  0.00    -0.372 N 
BRANCH  29  30
ATOM     30  C   UNL     1       0.532   0.221  -1.447  1.00  0.00     0.113 C 
ATOM     31  C   UNL     1       0.464   0.214   0.073  1.00  0.00     0.027 C 
ENDBRANCH  29  30
BRANCH  29  32
ATOM     32  C   UNL     1      -0.136  -1.633  -2.987  1.00  0.00     0.113 C 
ATOM     33  C   UNL     1      -0.192  -0.893  -4.322  1.00  0.00     0.027 C 
ENDBRANCH  29  32
ENDBRANCH  24  29
ENDBRANCH   8  23
ENDBRANCH   4   7
ENDBRANCH   2   3
ENDBRANCH   1   2
BRANCH   1  34
ATOM     34  C   UNL     1       6.732   5.702  -0.066  1.00  0.00     0.118 C 
BRANCH  34  35
ATOM     35  N   UNL     1       6.266   5.890   1.300  1.00  0.00    -0.352 N 
ATOM     36  C   UNL     1       5.948   7.053   1.967  1.00  0.00     0.251 C 
ATOM     37  H   UNL     1       6.162   5.064   1.825  1.00  0.00     0.163 HD
ATOM     38  O   UNL     1       5.633   6.991   3.155  1.00  0.00    -0.269 OA
BRANCH  36  39
ATOM     39  C   UNL     1       6.019   8.374   1.294  1.00  0.00     0.039 A 
ATOM     40  C   UNL     1       6.580   9.450   1.992  1.00  0.00     0.014 A 
ATOM     41  C   UNL     1       5.533   8.575  -0.000  1.00  0.00     0.014 A 
ATOM     42  C   UNL     1       6.724  10.695   1.370  1.00  0.00     0.010 A 
ATOM     43  C   UNL     1       5.738   9.800  -0.643  1.00  0.00     0.010 A 
ATOM     44  C   UNL     1       6.343  10.873   0.030  1.00  0.00    -0.014 A 
BRANCH  44  45
ATOM     45  C   UNL     1       6.611  12.152  -0.688  1.00  0.00     0.031 A 
ATOM     46  C   UNL     1       5.481  12.983  -1.237  1.00  0.00     0.074 A 
ATOM     47  C   UNL     1       7.885  12.530  -0.921  1.00  0.00     0.049 A 
ATOM     48  N   UNL     1       5.534  14.091  -1.933  1.00  0.00    -0.248 NA
ATOM     49  C   UNL     1       4.114  12.498  -0.991  1.00  0.00     0.031 C 
ATOM     50  C   UNL     1       9.076  11.785  -0.508  1.00  0.00     0.029 A 
ATOM     51  N   UNL     1       8.393  13.618  -1.589  1.00  0.00    -0.354 N 
ATOM     52  C   UNL     1       4.218  14.418  -2.237  1.00  0.00     0.074 A 
ATOM     53  C   UNL     1       3.388  13.374  -1.672  1.00  0.00     0.031 C 
ATOM     54  C   UNL     1      10.172  12.436  -0.928  1.00  0.00     0.029 A 
ATOM     55  C   UNL     1       9.767  13.624  -1.673  1.00  0.00     0.049 A 
ATOM     56  H   UNL     1       7.827  14.328  -1.972  1.00  0.00     0.167 HD
ATOM     57  C   UNL     1       3.738  15.496  -2.904  1.00  0.00     0.034 A 
ATOM     58  C   UNL     1      10.609  14.476  -2.292  1.00  0.00     0.034 A 
ATOM     59  C   UNL     1       4.559  16.549  -3.442  1.00  0.00     0.049 A 
ATOM     60  C   UNL     1      10.051  15.673  -3.013  1.00  0.00     0.074 A 
ATOM     61  C   UNL     1       4.157  17.721  -4.060  1.00  0.00     0.029 A 
ATOM     62  N   UNL     1       5.945  16.554  -3.446  1.00  0.00    -0.354 N 
ATOM     63  N   UNL     1       8.801  16.043  -3.154  1.00  0.00    -0.248 NA
ATOM     64  C   UNL     1      11.020  16.590  -3.630  1.00  0.00     0.031 C 
ATOM     65  C   UNL     1       5.299  18.417  -4.469  1.00  0.00     0.029 A 
ATOM     66  C   UNL     1       6.414  17.699  -4.069  1.00  0.00     0.049 A 
ATOM     67  H   UNL     1       6.513  15.847  -3.062  1.00  0.00     0.167 HD
ATOM     68  C   UNL     1       8.837  17.253  -3.839  1.00  0.00     0.074 A 
ATOM     69  C   UNL     1      10.232  17.563  -4.068  1.00  0.00     0.031 C 
ATOM     70  C   UNL     1       7.804  18.029  -4.251  1.00  0.00     0.034 A 
BRANCH  57  71
ATOM     71  C   UNL     1       2.243  15.618  -3.060  1.00  0.00     0.023 A 
ATOM     72  C   UNL     1       1.444  15.906  -1.935  1.00  0.00     0.012 A 
ATOM     73  C   UNL     1       1.636  15.517  -4.328  1.00  0.00     0.148 A 
ATOM     74  C   UNL     1       0.063  16.054  -2.061  1.00  0.00     0.002 A 
ATOM     75  C   UNL     1       0.265  15.713  -4.453  1.00  0.00     0.091 A 
ATOM     76  F   UNL     1       2.407  15.227  -5.386  1.00  0.00    -0.205 F 
ATOM     77  C   UNL     1      -0.524  15.967  -3.320  1.00  0.00     0.022 A 
BRANCH  75  78
ATOM     78  S   UNL     1      -0.575  15.706  -6.042  1.00  0.00     0.127 S 
ATOM     79  O   UNL     1      -1.363  14.476  -5.952  1.00  0.00    -0.237 OA
ATOM     80  O   UNL     1      -1.364  16.938  -5.976  1.00  0.00    -0.237 OA
ATOM     81  O   UNL     1       0.470  15.705  -7.051  1.00  0.00    -0.744 OA
ENDBRANCH  75  78
ENDBRANCH  57  71
BRANCH  58  82
ATOM     82  C   UNL     1      12.082  14.253  -2.219  1.00  0.00     0.023 A 
ATOM     83  C   UNL     1      12.883  15.143  -1.476  1.00  0.00     0.012 A 
ATOM     84  C   UNL     1      12.690  13.160  -2.866  1.00  0.00     0.148 A 
ATOM     85  C   UNL     1      14.265  14.969  -1.409  1.00  0.00     0.002 A 
ATOM     86  C   UNL     1      14.060  12.959  -2.746  1.00  0.00     0.091 A 
ATOM     87  F   UNL     1      11.912  12.330  -3.576  1.00  0.00    -0.205 F 
ATOM     88  C   UNL     1      14.852  13.873  -2.035  1.00  0.00     0.022 A 
BRANCH  86  89
ATOM     89  S   UNL     1      14.881  11.504  -3.406  1.00  0.00     0.127 S 
ATOM     90  O   UNL     1      15.693  12.080  -4.478  1.00  0.00    -0.237 OA
ATOM     91  O   UNL     1      15.640  11.036  -2.244  1.00  0.00    -0.237 OA
ATOM     92  O   UNL     1      13.818  10.608  -3.831  1.00  0.00    -0.744 OA
ENDBRANCH  86  89
ENDBRANCH  58  82
BRANCH  70  93
ATOM     93  C   UNL     1       8.134  19.322  -4.954  1.00  0.00     0.023 A 
ATOM     94  C   UNL     1       8.661  19.303  -6.261  1.00  0.00     0.012 A 
ATOM     95  C   UNL     1       7.855  20.560  -4.341  1.00  0.00     0.148 A 
ATOM     96  C   UNL     1       8.938  20.495  -6.931  1.00  0.00     0.002 A 
ATOM     97  C   UNL     1       8.084  21.742  -5.035  1.00  0.00     0.091 A 
ATOM     98  F   UNL     1       7.370  20.560  -3.090  1.00  0.00    -0.205 F 
ATOM     99  C   UNL     1       8.638  21.712  -6.324  1.00  0.00     0.022 A 
BRANCH  97 100
ATOM    100  S   UNL     1       7.638  23.352  -4.373  1.00  0.00     0.127 S 
ATOM    101  O   UNL     1       8.952  23.939  -4.108  1.00  0.00    -0.237 OA
ATOM    102  O   UNL     1       6.915  23.957  -5.492  1.00  0.00    -0.237 OA
ATOM    103  O   UNL     1       6.823  23.093  -3.195  1.00  0.00    -0.744 OA
ENDBRANCH  97 100
ENDBRANCH  70  93
ENDBRANCH  44  45
ENDBRANCH  36  39
ENDBRANCH  34  35
ENDBRANCH   1  34
TORSDOF 17
