REMARK SMILES C[C@H]1Oc2ccccc2C=C1/C=C/C(=O)N[C@H](C(=O)NCCCNC(=O)c1ccc(-c2c3nc(c(-c4cccc(S(=O)(=O)[O-])c4F)c4ccc([nH]4)c(-c4cccc(S(=O)(=O)[O-])c4F)c4nc(c(-c5cccc(S(=O)(=O)[O-])c5F)c5ccc2[nH]5)C=C4)C=C3)cc1)c1ccccc1
REMARK SMILES IDX 22 1 21 2 20 3 18 4 19 5 17 7 16 8 14 9 15 10 13 12 12 13
REMARK SMILES IDX 11 14 1 15 2 16 3 17 4 18 10 19 5 20 9 21 6 22 8 23 7 24
REMARK SMILES IDX 90 25 91 26 95 27 92 28 94 29 93 30 23 31 24 32 25 33 26 35
REMARK SMILES IDX 27 36 28 37 89 38 29 39 88 40 30 41 31 42 32 43 82 44 33 45
REMARK SMILES IDX 87 46 81 47 83 48 34 49 86 50 80 51 79 52 35 54 67 55 47 56
REMARK SMILES IDX 66 57 48 58 51 59 65 60 84 61 49 62 50 63 64 65 85 66 52 67
REMARK SMILES IDX 36 68 37 69 45 70 38 71 40 72 46 73 39 74 41 75 42 76 43 77
REMARK SMILES IDX 44 78 68 79 69 80 77 81 70 82 72 83 78 84 71 85 73 86 74 87
REMARK SMILES IDX 75 88 76 89 53 90 54 91 62 92 55 93 57 94 63 95 56 96 58 97
REMARK SMILES IDX 59 98 60 99 61 100
REMARK H PARENT 20 6 16 11 24 34 83 53 51 64
REMARK Flexibility Score: inf
ROOT
ATOM      1  C   UNL     1       5.795  -1.034   1.722  1.00  0.00     0.042 C 
ENDROOT
BRANCH   1   2
ATOM      2  C   UNL     1       6.697  -0.654   0.492  1.00  0.00     0.117 C 
BRANCH   2   3
ATOM      3  N   UNL     1       6.889  -1.466  -0.732  1.00  0.00    -0.354 N 
ATOM      4  C   UNL     1       6.658  -1.234  -2.088  1.00  0.00     0.247 C 
ATOM      5  O   UNL     1       7.526  -1.685  -2.851  1.00  0.00    -0.272 OA
ATOM      6  H   UNL     1       7.260  -2.360  -0.549  1.00  0.00     0.163 HD
BRANCH   4   7
ATOM      7  C   UNL     1       5.274  -0.796  -2.668  1.00  0.00     0.202 C 
BRANCH   7   8
ATOM      8  N   UNL     1       4.343  -0.130  -1.791  1.00  0.00    -0.337 N 
ATOM      9  C   UNL     1       3.497  -0.718  -0.889  1.00  0.00     0.244 C 
ATOM     10  O   UNL     1       2.740   0.011  -0.248  1.00  0.00    -0.270 OA
ATOM     11  H   UNL     1       4.313   0.852  -1.846  1.00  0.00     0.164 HD
BRANCH   9  12
ATOM     12  C   UNL     1       3.671  -2.162  -0.467  1.00  0.00     0.071 C 
ATOM     13  C   UNL     1       4.118  -3.225  -1.156  1.00  0.00     0.013 C 
BRANCH  13  14
ATOM     14  C   UNL     1       4.776  -4.409  -0.627  1.00  0.00    -0.007 C 
ATOM     15  C   UNL     1       5.214  -5.945  -2.510  1.00  0.00     0.058 C 
ATOM     16  C   UNL     1       4.392  -5.738  -1.225  1.00  0.00     0.200 C 
ATOM     17  O   UNL     1       4.579  -6.841  -0.319  1.00  0.00    -0.485 OA
ATOM     18  C   UNL     1       5.715  -6.793   0.448  1.00  0.00     0.127 A 
ATOM     19  C   UNL     1       5.909  -4.381   0.094  1.00  0.00     0.019 C 
ATOM     20  C   UNL     1       6.050  -7.938   1.163  1.00  0.00     0.047 A 
ATOM     21  C   UNL     1       6.482  -5.633   0.584  1.00  0.00     0.017 A 
ATOM     22  C   UNL     1       7.184  -7.945   1.977  1.00  0.00     0.004 A 
ATOM     23  C   UNL     1       7.659  -5.659   1.346  1.00  0.00     0.012 A 
ATOM     24  C   UNL     1       8.004  -6.817   2.048  1.00  0.00     0.001 A 
ENDBRANCH  13  14
ENDBRANCH   9  12
ENDBRANCH   7   8
BRANCH   7  25
ATOM     25  C   UNL     1       5.082  -0.496  -4.178  1.00  0.00    -0.016 A 
ATOM     26  C   UNL     1       4.989  -1.598  -5.072  1.00  0.00     0.006 A 
ATOM     27  C   UNL     1       4.768   0.768  -4.696  1.00  0.00     0.006 A 
ATOM     28  C   UNL     1       4.532  -1.457  -6.388  1.00  0.00     0.000 A 
ATOM     29  C   UNL     1       4.327   0.909  -6.027  1.00  0.00     0.000 A 
ATOM     30  C   UNL     1       4.189  -0.200  -6.864  1.00  0.00     0.000 A 
ENDBRANCH   7  25
ENDBRANCH   4   7
ENDBRANCH   2   3
ENDBRANCH   1   2
BRANCH   1  31
ATOM     31  C   UNL     1       5.880  -2.269   2.664  1.00  0.00     0.118 C 
BRANCH  31  32
ATOM     32  N   UNL     1       7.141  -2.515   3.337  1.00  0.00    -0.352 N 
ATOM     33  C   UNL     1       7.405  -3.312   4.444  1.00  0.00     0.251 C 
ATOM     34  H   UNL     1       7.921  -2.051   2.955  1.00  0.00     0.163 HD
ATOM     35  O   UNL     1       8.496  -3.176   4.999  1.00  0.00    -0.269 OA
BRANCH  33  36
ATOM     36  C   UNL     1       6.445  -4.322   4.990  1.00  0.00     0.039 A 
ATOM     37  C   UNL     1       5.721  -5.172   4.156  1.00  0.00     0.014 A 
ATOM     38  C   UNL     1       6.362  -4.530   6.377  1.00  0.00     0.014 A 
ATOM     39  C   UNL     1       4.910  -6.186   4.670  1.00  0.00     0.010 A 
ATOM     40  C   UNL     1       5.531  -5.534   6.906  1.00  0.00     0.010 A 
ATOM     41  C   UNL     1       4.788  -6.360   6.050  1.00  0.00    -0.014 A 
BRANCH  41  42
ATOM     42  C   UNL     1       3.769  -7.312   6.555  1.00  0.00     0.031 A 
ATOM     43  C   UNL     1       2.429  -6.767   6.961  1.00  0.00     0.074 A 
ATOM     44  C   UNL     1       3.994  -8.640   6.539  1.00  0.00     0.049 A 
ATOM     45  N   UNL     1       1.388  -7.395   7.437  1.00  0.00    -0.248 NA
ATOM     46  C   UNL     1       2.227  -5.318   6.783  1.00  0.00     0.031 C 
ATOM     47  C   UNL     1       5.223  -9.278   6.067  1.00  0.00     0.029 A 
ATOM     48  N   UNL     1       3.195  -9.692   6.913  1.00  0.00    -0.354 N 
ATOM     49  C   UNL     1       0.423  -6.417   7.647  1.00  0.00     0.074 A 
ATOM     50  C   UNL     1       0.990  -5.155   7.229  1.00  0.00     0.031 C 
ATOM     51  C   UNL     1       5.095 -10.612   6.175  1.00  0.00     0.029 A 
ATOM     52  C   UNL     1       3.796 -10.921   6.768  1.00  0.00     0.049 A 
ATOM     53  H   UNL     1       2.277  -9.578   7.252  1.00  0.00     0.167 HD
ATOM     54  C   UNL     1      -0.825  -6.563   8.145  1.00  0.00     0.034 A 
ATOM     55  C   UNL     1       3.357 -12.152   7.104  1.00  0.00     0.034 A 
ATOM     56  C   UNL     1      -1.377  -7.826   8.542  1.00  0.00     0.049 A 
ATOM     57  C   UNL     1       1.994 -12.282   7.730  1.00  0.00     0.074 A 
ATOM     58  C   UNL     1      -2.616  -8.086   9.097  1.00  0.00     0.029 A 
ATOM     59  N   UNL     1      -0.718  -9.040   8.428  1.00  0.00    -0.354 N 
ATOM     60  N   UNL     1       1.098 -11.347   7.941  1.00  0.00    -0.248 NA
ATOM     61  C   UNL     1       1.577 -13.623   8.165  1.00  0.00     0.031 C 
ATOM     62  C   UNL     1      -2.697  -9.461   9.337  1.00  0.00     0.029 A 
ATOM     63  C   UNL     1      -1.520 -10.057   8.909  1.00  0.00     0.049 A 
ATOM     64  H   UNL     1       0.187  -9.160   8.059  1.00  0.00     0.167 HD
ATOM     65  C   UNL     1       0.009 -11.983   8.522  1.00  0.00     0.074 A 
ATOM     66  C   UNL     1       0.350 -13.389   8.617  1.00  0.00     0.031 C 
ATOM     67  C   UNL     1      -1.161 -11.451   8.952  1.00  0.00     0.034 A 
BRANCH  54  68
ATOM     68  C   UNL     1      -1.668  -5.329   8.302  1.00  0.00     0.023 A 
ATOM     69  C   UNL     1      -2.320  -4.777   7.183  1.00  0.00     0.012 A 
ATOM     70  C   UNL     1      -1.854  -4.749   9.572  1.00  0.00     0.148 A 
ATOM     71  C   UNL     1      -3.137  -3.655   7.324  1.00  0.00     0.002 A 
ATOM     72  C   UNL     1      -2.691  -3.649   9.709  1.00  0.00     0.091 A 
ATOM     73  F   UNL     1      -1.208  -5.285  10.617  1.00  0.00    -0.205 F 
ATOM     74  C   UNL     1      -3.330  -3.098   8.586  1.00  0.00     0.022 A 
BRANCH  72  75
ATOM     75  S   UNL     1      -3.033  -2.877  11.294  1.00  0.00     0.127 S 
ATOM     76  O   UNL     1      -2.517  -1.525  11.082  1.00  0.00    -0.237 OA
ATOM     77  O   UNL     1      -4.490  -2.970  11.370  1.00  0.00    -0.237 OA
ATOM     78  O   UNL     1      -2.312  -3.659  12.290  1.00  0.00    -0.744 OA
ENDBRANCH  72  75
ENDBRANCH  54  68
BRANCH  55  79
ATOM     79  C   UNL     1       4.221 -13.342   6.856  1.00  0.00     0.023 A 
ATOM     80  C   UNL     1       3.893 -14.245   5.828  1.00  0.00     0.012 A 
ATOM     81  C   UNL     1       5.407 -13.542   7.592  1.00  0.00     0.148 A 
ATOM     82  C   UNL     1       4.732 -15.322   5.532  1.00  0.00     0.002 A 
ATOM     83  C   UNL     1       6.259 -14.592   7.267  1.00  0.00     0.091 A 
ATOM     84  F   UNL     1       5.691 -12.680   8.578  1.00  0.00    -0.205 F 
ATOM     85  C   UNL     1       5.920 -15.488   6.241  1.00  0.00     0.022 A 
BRANCH  83  86
ATOM     86  S   UNL     1       7.855 -14.829   8.056  1.00  0.00     0.127 S 
ATOM     87  O   UNL     1       7.677 -16.122   8.711  1.00  0.00    -0.237 OA
ATOM     88  O   UNL     1       8.758 -14.838   6.906  1.00  0.00    -0.237 OA
ATOM     89  O   UNL     1       8.027 -13.693   8.953  1.00  0.00    -0.744 OA
ENDBRANCH  83  86
ENDBRANCH  55  79
BRANCH  67  90
ATOM     90  C   UNL     1      -2.177 -12.378   9.555  1.00  0.00     0.023 A 
ATOM     91  C   UNL     1      -2.035 -12.779  10.896  1.00  0.00     0.012 A 
ATOM     92  C   UNL     1      -3.345 -12.710   8.842  1.00  0.00     0.148 A 
ATOM     93  C   UNL     1      -3.048 -13.502  11.524  1.00  0.00     0.002 A 
ATOM     94  C   UNL     1      -4.365 -13.398   9.485  1.00  0.00     0.091 A 
ATOM     95  F   UNL     1      -3.446 -12.314   7.566  1.00  0.00    -0.205 F 
ATOM     96  C   UNL     1      -4.217 -13.797  10.824  1.00  0.00     0.022 A 
BRANCH  94  97
ATOM     97  S   UNL     1      -5.937 -13.747   8.689  1.00  0.00     0.127 S 
ATOM     98  O   UNL     1      -5.912 -15.212   8.620  1.00  0.00    -0.237 OA
ATOM     99  O   UNL     1      -6.896 -13.205   9.659  1.00  0.00    -0.237 OA
ATOM    100  O   UNL     1      -5.910 -13.067   7.413  1.00  0.00    -0.744 OA
ENDBRANCH  94  97
ENDBRANCH  67  90
ENDBRANCH  41  42
ENDBRANCH  33  36
ENDBRANCH  31  32
ENDBRANCH   1  31
TORSDOF 17
