REMARK SMILES Cn1cc(C(=O)NCCCNC(=O)c2ccc(-c3c4nc(c(-c5cccc(S(=O)(=O)[O-])c5F)c5ccc([nH]5)c(-c5cccc(S(=O)(=O)[O-])c5F)c5nc(c(-c6cccc(S(=O)(=O)[O-])c6F)c6ccc3[nH]6)C=C5)C=C4)cc2)c(C(=O)Nc2ccc(-c3nc4cc(Cl)ccc4o3)cc2)n1
REMARK SMILES IDX 9 1 8 2 7 3 5 4 6 5 4 7 1 8 2 9 3 10 97 11 77 12 78 13 79 14
REMARK SMILES IDX 80 15 81 17 82 18 96 19 83 20 95 21 84 22 85 23 86 24 94 25
REMARK SMILES IDX 87 26 93 27 88 28 92 29 89 30 91 31 90 32 10 33 11 34 12 35
REMARK SMILES IDX 13 37 14 38 15 39 76 40 16 41 75 42 17 43 18 44 19 45 69 46
REMARK SMILES IDX 20 47 74 48 68 49 70 50 21 51 73 52 67 53 66 54 22 56 54 57
REMARK SMILES IDX 34 58 53 59 35 60 38 61 52 62 71 63 36 64 37 65 51 67 72 68
REMARK SMILES IDX 39 69 23 70 24 71 32 72 25 73 27 74 33 75 26 76 28 77 29 78
REMARK SMILES IDX 30 79 31 80 55 81 56 82 64 83 57 84 59 85 65 86 58 87 60 88
REMARK SMILES IDX 61 89 62 90 63 91 40 92 41 93 49 94 42 95 44 96 50 97 43 98
REMARK SMILES IDX 45 99 46 100 47 101 48 102
REMARK H PARENT 7 6 80 16 11 36 70 55 38 66
REMARK Flexibility Score: inf
ROOT
ATOM      1  C   UNL     1       0.469  -4.329  -0.545  1.00  0.00     0.042 C 
ENDROOT
BRANCH   1   2
ATOM      2  C   UNL     1       0.543  -3.916   0.923  1.00  0.00     0.118 C 
BRANCH   2   3
ATOM      3  N   UNL     1       1.657  -3.067   1.300  1.00  0.00    -0.352 N 
ATOM      4  C   UNL     1       1.817  -1.700   1.315  1.00  0.00     0.255 C 
ATOM      5  O   UNL     1       2.716  -1.258   2.030  1.00  0.00    -0.269 OA
ATOM      6  H   UNL     1       2.451  -3.563   1.603  1.00  0.00     0.163 HD
BRANCH   4   7
ATOM      7  C   UNL     1       0.985  -0.811   0.517  1.00  0.00     0.090 A 
ATOM      8  C   UNL     1      -2.061   0.593  -0.816  1.00  0.00     0.173 C 
ATOM      9  N   UNL     1      -0.721   0.207  -0.441  1.00  0.00    -0.274 N 
ATOM     10  C   UNL     1      -0.349  -0.946   0.178  1.00  0.00     0.123 A 
ATOM     11  N   UNL     1       0.280   1.075  -0.596  1.00  0.00    -0.167 NA
ATOM     12  C   UNL     1       1.342   0.495   0.003  1.00  0.00     0.163 A 
BRANCH  12  13
ATOM     13  C   UNL     1       2.586   1.287   0.145  1.00  0.00     0.276 C 
ATOM     14  O   UNL     1       2.548   2.493   0.421  1.00  0.00    -0.267 OA
ATOM     15  N   UNL     1       3.842   0.726   0.070  1.00  0.00    -0.321 N 
ATOM     16  H   UNL     1       4.560   1.311   0.404  1.00  0.00     0.170 HD
BRANCH  15  17
ATOM     17  C   UNL     1       4.291  -0.514  -0.388  1.00  0.00     0.041 A 
ATOM     18  C   UNL     1       5.404  -1.053   0.266  1.00  0.00     0.027 A 
ATOM     19  C   UNL     1       3.675  -1.232  -1.411  1.00  0.00     0.027 A 
ATOM     20  C   UNL     1       5.792  -2.369   0.021  1.00  0.00     0.016 A 
ATOM     21  C   UNL     1       4.105  -2.533  -1.699  1.00  0.00     0.016 A 
ATOM     22  C   UNL     1       5.117  -3.133  -0.936  1.00  0.00     0.037 A 
BRANCH  22  23
ATOM     23  C   UNL     1       5.377  -4.558  -1.049  1.00  0.00     0.227 A 
ATOM     24  N   UNL     1       5.560  -5.316  -2.112  1.00  0.00    -0.209 NA
ATOM     25  O   UNL     1       5.254  -5.247   0.134  1.00  0.00    -0.436 OA
ATOM     26  C   UNL     1       5.586  -6.593  -1.601  1.00  0.00     0.111 A 
ATOM     27  C   UNL     1       5.363  -6.553  -0.234  1.00  0.00     0.155 A 
ATOM     28  C   UNL     1       5.747  -7.835  -2.227  1.00  0.00     0.053 A 
ATOM     29  C   UNL     1       5.245  -7.666   0.588  1.00  0.00     0.051 A 
ATOM     30  C   UNL     1       5.625  -8.982  -1.430  1.00  0.00     0.043 A 
ATOM     31  C   UNL     1       5.369  -8.902  -0.055  1.00  0.00     0.024 A 
ATOM     32  Cl  UNL     1       5.770 -10.535  -2.161  1.00  0.00    -0.084 Cl
ENDBRANCH  22  23
ENDBRANCH  15  17
ENDBRANCH  12  13
ENDBRANCH   4   7
ENDBRANCH   2   3
ENDBRANCH   1   2
BRANCH   1  33
ATOM     33  C   UNL     1       1.522  -5.330  -1.028  1.00  0.00     0.118 C 
BRANCH  33  34
ATOM     34  N   UNL     1       1.686  -6.489  -0.163  1.00  0.00    -0.352 N 
ATOM     35  C   UNL     1       1.698  -7.837  -0.411  1.00  0.00     0.251 C 
ATOM     36  H   UNL     1       1.812  -6.260   0.786  1.00  0.00     0.163 HD
ATOM     37  O   UNL     1       1.776  -8.596   0.556  1.00  0.00    -0.269 OA
BRANCH  35  38
ATOM     38  C   UNL     1       1.625  -8.413  -1.777  1.00  0.00     0.039 A 
ATOM     39  C   UNL     1       0.951  -9.633  -1.940  1.00  0.00     0.014 A 
ATOM     40  C   UNL     1       2.274  -7.842  -2.874  1.00  0.00     0.014 A 
ATOM     41  C   UNL     1       0.877 -10.244  -3.196  1.00  0.00     0.010 A 
ATOM     42  C   UNL     1       2.185  -8.440  -4.133  1.00  0.00     0.010 A 
ATOM     43  C   UNL     1       1.479  -9.639  -4.306  1.00  0.00    -0.014 A 
BRANCH  43  44
ATOM     44  C   UNL     1       1.320 -10.190  -5.674  1.00  0.00     0.031 A 
ATOM     45  C   UNL     1       2.457 -10.883  -6.363  1.00  0.00     0.074 A 
ATOM     46  C   UNL     1       0.176  -9.938  -6.338  1.00  0.00     0.049 A 
ATOM     47  N   UNL     1       2.534 -11.313  -7.595  1.00  0.00    -0.248 NA
ATOM     48  C   UNL     1       3.673 -11.111  -5.568  1.00  0.00     0.031 C 
ATOM     49  C   UNL     1      -0.973  -9.218  -5.785  1.00  0.00     0.029 A 
ATOM     50  N   UNL     1      -0.188 -10.208  -7.632  1.00  0.00    -0.354 N 
ATOM     51  C   UNL     1       3.811 -11.840  -7.735  1.00  0.00     0.074 A 
ATOM     52  C   UNL     1       4.480 -11.668  -6.462  1.00  0.00     0.031 C 
ATOM     53  C   UNL     1      -1.894  -9.061  -6.748  1.00  0.00     0.029 A 
ATOM     54  C   UNL     1      -1.397  -9.656  -7.985  1.00  0.00     0.049 A 
ATOM     55  H   UNL     1       0.362 -10.744  -8.248  1.00  0.00     0.167 HD
ATOM     56  C   UNL     1       4.365 -12.434  -8.820  1.00  0.00     0.034 A 
ATOM     57  C   UNL     1      -2.027  -9.617  -9.175  1.00  0.00     0.034 A 
ATOM     58  C   UNL     1       3.681 -12.633 -10.070  1.00  0.00     0.049 A 
ATOM     59  C   UNL     1      -1.409 -10.315 -10.353  1.00  0.00     0.074 A 
ATOM     60  C   UNL     1       4.128 -13.294 -11.202  1.00  0.00     0.029 A 
ATOM     61  N   UNL     1       2.407 -12.169 -10.357  1.00  0.00    -0.354 N 
ATOM     62  N   UNL     1      -0.265 -10.952 -10.421  1.00  0.00    -0.248 NA
ATOM     63  C   UNL     1      -2.180 -10.327 -11.604  1.00  0.00     0.031 C 
ATOM     64  C   UNL     1       3.121 -13.232 -12.172  1.00  0.00     0.029 A 
ATOM     65  C   UNL     1       2.049 -12.529 -11.645  1.00  0.00     0.049 A 
ATOM     66  H   UNL     1       1.839 -11.659  -9.735  1.00  0.00     0.167 HD
ATOM     67  C   UNL     1      -0.193 -11.471 -11.708  1.00  0.00     0.074 A 
ATOM     68  C   UNL     1      -1.415 -11.082 -12.384  1.00  0.00     0.031 C 
ATOM     69  C   UNL     1       0.802 -12.191 -12.281  1.00  0.00     0.034 A 
BRANCH  56  70
ATOM     70  C   UNL     1       5.760 -12.982  -8.681  1.00  0.00     0.023 A 
ATOM     71  C   UNL     1       5.948 -14.202  -8.002  1.00  0.00     0.012 A 
ATOM     72  C   UNL     1       6.866 -12.340  -9.270  1.00  0.00     0.148 A 
ATOM     73  C   UNL     1       7.218 -14.767  -7.895  1.00  0.00     0.002 A 
ATOM     74  C   UNL     1       8.126 -12.924  -9.183  1.00  0.00     0.091 A 
ATOM     75  F   UNL     1       6.673 -11.166  -9.889  1.00  0.00    -0.205 F 
ATOM     76  C   UNL     1       8.304 -14.134  -8.493  1.00  0.00     0.022 A 
BRANCH  74  77
ATOM     77  S   UNL     1       9.569 -12.205  -9.979  1.00  0.00     0.127 S 
ATOM     78  O   UNL     1      10.206 -11.508  -8.863  1.00  0.00    -0.237 OA
ATOM     79  O   UNL     1      10.293 -13.386 -10.451  1.00  0.00    -0.237 OA
ATOM     80  O   UNL     1       9.047 -11.357 -11.042  1.00  0.00    -0.744 OA
ENDBRANCH  74  77
ENDBRANCH  56  70
BRANCH  57  81
ATOM     81  C   UNL     1      -3.357  -8.955  -9.269  1.00  0.00     0.023 A 
ATOM     82  C   UNL     1      -4.514  -9.751  -9.358  1.00  0.00     0.012 A 
ATOM     83  C   UNL     1      -3.490  -7.556  -9.175  1.00  0.00     0.148 A 
ATOM     84  C   UNL     1      -5.780  -9.165  -9.364  1.00  0.00     0.002 A 
ATOM     85  C   UNL     1      -4.756  -6.982  -9.130  1.00  0.00     0.091 A 
ATOM     86  F   UNL     1      -2.377  -6.811  -9.110  1.00  0.00    -0.205 F 
ATOM     87  C   UNL     1      -5.902  -7.783  -9.236  1.00  0.00     0.022 A 
BRANCH  85  88
ATOM     88  S   UNL     1      -4.976  -5.227  -8.812  1.00  0.00     0.127 S 
ATOM     89  O   UNL     1      -5.092  -4.685 -10.162  1.00  0.00    -0.237 OA
ATOM     90  O   UNL     1      -6.215  -5.200  -8.030  1.00  0.00    -0.237 OA
ATOM     91  O   UNL     1      -3.795  -4.832  -8.055  1.00  0.00    -0.744 OA
ENDBRANCH  85  88
ENDBRANCH  57  81
BRANCH  69  92
ATOM     92  C   UNL     1       0.610 -12.631 -13.706  1.00  0.00     0.023 A 
ATOM     93  C   UNL     1       0.834 -11.710 -14.747  1.00  0.00     0.012 A 
ATOM     94  C   UNL     1       0.294 -13.967 -14.016  1.00  0.00     0.148 A 
ATOM     95  C   UNL     1       0.733 -12.111 -16.079  1.00  0.00     0.002 A 
ATOM     96  C   UNL     1       0.226 -14.367 -15.346  1.00  0.00     0.091 A 
ATOM     97  F   UNL     1       0.057 -14.822 -13.010  1.00  0.00    -0.205 F 
ATOM     98  C   UNL     1       0.441 -13.440 -16.379  1.00  0.00     0.022 A 
BRANCH  96  99
ATOM     99  S   UNL     1      -0.072 -16.079 -15.805  1.00  0.00     0.127 S 
ATOM    100  O   UNL     1      -1.508 -16.072 -16.074  1.00  0.00    -0.237 OA
ATOM    101  O   UNL     1       0.769 -16.243 -16.992  1.00  0.00    -0.237 OA
ATOM    102  O   UNL     1       0.355 -16.870 -14.658  1.00  0.00    -0.744 OA
ENDBRANCH  96  99
ENDBRANCH  69  92
ENDBRANCH  43  44
ENDBRANCH  35  38
ENDBRANCH  33  34
ENDBRANCH   1  33
TORSDOF 16
