REMARK SMILES O=C(NCCCNC(=O)[C@@H]1CCCC[C@H]1C(=O)Nc1ccc(NC(=O)c2ccco2)cc1)c1ccc(-c2c3nc(c(-c4cccc(S(=O)(=O)[O-])c4F)c4ccc([nH]4)c(-c4cccc(S(=O)(=O)[O-])c4F)c4nc(c(-c5cccc(S(=O)(=O)[O-])c5F)c5ccc2[nH]5)C=C4)C=C3)cc1
REMARK SMILES IDX 5 1 4 2 3 3 1 4 2 5 33 7 34 8 95 9 35 10 94 11 36 12 37 13
REMARK SMILES IDX 38 14 88 15 39 16 93 17 87 18 89 19 40 20 92 21 86 22 85 23
REMARK SMILES IDX 41 25 73 26 53 27 72 28 54 29 57 30 71 31 90 32 55 33 56 34
REMARK SMILES IDX 70 36 91 37 58 38 42 39 43 40 51 41 44 42 46 43 52 44 45 45
REMARK SMILES IDX 47 46 48 47 49 48 50 49 74 50 75 51 83 52 76 53 78 54 84 55
REMARK SMILES IDX 77 56 79 57 80 58 81 59 82 60 59 61 60 62 68 63 61 64 63 65
REMARK SMILES IDX 69 66 62 67 64 68 65 69 66 70 67 71 6 72 7 73 8 74 9 76
REMARK SMILES IDX 10 77 11 78 15 79 12 80 14 81 13 82 16 83 17 84 18 85 19 87
REMARK SMILES IDX 20 88 32 89 21 90 31 91 22 92 23 93 24 94 25 96 26 97 27 98
REMARK SMILES IDX 30 99 28 100 29 101
REMARK H PARENT 3 6 89 24 57 35 7 75 18 86 23 95
REMARK Flexibility Score: inf
ROOT
ATOM      1  C   UNL     1       4.888   2.469   0.869  1.00  0.00     0.042 C 
ENDROOT
BRANCH   1   2
ATOM      2  C   UNL     1       4.489   1.015   1.042  1.00  0.00     0.118 C 
BRANCH   2   3
ATOM      3  N   UNL     1       3.062   0.798   0.832  1.00  0.00    -0.352 N 
ATOM      4  O   UNL     1       1.191  -0.030  -0.083  1.00  0.00    -0.269 OA
ATOM      5  C   UNL     1       2.407  -0.137   0.070  1.00  0.00     0.251 C 
ATOM      6  H   UNL     1       2.474   1.424   1.314  1.00  0.00     0.163 HD
BRANCH   5   7
ATOM      7  C   UNL     1       3.147  -1.246  -0.575  1.00  0.00     0.039 A 
ATOM      8  C   UNL     1       4.232  -1.855   0.057  1.00  0.00     0.014 A 
ATOM      9  C   UNL     1       2.711  -1.721  -1.817  1.00  0.00     0.014 A 
ATOM     10  C   UNL     1       4.959  -2.840  -0.600  1.00  0.00     0.010 A 
ATOM     11  C   UNL     1       3.383  -2.780  -2.435  1.00  0.00     0.010 A 
ATOM     12  C   UNL     1       4.521  -3.337  -1.836  1.00  0.00    -0.014 A 
BRANCH  12  13
ATOM     13  C   UNL     1       5.190  -4.534  -2.401  1.00  0.00     0.031 A 
ATOM     14  C   UNL     1       5.939  -4.479  -3.700  1.00  0.00     0.074 A 
ATOM     15  C   UNL     1       5.098  -5.689  -1.711  1.00  0.00     0.049 A 
ATOM     16  N   UNL     1       6.607  -5.432  -4.296  1.00  0.00    -0.248 NA
ATOM     17  C   UNL     1       5.939  -3.201  -4.430  1.00  0.00     0.031 C 
ATOM     18  C   UNL     1       4.340  -5.866  -0.468  1.00  0.00     0.029 A 
ATOM     19  N   UNL     1       5.633  -6.927  -1.950  1.00  0.00    -0.354 N 
ATOM     20  C   UNL     1       7.071  -4.888  -5.487  1.00  0.00     0.074 A 
ATOM     21  C   UNL     1       6.613  -3.516  -5.530  1.00  0.00     0.031 C 
ATOM     22  C   UNL     1       4.474  -7.130  -0.045  1.00  0.00     0.029 A 
ATOM     23  C   UNL     1       5.282  -7.866  -1.008  1.00  0.00     0.049 A 
ATOM     24  H   UNL     1       6.213  -7.126  -2.721  1.00  0.00     0.167 HD
ATOM     25  C   UNL     1       7.821  -5.481  -6.446  1.00  0.00     0.034 A 
ATOM     26  C   UNL     1       5.559  -9.181  -0.936  1.00  0.00     0.034 A 
ATOM     27  C   UNL     1       8.306  -6.834  -6.370  1.00  0.00     0.049 A 
ATOM     28  C   UNL     1       6.419  -9.794  -2.001  1.00  0.00     0.074 A 
ATOM     29  C   UNL     1       9.160  -7.490  -7.240  1.00  0.00     0.029 A 
ATOM     30  N   UNL     1       7.970  -7.744  -5.380  1.00  0.00    -0.354 N 
ATOM     31  N   UNL     1       6.993  -9.216  -3.028  1.00  0.00    -0.248 NA
ATOM     32  C   UNL     1       6.689 -11.233  -1.889  1.00  0.00     0.031 C 
ATOM     33  C   UNL     1       9.320  -8.804  -6.789  1.00  0.00     0.029 A 
ATOM     34  C   UNL     1       8.578  -8.962  -5.630  1.00  0.00     0.049 A 
ATOM     35  H   UNL     1       7.385  -7.552  -4.612  1.00  0.00     0.167 HD
ATOM     36  C   UNL     1       7.700 -10.217  -3.680  1.00  0.00     0.074 A 
ATOM     37  C   UNL     1       7.516 -11.430  -2.907  1.00  0.00     0.031 C 
ATOM     38  C   UNL     1       8.415 -10.148  -4.829  1.00  0.00     0.034 A 
BRANCH  25  39
ATOM     39  C   UNL     1       8.210  -4.670  -7.652  1.00  0.00     0.023 A 
ATOM     40  C   UNL     1       9.251  -3.727  -7.547  1.00  0.00     0.012 A 
ATOM     41  C   UNL     1       7.630  -4.925  -8.911  1.00  0.00     0.148 A 
ATOM     42  C   UNL     1       9.703  -3.041  -8.674  1.00  0.00     0.002 A 
ATOM     43  C   UNL     1       8.108  -4.262 -10.036  1.00  0.00     0.091 A 
ATOM     44  F   UNL     1       6.629  -5.814  -8.984  1.00  0.00    -0.205 F 
ATOM     45  C   UNL     1       9.141  -3.317  -9.918  1.00  0.00     0.022 A 
BRANCH  43  46
ATOM     46  S   UNL     1       7.501  -4.596 -11.694  1.00  0.00     0.127 S 
ATOM     47  O   UNL     1       6.817  -3.345 -12.014  1.00  0.00    -0.237 OA
ATOM     48  O   UNL     1       8.742  -4.819 -12.436  1.00  0.00    -0.237 OA
ATOM     49  O   UNL     1       6.640  -5.765 -11.580  1.00  0.00    -0.744 OA
ENDBRANCH  43  46
ENDBRANCH  25  39
BRANCH  26  50
ATOM     50  C   UNL     1       5.036  -9.988   0.201  1.00  0.00     0.023 A 
ATOM     51  C   UNL     1       5.928 -10.491   1.166  1.00  0.00     0.012 A 
ATOM     52  C   UNL     1       3.656 -10.219   0.355  1.00  0.00     0.148 A 
ATOM     53  C   UNL     1       5.456 -11.232   2.250  1.00  0.00     0.002 A 
ATOM     54  C   UNL     1       3.187 -10.905   1.470  1.00  0.00     0.091 A 
ATOM     55  F   UNL     1       2.820  -9.753  -0.584  1.00  0.00    -0.205 F 
ATOM     56  C   UNL     1       4.086 -11.427   2.410  1.00  0.00     0.022 A 
BRANCH  54  57
ATOM     57  S   UNL     1       1.429 -11.049   1.808  1.00  0.00     0.127 S 
ATOM     58  O   UNL     1       1.121 -12.362   1.251  1.00  0.00    -0.237 OA
ATOM     59  O   UNL     1       1.383 -10.974   3.269  1.00  0.00    -0.237 OA
ATOM     60  O   UNL     1       0.824  -9.904   1.139  1.00  0.00    -0.744 OA
ENDBRANCH  54  57
ENDBRANCH  26  50
BRANCH  38  61
ATOM     61  C   UNL     1       9.045 -11.421  -5.323  1.00  0.00     0.023 A 
ATOM     62  C   UNL     1       8.229 -12.412  -5.904  1.00  0.00     0.012 A 
ATOM     63  C   UNL     1      10.438 -11.611  -5.268  1.00  0.00     0.148 A 
ATOM     64  C   UNL     1       8.789 -13.590  -6.396  1.00  0.00     0.002 A 
ATOM     65  C   UNL     1      10.993 -12.769  -5.800  1.00  0.00     0.091 A 
ATOM     66  F   UNL     1      11.192 -10.665  -4.691  1.00  0.00    -0.205 F 
ATOM     67  C   UNL     1      10.170 -13.763  -6.354  1.00  0.00     0.022 A 
BRANCH  65  68
ATOM     68  S   UNL     1      12.768 -13.036  -5.867  1.00  0.00     0.127 S 
ATOM     69  O   UNL     1      12.963 -14.013  -4.797  1.00  0.00    -0.237 OA
ATOM     70  O   UNL     1      12.954 -13.566  -7.218  1.00  0.00    -0.237 OA
ATOM     71  O   UNL     1      13.376 -11.731  -5.643  1.00  0.00    -0.744 OA
ENDBRANCH  65  68
ENDBRANCH  38  61
ENDBRANCH  12  13
ENDBRANCH   5   7
ENDBRANCH   2   3
ENDBRANCH   1   2
BRANCH   1  72
ATOM     72  C   UNL     1       4.265   3.386   1.905  1.00  0.00     0.117 C 
BRANCH  72  73
ATOM     73  N   UNL     1       5.032   3.568   3.121  1.00  0.00    -0.356 N 
ATOM     74  C   UNL     1       5.828   4.619   3.493  1.00  0.00     0.223 C 
ATOM     75  H   UNL     1       4.974   2.832   3.772  1.00  0.00     0.163 HD
ATOM     76  O   UNL     1       6.210   4.680   4.662  1.00  0.00    -0.275 OA
BRANCH  74  77
ATOM     77  C   UNL     1       6.272   5.635   2.433  1.00  0.00     0.091 C 
ATOM     78  C   UNL     1       7.720   6.074   2.749  1.00  0.00     0.014 C 
ATOM     79  C   UNL     1       5.331   6.858   2.315  1.00  0.00     0.091 C 
ATOM     80  C   UNL     1       8.214   7.194   1.841  1.00  0.00     0.001 C 
ATOM     81  C   UNL     1       5.904   8.118   1.636  1.00  0.00     0.014 C 
ATOM     82  C   UNL     1       7.342   8.426   2.007  1.00  0.00     0.001 C 
BRANCH  79  83
ATOM     83  C   UNL     1       3.935   6.606   1.744  1.00  0.00     0.228 C 
ATOM     84  O   UNL     1       2.979   6.545   2.532  1.00  0.00    -0.274 OA
ATOM     85  N   UNL     1       3.615   6.484   0.423  1.00  0.00    -0.326 N 
ATOM     86  H   UNL     1       2.641   6.514   0.284  1.00  0.00     0.169 HD
BRANCH  85  87
ATOM     87  C   UNL     1       4.304   6.327  -0.795  1.00  0.00     0.041 A 
ATOM     88  C   UNL     1       3.575   6.549  -1.966  1.00  0.00     0.028 A 
ATOM     89  C   UNL     1       5.628   5.938  -0.943  1.00  0.00     0.028 A 
ATOM     90  C   UNL     1       4.196   6.503  -3.224  1.00  0.00     0.028 A 
ATOM     91  C   UNL     1       6.245   5.861  -2.194  1.00  0.00     0.028 A 
ATOM     92  C   UNL     1       5.558   6.233  -3.339  1.00  0.00     0.041 A 
BRANCH  92  93
ATOM     93  N   UNL     1       6.320   6.328  -4.514  1.00  0.00    -0.319 N 
ATOM     94  C   UNL     1       6.111   7.011  -5.694  1.00  0.00     0.291 C 
ATOM     95  H   UNL     1       7.158   5.812  -4.491  1.00  0.00     0.170 HD
ATOM     96  O   UNL     1       6.957   6.886  -6.582  1.00  0.00    -0.265 OA
BRANCH  94  97
ATOM     97  C   UNL     1       4.983   7.899  -5.810  1.00  0.00     0.191 A 
ATOM     98  C   UNL     1       4.631   9.052  -5.129  1.00  0.00     0.056 A 
ATOM     99  O   UNL     1       4.005   7.582  -6.710  1.00  0.00    -0.459 OA
ATOM    100  C   UNL     1       3.347   9.420  -5.602  1.00  0.00     0.043 A 
ATOM    101  C   UNL     1       3.015   8.497  -6.565  1.00  0.00     0.196 A 
ENDBRANCH  94  97
ENDBRANCH  92  93
ENDBRANCH  85  87
ENDBRANCH  79  83
ENDBRANCH  74  77
ENDBRANCH  72  73
ENDBRANCH   1  72
TORSDOF 17
