REMARK SMILES O=C(NCCCNC(=O)[C@@H]1CCCN(c2ccc3cc(S(=O)(=O)N4CCCCC4)ccc3n2)C1)c1ccc(-c2c3nc(c(-c4cccc(S(=O)(=O)[O-])c4F)c4ccc([nH]4)c(-c4cccc(S(=O)(=O)[O-])c4F)c4nc(c(-c5cccc(S(=O)(=O)[O-])c5F)c5ccc2[nH]5)C=C4)C=C3)cc1
REMARK SMILES IDX 5 1 4 2 3 3 1 4 2 5 35 7 36 8 97 9 37 10 96 11 38 12 39 13
REMARK SMILES IDX 40 14 90 15 41 16 95 17 89 18 91 19 42 20 94 21 88 22 87 23
REMARK SMILES IDX 43 25 75 26 55 27 74 28 56 29 59 30 73 31 92 32 57 33 58 34
REMARK SMILES IDX 72 36 93 37 60 38 44 39 45 40 53 41 46 42 48 43 54 44 47 45
REMARK SMILES IDX 49 46 50 47 51 48 52 49 76 50 77 51 85 52 78 53 80 54 86 55
REMARK SMILES IDX 79 56 81 57 82 58 83 59 84 60 61 61 62 62 70 63 63 64 65 65
REMARK SMILES IDX 71 66 64 67 66 68 67 69 68 70 69 71 6 72 7 73 8 74 9 76
REMARK SMILES IDX 10 77 11 78 34 79 12 80 14 81 13 82 15 83 16 84 33 85 17 86
REMARK SMILES IDX 32 87 18 88 31 89 19 90 30 91 20 92 21 93 22 94 23 95 24 96
REMARK SMILES IDX 25 97 29 98 26 99 28 100 27 101
REMARK H PARENT 3 6 91 24 59 35 7 75
REMARK Flexibility Score: inf
ROOT
ATOM      1  C   UNL     1       4.413   0.657  -2.645  1.00  0.00     0.042 C 
ENDROOT
BRANCH   1   2
ATOM      2  C   UNL     1       4.315   0.960  -1.155  1.00  0.00     0.118 C 
BRANCH   2   3
ATOM      3  N   UNL     1       2.945   0.892  -0.667  1.00  0.00    -0.352 N 
ATOM      4  O   UNL     1       1.133  -0.053   0.267  1.00  0.00    -0.269 OA
ATOM      5  C   UNL     1       2.356  -0.028   0.168  1.00  0.00     0.251 C 
ATOM      6  H   UNL     1       2.352   1.613  -0.981  1.00  0.00     0.163 HD
BRANCH   5   7
ATOM      7  C   UNL     1       3.191  -0.988   0.926  1.00  0.00     0.039 A 
ATOM      8  C   UNL     1       4.384  -0.575   1.521  1.00  0.00     0.014 A 
ATOM      9  C   UNL     1       2.761  -2.311   1.078  1.00  0.00     0.014 A 
ATOM     10  C   UNL     1       5.217  -1.508   2.125  1.00  0.00     0.010 A 
ATOM     11  C   UNL     1       3.551  -3.226   1.784  1.00  0.00     0.010 A 
ATOM     12  C   UNL     1       4.800  -2.839   2.292  1.00  0.00    -0.014 A 
BRANCH  12  13
ATOM     13  C   UNL     1       5.653  -3.752   3.097  1.00  0.00     0.031 A 
ATOM     14  C   UNL     1       6.282  -4.983   2.507  1.00  0.00     0.074 A 
ATOM     15  C   UNL     1       5.889  -3.423   4.384  1.00  0.00     0.049 A 
ATOM     16  N   UNL     1       7.123  -5.818   3.063  1.00  0.00    -0.248 NA
ATOM     17  C   UNL     1       5.919  -5.334   1.125  1.00  0.00     0.031 C 
ATOM     18  C   UNL     1       5.279  -2.288   5.084  1.00  0.00     0.029 A 
ATOM     19  N   UNL     1       6.709  -3.988   5.326  1.00  0.00    -0.354 N 
ATOM     20  C   UNL     1       7.372  -6.803   2.116  1.00  0.00     0.074 A 
ATOM     21  C   UNL     1       6.579  -6.473   0.951  1.00  0.00     0.031 C 
ATOM     22  C   UNL     1       5.779  -2.213   6.324  1.00  0.00     0.029 A 
ATOM     23  C   UNL     1       6.702  -3.322   6.529  1.00  0.00     0.049 A 
ATOM     24  H   UNL     1       7.250  -4.793   5.157  1.00  0.00     0.167 HD
ATOM     25  C   UNL     1       8.202  -7.872   2.203  1.00  0.00     0.034 A 
ATOM     26  C   UNL     1       7.357  -3.576   7.677  1.00  0.00     0.034 A 
ATOM     27  C   UNL     1       9.007  -8.180   3.357  1.00  0.00     0.049 A 
ATOM     28  C   UNL     1       8.305  -4.738   7.724  1.00  0.00     0.074 A 
ATOM     29  C   UNL     1       9.905  -9.220   3.527  1.00  0.00     0.029 A 
ATOM     30  N   UNL     1       9.013  -7.453   4.538  1.00  0.00    -0.354 N 
ATOM     31  N   UNL     1       8.618  -5.584   6.772  1.00  0.00    -0.248 NA
ATOM     32  C   UNL     1       9.015  -4.963   8.990  1.00  0.00     0.031 C 
ATOM     33  C   UNL     1      10.446  -9.128   4.815  1.00  0.00     0.029 A 
ATOM     34  C   UNL     1       9.898  -8.020   5.441  1.00  0.00     0.049 A 
ATOM     35  H   UNL     1       8.468  -6.652   4.710  1.00  0.00     0.167 HD
ATOM     36  C   UNL     1       9.566  -6.437   7.321  1.00  0.00     0.074 A 
ATOM     37  C   UNL     1       9.812  -5.973   8.672  1.00  0.00     0.031 C 
ATOM     38  C   UNL     1      10.158  -7.524   6.768  1.00  0.00     0.034 A 
BRANCH  25  39
ATOM     39  C   UNL     1       8.329  -8.767   0.995  1.00  0.00     0.023 A 
ATOM     40  C   UNL     1       9.061  -8.315  -0.122  1.00  0.00     0.012 A 
ATOM     41  C   UNL     1       7.810 -10.076   0.996  1.00  0.00     0.148 A 
ATOM     42  C   UNL     1       9.255  -9.142  -1.228  1.00  0.00     0.002 A 
ATOM     43  C   UNL     1       8.040 -10.909  -0.095  1.00  0.00     0.091 A 
ATOM     44  F   UNL     1       7.103 -10.483   2.060  1.00  0.00    -0.205 F 
ATOM     45  C   UNL     1       8.755 -10.441  -1.209  1.00  0.00     0.022 A 
BRANCH  43  46
ATOM     46  S   UNL     1       7.501 -12.623  -0.143  1.00  0.00     0.127 S 
ATOM     47  O   UNL     1       6.456 -12.574  -1.165  1.00  0.00    -0.237 OA
ATOM     48  O   UNL     1       8.722 -13.318  -0.553  1.00  0.00    -0.237 OA
ATOM     49  O   UNL     1       7.043 -12.940   1.202  1.00  0.00    -0.744 OA
ENDBRANCH  43  46
ENDBRANCH  25  39
BRANCH  26  50
ATOM     50  C   UNL     1       7.157  -2.686   8.855  1.00  0.00     0.023 A 
ATOM     51  C   UNL     1       8.210  -1.864   9.299  1.00  0.00     0.012 A 
ATOM     52  C   UNL     1       5.911  -2.617   9.507  1.00  0.00     0.148 A 
ATOM     53  C   UNL     1       8.032  -1.010  10.389  1.00  0.00     0.002 A 
ATOM     54  C   UNL     1       5.721  -1.717  10.548  1.00  0.00     0.091 A 
ATOM     55  F   UNL     1       4.925  -3.423   9.086  1.00  0.00    -0.205 F 
ATOM     56  C   UNL     1       6.785  -0.925  11.003  1.00  0.00     0.022 A 
BRANCH  54  57
ATOM     57  S   UNL     1       4.100  -1.444  11.272  1.00  0.00     0.127 S 
ATOM     58  O   UNL     1       4.179  -2.239  12.493  1.00  0.00    -0.237 OA
ATOM     59  O   UNL     1       4.094   0.006  11.479  1.00  0.00    -0.237 OA
ATOM     60  O   UNL     1       3.151  -1.902  10.266  1.00  0.00    -0.744 OA
ENDBRANCH  54  57
ENDBRANCH  26  50
BRANCH  38  61
ATOM     61  C   UNL     1      11.131  -8.282   7.631  1.00  0.00     0.023 A 
ATOM     62  C   UNL     1      10.648  -9.059   8.703  1.00  0.00     0.012 A 
ATOM     63  C   UNL     1      12.513  -8.253   7.365  1.00  0.00     0.148 A 
ATOM     64  C   UNL     1      11.529  -9.761   9.524  1.00  0.00     0.002 A 
ATOM     65  C   UNL     1      13.382  -8.992   8.160  1.00  0.00     0.091 A 
ATOM     66  F   UNL     1      12.956  -7.490   6.355  1.00  0.00    -0.205 F 
ATOM     67  C   UNL     1      12.894  -9.735   9.247  1.00  0.00     0.022 A 
BRANCH  65  68
ATOM     68  S   UNL     1      15.143  -9.084   7.820  1.00  0.00     0.127 S 
ATOM     69  O   UNL     1      15.689  -8.178   8.829  1.00  0.00    -0.237 OA
ATOM     70  O   UNL     1      15.434 -10.499   8.049  1.00  0.00    -0.237 OA
ATOM     71  O   UNL     1      15.302  -8.655   6.437  1.00  0.00    -0.744 OA
ENDBRANCH  65  68
ENDBRANCH  38  61
ENDBRANCH  12  13
ENDBRANCH   5   7
ENDBRANCH   2   3
ENDBRANCH   1   2
BRANCH   1  72
ATOM     72  C   UNL     1       3.837   1.752  -3.533  1.00  0.00     0.117 C 
BRANCH  72  73
ATOM     73  N   UNL     1       4.484   3.027  -3.320  1.00  0.00    -0.356 N 
ATOM     74  C   UNL     1       5.478   3.681  -3.960  1.00  0.00     0.224 C 
ATOM     75  H   UNL     1       4.126   3.521  -2.548  1.00  0.00     0.163 HD
ATOM     76  O   UNL     1       5.622   4.853  -3.589  1.00  0.00    -0.275 OA
BRANCH  74  77
ATOM     77  C   UNL     1       6.252   3.125  -5.163  1.00  0.00     0.098 C 
ATOM     78  C   UNL     1       6.666   1.642  -5.210  1.00  0.00     0.017 C 
ATOM     79  C   UNL     1       7.514   3.995  -5.363  1.00  0.00     0.131 C 
ATOM     80  C   UNL     1       7.838   1.293  -4.289  1.00  0.00     0.022 C 
ATOM     81  N   UNL     1       8.557   3.568  -4.433  1.00  0.00    -0.356 N 
ATOM     82  C   UNL     1       9.036   2.203  -4.547  1.00  0.00     0.118 C 
BRANCH  81  83
ATOM     83  C   UNL     1       9.365   4.495  -3.813  1.00  0.00     0.129 A 
ATOM     84  C   UNL     1       8.808   5.479  -3.001  1.00  0.00     0.047 A 
ATOM     85  N   UNL     1      10.700   4.383  -3.953  1.00  0.00    -0.231 NA
ATOM     86  C   UNL     1       9.629   6.364  -2.312  1.00  0.00     0.014 A 
ATOM     87  C   UNL     1      11.495   5.253  -3.315  1.00  0.00     0.073 A 
ATOM     88  C   UNL     1      11.007   6.268  -2.470  1.00  0.00     0.002 A 
ATOM     89  C   UNL     1      12.862   5.156  -3.497  1.00  0.00     0.030 A 
ATOM     90  C   UNL     1      11.886   7.149  -1.822  1.00  0.00     0.032 A 
ATOM     91  C   UNL     1      13.748   6.038  -2.874  1.00  0.00     0.024 A 
ATOM     92  C   UNL     1      13.263   7.039  -2.034  1.00  0.00     0.083 A 
BRANCH  92  93
ATOM     93  S   UNL     1      14.297   8.240  -1.214  1.00  0.00     0.243 S 
ATOM     94  O   UNL     1      13.911   9.530  -1.758  1.00  0.00    -0.207 OA
ATOM     95  O   UNL     1      14.201   7.964   0.200  1.00  0.00    -0.207 OA
BRANCH  93  96
ATOM     96  N   UNL     1      15.910   7.945  -1.700  1.00  0.00    -0.198 NA
ATOM     97  C   UNL     1      16.544   6.741  -1.106  1.00  0.00     0.102 C 
ATOM     98  C   UNL     1      16.233   8.310  -3.101  1.00  0.00     0.102 C 
ATOM     99  C   UNL     1      18.003   6.588  -1.510  1.00  0.00     0.017 C 
ATOM    100  C   UNL     1      17.704   8.113  -3.431  1.00  0.00     0.017 C 
ATOM    101  C   UNL     1      18.184   6.734  -3.012  1.00  0.00     0.003 C 
ENDBRANCH  93  96
ENDBRANCH  92  93
ENDBRANCH  81  83
ENDBRANCH  74  77
ENDBRANCH  72  73
ENDBRANCH   1  72
TORSDOF 16
