REMARK SMILES NC(=O)Nc1ccc(C(=O)N2C[C@@H](O)C[C@@H]2C(=O)NCCCNC(=O)c2ccc(-c3c4nc(c(-c5cccc(S(=O)(=O)[O-])c5F)c5ccc([nH]5)c(-c5cccc(S(=O)(=O)[O-])c5F)c5nc(c(-c6cccc(S(=O)(=O)[O-])c6F)c6ccc3[nH]6)C=C5)C=C4)cc2)cc1
REMARK SMILES IDX 21 1 20 2 19 3 17 4 18 5 16 7 11 8 12 9 13 10 15 11 9 12
REMARK SMILES IDX 10 13 8 14 5 15 6 16 90 17 7 18 89 19 4 20 1 21 2 22 3 25
REMARK SMILES IDX 14 27 22 29 23 30 24 31 25 33 26 34 27 35 88 36 28 37 87 38
REMARK SMILES IDX 29 39 30 40 31 41 81 42 32 43 86 44 80 45 82 46 33 47 85 48
REMARK SMILES IDX 79 49 78 50 34 52 66 53 46 54 65 55 47 56 50 57 64 58 83 59
REMARK SMILES IDX 48 60 49 61 63 63 84 64 51 65 35 66 36 67 44 68 37 69 39 70
REMARK SMILES IDX 45 71 38 72 40 73 41 74 42 75 43 76 67 77 68 78 76 79 69 80
REMARK SMILES IDX 71 81 77 82 70 83 72 84 73 85 74 86 75 87 52 88 53 89 61 90
REMARK SMILES IDX 54 91 56 92 62 93 55 94 57 95 58 96 59 97 60 98
REMARK H PARENT 19 6 1 23 1 24 4 26 14 28 23 32 82 51 50 62
REMARK Flexibility Score: inf
ROOT
ATOM      1  C   UNL     1      10.224  -2.968   0.139  1.00  0.00     0.042 C 
ENDROOT
BRANCH   1   2
ATOM      2  C   UNL     1       9.372  -1.984  -0.641  1.00  0.00     0.117 C 
BRANCH   2   3
ATOM      3  N   UNL     1       8.094  -1.690  -0.027  1.00  0.00    -0.354 N 
ATOM      4  C   UNL     1       7.416  -0.507   0.031  1.00  0.00     0.242 C 
ATOM      5  O   UNL     1       6.233  -0.568   0.374  1.00  0.00    -0.273 OA
ATOM      6  H   UNL     1       7.651  -2.452   0.411  1.00  0.00     0.163 HD
BRANCH   4   7
ATOM      7  C   UNL     1       8.138   0.826  -0.301  1.00  0.00     0.177 C 
ATOM      8  N   UNL     1       7.227   1.968  -0.159  1.00  0.00    -0.324 N 
ATOM      9  C   UNL     1       7.161   2.764  -1.369  1.00  0.00     0.152 C 
ATOM     10  C   UNL     1       7.503   1.758  -2.454  1.00  0.00     0.136 C 
ATOM     11  C   UNL     1       8.566   0.892  -1.777  1.00  0.00     0.069 C 
BRANCH   8  12
ATOM     12  C   UNL     1       6.655   2.305   1.045  1.00  0.00     0.254 C 
ATOM     13  O   UNL     1       7.300   2.346   2.094  1.00  0.00    -0.269 OA
BRANCH  12  14
ATOM     14  C   UNL     1       5.159   2.414   1.068  1.00  0.00     0.040 A 
ATOM     15  C   UNL     1       2.359   2.178   1.300  1.00  0.00     0.042 A 
ATOM     16  C   UNL     1       3.111   2.752   2.332  1.00  0.00     0.027 A 
ATOM     17  C   UNL     1       3.000   1.814   0.119  1.00  0.00     0.027 A 
ATOM     18  C   UNL     1       4.508   2.856   2.224  1.00  0.00     0.016 A 
ATOM     19  C   UNL     1       4.385   1.909   0.015  1.00  0.00     0.016 A 
BRANCH  15  20
ATOM     20  N   UNL     1       0.977   2.003   1.491  1.00  0.00    -0.308 N 
ATOM     21  N   UNL     1       0.598   0.097   0.215  1.00  0.00    -0.351 N 
ATOM     22  C   UNL     1       0.102   1.167   0.870  1.00  0.00     0.316 C 
ATOM     23  H   UNL     1      -0.011  -0.525  -0.244  1.00  0.00     0.161 HD
ATOM     24  H   UNL     1       1.570  -0.061   0.196  1.00  0.00     0.161 HD
ATOM     25  O   UNL     1      -1.113   1.331   0.963  1.00  0.00    -0.249 OA
ATOM     26  H   UNL     1       0.580   2.576   2.185  1.00  0.00     0.171 HD
ENDBRANCH  15  20
ENDBRANCH  12  14
ENDBRANCH   8  12
BRANCH  10  27
ATOM     27  O   UNL     1       7.983   2.351  -3.645  1.00  0.00    -0.391 OA
ATOM     28  H   UNL     1       8.774   2.878  -3.448  1.00  0.00     0.211 HD
ENDBRANCH  10  27
ENDBRANCH   4   7
ENDBRANCH   2   3
ENDBRANCH   1   2
BRANCH   1  29
ATOM     29  C   UNL     1       9.547  -4.276   0.518  1.00  0.00     0.118 C 
BRANCH  29  30
ATOM     30  N   UNL     1       9.048  -5.039  -0.617  1.00  0.00    -0.352 N 
ATOM     31  C   UNL     1       9.310  -6.334  -1.002  1.00  0.00     0.251 C 
ATOM     32  H   UNL     1       8.425  -4.550  -1.202  1.00  0.00     0.163 HD
ATOM     33  O   UNL     1       8.846  -6.746  -2.063  1.00  0.00    -0.269 OA
BRANCH  31  34
ATOM     34  C   UNL     1      10.168  -7.217  -0.177  1.00  0.00     0.039 A 
ATOM     35  C   UNL     1      11.084  -8.055  -0.820  1.00  0.00     0.014 A 
ATOM     36  C   UNL     1      10.078  -7.233   1.216  1.00  0.00     0.014 A 
ATOM     37  C   UNL     1      11.955  -8.847  -0.064  1.00  0.00     0.010 A 
ATOM     38  C   UNL     1      11.013  -7.941   1.967  1.00  0.00     0.010 A 
ATOM     39  C   UNL     1      11.955  -8.768   1.338  1.00  0.00    -0.014 A 
BRANCH  39  40
ATOM     40  C   UNL     1      12.928  -9.540   2.156  1.00  0.00     0.031 A 
ATOM     41  C   UNL     1      12.446 -10.556   3.160  1.00  0.00     0.074 A 
ATOM     42  C   UNL     1      14.246  -9.274   2.054  1.00  0.00     0.049 A 
ATOM     43  N   UNL     1      13.144 -11.306   3.973  1.00  0.00    -0.248 NA
ATOM     44  C   UNL     1      10.989 -10.729   3.293  1.00  0.00     0.031 C 
ATOM     45  C   UNL     1      14.838  -8.247   1.194  1.00  0.00     0.029 A 
ATOM     46  N   UNL     1      15.326  -9.831   2.692  1.00  0.00    -0.354 N 
ATOM     47  C   UNL     1      12.218 -12.008   4.735  1.00  0.00     0.074 A 
ATOM     48  C   UNL     1      10.906 -11.563   4.320  1.00  0.00     0.031 C 
ATOM     49  C   UNL     1      16.172  -8.260   1.345  1.00  0.00     0.029 A 
ATOM     50  C   UNL     1      16.531  -9.277   2.327  1.00  0.00     0.049 A 
ATOM     51  H   UNL     1      15.246 -10.559   3.350  1.00  0.00     0.167 HD
ATOM     52  C   UNL     1      12.433 -12.965   5.669  1.00  0.00     0.034 A 
ATOM     53  C   UNL     1      17.786  -9.561   2.731  1.00  0.00     0.034 A 
ATOM     54  C   UNL     1      13.735 -13.449   6.040  1.00  0.00     0.049 A 
ATOM     55  C   UNL     1      18.002 -10.679   3.715  1.00  0.00     0.074 A 
ATOM     56  C   UNL     1      14.056 -14.481   6.903  1.00  0.00     0.029 A 
ATOM     57  N   UNL     1      14.932 -12.935   5.568  1.00  0.00    -0.354 N 
ATOM     58  N   UNL     1      17.114 -11.448   4.296  1.00  0.00    -0.248 NA
ATOM     59  C   UNL     1      19.393 -10.997   4.066  1.00  0.00     0.031 C 
ATOM     60  C   UNL     1      15.450 -14.582   6.964  1.00  0.00     0.029 A 
ATOM     61  C   UNL     1      15.995 -13.626   6.122  1.00  0.00     0.049 A 
ATOM     62  H   UNL     1      15.014 -12.188   4.933  1.00  0.00     0.167 HD
ATOM     63  C   UNL     1      17.838 -12.367   5.048  1.00  0.00     0.074 A 
ATOM     64  C   UNL     1      19.240 -12.068   4.833  1.00  0.00     0.031 C 
ATOM     65  C   UNL     1      17.384 -13.359   5.853  1.00  0.00     0.034 A 
BRANCH  52  66
ATOM     66  C   UNL     1      11.225 -13.602   6.308  1.00  0.00     0.023 A 
ATOM     67  C   UNL     1      10.414 -14.468   5.545  1.00  0.00     0.012 A 
ATOM     68  C   UNL     1      10.922 -13.392   7.667  1.00  0.00     0.148 A 
ATOM     69  C   UNL     1       9.298 -15.083   6.112  1.00  0.00     0.002 A 
ATOM     70  C   UNL     1       9.835 -14.045   8.238  1.00  0.00     0.091 A 
ATOM     71  F   UNL     1      11.690 -12.550   8.373  1.00  0.00    -0.205 F 
ATOM     72  C   UNL     1       9.015 -14.880   7.460  1.00  0.00     0.022 A 
BRANCH  70  73
ATOM     73  S   UNL     1       9.435 -13.913   9.985  1.00  0.00     0.127 S 
ATOM     74  O   UNL     1       8.244 -13.066   9.951  1.00  0.00    -0.237 OA
ATOM     75  O   UNL     1       9.181 -15.308  10.350  1.00  0.00    -0.237 OA
ATOM     76  O   UNL     1      10.606 -13.325  10.619  1.00  0.00    -0.744 OA
ENDBRANCH  70  73
ENDBRANCH  52  66
BRANCH  53  77
ATOM     77  C   UNL     1      18.941  -8.836   2.129  1.00  0.00     0.023 A 
ATOM     78  C   UNL     1      19.793  -9.518   1.239  1.00  0.00     0.012 A 
ATOM     79  C   UNL     1      19.177  -7.474   2.397  1.00  0.00     0.148 A 
ATOM     80  C   UNL     1      20.878  -8.867   0.651  1.00  0.00     0.002 A 
ATOM     81  C   UNL     1      20.227  -6.817   1.766  1.00  0.00     0.091 A 
ATOM     82  F   UNL     1      18.362  -6.845   3.255  1.00  0.00    -0.205 F 
ATOM     83  C   UNL     1      21.089  -7.515   0.905  1.00  0.00     0.022 A 
BRANCH  81  84
ATOM     84  S   UNL     1      20.490  -5.047   1.927  1.00  0.00     0.127 S 
ATOM     85  O   UNL     1      21.693  -4.997   2.754  1.00  0.00    -0.237 OA
ATOM     86  O   UNL     1      20.681  -4.640   0.535  1.00  0.00    -0.237 OA
ATOM     87  O   UNL     1      19.276  -4.525   2.540  1.00  0.00    -0.744 OA
ENDBRANCH  81  84
ENDBRANCH  53  77
BRANCH  65  88
ATOM     88  C   UNL     1      18.405 -14.230   6.535  1.00  0.00     0.023 A 
ATOM     89  C   UNL     1      19.156 -13.720   7.612  1.00  0.00     0.012 A 
ATOM     90  C   UNL     1      18.563 -15.579   6.159  1.00  0.00     0.148 A 
ATOM     91  C   UNL     1      20.070 -14.530   8.284  1.00  0.00     0.002 A 
ATOM     92  C   UNL     1      19.441 -16.393   6.864  1.00  0.00     0.091 A 
ATOM     93  F   UNL     1      17.854 -16.041   5.118  1.00  0.00    -0.205 F 
ATOM     94  C   UNL     1      20.203 -15.868   7.919  1.00  0.00     0.022 A 
BRANCH  92  95
ATOM     95  S   UNL     1      19.603 -18.150   6.523  1.00  0.00     0.127 S 
ATOM     96  O   UNL     1      20.885 -18.201   5.824  1.00  0.00    -0.237 OA
ATOM     97  O   UNL     1      19.618 -18.729   7.867  1.00  0.00    -0.237 OA
ATOM     98  O   UNL     1      18.438 -18.511   5.726  1.00  0.00    -0.744 OA
ENDBRANCH  92  95
ENDBRANCH  65  88
ENDBRANCH  39  40
ENDBRANCH  31  34
ENDBRANCH  29  30
ENDBRANCH   1  29
TORSDOF 17
