REMARK SMILES Cc1ccc(C(C)C)c(OCC(=O)Nc2nc(CC(=O)NCCCNC(=O)c3ccc(-c4c5nc(c(-c6cccc(S(=O)(=O)[O-])c6F)c6ccc([nH]6)c(-c6cccc(S(=O)(=O)[O-])c6F)c6nc(c(-c7cccc(S(=O)(=O)[O-])c7F)c7ccc4[nH]7)C=C6)C=C5)cc3)cs2)c1
REMARK SMILES IDX 19 1 20 2 21 3 18 5 17 6 15 7 16 8 92 9 91 10 14 11 12 12
REMARK SMILES IDX 13 13 11 15 10 16 9 17 1 18 2 19 3 20 93 21 4 22 5 23 6 24
REMARK SMILES IDX 7 25 8 26 22 27 23 28 24 29 25 30 26 31 27 33 28 34 29 35
REMARK SMILES IDX 90 36 30 37 89 38 31 39 32 40 33 41 83 42 34 43 88 44 82 45
REMARK SMILES IDX 84 46 35 47 87 48 81 49 80 50 36 52 68 53 48 54 67 55 49 56
REMARK SMILES IDX 52 57 66 58 85 59 50 60 51 61 65 63 86 64 53 65 37 66 38 67
REMARK SMILES IDX 46 68 39 69 41 70 47 71 40 72 42 73 43 74 44 75 45 76 69 77
REMARK SMILES IDX 70 78 78 79 71 80 73 81 79 82 72 83 74 84 75 85 76 86 77 87
REMARK SMILES IDX 54 88 55 89 63 90 56 91 58 92 64 93 57 94 59 95 60 96 61 97
REMARK SMILES IDX 62 98
REMARK H PARENT 21 4 14 14 25 32 84 51 52 62
REMARK Flexibility Score: inf
ROOT
ATOM      1  C   UNL     1      -6.200   1.520   2.898  1.00  0.00     0.226 C 
ATOM      2  O   UNL     1      -7.370   1.586   3.279  1.00  0.00    -0.275 OA
ATOM      3  N   UNL     1      -5.376   0.572   3.443  1.00  0.00    -0.356 N 
ATOM      4  H   UNL     1      -5.747   0.069   4.203  1.00  0.00     0.163 HD
ENDROOT
BRANCH   1   5
ATOM      5  C   UNL     1      -5.679   2.472   1.834  1.00  0.00     0.157 C 
BRANCH   5   6
ATOM      6  C   UNL     1      -4.630   3.380   2.381  1.00  0.00     0.063 A 
ATOM      7  C   UNL     1      -2.550   4.081   2.480  1.00  0.00     0.189 A 
ATOM      8  N   UNL     1      -3.401   3.428   1.739  1.00  0.00    -0.224 NA
ATOM      9  S   UNL     1      -3.171   4.826   3.883  1.00  0.00    -0.105 S 
ATOM     10  C   UNL     1      -4.711   4.156   3.526  1.00  0.00     0.093 A 
BRANCH   7  11
ATOM     11  N   UNL     1      -1.209   4.219   2.312  1.00  0.00    -0.299 N 
ATOM     12  C   UNL     1      -0.491   3.837   1.221  1.00  0.00     0.264 C 
ATOM     13  O   UNL     1       0.739   3.970   1.273  1.00  0.00    -0.271 OA
ATOM     14  H   UNL     1      -0.708   4.635   3.050  1.00  0.00     0.172 HD
BRANCH  12  15
ATOM     15  C   UNL     1      -1.173   3.377  -0.085  1.00  0.00     0.329 C 
BRANCH  15  16
ATOM     16  O   UNL     1      -1.746   2.086  -0.177  1.00  0.00    -0.483 OA
BRANCH  16  17
ATOM     17  C   UNL     1      -0.940   0.983  -0.260  1.00  0.00     0.123 A 
ATOM     18  C   UNL     1       2.712  -0.097  -0.030  1.00  0.00     0.044 C 
ATOM     19  C   UNL     1       1.221  -0.149  -0.178  1.00  0.00    -0.047 A 
ATOM     20  C   UNL     1       0.576  -1.379  -0.290  1.00  0.00     0.004 A 
ATOM     21  C   UNL     1       0.457   1.026  -0.180  1.00  0.00     0.050 A 
ATOM     22  C   UNL     1      -0.810  -1.434  -0.424  1.00  0.00     0.008 A 
ATOM     23  C   UNL     1      -1.591  -0.264  -0.406  1.00  0.00    -0.003 A 
BRANCH  23  24
ATOM     24  C   UNL     1      -3.106  -0.371  -0.548  1.00  0.00     0.017 C 
ATOM     25  C   UNL     1      -3.519  -0.549  -2.010  1.00  0.00     0.012 C 
ATOM     26  C   UNL     1      -3.699  -1.515   0.286  1.00  0.00     0.012 C 
ENDBRANCH  23  24
ENDBRANCH  16  17
ENDBRANCH  15  16
ENDBRANCH  12  15
ENDBRANCH   7  11
ENDBRANCH   5   6
ENDBRANCH   1   5
BRANCH   3  27
ATOM     27  C   UNL     1      -4.024   0.211   3.046  1.00  0.00     0.117 C 
BRANCH  27  28
ATOM     28  C   UNL     1      -2.925   0.774   3.933  1.00  0.00     0.042 C 
BRANCH  28  29
ATOM     29  C   UNL     1      -2.738  -0.017   5.211  1.00  0.00     0.118 C 
BRANCH  29  30
ATOM     30  N   UNL     1      -1.756  -1.087   5.144  1.00  0.00    -0.352 N 
ATOM     31  C   UNL     1      -1.402  -2.021   6.111  1.00  0.00     0.251 C 
ATOM     32  H   UNL     1      -1.271  -1.160   4.291  1.00  0.00     0.163 HD
ATOM     33  O   UNL     1      -0.437  -2.738   5.899  1.00  0.00    -0.269 OA
BRANCH  31  34
ATOM     34  C   UNL     1      -2.260  -2.224   7.316  1.00  0.00     0.039 A 
ATOM     35  C   UNL     1      -2.436  -3.527   7.806  1.00  0.00     0.014 A 
ATOM     36  C   UNL     1      -3.039  -1.196   7.830  1.00  0.00     0.014 A 
ATOM     37  C   UNL     1      -3.551  -3.830   8.590  1.00  0.00     0.010 A 
ATOM     38  C   UNL     1      -4.208  -1.506   8.479  1.00  0.00     0.010 A 
ATOM     39  C   UNL     1      -4.492  -2.832   8.810  1.00  0.00    -0.014 A 
BRANCH  39  40
ATOM     40  C   UNL     1      -5.853  -3.030   9.281  1.00  0.00     0.031 A 
ATOM     41  C   UNL     1      -6.251  -2.578  10.626  1.00  0.00     0.074 A 
ATOM     42  C   UNL     1      -6.788  -3.272   8.335  1.00  0.00     0.049 A 
ATOM     43  N   UNL     1      -7.378  -2.861  11.183  1.00  0.00    -0.248 NA
ATOM     44  C   UNL     1      -5.383  -1.759  11.460  1.00  0.00     0.031 C 
ATOM     45  C   UNL     1      -8.213  -2.976   8.400  1.00  0.00     0.029 A 
ATOM     46  N   UNL     1      -6.647  -4.020   7.163  1.00  0.00    -0.354 N 
ATOM     47  C   UNL     1      -7.515  -2.033  12.279  1.00  0.00     0.074 A 
ATOM     48  C   UNL     1      -6.208  -1.449  12.463  1.00  0.00     0.031 C 
ATOM     49  C   UNL     1      -8.851  -3.746   7.506  1.00  0.00     0.029 A 
ATOM     50  C   UNL     1      -7.872  -4.681   6.980  1.00  0.00     0.049 A 
ATOM     51  H   UNL     1      -5.852  -4.072   6.584  1.00  0.00     0.167 HD
ATOM     52  C   UNL     1      -8.762  -1.825  12.793  1.00  0.00     0.034 A 
ATOM     53  C   UNL     1      -7.997  -6.041   6.980  1.00  0.00     0.034 A 
ATOM     54  C   UNL     1      -9.759  -2.642  12.080  1.00  0.00     0.049 A 
ATOM     55  C   UNL     1      -8.946  -6.547   8.052  1.00  0.00     0.074 A 
ATOM     56  C   UNL     1     -10.680  -2.345  11.088  1.00  0.00     0.029 A 
ATOM     57  N   UNL     1      -9.716  -4.028  12.174  1.00  0.00    -0.354 N 
ATOM     58  N   UNL     1      -9.448  -5.801   8.996  1.00  0.00    -0.248 NA
ATOM     59  C   UNL     1      -9.390  -7.933   8.159  1.00  0.00     0.031 C 
ATOM     60  C   UNL     1     -11.135  -3.569  10.531  1.00  0.00     0.029 A 
ATOM     61  C   UNL     1     -10.514  -4.610  11.202  1.00  0.00     0.049 A 
ATOM     62  H   UNL     1      -9.191  -4.528  12.841  1.00  0.00     0.167 HD
ATOM     63  C   UNL     1     -10.142  -6.573   9.891  1.00  0.00     0.074 A 
ATOM     64  C   UNL     1     -10.142  -7.889   9.275  1.00  0.00     0.031 C 
ATOM     65  C   UNL     1     -10.595  -6.064  11.080  1.00  0.00     0.034 A 
BRANCH  52  66
ATOM     66  C   UNL     1      -9.180  -0.687  13.722  1.00  0.00     0.023 A 
ATOM     67  C   UNL     1     -10.568  -0.438  13.844  1.00  0.00     0.012 A 
ATOM     68  C   UNL     1      -8.342   0.204  14.432  1.00  0.00     0.148 A 
ATOM     69  C   UNL     1     -11.086   0.672  14.522  1.00  0.00     0.002 A 
ATOM     70  C   UNL     1      -8.851   1.341  15.071  1.00  0.00     0.091 A 
ATOM     71  F   UNL     1      -7.045  -0.066  14.574  1.00  0.00    -0.205 F 
ATOM     72  C   UNL     1     -10.224   1.583  15.110  1.00  0.00     0.022 A 
BRANCH  70  73
ATOM     73  S   UNL     1      -7.786   2.588  15.824  1.00  0.00     0.127 S 
ATOM     74  O   UNL     1      -8.248   3.817  15.177  1.00  0.00    -0.237 OA
ATOM     75  O   UNL     1      -8.130   2.481  17.241  1.00  0.00    -0.237 OA
ATOM     76  O   UNL     1      -6.417   2.217  15.486  1.00  0.00    -0.744 OA
ENDBRANCH  70  73
ENDBRANCH  52  66
BRANCH  53  77
ATOM     77  C   UNL     1      -6.785  -6.751   6.476  1.00  0.00     0.023 A 
ATOM     78  C   UNL     1      -6.452  -6.540   5.116  1.00  0.00     0.012 A 
ATOM     79  C   UNL     1      -5.793  -7.232   7.350  1.00  0.00     0.148 A 
ATOM     80  C   UNL     1      -5.137  -6.674   4.668  1.00  0.00     0.002 A 
ATOM     81  C   UNL     1      -4.480  -7.365   6.893  1.00  0.00     0.091 A 
ATOM     82  F   UNL     1      -6.121  -7.460   8.627  1.00  0.00    -0.205 F 
ATOM     83  C   UNL     1      -4.146  -7.052   5.565  1.00  0.00     0.022 A 
BRANCH  81  84
ATOM     84  S   UNL     1      -3.127  -7.792   8.000  1.00  0.00     0.127 S 
ATOM     85  O   UNL     1      -2.990  -9.225   7.756  1.00  0.00    -0.237 OA
ATOM     86  O   UNL     1      -2.031  -6.971   7.487  1.00  0.00    -0.237 OA
ATOM     87  O   UNL     1      -3.591  -7.403   9.324  1.00  0.00    -0.744 OA
ENDBRANCH  81  84
ENDBRANCH  53  77
BRANCH  65  88
ATOM     88  C   UNL     1     -11.142  -6.869  12.250  1.00  0.00     0.023 A 
ATOM     89  C   UNL     1     -10.919  -8.252  12.388  1.00  0.00     0.012 A 
ATOM     90  C   UNL     1     -11.779  -6.224  13.345  1.00  0.00     0.148 A 
ATOM     91  C   UNL     1     -11.343  -8.967  13.516  1.00  0.00     0.002 A 
ATOM     92  C   UNL     1     -12.095  -6.917  14.512  1.00  0.00     0.091 A 
ATOM     93  F   UNL     1     -12.108  -4.926  13.262  1.00  0.00    -0.205 F 
ATOM     94  C   UNL     1     -11.907  -8.296  14.591  1.00  0.00     0.022 A 
BRANCH  92  95
ATOM     95  S   UNL     1     -12.592  -6.032  15.998  1.00  0.00     0.127 S 
ATOM     96  O   UNL     1     -14.045  -5.981  15.854  1.00  0.00    -0.237 OA
ATOM     97  O   UNL     1     -12.119  -6.912  17.068  1.00  0.00    -0.237 OA
ATOM     98  O   UNL     1     -11.887  -4.759  15.923  1.00  0.00    -0.744 OA
ENDBRANCH  92  95
ENDBRANCH  65  88
ENDBRANCH  39  40
ENDBRANCH  31  34
ENDBRANCH  29  30
ENDBRANCH  28  29
ENDBRANCH  27  28
ENDBRANCH   3  27
TORSDOF 19
