REMARK SMILES CC[C@H](Oc1c(C)cc(Br)cc1C)C(=O)NCCCNC(=O)c1ccc(-c2c3nc(c(-c4cccc(S(=O)(=O)[O-])c4F)c4ccc([nH]4)c(-c4cccc(S(=O)(=O)[O-])c4F)c4nc(c(-c5cccc(S(=O)(=O)[O-])c5F)c5ccc2[nH]5)C=C4)C=C3)cc1
REMARK SMILES IDX 18 1 17 2 16 3 14 4 15 5 3 7 2 8 1 9 4 10 5 11 6 12 12 13
REMARK SMILES IDX 7 14 8 15 11 16 13 17 9 18 10 19 19 20 20 21 21 22 22 24
REMARK SMILES IDX 23 25 24 26 85 27 25 28 84 29 26 30 27 31 28 32 78 33 29 34
REMARK SMILES IDX 83 35 77 36 79 37 30 38 82 39 76 40 75 41 31 43 63 44 43 45
REMARK SMILES IDX 62 46 44 47 47 48 61 49 80 50 45 51 46 52 60 54 81 55 48 56
REMARK SMILES IDX 32 57 33 58 41 59 34 60 36 61 42 62 35 63 37 64 38 65 39 66
REMARK SMILES IDX 40 67 64 68 65 69 73 70 66 71 68 72 74 73 67 74 69 75 70 76
REMARK SMILES IDX 71 77 72 78 49 79 50 80 58 81 51 82 53 83 59 84 52 85 54 86
REMARK SMILES IDX 55 87 56 88 57 89
REMARK H PARENT 16 6 20 23 79 42 47 53
REMARK Flexibility Score: inf
ROOT
ATOM      1  C   UNL     1      -2.782   2.720   0.159  1.00  0.00     0.042 C 
ENDROOT
BRANCH   1   2
ATOM      2  C   UNL     1      -1.938   2.658  -1.103  1.00  0.00     0.118 C 
BRANCH   2   3
ATOM      3  N   UNL     1      -0.937   3.705  -1.139  1.00  0.00    -0.353 N 
ATOM      4  C   UNL     1       0.420   3.607  -1.114  1.00  0.00     0.261 C 
ATOM      5  O   UNL     1       1.064   4.662  -1.128  1.00  0.00    -0.271 OA
ATOM      6  H   UNL     1      -1.291   4.622  -1.188  1.00  0.00     0.163 HD
BRANCH   4   7
ATOM      7  C   UNL     1       1.138   2.243  -1.153  1.00  0.00     0.261 C 
BRANCH   7   8
ATOM      8  C   UNL     1       0.843   1.531  -2.493  1.00  0.00     0.052 C 
ATOM      9  C   UNL     1       0.561   0.037  -2.402  1.00  0.00     0.008 C 
ENDBRANCH   7   8
BRANCH   7  10
ATOM     10  O   UNL     1       0.802   1.451  -0.026  1.00  0.00    -0.480 OA
BRANCH  10  11
ATOM     11  C   UNL     1       1.701   0.704   0.690  1.00  0.00     0.126 A 
ATOM     12  C   UNL     1       3.083   0.508   0.460  1.00  0.00    -0.008 A 
ATOM     13  C   UNL     1       1.099   0.046   1.798  1.00  0.00    -0.008 A 
ATOM     14  C   UNL     1       3.891   1.032  -0.695  1.00  0.00     0.048 C 
ATOM     15  C   UNL     1       3.832  -0.247   1.395  1.00  0.00     0.023 A 
ATOM     16  C   UNL     1       1.874  -0.713   2.695  1.00  0.00     0.023 A 
ATOM     17  C   UNL     1      -0.382   0.101   2.086  1.00  0.00     0.048 C 
ATOM     18  C   UNL     1       3.236  -0.843   2.498  1.00  0.00     0.018 A 
ATOM     19  Br  UNL     1       4.284  -1.849   3.705  1.00  0.00    -0.051 Br
ENDBRANCH  10  11
ENDBRANCH   7  10
ENDBRANCH   4   7
ENDBRANCH   2   3
ENDBRANCH   1   2
BRANCH   1  20
ATOM     20  C   UNL     1      -3.520   4.036   0.353  1.00  0.00     0.118 C 
BRANCH  20  21
ATOM     21  N   UNL     1      -4.425   4.352  -0.744  1.00  0.00    -0.352 N 
ATOM     22  C   UNL     1      -5.787   4.543  -0.733  1.00  0.00     0.251 C 
ATOM     23  H   UNL     1      -3.997   4.443  -1.626  1.00  0.00     0.163 HD
ATOM     24  O   UNL     1      -6.397   4.634  -1.792  1.00  0.00    -0.269 OA
BRANCH  22  25
ATOM     25  C   UNL     1      -6.510   4.614   0.555  1.00  0.00     0.039 A 
ATOM     26  C   UNL     1      -7.716   3.925   0.692  1.00  0.00     0.014 A 
ATOM     27  C   UNL     1      -5.994   5.346   1.626  1.00  0.00     0.014 A 
ATOM     28  C   UNL     1      -8.367   3.913   1.927  1.00  0.00     0.010 A 
ATOM     29  C   UNL     1      -6.589   5.251   2.878  1.00  0.00     0.010 A 
ATOM     30  C   UNL     1      -7.787   4.542   3.042  1.00  0.00    -0.014 A 
BRANCH  30  31
ATOM     31  C   UNL     1      -8.412   4.462   4.387  1.00  0.00     0.031 A 
ATOM     32  C   UNL     1      -8.842   5.716   5.099  1.00  0.00     0.074 A 
ATOM     33  C   UNL     1      -8.509   3.268   5.006  1.00  0.00     0.049 A 
ATOM     34  N   UNL     1      -9.350   5.849   6.297  1.00  0.00    -0.248 NA
ATOM     35  C   UNL     1      -8.651   6.991   4.387  1.00  0.00     0.031 C 
ATOM     36  C   UNL     1      -8.047   1.990   4.457  1.00  0.00     0.029 A 
ATOM     37  N   UNL     1      -9.000   2.937   6.244  1.00  0.00    -0.354 N 
ATOM     38  C   UNL     1      -9.497   7.216   6.498  1.00  0.00     0.074 A 
ATOM     39  C   UNL     1      -8.996   7.874   5.312  1.00  0.00     0.031 C 
ATOM     40  C   UNL     1      -8.283   1.016   5.349  1.00  0.00     0.029 A 
ATOM     41  C   UNL     1      -8.877   1.601   6.547  1.00  0.00     0.049 A 
ATOM     42  H   UNL     1      -9.403   3.594   6.857  1.00  0.00     0.167 HD
ATOM     43  C   UNL     1     -10.025   7.865   7.562  1.00  0.00     0.034 A 
ATOM     44  C   UNL     1      -9.194   0.922   7.668  1.00  0.00     0.034 A 
ATOM     45  C   UNL     1     -10.562   7.205   8.720  1.00  0.00     0.049 A 
ATOM     46  C   UNL     1      -9.824   1.661   8.816  1.00  0.00     0.074 A 
ATOM     47  C   UNL     1     -11.212   7.768   9.804  1.00  0.00     0.029 A 
ATOM     48  N   UNL     1     -10.500   5.841   8.955  1.00  0.00    -0.354 N 
ATOM     49  N   UNL     1     -10.105   2.938   8.920  1.00  0.00    -0.248 NA
ATOM     50  C   UNL     1     -10.215   0.863   9.987  1.00  0.00     0.031 C 
ATOM     51  C   UNL     1     -11.509   6.747  10.712  1.00  0.00     0.029 A 
ATOM     52  C   UNL     1     -11.085   5.543  10.174  1.00  0.00     0.049 A 
ATOM     53  H   UNL     1     -10.100   5.180   8.344  1.00  0.00     0.167 HD
ATOM     54  C   UNL     1     -10.735   3.091  10.149  1.00  0.00     0.074 A 
ATOM     55  C   UNL     1     -10.814   1.773  10.744  1.00  0.00     0.031 C 
ATOM     56  C   UNL     1     -11.197   4.222  10.736  1.00  0.00     0.034 A 
BRANCH  43  57
ATOM     57  C   UNL     1     -10.088   9.370   7.509  1.00  0.00     0.023 A 
ATOM     58  C   UNL     1     -10.987  10.004   6.628  1.00  0.00     0.012 A 
ATOM     59  C   UNL     1      -9.307  10.153   8.381  1.00  0.00     0.148 A 
ATOM     60  C   UNL     1     -11.085  11.394   6.591  1.00  0.00     0.002 A 
ATOM     61  C   UNL     1      -9.446  11.536   8.374  1.00  0.00     0.091 A 
ATOM     62  F   UNL     1      -8.443   9.533   9.197  1.00  0.00    -0.205 F 
ATOM     63  C   UNL     1     -10.324  12.159   7.472  1.00  0.00     0.022 A 
BRANCH  61  64
ATOM     64  S   UNL     1      -8.576  12.605   9.526  1.00  0.00     0.127 S 
ATOM     65  O   UNL     1      -7.660  13.315   8.634  1.00  0.00    -0.237 OA
ATOM     66  O   UNL     1      -9.662  13.424  10.063  1.00  0.00    -0.237 OA
ATOM     67  O   UNL     1      -7.941  11.722  10.495  1.00  0.00    -0.744 OA
ENDBRANCH  61  64
ENDBRANCH  43  57
BRANCH  44  68
ATOM     68  C   UNL     1      -8.967  -0.549   7.733  1.00  0.00     0.023 A 
ATOM     69  C   UNL     1     -10.070  -1.424   7.730  1.00  0.00     0.012 A 
ATOM     70  C   UNL     1      -7.665  -1.085   7.759  1.00  0.00     0.148 A 
ATOM     71  C   UNL     1      -9.882  -2.806   7.785  1.00  0.00     0.002 A 
ATOM     72  C   UNL     1      -7.483  -2.462   7.755  1.00  0.00     0.091 A 
ATOM     73  F   UNL     1      -6.629  -0.234   7.768  1.00  0.00    -0.205 F 
ATOM     74  C   UNL     1      -8.590  -3.325   7.787  1.00  0.00     0.022 A 
BRANCH  72  75
ATOM     75  S   UNL     1      -5.860  -3.220   7.619  1.00  0.00     0.127 S 
ATOM     76  O   UNL     1      -5.713  -3.850   8.928  1.00  0.00    -0.237 OA
ATOM     77  O   UNL     1      -6.057  -4.150   6.505  1.00  0.00    -0.237 OA
ATOM     78  O   UNL     1      -4.937  -2.131   7.335  1.00  0.00    -0.744 OA
ENDBRANCH  72  75
ENDBRANCH  44  68
BRANCH  56  79
ATOM     79  C   UNL     1     -11.870   4.092  12.078  1.00  0.00     0.023 A 
ATOM     80  C   UNL     1     -11.107   3.798  13.225  1.00  0.00     0.012 A 
ATOM     81  C   UNL     1     -13.251   4.340  12.210  1.00  0.00     0.148 A 
ATOM     82  C   UNL     1     -11.714   3.719  14.478  1.00  0.00     0.002 A 
ATOM     83  C   UNL     1     -13.839   4.312  13.469  1.00  0.00     0.091 A 
ATOM     84  F   UNL     1     -13.963   4.601  11.104  1.00  0.00    -0.205 F 
ATOM     85  C   UNL     1     -13.075   3.988  14.601  1.00  0.00     0.022 A 
BRANCH  83  86
ATOM     86  S   UNL     1     -15.562   4.742  13.737  1.00  0.00     0.127 S 
ATOM     87  O   UNL     1     -16.145   3.443  14.069  1.00  0.00    -0.237 OA
ATOM     88  O   UNL     1     -15.476   5.677  14.859  1.00  0.00    -0.237 OA
ATOM     89  O   UNL     1     -16.028   5.335  12.490  1.00  0.00    -0.744 OA
ENDBRANCH  83  86
ENDBRANCH  56  79
ENDBRANCH  30  31
ENDBRANCH  22  25
ENDBRANCH  20  21
ENDBRANCH   1  20
TORSDOF 16
