REMARK SMILES Cc1c(Cl)ccc2c1C=C(C(=O)NCCCNC(=O)c1ccc(-c3c4nc(c(-c5cccc(S(=O)(=O)[O-])c5F)c5ccc([nH]5)c(-c5cccc(S(=O)(=O)[O-])c5F)c5nc(c(-c6cccc(S(=O)(=O)[O-])c6F)c6ccc3[nH]6)C=C5)C=C4)cc1)[C@@H](C(F)(F)F)O2
REMARK SMILES IDX 16 1 15 2 14 3 13 4 11 5 12 6 10 8 1 9 2 10 3 11 8 12 4 13
REMARK SMILES IDX 5 14 7 15 9 16 6 17 88 18 83 19 84 20 85 21 86 22 87 23
REMARK SMILES IDX 17 24 18 25 19 27 20 28 21 29 82 30 22 31 81 32 23 33 24 34
REMARK SMILES IDX 25 35 75 36 26 37 80 38 74 39 76 40 27 41 79 42 73 43 72 44
REMARK SMILES IDX 28 46 60 47 40 48 59 49 41 50 44 51 58 52 77 53 42 54 43 55
REMARK SMILES IDX 57 57 78 58 45 59 29 60 30 61 38 62 31 63 33 64 39 65 32 66
REMARK SMILES IDX 34 67 35 68 36 69 37 70 61 71 62 72 70 73 63 74 65 75 71 76
REMARK SMILES IDX 64 77 66 78 67 79 68 80 69 81 46 82 47 83 55 84 48 85 50 86
REMARK SMILES IDX 56 87 49 88 51 89 52 90 53 91 54 92
REMARK H PARENT 13 7 17 26 76 45 44 56
REMARK Flexibility Score: inf
ROOT
ATOM      1  C   UNL     1      -6.923   0.150  -5.001  1.00  0.00     0.118 C 
ENDROOT
BRANCH   1   2
ATOM      2  C   UNL     1      -5.978  -0.945  -4.517  1.00  0.00     0.042 C 
BRANCH   2   3
ATOM      3  C   UNL     1      -4.542  -0.706  -4.965  1.00  0.00     0.118 C 
BRANCH   3   4
ATOM      4  N   UNL     1      -3.894   0.334  -4.180  1.00  0.00    -0.352 N 
ATOM      5  C   UNL     1      -2.923   0.416  -3.243  1.00  0.00     0.251 C 
ATOM      6  O   UNL     1      -2.684   1.559  -2.839  1.00  0.00    -0.270 OA
ATOM      7  H   UNL     1      -4.265   1.222  -4.388  1.00  0.00     0.163 HD
BRANCH   5   8
ATOM      8  C   UNL     1      -2.138  -0.734  -2.708  1.00  0.00     0.067 C 
ATOM      9  C   UNL     1       1.073   0.184   0.061  1.00  0.00     0.047 C 
ATOM     10  C   UNL     1       0.684  -1.225  -0.310  1.00  0.00    -0.021 A 
ATOM     11  C   UNL     1       1.382  -2.323   0.238  1.00  0.00     0.044 A 
ATOM     12  C   UNL     1      -0.414  -1.489  -1.163  1.00  0.00     0.022 A 
ATOM     13  Cl  UNL     1       2.697  -2.116   1.345  1.00  0.00    -0.084 Cl
ATOM     14  C   UNL     1       1.032  -3.638  -0.080  1.00  0.00     0.024 A 
ATOM     15  C   UNL     1      -0.735  -2.816  -1.486  1.00  0.00     0.128 A 
ATOM     16  C   UNL     1      -1.282  -0.442  -1.711  1.00  0.00     0.026 C 
ATOM     17  C   UNL     1      -0.027  -3.884  -0.945  1.00  0.00     0.048 A 
ATOM     18  O   UNL     1      -1.773  -3.157  -2.307  1.00  0.00    -0.475 OA
ATOM     19  C   UNL     1      -2.225  -2.135  -3.233  1.00  0.00     0.314 C 
BRANCH  19  20
ATOM     20  C   UNL     1      -1.502  -2.309  -4.582  1.00  0.00     0.429 C 
ATOM     21  F   UNL     1      -1.892  -3.458  -5.189  1.00  0.00    -0.167 F 
ATOM     22  F   UNL     1      -1.770  -1.307  -5.452  1.00  0.00    -0.167 F 
ATOM     23  F   UNL     1      -0.157  -2.359  -4.451  1.00  0.00    -0.167 F 
ENDBRANCH  19  20
ENDBRANCH   5   8
ENDBRANCH   3   4
ENDBRANCH   2   3
ENDBRANCH   1   2
BRANCH   1  24
ATOM     24  N   UNL     1      -7.049   0.141  -6.457  1.00  0.00    -0.352 N 
ATOM     25  C   UNL     1      -8.048  -0.381  -7.239  1.00  0.00     0.251 C 
ATOM     26  H   UNL     1      -6.311   0.571  -6.946  1.00  0.00     0.163 HD
ATOM     27  O   UNL     1      -7.852  -0.576  -8.437  1.00  0.00    -0.269 OA
BRANCH  25  28
ATOM     28  C   UNL     1      -9.355  -0.702  -6.637  1.00  0.00     0.039 A 
ATOM     29  C   UNL     1      -9.991  -1.903  -6.960  1.00  0.00     0.014 A 
ATOM     30  C   UNL     1      -9.963   0.212  -5.771  1.00  0.00     0.014 A 
ATOM     31  C   UNL     1     -11.217  -2.212  -6.370  1.00  0.00     0.010 A 
ATOM     32  C   UNL     1     -11.144  -0.129  -5.128  1.00  0.00     0.010 A 
ATOM     33  C   UNL     1     -11.791  -1.334  -5.437  1.00  0.00    -0.014 A 
BRANCH  33  34
ATOM     34  C   UNL     1     -13.090  -1.628  -4.792  1.00  0.00     0.031 A 
ATOM     35  C   UNL     1     -14.278  -0.756  -5.085  1.00  0.00     0.074 A 
ATOM     36  C   UNL     1     -13.172  -2.606  -3.871  1.00  0.00     0.049 A 
ATOM     37  N   UNL     1     -15.478  -0.807  -4.573  1.00  0.00    -0.248 NA
ATOM     38  C   UNL     1     -14.084   0.334  -6.056  1.00  0.00     0.031 C 
ATOM     39  C   UNL     1     -12.062  -3.460  -3.445  1.00  0.00     0.029 A 
ATOM     40  N   UNL     1     -14.230  -3.026  -3.107  1.00  0.00    -0.354 N 
ATOM     41  C   UNL     1     -16.166   0.267  -5.122  1.00  0.00     0.074 A 
ATOM     42  C   UNL     1     -15.247   0.966  -5.990  1.00  0.00     0.031 C 
ATOM     43  C   UNL     1     -12.498  -4.303  -2.495  1.00  0.00     0.029 A 
ATOM     44  C   UNL     1     -13.911  -4.038  -2.235  1.00  0.00     0.049 A 
ATOM     45  H   UNL     1     -15.132  -2.638  -3.176  1.00  0.00     0.167 HD
ATOM     46  C   UNL     1     -17.459   0.620  -4.942  1.00  0.00     0.034 A 
ATOM     47  C   UNL     1     -14.671  -4.683  -1.328  1.00  0.00     0.034 A 
ATOM     48  C   UNL     1     -18.387  -0.121  -4.137  1.00  0.00     0.049 A 
ATOM     49  C   UNL     1     -16.123  -4.319  -1.196  1.00  0.00     0.074 A 
ATOM     50  C   UNL     1     -19.748   0.075  -3.999  1.00  0.00     0.029 A 
ATOM     51  N   UNL     1     -18.048  -1.197  -3.332  1.00  0.00    -0.354 N 
ATOM     52  N   UNL     1     -16.801  -3.406  -1.848  1.00  0.00    -0.248 NA
ATOM     53  C   UNL     1     -16.922  -5.088  -0.232  1.00  0.00     0.031 C 
ATOM     54  C   UNL     1     -20.233  -0.877  -3.097  1.00  0.00     0.029 A 
ATOM     55  C   UNL     1     -19.173  -1.669  -2.682  1.00  0.00     0.049 A 
ATOM     56  H   UNL     1     -17.142  -1.569  -3.238  1.00  0.00     0.167 HD
ATOM     57  C   UNL     1     -18.109  -3.501  -1.390  1.00  0.00     0.074 A 
ATOM     58  C   UNL     1     -18.132  -4.569  -0.411  1.00  0.00     0.031 C 
ATOM     59  C   UNL     1     -19.188  -2.760  -1.742  1.00  0.00     0.034 A 
BRANCH  46  60
ATOM     60  C   UNL     1     -17.964   1.825  -5.682  1.00  0.00     0.023 A 
ATOM     61  C   UNL     1     -18.243   1.722  -7.059  1.00  0.00     0.012 A 
ATOM     62  C   UNL     1     -18.219   3.033  -5.007  1.00  0.00     0.148 A 
ATOM     63  C   UNL     1     -18.752   2.813  -7.761  1.00  0.00     0.002 A 
ATOM     64  C   UNL     1     -18.757   4.107  -5.707  1.00  0.00     0.091 A 
ATOM     65  F   UNL     1     -17.923   3.111  -3.702  1.00  0.00    -0.205 F 
ATOM     66  C   UNL     1     -19.018   4.000  -7.083  1.00  0.00     0.022 A 
BRANCH  64  67
ATOM     67  S   UNL     1     -19.184   5.663  -4.919  1.00  0.00     0.127 S 
ATOM     68  O   UNL     1     -18.203   6.572  -5.512  1.00  0.00    -0.237 OA
ATOM     69  O   UNL     1     -20.559   5.869  -5.375  1.00  0.00    -0.237 OA
ATOM     70  O   UNL     1     -19.041   5.443  -3.487  1.00  0.00    -0.744 OA
ENDBRANCH  64  67
ENDBRANCH  46  60
BRANCH  47  71
ATOM     71  C   UNL     1     -14.069  -5.798  -0.551  1.00  0.00     0.023 A 
ATOM     72  C   UNL     1     -14.324  -7.123  -0.952  1.00  0.00     0.012 A 
ATOM     73  C   UNL     1     -13.163  -5.553   0.498  1.00  0.00     0.148 A 
ATOM     74  C   UNL     1     -13.684  -8.190  -0.321  1.00  0.00     0.002 A 
ATOM     75  C   UNL     1     -12.502  -6.619   1.099  1.00  0.00     0.091 A 
ATOM     76  F   UNL     1     -12.931  -4.281   0.850  1.00  0.00    -0.205 F 
ATOM     77  C   UNL     1     -12.768  -7.938   0.696  1.00  0.00     0.022 A 
BRANCH  75  78
ATOM     78  S   UNL     1     -11.224  -6.396   2.342  1.00  0.00     0.127 S 
ATOM     79  O   UNL     1     -11.754  -7.174   3.460  1.00  0.00    -0.237 OA
ATOM     80  O   UNL     1     -10.061  -6.985   1.677  1.00  0.00    -0.237 OA
ATOM     81  O   UNL     1     -11.137  -4.961   2.571  1.00  0.00    -0.744 OA
ENDBRANCH  75  78
ENDBRANCH  47  71
BRANCH  59  82
ATOM     82  C   UNL     1     -20.503  -3.058  -1.079  1.00  0.00     0.023 A 
ATOM     83  C   UNL     1     -20.753  -2.548   0.209  1.00  0.00     0.012 A 
ATOM     84  C   UNL     1     -21.536  -3.699  -1.790  1.00  0.00     0.148 A 
ATOM     85  C   UNL     1     -22.017  -2.672   0.782  1.00  0.00     0.002 A 
ATOM     86  C   UNL     1     -22.803  -3.788  -1.226  1.00  0.00     0.091 A 
ATOM     87  F   UNL     1     -21.266  -4.180  -3.012  1.00  0.00    -0.205 F 
ATOM     88  C   UNL     1     -23.044  -3.278   0.061  1.00  0.00     0.022 A 
BRANCH  86  89
ATOM     89  S   UNL     1     -24.210  -4.472  -2.109  1.00  0.00     0.127 S 
ATOM     90  O   UNL     1     -24.487  -5.681  -1.335  1.00  0.00    -0.237 OA
ATOM     91  O   UNL     1     -25.209  -3.413  -1.967  1.00  0.00    -0.237 OA
ATOM     92  O   UNL     1     -23.758  -4.702  -3.475  1.00  0.00    -0.744 OA
ENDBRANCH  86  89
ENDBRANCH  59  82
ENDBRANCH  33  34
ENDBRANCH  25  28
ENDBRANCH   1  24
TORSDOF 14
