REMARK SMILES C[C@H](Nc1ccc2c(c1)Cc1ccccc1-2)[C@@H](C)C(=O)NCCCNC(=O)c1ccc(-c2c3nc(c(-c4cccc(S(=O)(=O)[O-])c4F)c4ccc([nH]4)c(-c4cccc(S(=O)(=O)[O-])c4F)c4nc(c(-c5cccc(S(=O)(=O)[O-])c5F)c5ccc2[nH]5)C=C4)C=C3)cc1
REMARK SMILES IDX 23 1 22 2 21 3 19 4 20 5 17 7 18 8 2 9 1 10 3 11 4 13 5 14
REMARK SMILES IDX 9 15 6 16 8 17 7 18 10 19 16 20 11 21 15 22 12 23 14 24
REMARK SMILES IDX 13 25 24 26 25 27 26 28 27 30 28 31 29 32 90 33 30 34 89 35
REMARK SMILES IDX 31 36 32 37 33 38 83 39 34 40 88 41 82 42 84 43 35 44 87 45
REMARK SMILES IDX 81 46 80 47 36 49 68 50 48 51 67 52 49 53 52 54 66 55 85 56
REMARK SMILES IDX 50 57 51 58 65 60 86 61 53 62 37 63 38 64 46 65 39 66 41 67
REMARK SMILES IDX 47 68 40 69 42 70 43 71 44 72 45 73 69 74 70 75 78 76 71 77
REMARK SMILES IDX 73 78 79 79 72 80 74 81 75 82 76 83 77 84 54 85 55 86 63 87
REMARK SMILES IDX 56 88 58 89 64 90 57 91 59 92 60 93 61 94 62 95
REMARK H PARENT 21 6 3 12 25 29 84 48 52 59
REMARK Flexibility Score: inf
ROOT
ATOM      1  C   UNL     1       0.659   4.654   1.087  1.00  0.00     0.042 C 
ENDROOT
BRANCH   1   2
ATOM      2  C   UNL     1      -0.649   3.886   1.250  1.00  0.00     0.117 C 
BRANCH   2   3
ATOM      3  N   UNL     1      -1.383   3.788  -0.003  1.00  0.00    -0.356 N 
ATOM      4  C   UNL     1      -1.603   2.739  -0.841  1.00  0.00     0.224 C 
ATOM      5  O   UNL     1      -2.249   2.962  -1.869  1.00  0.00    -0.275 OA
ATOM      6  H   UNL     1      -1.794   4.632  -0.298  1.00  0.00     0.163 HD
BRANCH   4   7
ATOM      7  C   UNL     1      -1.127   1.325  -0.525  1.00  0.00     0.097 C 
ATOM      8  C   UNL     1      -1.945   0.785   0.647  1.00  0.00     0.020 C 
BRANCH   7   9
ATOM      9  C   UNL     1       0.413   1.248  -0.434  1.00  0.00     0.088 C 
ATOM     10  C   UNL     1       1.030   1.492  -1.824  1.00  0.00     0.031 C 
BRANCH   9  11
ATOM     11  N   UNL     1       0.888  -0.055   0.062  1.00  0.00    -0.382 N 
ATOM     12  H   UNL     1       0.719  -0.891  -0.430  1.00  0.00     0.160 HD
BRANCH  11  13
ATOM     13  C   UNL     1       1.594  -0.037   1.274  1.00  0.00     0.035 A 
ATOM     14  C   UNL     1       0.913   0.159   2.493  1.00  0.00     0.026 A 
ATOM     15  C   UNL     1       2.995  -0.102   1.284  1.00  0.00     0.030 A 
ATOM     16  C   UNL     1       1.583   0.261   3.715  1.00  0.00     0.011 A 
ATOM     17  C   UNL     1       3.660  -0.003   2.501  1.00  0.00    -0.034 A 
ATOM     18  C   UNL     1       2.959   0.171   3.712  1.00  0.00    -0.014 A 
ATOM     19  C   UNL     1       5.155  -0.052   2.770  1.00  0.00     0.072 C 
ATOM     20  C   UNL     1       3.903   0.214   4.805  1.00  0.00    -0.015 A 
ATOM     21  C   UNL     1       5.205   0.072   4.282  1.00  0.00    -0.036 A 
ATOM     22  C   UNL     1       3.699   0.353   6.169  1.00  0.00     0.009 A 
ATOM     23  C   UNL     1       6.315   0.064   5.110  1.00  0.00     0.005 A 
ATOM     24  C   UNL     1       4.814   0.341   7.011  1.00  0.00     0.001 A 
ATOM     25  C   UNL     1       6.109   0.196   6.486  1.00  0.00     0.000 A 
ENDBRANCH  11  13
ENDBRANCH   9  11
ENDBRANCH   7   9
ENDBRANCH   4   7
ENDBRANCH   2   3
ENDBRANCH   1   2
BRANCH   1  26
ATOM     26  C   UNL     1       0.469   6.128   0.758  1.00  0.00     0.118 C 
BRANCH  26  27
ATOM     27  N   UNL     1      -0.204   6.854   1.828  1.00  0.00    -0.352 N 
ATOM     28  C   UNL     1       0.241   7.905   2.589  1.00  0.00     0.251 C 
ATOM     29  H   UNL     1      -1.115   6.544   2.035  1.00  0.00     0.163 HD
ATOM     30  O   UNL     1      -0.398   8.243   3.586  1.00  0.00    -0.269 OA
BRANCH  28  31
ATOM     31  C   UNL     1       1.482   8.620   2.226  1.00  0.00     0.039 A 
ATOM     32  C   UNL     1       2.372   8.994   3.236  1.00  0.00     0.014 A 
ATOM     33  C   UNL     1       1.764   8.935   0.894  1.00  0.00     0.014 A 
ATOM     34  C   UNL     1       3.571   9.629   2.903  1.00  0.00     0.010 A 
ATOM     35  C   UNL     1       2.996   9.483   0.557  1.00  0.00     0.010 A 
ATOM     36  C   UNL     1       3.910   9.847   1.557  1.00  0.00    -0.014 A 
BRANCH  36  37
ATOM     37  C   UNL     1       5.207  10.459   1.171  1.00  0.00     0.031 A 
ATOM     38  C   UNL     1       5.231  11.762   0.415  1.00  0.00     0.074 A 
ATOM     39  C   UNL     1       6.357   9.804   1.428  1.00  0.00     0.049 A 
ATOM     40  N   UNL     1       6.254  12.410  -0.080  1.00  0.00    -0.248 NA
ATOM     41  C   UNL     1       3.933  12.409   0.157  1.00  0.00     0.031 C 
ATOM     42  C   UNL     1       6.462   8.505   2.097  1.00  0.00     0.029 A 
ATOM     43  N   UNL     1       7.658  10.129   1.134  1.00  0.00    -0.354 N 
ATOM     44  C   UNL     1       5.724  13.520  -0.728  1.00  0.00     0.074 A 
ATOM     45  C   UNL     1       4.286  13.434  -0.604  1.00  0.00     0.031 C 
ATOM     46  C   UNL     1       7.755   8.149   2.170  1.00  0.00     0.029 A 
ATOM     47  C   UNL     1       8.568   9.171   1.521  1.00  0.00     0.049 A 
ATOM     48  H   UNL     1       7.916  10.968   0.689  1.00  0.00     0.167 HD
ATOM     49  C   UNL     1       6.374  14.538  -1.340  1.00  0.00     0.034 A 
ATOM     50  C   UNL     1       9.905   9.118   1.359  1.00  0.00     0.034 A 
ATOM     51  C   UNL     1       7.805  14.636  -1.432  1.00  0.00     0.049 A 
ATOM     52  C   UNL     1      10.601  10.266   0.676  1.00  0.00     0.074 A 
ATOM     53  C   UNL     1       8.564  15.655  -1.982  1.00  0.00     0.029 A 
ATOM     54  N   UNL     1       8.695  13.681  -0.966  1.00  0.00    -0.354 N 
ATOM     55  N   UNL     1      10.091  11.371   0.188  1.00  0.00    -0.248 NA
ATOM     56  C   UNL     1      12.063  10.176   0.553  1.00  0.00     0.031 C 
ATOM     57  C   UNL     1       9.913  15.303  -1.869  1.00  0.00     0.029 A 
ATOM     58  C   UNL     1       9.995  14.084  -1.217  1.00  0.00     0.049 A 
ATOM     59  H   UNL     1       8.440  12.841  -0.521  1.00  0.00     0.167 HD
ATOM     60  C   UNL     1      11.171  12.127  -0.254  1.00  0.00     0.074 A 
ATOM     61  C   UNL     1      12.364  11.361   0.040  1.00  0.00     0.031 C 
ATOM     62  C   UNL     1      11.175  13.339  -0.860  1.00  0.00     0.034 A 
BRANCH  49  63
ATOM     63  C   UNL     1       5.543  15.660  -1.909  1.00  0.00     0.023 A 
ATOM     64  C   UNL     1       4.876  16.541  -1.032  1.00  0.00     0.012 A 
ATOM     65  C   UNL     1       5.469  15.882  -3.298  1.00  0.00     0.148 A 
ATOM     66  C   UNL     1       4.121  17.603  -1.528  1.00  0.00     0.002 A 
ATOM     67  C   UNL     1       4.754  16.971  -3.783  1.00  0.00     0.091 A 
ATOM     68  F   UNL     1       6.095  15.025  -4.117  1.00  0.00    -0.205 F 
ATOM     69  C   UNL     1       4.069  17.824  -2.901  1.00  0.00     0.022 A 
BRANCH  67  70
ATOM     70  S   UNL     1       4.689  17.393  -5.527  1.00  0.00     0.127 S 
ATOM     71  O   UNL     1       3.284  17.131  -5.842  1.00  0.00    -0.237 OA
ATOM     72  O   UNL     1       5.056  18.809  -5.513  1.00  0.00    -0.237 OA
ATOM     73  O   UNL     1       5.647  16.521  -6.190  1.00  0.00    -0.744 OA
ENDBRANCH  67  70
ENDBRANCH  49  63
BRANCH  50  74
ATOM     74  C   UNL     1      10.687   7.969   1.900  1.00  0.00     0.023 A 
ATOM     75  C   UNL     1      11.578   8.184   2.970  1.00  0.00     0.012 A 
ATOM     76  C   UNL     1      10.565   6.674   1.360  1.00  0.00     0.148 A 
ATOM     77  C   UNL     1      12.367   7.143   3.461  1.00  0.00     0.002 A 
ATOM     78  C   UNL     1      11.312   5.628   1.892  1.00  0.00     0.091 A 
ATOM     79  F   UNL     1       9.721   6.489   0.336  1.00  0.00    -0.205 F 
ATOM     80  C   UNL     1      12.229   5.865   2.928  1.00  0.00     0.022 A 
BRANCH  78  81
ATOM     81  S   UNL     1      11.107   3.928   1.352  1.00  0.00     0.127 S 
ATOM     82  O   UNL     1      12.347   3.696   0.616  1.00  0.00    -0.237 OA
ATOM     83  O   UNL     1      11.004   3.214   2.625  1.00  0.00    -0.237 OA
ATOM     84  O   UNL     1       9.886   3.911   0.557  1.00  0.00    -0.744 OA
ENDBRANCH  78  81
ENDBRANCH  50  74
BRANCH  62  85
ATOM     85  C   UNL     1      12.511  13.951  -1.193  1.00  0.00     0.023 A 
ATOM     86  C   UNL     1      13.290  13.421  -2.240  1.00  0.00     0.012 A 
ATOM     87  C   UNL     1      12.956  15.103  -0.513  1.00  0.00     0.148 A 
ATOM     88  C   UNL     1      14.510  14.005  -2.580  1.00  0.00     0.002 A 
ATOM     89  C   UNL     1      14.145  15.711  -0.894  1.00  0.00     0.091 A 
ATOM     90  F   UNL     1      12.207  15.582   0.490  1.00  0.00    -0.205 F 
ATOM     91  C   UNL     1      14.930  15.156  -1.917  1.00  0.00     0.022 A 
BRANCH  89  92
ATOM     92  S   UNL     1      14.716  17.251  -0.168  1.00  0.00     0.127 S 
ATOM     93  O   UNL     1      15.879  16.805   0.599  1.00  0.00    -0.237 OA
ATOM     94  O   UNL     1      15.035  18.051  -1.351  1.00  0.00    -0.237 OA
ATOM     95  O   UNL     1      13.606  17.760   0.626  1.00  0.00    -0.744 OA
ENDBRANCH  89  92
ENDBRANCH  62  85
ENDBRANCH  36  37
ENDBRANCH  28  31
ENDBRANCH  26  27
ENDBRANCH   1  26
TORSDOF 16
