REMARK SMILES O=C(CCCC[C@@H]1CCSS1)NCCCNC(=O)c1ccc(-c2c3nc(c(-c4cccc(S(=O)(=O)[O-])c4F)c4ccc([nH]4)c(-c4cccc(S(=O)(=O)[O-])c4F)c4nc(c(-c5cccc(S(=O)(=O)[O-])c5F)c5ccc2[nH]5)C=C4)C=C3)cc1
REMARK SMILES IDX 13 1 12 2 1 3 2 4 3 6 4 7 5 8 6 9 7 10 8 11 11 12 9 13 10 14
REMARK SMILES IDX 14 15 15 16 16 17 17 18 18 20 19 21 20 22 81 23 21 24 80 25
REMARK SMILES IDX 22 26 23 27 24 28 74 29 25 30 79 31 73 32 75 33 26 34 78 35
REMARK SMILES IDX 72 36 71 37 27 39 59 40 39 41 58 42 40 43 43 44 57 45 76 46
REMARK SMILES IDX 41 47 42 48 56 50 77 51 44 52 28 53 29 54 37 55 30 56 32 57
REMARK SMILES IDX 38 58 31 59 33 60 34 61 35 62 36 63 60 64 61 65 69 66 62 67
REMARK SMILES IDX 64 68 70 69 63 70 65 71 66 72 67 73 68 74 45 75 46 76 54 77
REMARK SMILES IDX 47 78 49 79 55 80 48 81 50 82 51 83 52 84 53 85
REMARK H PARENT 12 5 16 19 75 38 43 49
REMARK Flexibility Score: inf
ROOT
ATOM      1  C   UNL     1       1.901   1.101  -2.378  1.00  0.00     0.117 C 
ENDROOT
BRANCH   1   2
ATOM      2  N   UNL     1       2.469   0.703  -1.109  1.00  0.00    -0.356 N 
ATOM      3  O   UNL     1       0.632  -0.434  -0.320  1.00  0.00    -0.275 OA
ATOM      4  C   UNL     1       1.792  -0.070  -0.197  1.00  0.00     0.219 C 
ATOM      5  H   UNL     1       3.381   1.000  -0.888  1.00  0.00     0.163 HD
BRANCH   4   6
ATOM      6  C   UNL     1       2.660  -0.491   0.968  1.00  0.00     0.100 C 
BRANCH   6   7
ATOM      7  C   UNL     1       3.501  -1.716   0.610  1.00  0.00     0.010 C 
BRANCH   7   8
ATOM      8  C   UNL     1       4.730  -1.469  -0.278  1.00  0.00     0.002 C 
BRANCH   8   9
ATOM      9  C   UNL     1       5.829  -0.538   0.260  1.00  0.00     0.015 C 
BRANCH   9  10
ATOM     10  C   UNL     1       6.521  -0.907   1.587  1.00  0.00     0.059 C 
ATOM     11  C   UNL     1       6.698  -2.412   1.850  1.00  0.00     0.027 C 
ATOM     12  S   UNL     1       5.666  -0.157   3.017  1.00  0.00    -0.091 SA
ATOM     13  C   UNL     1       6.937  -2.696   3.330  1.00  0.00     0.083 C 
ATOM     14  S   UNL     1       5.650  -1.803   4.223  1.00  0.00    -0.094 SA
ENDBRANCH   9  10
ENDBRANCH   8   9
ENDBRANCH   7   8
ENDBRANCH   6   7
ENDBRANCH   4   6
ENDBRANCH   1   2
BRANCH   1  15
ATOM     15  C   UNL     1       2.306   2.516  -2.762  1.00  0.00     0.042 C 
BRANCH  15  16
ATOM     16  C   UNL     1       3.809   2.728  -2.924  1.00  0.00     0.118 C 
BRANCH  16  17
ATOM     17  N   UNL     1       4.380   1.998  -4.047  1.00  0.00    -0.352 N 
ATOM     18  C   UNL     1       5.090   2.474  -5.125  1.00  0.00     0.251 C 
ATOM     19  H   UNL     1       4.237   1.024  -4.033  1.00  0.00     0.163 HD
ATOM     20  O   UNL     1       5.379   1.717  -6.047  1.00  0.00    -0.269 OA
BRANCH  18  21
ATOM     21  C   UNL     1       5.480   3.901  -5.187  1.00  0.00     0.039 A 
ATOM     22  C   UNL     1       5.263   4.607  -6.373  1.00  0.00     0.014 A 
ATOM     23  C   UNL     1       6.041   4.546  -4.082  1.00  0.00     0.014 A 
ATOM     24  C   UNL     1       5.538   5.977  -6.424  1.00  0.00     0.010 A 
ATOM     25  C   UNL     1       6.237   5.925  -4.110  1.00  0.00     0.010 A 
ATOM     26  C   UNL     1       5.987   6.657  -5.280  1.00  0.00    -0.014 A 
BRANCH  26  27
ATOM     27  C   UNL     1       6.175   8.133  -5.285  1.00  0.00     0.031 A 
ATOM     28  C   UNL     1       7.530   8.734  -5.024  1.00  0.00     0.074 A 
ATOM     29  C   UNL     1       5.105   8.940  -5.444  1.00  0.00     0.049 A 
ATOM     30  N   UNL     1       7.871   9.995  -4.944  1.00  0.00    -0.248 NA
ATOM     31  C   UNL     1       8.644   7.799  -4.800  1.00  0.00     0.031 C 
ATOM     32  C   UNL     1       3.724   8.488  -5.628  1.00  0.00     0.029 A 
ATOM     33  N   UNL     1       5.007  10.310  -5.450  1.00  0.00    -0.354 N 
ATOM     34  C   UNL     1       9.224  10.005  -4.627  1.00  0.00     0.074 A 
ATOM     35  C   UNL     1       9.636   8.624  -4.496  1.00  0.00     0.031 C 
ATOM     36  C   UNL     1       2.920   9.557  -5.735  1.00  0.00     0.029 A 
ATOM     37  C   UNL     1       3.718  10.771  -5.592  1.00  0.00     0.049 A 
ATOM     38  H   UNL     1       5.785  10.906  -5.362  1.00  0.00     0.167 HD
ATOM     39  C   UNL     1      10.057  11.064  -4.485  1.00  0.00     0.034 A 
ATOM     40  C   UNL     1       3.229  12.027  -5.592  1.00  0.00     0.034 A 
ATOM     41  C   UNL     1       9.655  12.436  -4.647  1.00  0.00     0.049 A 
ATOM     42  C   UNL     1       4.179  13.185  -5.451  1.00  0.00     0.074 A 
ATOM     43  C   UNL     1      10.445  13.572  -4.613  1.00  0.00     0.029 A 
ATOM     44  N   UNL     1       8.353  12.861  -4.859  1.00  0.00    -0.354 N 
ATOM     45  N   UNL     1       5.482  13.172  -5.317  1.00  0.00    -0.248 NA
ATOM     46  C   UNL     1       3.594  14.534  -5.495  1.00  0.00     0.031 C 
ATOM     47  C   UNL     1       9.614  14.687  -4.765  1.00  0.00     0.029 A 
ATOM     48  C   UNL     1       8.313  14.243  -4.936  1.00  0.00     0.049 A 
ATOM     49  H   UNL     1       7.572  12.268  -4.941  1.00  0.00     0.167 HD
ATOM     50  C   UNL     1       5.877  14.505  -5.293  1.00  0.00     0.074 A 
ATOM     51  C   UNL     1       4.676  15.299  -5.452  1.00  0.00     0.031 C 
ATOM     52  C   UNL     1       7.120  15.025  -5.140  1.00  0.00     0.034 A 
BRANCH  39  53
ATOM     53  C   UNL     1      11.505  10.781  -4.175  1.00  0.00     0.023 A 
ATOM     54  C   UNL     1      12.331  10.206  -5.163  1.00  0.00     0.012 A 
ATOM     55  C   UNL     1      12.064  11.140  -2.933  1.00  0.00     0.148 A 
ATOM     56  C   UNL     1      13.679   9.957  -4.908  1.00  0.00     0.002 A 
ATOM     57  C   UNL     1      13.419  10.933  -2.702  1.00  0.00     0.091 A 
ATOM     58  F   UNL     1      11.261  11.669  -1.999  1.00  0.00    -0.205 F 
ATOM     59  C   UNL     1      14.224  10.330  -3.683  1.00  0.00     0.022 A 
BRANCH  57  60
ATOM     60  S   UNL     1      14.236  11.451  -1.189  1.00  0.00     0.127 S 
ATOM     61  O   UNL     1      14.547  10.164  -0.567  1.00  0.00    -0.237 OA
ATOM     62  O   UNL     1      15.399  12.176  -1.702  1.00  0.00    -0.237 OA
ATOM     63  O   UNL     1      13.273  12.274  -0.472  1.00  0.00    -0.744 OA
ENDBRANCH  57  60
ENDBRANCH  39  53
BRANCH  40  64
ATOM     64  C   UNL     1       1.768  12.259  -5.779  1.00  0.00     0.023 A 
ATOM     65  C   UNL     1       1.305  12.853  -6.969  1.00  0.00     0.012 A 
ATOM     66  C   UNL     1       0.836  11.881  -4.793  1.00  0.00     0.148 A 
ATOM     67  C   UNL     1      -0.055  13.100  -7.160  1.00  0.00     0.002 A 
ATOM     68  C   UNL     1      -0.522  12.076  -5.013  1.00  0.00     0.091 A 
ATOM     69  F   UNL     1       1.297  11.326  -3.663  1.00  0.00    -0.205 F 
ATOM     70  C   UNL     1      -0.969  12.703  -6.187  1.00  0.00     0.022 A 
BRANCH  68  71
ATOM     71  S   UNL     1      -1.779  11.481  -3.877  1.00  0.00     0.127 S 
ATOM     72  O   UNL     1      -2.320  12.731  -3.348  1.00  0.00    -0.237 OA
ATOM     73  O   UNL     1      -2.675  10.752  -4.776  1.00  0.00    -0.237 OA
ATOM     74  O   UNL     1      -1.077  10.641  -2.917  1.00  0.00    -0.744 OA
ENDBRANCH  68  71
ENDBRANCH  40  64
BRANCH  52  75
ATOM     75  C   UNL     1       7.261  16.525  -5.170  1.00  0.00     0.023 A 
ATOM     76  C   UNL     1       6.788  17.299  -4.092  1.00  0.00     0.012 A 
ATOM     77  C   UNL     1       7.930  17.161  -6.235  1.00  0.00     0.148 A 
ATOM     78  C   UNL     1       6.947  18.684  -4.090  1.00  0.00     0.002 A 
ATOM     79  C   UNL     1       8.132  18.535  -6.201  1.00  0.00     0.091 A 
ATOM     80  F   UNL     1       8.359  16.410  -7.260  1.00  0.00    -0.205 F 
ATOM     81  C   UNL     1       7.628  19.300  -5.136  1.00  0.00     0.022 A 
BRANCH  79  82
ATOM     82  S   UNL     1       9.082  19.404  -7.454  1.00  0.00     0.127 S 
ATOM     83  O   UNL     1       8.043  20.177  -8.133  1.00  0.00    -0.237 OA
ATOM     84  O   UNL     1      10.004  20.200  -6.644  1.00  0.00    -0.237 OA
ATOM     85  O   UNL     1       9.720  18.374  -8.262  1.00  0.00    -0.744 OA
ENDBRANCH  79  82
ENDBRANCH  52  75
ENDBRANCH  26  27
ENDBRANCH  18  21
ENDBRANCH  16  17
ENDBRANCH  15  16
ENDBRANCH   1  15
TORSDOF 17
