REMARK SMILES C[C@]1(C(=O)NCCCNC(=O)c2ccc(-c3c4nc(c(-c5cccc(S(=O)(=O)[O-])c5F)c5ccc([nH]5)c(-c5cccc(S(=O)(=O)[O-])c5F)c5nc(c(-c6cccc(S(=O)(=O)[O-])c6F)c6ccc3[nH]6)C=C5)C=C4)cc2)[NH2+]C2(C(=O)c3ccccc3C2=O)[C@@H]2C(=O)N(c3ccccc3)C(=O)[C@H]21
REMARK SMILES IDX 8 1 7 2 6 3 5 4 3 5 4 6 2 8 1 9 75 10 99 11 76 12 87 15
REMARK SMILES IDX 97 16 77 17 85 18 88 19 90 20 98 21 78 22 79 23 84 24 86 25
REMARK SMILES IDX 89 26 80 27 83 28 81 29 82 30 91 31 92 32 96 33 93 34 95 35
REMARK SMILES IDX 94 36 9 37 10 38 11 40 12 41 13 42 74 43 14 44 73 45 15 46
REMARK SMILES IDX 16 47 17 48 67 49 18 50 72 51 66 52 68 53 19 54 71 55 65 56
REMARK SMILES IDX 64 57 20 59 52 60 32 61 51 62 33 63 36 64 50 65 69 66 34 67
REMARK SMILES IDX 35 68 49 70 70 71 37 72 21 73 22 74 30 75 23 76 25 77 31 78
REMARK SMILES IDX 24 79 26 80 27 81 28 82 29 83 53 84 54 85 62 86 55 87 57 88
REMARK SMILES IDX 63 89 56 90 58 91 59 92 60 93 61 94 38 95 39 96 47 97 40 98
REMARK SMILES IDX 42 99 48 100 41 101 43 102 44 103 45 104 46 105
REMARK H PARENT 5 7 75 13 75 14 9 39 68 58 36 69
REMARK Flexibility Score: inf
ROOT
ATOM      1  C   UNL     1      -0.920   3.860   5.244  1.00  0.00     0.118 C 
ENDROOT
BRANCH   1   2
ATOM      2  C   UNL     1      -1.518   3.377   3.937  1.00  0.00     0.042 C 
BRANCH   2   3
ATOM      3  C   UNL     1      -0.485   3.122   2.856  1.00  0.00     0.118 C 
BRANCH   3   4
ATOM      4  N   UNL     1       0.237   1.881   2.879  1.00  0.00    -0.351 N 
ATOM      5  C   UNL     1       0.656   1.091   1.846  1.00  0.00     0.281 C 
ATOM      6  O   UNL     1       1.225   0.050   2.208  1.00  0.00    -0.268 OA
ATOM      7  H   UNL     1       0.464   1.548   3.777  1.00  0.00     0.163 HD
BRANCH   5   8
ATOM      8  C   UNL     1       0.469   1.401   0.295  1.00  0.00     0.186 C 
ATOM      9  C   UNL     1       1.099   0.194  -0.451  1.00  0.00     0.091 C 
ATOM     10  N   UNL     1      -0.984   1.501  -0.124  1.00  0.00    -0.314 N 
ATOM     11  C   UNL     1       1.054   2.659  -0.290  1.00  0.00     0.170 C 
ATOM     12  C   UNL     1      -1.249   2.885  -0.707  1.00  0.00     0.236 C 
ATOM     13  H   UNL     1      -1.582   1.353   0.689  1.00  0.00     0.348 HD
ATOM     14  H   UNL     1      -1.185   0.791  -0.827  1.00  0.00     0.348 HD
ATOM     15  C   UNL     1      -0.064   3.680  -0.260  1.00  0.00     0.177 C 
ATOM     16  C   UNL     1       2.173   3.453   0.277  1.00  0.00     0.244 C 
ATOM     17  C   UNL     1      -1.514   2.862  -2.211  1.00  0.00     0.232 C 
ATOM     18  C   UNL     1      -2.595   3.380  -0.142  1.00  0.00     0.232 C 
ATOM     19  C   UNL     1       0.672   4.863  -0.790  1.00  0.00     0.245 C 
ATOM     20  N   UNL     1       1.931   4.749  -0.184  1.00  0.00    -0.250 N 
ATOM     21  O   UNL     1       3.079   3.014   0.960  1.00  0.00    -0.273 OA
ATOM     22  O   UNL     1      -0.744   2.488  -3.077  1.00  0.00    -0.286 OA
ATOM     23  C   UNL     1      -2.896   3.314  -2.449  1.00  0.00     0.036 A 
ATOM     24  C   UNL     1      -3.523   3.575  -1.240  1.00  0.00     0.036 A 
ATOM     25  O   UNL     1      -2.920   3.598   1.010  1.00  0.00    -0.286 OA
ATOM     26  O   UNL     1       0.182   5.766  -1.440  1.00  0.00    -0.273 OA
ATOM     27  C   UNL     1      -3.580   3.475  -3.639  1.00  0.00     0.013 A 
ATOM     28  C   UNL     1      -4.846   3.970  -1.145  1.00  0.00     0.013 A 
ATOM     29  C   UNL     1      -4.918   3.895  -3.572  1.00  0.00     0.001 A 
ATOM     30  C   UNL     1      -5.549   4.131  -2.335  1.00  0.00     0.001 A 
BRANCH  20  31
ATOM     31  C   UNL     1       2.738   5.827   0.227  1.00  0.00     0.052 A 
ATOM     32  C   UNL     1       4.132   5.744   0.120  1.00  0.00     0.027 A 
ATOM     33  C   UNL     1       2.163   6.899   0.920  1.00  0.00     0.027 A 
ATOM     34  C   UNL     1       4.943   6.723   0.695  1.00  0.00     0.002 A 
ATOM     35  C   UNL     1       2.980   7.846   1.542  1.00  0.00     0.002 A 
ATOM     36  C   UNL     1       4.367   7.762   1.424  1.00  0.00     0.000 A 
ENDBRANCH  20  31
ENDBRANCH   5   8
ENDBRANCH   3   4
ENDBRANCH   2   3
ENDBRANCH   1   2
BRANCH   1  37
ATOM     37  N   UNL     1      -0.556   5.277   5.235  1.00  0.00    -0.352 N 
ATOM     38  C   UNL     1      -1.260   6.446   5.439  1.00  0.00     0.251 C 
ATOM     39  H   UNL     1       0.398   5.429   5.041  1.00  0.00     0.163 HD
ATOM     40  O   UNL     1      -0.665   7.509   5.250  1.00  0.00    -0.269 OA
BRANCH  38  41
ATOM     41  C   UNL     1      -2.700   6.476   5.810  1.00  0.00     0.039 A 
ATOM     42  C   UNL     1      -3.300   5.470   6.554  1.00  0.00     0.014 A 
ATOM     43  C   UNL     1      -3.489   7.573   5.426  1.00  0.00     0.014 A 
ATOM     44  C   UNL     1      -4.683   5.419   6.690  1.00  0.00     0.010 A 
ATOM     45  C   UNL     1      -4.868   7.595   5.697  1.00  0.00     0.010 A 
ATOM     46  C   UNL     1      -5.495   6.483   6.272  1.00  0.00    -0.014 A 
BRANCH  46  47
ATOM     47  C   UNL     1      -6.973   6.387   6.465  1.00  0.00     0.031 A 
ATOM     48  C   UNL     1      -7.925   6.513   5.301  1.00  0.00     0.074 A 
ATOM     49  C   UNL     1      -7.466   6.106   7.691  1.00  0.00     0.049 A 
ATOM     50  N   UNL     1      -9.231   6.420   5.296  1.00  0.00    -0.248 NA
ATOM     51  C   UNL     1      -7.348   6.789   3.974  1.00  0.00     0.031 C 
ATOM     52  C   UNL     1      -6.667   5.981   8.912  1.00  0.00     0.029 A 
ATOM     53  N   UNL     1      -8.747   5.838   8.111  1.00  0.00    -0.354 N 
ATOM     54  C   UNL     1      -9.633   6.687   3.993  1.00  0.00     0.074 A 
ATOM     55  C   UNL     1      -8.433   6.943   3.227  1.00  0.00     0.031 C 
ATOM     56  C   UNL     1      -7.453   5.574   9.917  1.00  0.00     0.029 A 
ATOM     57  C   UNL     1      -8.829   5.493   9.440  1.00  0.00     0.049 A 
ATOM     58  H   UNL     1      -9.530   5.888   7.517  1.00  0.00     0.167 HD
ATOM     59  C   UNL     1     -10.883   6.700   3.474  1.00  0.00     0.034 A 
ATOM     60  C   UNL     1      -9.886   5.160  10.206  1.00  0.00     0.034 A 
ATOM     61  C   UNL     1     -12.072   6.362   4.207  1.00  0.00     0.049 A 
ATOM     62  C   UNL     1     -11.257   5.145   9.600  1.00  0.00     0.074 A 
ATOM     63  C   UNL     1     -13.374   6.291   3.742  1.00  0.00     0.029 A 
ATOM     64  N   UNL     1     -12.107   6.026   5.551  1.00  0.00    -0.354 N 
ATOM     65  N   UNL     1     -11.601   5.351   8.353  1.00  0.00    -0.248 NA
ATOM     66  C   UNL     1     -12.382   4.857  10.500  1.00  0.00     0.031 C 
ATOM     67  C   UNL     1     -14.198   5.917   4.807  1.00  0.00     0.029 A 
ATOM     68  C   UNL     1     -13.408   5.749   5.933  1.00  0.00     0.049 A 
ATOM     69  H   UNL     1     -11.323   5.990   6.145  1.00  0.00     0.167 HD
ATOM     70  C   UNL     1     -12.983   5.219   8.315  1.00  0.00     0.074 A 
ATOM     71  C   UNL     1     -13.411   4.888   9.660  1.00  0.00     0.031 C 
ATOM     72  C   UNL     1     -13.819   5.382   7.263  1.00  0.00     0.034 A 
BRANCH  59  73
ATOM     73  C   UNL     1     -11.040   7.046   2.018  1.00  0.00     0.023 A 
ATOM     74  C   UNL     1     -10.778   6.066   1.040  1.00  0.00     0.012 A 
ATOM     75  C   UNL     1     -11.537   8.305   1.625  1.00  0.00     0.148 A 
ATOM     76  C   UNL     1     -10.996   6.337  -0.310  1.00  0.00     0.002 A 
ATOM     77  C   UNL     1     -11.779   8.558   0.280  1.00  0.00     0.091 A 
ATOM     78  F   UNL     1     -11.765   9.225   2.573  1.00  0.00    -0.205 F 
ATOM     79  C   UNL     1     -11.505   7.577  -0.688  1.00  0.00     0.022 A 
BRANCH  77  80
ATOM     80  S   UNL     1     -12.487  10.101  -0.308  1.00  0.00     0.127 S 
ATOM     81  O   UNL     1     -11.356  10.686  -1.027  1.00  0.00    -0.237 OA
ATOM     82  O   UNL     1     -13.576   9.632  -1.165  1.00  0.00    -0.237 OA
ATOM     83  O   UNL     1     -12.914  10.827   0.879  1.00  0.00    -0.744 OA
ENDBRANCH  77  80
ENDBRANCH  59  73
BRANCH  60  84
ATOM     84  C   UNL     1      -9.657   4.781  11.627  1.00  0.00     0.023 A 
ATOM     85  C   UNL     1      -9.727   3.426  11.999  1.00  0.00     0.012 A 
ATOM     86  C   UNL     1      -9.255   5.740  12.577  1.00  0.00     0.148 A 
ATOM     87  C   UNL     1      -9.391   3.030  13.294  1.00  0.00     0.002 A 
ATOM     88  C   UNL     1      -8.874   5.333  13.850  1.00  0.00     0.091 A 
ATOM     89  F   UNL     1      -9.202   7.024  12.196  1.00  0.00    -0.205 F 
ATOM     90  C   UNL     1      -8.950   3.979  14.213  1.00  0.00     0.022 A 
BRANCH  88  91
ATOM     91  S   UNL     1      -8.167   6.461  15.055  1.00  0.00     0.127 S 
ATOM     92  O   UNL     1      -9.147   6.394  16.137  1.00  0.00    -0.237 OA
ATOM     93  O   UNL     1      -6.884   5.819  15.344  1.00  0.00    -0.237 OA
ATOM     94  O   UNL     1      -8.064   7.748  14.384  1.00  0.00    -0.744 OA
ENDBRANCH  88  91
ENDBRANCH  60  84
BRANCH  72  95
ATOM     95  C   UNL     1     -15.292   5.212   7.502  1.00  0.00     0.023 A 
ATOM     96  C   UNL     1     -16.021   6.273   8.072  1.00  0.00     0.012 A 
ATOM     97  C   UNL     1     -15.968   4.062   7.052  1.00  0.00     0.148 A 
ATOM     98  C   UNL     1     -17.407   6.190   8.197  1.00  0.00     0.002 A 
ATOM     99  C   UNL     1     -17.352   3.999   7.150  1.00  0.00     0.091 A 
ATOM    100  F   UNL     1     -15.246   3.065   6.522  1.00  0.00    -0.205 F 
ATOM    101  C   UNL     1     -18.072   5.060   7.726  1.00  0.00     0.022 A 
BRANCH  99 102
ATOM    102  S   UNL     1     -18.307   2.621   6.506  1.00  0.00     0.127 S 
ATOM    103  O   UNL     1     -18.841   2.030   7.732  1.00  0.00    -0.237 OA
ATOM    104  O   UNL     1     -19.300   3.297   5.671  1.00  0.00    -0.237 OA
ATOM    105  O   UNL     1     -17.366   1.784   5.774  1.00  0.00    -0.744 OA
ENDBRANCH  99 102
ENDBRANCH  72  95
ENDBRANCH  46  47
ENDBRANCH  38  41
ENDBRANCH   1  37
TORSDOF 14
