REMARK SMILES O=C(C[C@H](Cc1ccc(Cl)cc1)C(=O)Nc1cc(Cl)ccc1Cl)NCCCNC(=O)c1ccc(-c2c3nc(c(-c4cccc(S(=O)(=O)[O-])c4F)c4ccc([nH]4)c(-c4cccc(S(=O)(=O)[O-])c4F)c4nc(c(-c5cccc(S(=O)(=O)[O-])c5F)c5ccc2[nH]5)C=C4)C=C3)cc1
REMARK SMILES IDX 26 1 25 2 24 3 1 4 2 5 3 7 4 8 13 9 14 10 15 11 16 13 17 14
REMARK SMILES IDX 22 15 18 16 21 17 23 18 19 19 20 20 5 21 6 22 7 23 12 24
REMARK SMILES IDX 8 25 11 26 9 27 10 28 27 29 28 30 29 31 30 33 31 34 32 35
REMARK SMILES IDX 93 36 33 37 92 38 34 39 35 40 36 41 86 42 37 43 91 44 85 45
REMARK SMILES IDX 87 46 38 47 90 48 84 49 83 50 39 52 71 53 51 54 70 55 52 56
REMARK SMILES IDX 55 57 69 58 88 59 53 60 54 61 68 63 89 64 56 65 40 66 41 67
REMARK SMILES IDX 49 68 42 69 44 70 50 71 43 72 45 73 46 74 47 75 48 76 72 77
REMARK SMILES IDX 73 78 81 79 74 80 76 81 82 82 75 83 77 84 78 85 79 86 80 87
REMARK SMILES IDX 57 88 58 89 66 90 59 91 61 92 67 93 60 94 62 95 63 96 64 97
REMARK SMILES IDX 65 98
REMARK H PARENT 24 6 15 12 28 32 87 51 55 62
REMARK Flexibility Score: inf
ROOT
ATOM      1  C   UNL     1       2.904   0.089   3.688  1.00  0.00     0.042 C 
ENDROOT
BRANCH   1   2
ATOM      2  C   UNL     1       3.349  -0.635   2.428  1.00  0.00     0.117 C 
BRANCH   2   3
ATOM      3  N   UNL     1       3.589   0.259   1.309  1.00  0.00    -0.356 N 
ATOM      4  O   UNL     1       5.834  -0.157   1.133  1.00  0.00    -0.275 OA
ATOM      5  C   UNL     1       4.810   0.352   0.689  1.00  0.00     0.220 C 
ATOM      6  H   UNL     1       2.848   0.820   0.983  1.00  0.00     0.163 HD
BRANCH   5   7
ATOM      7  C   UNL     1       4.817   1.159  -0.593  1.00  0.00     0.113 C 
BRANCH   7   8
ATOM      8  C   UNL     1       4.083   0.594  -1.828  1.00  0.00     0.092 C 
BRANCH   8   9
ATOM      9  C   UNL     1       5.030  -0.005  -2.874  1.00  0.00     0.228 C 
ATOM     10  O   UNL     1       5.069   0.497  -4.004  1.00  0.00    -0.274 OA
ATOM     11  N   UNL     1       5.900  -1.021  -2.630  1.00  0.00    -0.324 N 
ATOM     12  H   UNL     1       6.515  -1.209  -3.376  1.00  0.00     0.169 HD
BRANCH  11  13
ATOM     13  C   UNL     1       6.084  -1.850  -1.514  1.00  0.00     0.061 A 
ATOM     14  C   UNL     1       5.026  -2.540  -0.924  1.00  0.00     0.048 A 
ATOM     15  C   UNL     1       7.385  -2.047  -1.020  1.00  0.00     0.064 A 
ATOM     16  C   UNL     1       5.243  -3.303   0.225  1.00  0.00     0.043 A 
ATOM     17  C   UNL     1       7.597  -2.803   0.134  1.00  0.00     0.024 A 
ATOM     18  Cl  UNL     1       8.750  -1.308  -1.784  1.00  0.00    -0.082 Cl
ATOM     19  Cl  UNL     1       3.918  -4.113   0.966  1.00  0.00    -0.084 Cl
ATOM     20  C   UNL     1       6.518  -3.414   0.772  1.00  0.00     0.022 A 
ENDBRANCH  11  13
ENDBRANCH   8   9
BRANCH   8  21
ATOM     21  C   UNL     1       2.822  -0.264  -1.648  1.00  0.00     0.049 C 
BRANCH  21  22
ATOM     22  C   UNL     1       1.470   0.417  -1.713  1.00  0.00    -0.047 A 
ATOM     23  C   UNL     1       1.265   1.790  -1.531  1.00  0.00     0.005 A 
ATOM     24  C   UNL     1       0.354  -0.397  -1.986  1.00  0.00     0.005 A 
ATOM     25  C   UNL     1      -0.010   2.344  -1.698  1.00  0.00     0.021 A 
ATOM     26  C   UNL     1      -0.917   0.154  -2.146  1.00  0.00     0.021 A 
ATOM     27  C   UNL     1      -1.091   1.527  -2.020  1.00  0.00     0.041 A 
ATOM     28  Cl  UNL     1      -2.643   2.218  -2.283  1.00  0.00    -0.084 Cl
ENDBRANCH  21  22
ENDBRANCH   8  21
ENDBRANCH   7   8
ENDBRANCH   5   7
ENDBRANCH   2   3
ENDBRANCH   1   2
BRANCH   1  29
ATOM     29  C   UNL     1       1.625   0.904   3.537  1.00  0.00     0.118 C 
BRANCH  29  30
ATOM     30  N   UNL     1       0.460   0.104   3.187  1.00  0.00    -0.352 N 
ATOM     31  C   UNL     1      -0.806   0.109   3.728  1.00  0.00     0.251 C 
ATOM     32  H   UNL     1       0.598  -0.536   2.453  1.00  0.00     0.163 HD
ATOM     33  O   UNL     1      -1.615  -0.738   3.364  1.00  0.00    -0.269 OA
BRANCH  31  34
ATOM     34  C   UNL     1      -1.184   1.101   4.763  1.00  0.00     0.039 A 
ATOM     35  C   UNL     1      -1.967   0.677   5.840  1.00  0.00     0.014 A 
ATOM     36  C   UNL     1      -0.785   2.438   4.683  1.00  0.00     0.014 A 
ATOM     37  C   UNL     1      -2.292   1.575   6.860  1.00  0.00     0.010 A 
ATOM     38  C   UNL     1      -1.031   3.306   5.746  1.00  0.00     0.010 A 
ATOM     39  C   UNL     1      -1.794   2.889   6.844  1.00  0.00    -0.014 A 
BRANCH  39  40
ATOM     40  C   UNL     1      -2.051   3.810   7.985  1.00  0.00     0.031 A 
ATOM     41  C   UNL     1      -2.803   5.101   7.790  1.00  0.00     0.074 A 
ATOM     42  C   UNL     1      -1.558   3.504   9.203  1.00  0.00     0.049 A 
ATOM     43  N   UNL     1      -3.155   5.991   8.684  1.00  0.00    -0.248 NA
ATOM     44  C   UNL     1      -3.189   5.455   6.415  1.00  0.00     0.031 C 
ATOM     45  C   UNL     1      -0.724   2.339   9.508  1.00  0.00     0.029 A 
ATOM     46  N   UNL     1      -1.679   4.148  10.409  1.00  0.00    -0.354 N 
ATOM     47  C   UNL     1      -3.777   7.016   7.981  1.00  0.00     0.074 A 
ATOM     48  C   UNL     1      -3.715   6.660   6.580  1.00  0.00     0.031 C 
ATOM     49  C   UNL     1      -0.433   2.335  10.819  1.00  0.00     0.029 A 
ATOM     50  C   UNL     1      -1.034   3.509  11.443  1.00  0.00     0.049 A 
ATOM     51  H   UNL     1      -2.179   4.988  10.524  1.00  0.00     0.167 HD
ATOM     52  C   UNL     1      -4.374   8.136   8.455  1.00  0.00     0.034 A 
ATOM     53  C   UNL     1      -0.941   3.826  12.749  1.00  0.00     0.034 A 
ATOM     54  C   UNL     1      -4.461   8.475   9.852  1.00  0.00     0.049 A 
ATOM     55  C   UNL     1      -1.664   5.042  13.259  1.00  0.00     0.074 A 
ATOM     56  C   UNL     1      -5.118   9.542  10.440  1.00  0.00     0.029 A 
ATOM     57  N   UNL     1      -3.863   7.762  10.879  1.00  0.00    -0.354 N 
ATOM     58  N   UNL     1      -2.392   5.909  12.598  1.00  0.00    -0.248 NA
ATOM     59  C   UNL     1      -1.590   5.298  14.705  1.00  0.00     0.031 C 
ATOM     60  C   UNL     1      -4.890   9.492  11.819  1.00  0.00     0.029 A 
ATOM     61  C   UNL     1      -4.127   8.369  12.096  1.00  0.00     0.049 A 
ATOM     62  H   UNL     1      -3.329   6.943  10.761  1.00  0.00     0.167 HD
ATOM     63  C   UNL     1      -2.893   6.790  13.550  1.00  0.00     0.074 A 
ATOM     64  C   UNL     1      -2.408   6.332  14.836  1.00  0.00     0.031 C 
ATOM     65  C   UNL     1      -3.673   7.885  13.375  1.00  0.00     0.034 A 
BRANCH  52  66
ATOM     66  C   UNL     1      -5.027   9.060   7.456  1.00  0.00     0.023 A 
ATOM     67  C   UNL     1      -6.196   8.647   6.784  1.00  0.00     0.012 A 
ATOM     68  C   UNL     1      -4.523  10.355   7.228  1.00  0.00     0.148 A 
ATOM     69  C   UNL     1      -6.830   9.491   5.872  1.00  0.00     0.002 A 
ATOM     70  C   UNL     1      -5.188  11.210   6.355  1.00  0.00     0.091 A 
ATOM     71  F   UNL     1      -3.400  10.726   7.860  1.00  0.00    -0.205 F 
ATOM     72  C   UNL     1      -6.332  10.775   5.666  1.00  0.00     0.022 A 
BRANCH  70  73
ATOM     73  S   UNL     1      -4.678  12.911   6.084  1.00  0.00     0.127 S 
ATOM     74  O   UNL     1      -4.192  12.857   4.706  1.00  0.00    -0.237 OA
ATOM     75  O   UNL     1      -5.935  13.639   6.258  1.00  0.00    -0.237 OA
ATOM     76  O   UNL     1      -3.666  13.194   7.092  1.00  0.00    -0.744 OA
ENDBRANCH  70  73
ENDBRANCH  52  66
BRANCH  53  77
ATOM     77  C   UNL     1      -0.194   2.934  13.682  1.00  0.00     0.023 A 
ATOM     78  C   UNL     1      -0.898   2.190  14.649  1.00  0.00     0.012 A 
ATOM     79  C   UNL     1       1.206   2.806  13.603  1.00  0.00     0.148 A 
ATOM     80  C   UNL     1      -0.218   1.366  15.547  1.00  0.00     0.002 A 
ATOM     81  C   UNL     1       1.871   1.938  14.459  1.00  0.00     0.091 A 
ATOM     82  F   UNL     1       1.858   3.529  12.681  1.00  0.00    -0.205 F 
ATOM     83  C   UNL     1       1.164   1.232  15.445  1.00  0.00     0.022 A 
BRANCH  81  84
ATOM     84  S   UNL     1       3.628   1.599  14.312  1.00  0.00     0.127 S 
ATOM     85  O   UNL     1       4.156   2.227  15.520  1.00  0.00    -0.237 OA
ATOM     86  O   UNL     1       3.653   0.136  14.316  1.00  0.00    -0.237 OA
ATOM     87  O   UNL     1       4.041   2.203  13.053  1.00  0.00    -0.744 OA
ENDBRANCH  81  84
ENDBRANCH  53  77
BRANCH  65  88
ATOM     88  C   UNL     1      -4.088   8.644  14.611  1.00  0.00     0.023 A 
ATOM     89  C   UNL     1      -3.131   9.366  15.354  1.00  0.00     0.012 A 
ATOM     90  C   UNL     1      -5.435   8.662  15.022  1.00  0.00     0.148 A 
ATOM     91  C   UNL     1      -3.498  10.043  16.516  1.00  0.00     0.002 A 
ATOM     92  C   UNL     1      -5.803   9.387  16.149  1.00  0.00     0.091 A 
ATOM     93  F   UNL     1      -6.331   7.957  14.316  1.00  0.00    -0.205 F 
ATOM     94  C   UNL     1      -4.834  10.062  16.908  1.00  0.00     0.022 A 
BRANCH  92  95
ATOM     95  S   UNL     1      -7.516   9.546  16.668  1.00  0.00     0.127 S 
ATOM     96  O   UNL     1      -7.566   8.643  17.815  1.00  0.00    -0.237 OA
ATOM     97  O   UNL     1      -7.607  10.967  17.006  1.00  0.00    -0.237 OA
ATOM     98  O   UNL     1      -8.318   9.149  15.519  1.00  0.00    -0.744 OA
ENDBRANCH  92  95
ENDBRANCH  65  88
ENDBRANCH  39  40
ENDBRANCH  31  34
ENDBRANCH  29  30
ENDBRANCH   1  29
TORSDOF 18
