REMARK SMILES C[C@H]1SC[C@H](C(=O)NCCCNC(=O)c2ccc(-c3c4nc(c(-c5cccc(S(=O)(=O)[O-])c5F)c5ccc([nH]5)c(-c5cccc(S(=O)(=O)[O-])c5F)c5nc(c(-c6cccc(S(=O)(=O)[O-])c6F)c6ccc3[nH]6)C=C5)C=C4)cc2)N1C(=O)[C@@H]1CSc2ccccc21
REMARK SMILES IDX 10 1 9 2 8 3 6 4 7 5 5 7 1 8 2 9 3 10 78 11 4 12 79 13 80 14
REMARK SMILES IDX 81 15 82 16 89 17 83 18 84 19 88 20 85 21 87 22 86 23 11 24
REMARK SMILES IDX 12 25 13 26 14 28 15 29 16 30 77 31 17 32 76 33 18 34 19 35
REMARK SMILES IDX 20 36 70 37 21 38 75 39 69 40 71 41 22 42 74 43 68 44 67 45
REMARK SMILES IDX 23 47 55 48 35 49 54 50 36 51 39 52 53 53 72 54 37 55 38 56
REMARK SMILES IDX 52 58 73 59 40 60 24 61 25 62 33 63 26 64 28 65 34 66 27 67
REMARK SMILES IDX 29 68 30 69 31 70 32 71 56 72 57 73 65 74 58 75 60 76 66 77
REMARK SMILES IDX 59 78 61 79 62 80 63 81 64 82 41 83 42 84 50 85 43 86 45 87
REMARK SMILES IDX 51 88 44 89 46 90 47 91 48 92 49 93
REMARK H PARENT 8 6 12 27 71 46 39 57
REMARK Flexibility Score: inf
ROOT
ATOM      1  C   UNL     1       2.725  -4.221   6.501  1.00  0.00     0.042 C 
ENDROOT
BRANCH   1   2
ATOM      2  C   UNL     1       3.062  -2.950   5.743  1.00  0.00     0.117 C 
BRANCH   2   3
ATOM      3  N   UNL     1       4.146  -2.199   6.338  1.00  0.00    -0.354 N 
ATOM      4  C   UNL     1       5.335  -1.807   5.801  1.00  0.00     0.243 C 
ATOM      5  O   UNL     1       6.159  -1.299   6.571  1.00  0.00    -0.273 OA
ATOM      6  H   UNL     1       4.002  -1.930   7.274  1.00  0.00     0.163 HD
BRANCH   4   7
ATOM      7  C   UNL     1       5.747  -2.176   4.362  1.00  0.00     0.185 C 
ATOM      8  C   UNL     1       6.107  -2.309   1.216  1.00  0.00     0.043 C 
ATOM      9  C   UNL     1       5.062  -2.923   2.151  1.00  0.00     0.141 C 
ATOM     10  S   UNL     1       5.804  -4.415   2.855  1.00  0.00    -0.135 SA
ATOM     11  N   UNL     1       4.748  -2.053   3.277  1.00  0.00    -0.318 N 
ATOM     12  C   UNL     1       6.230  -3.634   4.426  1.00  0.00     0.107 C 
BRANCH  11  13
ATOM     13  C   UNL     1       3.982  -0.902   3.195  1.00  0.00     0.232 C 
ATOM     14  O   UNL     1       4.231   0.057   3.937  1.00  0.00    -0.274 OA
BRANCH  13  15
ATOM     15  C   UNL     1       2.748  -0.795   2.280  1.00  0.00     0.120 C 
ATOM     16  C   UNL     1       1.694  -1.895   2.478  1.00  0.00     0.093 C 
ATOM     17  C   UNL     1       3.040  -0.669   0.812  1.00  0.00    -0.021 A 
ATOM     18  S   UNL     1       1.480  -2.805   0.916  1.00  0.00    -0.125 SA
ATOM     19  C   UNL     1       2.495  -1.678   0.016  1.00  0.00     0.011 A 
ATOM     20  C   UNL     1       3.795   0.350   0.235  1.00  0.00     0.006 A 
ATOM     21  C   UNL     1       2.775  -1.748  -1.339  1.00  0.00     0.015 A 
ATOM     22  C   UNL     1       4.064   0.297  -1.133  1.00  0.00     0.000 A 
ATOM     23  C   UNL     1       3.575  -0.758  -1.912  1.00  0.00     0.001 A 
ENDBRANCH  13  15
ENDBRANCH  11  13
ENDBRANCH   4   7
ENDBRANCH   2   3
ENDBRANCH   1   2
BRANCH   1  24
ATOM     24  C   UNL     1       2.261  -3.991   7.929  1.00  0.00     0.118 C 
BRANCH  24  25
ATOM     25  N   UNL     1       0.998  -3.268   8.013  1.00  0.00    -0.352 N 
ATOM     26  C   UNL     1      -0.193  -3.653   8.593  1.00  0.00     0.251 C 
ATOM     27  H   UNL     1       0.994  -2.376   7.596  1.00  0.00     0.163 HD
ATOM     28  O   UNL     1      -1.197  -2.976   8.443  1.00  0.00    -0.269 OA
BRANCH  26  29
ATOM     29  C   UNL     1      -0.244  -4.912   9.370  1.00  0.00     0.039 A 
ATOM     30  C   UNL     1      -1.282  -5.818   9.134  1.00  0.00     0.014 A 
ATOM     31  C   UNL     1       0.761  -5.217  10.289  1.00  0.00     0.014 A 
ATOM     32  C   UNL     1      -1.257  -7.071   9.754  1.00  0.00     0.010 A 
ATOM     33  C   UNL     1       0.837  -6.496  10.824  1.00  0.00     0.010 A 
ATOM     34  C   UNL     1      -0.170  -7.438  10.563  1.00  0.00    -0.014 A 
BRANCH  34  35
ATOM     35  C   UNL     1      -0.038  -8.803  11.136  1.00  0.00     0.031 A 
ATOM     36  C   UNL     1       0.062  -8.985  12.627  1.00  0.00     0.074 A 
ATOM     37  C   UNL     1       0.142  -9.858  10.316  1.00  0.00     0.049 A 
ATOM     38  N   UNL     1       0.326 -10.068  13.310  1.00  0.00    -0.248 NA
ATOM     39  C   UNL     1      -0.117  -7.782  13.456  1.00  0.00     0.031 C 
ATOM     40  C   UNL     1       0.169  -9.799   8.853  1.00  0.00     0.029 A 
ATOM     41  N   UNL     1       0.385 -11.180  10.598  1.00  0.00    -0.354 N 
ATOM     42  C   UNL     1       0.407  -9.666  14.638  1.00  0.00     0.074 A 
ATOM     43  C   UNL     1       0.190  -8.237  14.662  1.00  0.00     0.031 C 
ATOM     44  C   UNL     1       0.424 -11.024   8.367  1.00  0.00     0.029 A 
ATOM     45  C   UNL     1       0.611 -11.949   9.480  1.00  0.00     0.049 A 
ATOM     46  H   UNL     1       0.395 -11.543  11.513  1.00  0.00     0.167 HD
ATOM     47  C   UNL     1       0.617 -10.422  15.742  1.00  0.00     0.034 A 
ATOM     48  C   UNL     1       0.949 -13.248   9.362  1.00  0.00     0.034 A 
ATOM     49  C   UNL     1       0.762 -11.851  15.720  1.00  0.00     0.049 A 
ATOM     50  C   UNL     1       1.088 -14.086  10.603  1.00  0.00     0.074 A 
ATOM     51  C   UNL     1       0.846 -12.723  16.791  1.00  0.00     0.029 A 
ATOM     52  N   UNL     1       0.851 -12.620  14.570  1.00  0.00    -0.354 N 
ATOM     53  N   UNL     1       0.980 -13.721  11.858  1.00  0.00    -0.248 NA
ATOM     54  C   UNL     1       1.357 -15.519  10.415  1.00  0.00     0.031 C 
ATOM     55  C   UNL     1       1.005 -14.019  16.287  1.00  0.00     0.029 A 
ATOM     56  C   UNL     1       0.998 -13.955  14.902  1.00  0.00     0.049 A 
ATOM     57  H   UNL     1       0.815 -12.267  13.651  1.00  0.00     0.167 HD
ATOM     58  C   UNL     1       1.135 -14.881  12.607  1.00  0.00     0.074 A 
ATOM     59  C   UNL     1       1.326 -15.965  11.665  1.00  0.00     0.031 C 
ATOM     60  C   UNL     1       1.131 -15.032  13.955  1.00  0.00     0.034 A 
BRANCH  47  61
ATOM     61  C   UNL     1       0.645  -9.718  17.073  1.00  0.00     0.023 A 
ATOM     62  C   UNL     1      -0.548  -9.188  17.608  1.00  0.00     0.012 A 
ATOM     63  C   UNL     1       1.838  -9.615  17.814  1.00  0.00     0.148 A 
ATOM     64  C   UNL     1      -0.545  -8.528  18.836  1.00  0.00     0.002 A 
ATOM     65  C   UNL     1       1.824  -8.997  19.059  1.00  0.00     0.091 A 
ATOM     66  F   UNL     1       2.968 -10.101  17.280  1.00  0.00    -0.205 F 
ATOM     67  C   UNL     1       0.637  -8.442  19.565  1.00  0.00     0.022 A 
BRANCH  65  68
ATOM     68  S   UNL     1       3.281  -8.912  20.107  1.00  0.00     0.127 S 
ATOM     69  O   UNL     1       3.691  -7.520  19.930  1.00  0.00    -0.237 OA
ATOM     70  O   UNL     1       2.733  -9.222  21.428  1.00  0.00    -0.237 OA
ATOM     71  O   UNL     1       4.202  -9.912  19.586  1.00  0.00    -0.744 OA
ENDBRANCH  65  68
ENDBRANCH  47  61
BRANCH  48  72
ATOM     72  C   UNL     1       1.109 -13.844   8.005  1.00  0.00     0.023 A 
ATOM     73  C   UNL     1       0.122 -14.721   7.516  1.00  0.00     0.012 A 
ATOM     74  C   UNL     1       2.195 -13.499   7.177  1.00  0.00     0.148 A 
ATOM     75  C   UNL     1       0.223 -15.261   6.234  1.00  0.00     0.002 A 
ATOM     76  C   UNL     1       2.262 -13.998   5.881  1.00  0.00     0.091 A 
ATOM     77  F   UNL     1       3.127 -12.669   7.666  1.00  0.00    -0.205 F 
ATOM     78  C   UNL     1       1.285 -14.891   5.413  1.00  0.00     0.022 A 
BRANCH  76  79
ATOM     79  S   UNL     1       3.515 -13.472   4.707  1.00  0.00     0.127 S 
ATOM     80  O   UNL     1       4.309 -14.687   4.552  1.00  0.00    -0.237 OA
ATOM     81  O   UNL     1       2.704 -13.112   3.543  1.00  0.00    -0.237 OA
ATOM     82  O   UNL     1       4.196 -12.347   5.335  1.00  0.00    -0.744 OA
ENDBRANCH  76  79
ENDBRANCH  48  72
BRANCH  60  83
ATOM     83  C   UNL     1       1.306 -16.422  14.507  1.00  0.00     0.023 A 
ATOM     84  C   UNL     1       2.573 -17.035  14.473  1.00  0.00     0.012 A 
ATOM     85  C   UNL     1       0.235 -17.081  15.142  1.00  0.00     0.148 A 
ATOM     86  C   UNL     1       2.767 -18.294  15.041  1.00  0.00     0.002 A 
ATOM     87  C   UNL     1       0.446 -18.314  15.748  1.00  0.00     0.091 A 
ATOM     88  F   UNL     1      -0.969 -16.489  15.146  1.00  0.00    -0.205 F 
ATOM     89  C   UNL     1       1.708 -18.926  15.689  1.00  0.00     0.022 A 
BRANCH  87  90
ATOM     90  S   UNL     1      -0.835 -19.154  16.688  1.00  0.00     0.127 S 
ATOM     91  O   UNL     1      -1.208 -20.238  15.780  1.00  0.00    -0.237 OA
ATOM     92  O   UNL     1      -0.112 -19.583  17.886  1.00  0.00    -0.237 OA
ATOM     93  O   UNL     1      -1.869 -18.158  16.933  1.00  0.00    -0.744 OA
ENDBRANCH  87  90
ENDBRANCH  60  83
ENDBRANCH  34  35
ENDBRANCH  26  29
ENDBRANCH  24  25
ENDBRANCH   1  24
TORSDOF 15
