REMARK SMILES CCn1ncc(CNc2ccccc2C(=O)NCCCNC(=O)c2ccc(-c3c4nc(c(-c5cccc(S(=O)(=O)[O-])c5F)c5ccc([nH]5)c(-c5cccc(S(=O)(=O)[O-])c5F)c5nc(c(-c6cccc(S(=O)(=O)[O-])c6F)c6ccc3[nH]6)C=C5)C=C4)cc2)c1C
REMARK SMILES IDX 18 1 17 2 15 3 16 4 14 6 9 7 10 8 11 9 13 10 12 11 8 12 7 14
REMARK SMILES IDX 6 15 3 16 4 17 87 18 5 19 88 20 2 21 1 22 19 23 20 24 21 25
REMARK SMILES IDX 22 26 23 28 24 29 25 30 86 31 26 32 85 33 27 34 28 35 29 36
REMARK SMILES IDX 79 37 30 38 84 39 78 40 80 41 31 42 83 43 77 44 76 45 32 47
REMARK SMILES IDX 64 48 44 49 63 50 45 51 48 52 62 53 81 54 46 55 47 56 61 58
REMARK SMILES IDX 82 59 49 60 33 61 34 62 42 63 35 64 37 65 43 66 36 67 38 68
REMARK SMILES IDX 39 69 40 70 41 71 65 72 66 73 74 74 67 75 69 76 75 77 68 78
REMARK SMILES IDX 70 79 71 80 72 81 73 82 50 83 51 84 59 85 52 86 54 87 60 88
REMARK SMILES IDX 53 89 55 90 56 91 57 92 58 93
REMARK H PARENT 17 5 8 13 21 27 80 46 48 57
REMARK Flexibility Score: inf
ROOT
ATOM      1  C   UNL     1       3.357   4.224  -5.571  1.00  0.00     0.118 C 
ENDROOT
BRANCH   1   2
ATOM      2  N   UNL     1       3.130   3.472  -6.770  1.00  0.00    -0.352 N 
ATOM      3  C   UNL     1       2.742   2.138  -6.732  1.00  0.00     0.253 C 
ATOM      4  O   UNL     1       1.859   1.741  -7.493  1.00  0.00    -0.269 OA
ATOM      5  H   UNL     1       3.252   3.911  -7.643  1.00  0.00     0.163 HD
BRANCH   3   6
ATOM      6  C   UNL     1       3.515   1.122  -5.946  1.00  0.00     0.062 A 
ATOM      7  C   UNL     1       3.830   1.098  -4.570  1.00  0.00     0.047 A 
ATOM      8  C   UNL     1       4.740   0.096  -4.145  1.00  0.00     0.026 A 
ATOM      9  C   UNL     1       5.262  -0.877  -4.999  1.00  0.00     0.002 A 
ATOM     10  C   UNL     1       4.024   0.104  -6.794  1.00  0.00     0.016 A 
ATOM     11  C   UNL     1       4.881  -0.891  -6.327  1.00  0.00     0.001 A 
BRANCH   7  12
ATOM     12  N   UNL     1       3.319   1.865  -3.535  1.00  0.00    -0.380 N 
ATOM     13  H   UNL     1       3.921   1.997  -2.767  1.00  0.00     0.160 HD
BRANCH  12  14
ATOM     14  C   UNL     1       2.017   2.502  -3.426  1.00  0.00     0.152 C 
BRANCH  14  15
ATOM     15  C   UNL     1       1.370   2.356  -2.095  1.00  0.00     0.012 A 
ATOM     16  N   UNL     1       0.571   1.580  -0.203  1.00  0.00    -0.270 N 
ATOM     17  N   UNL     1       0.405   2.921  -0.124  1.00  0.00    -0.181 NA
ATOM     18  C   UNL     1       1.150   1.188  -1.385  1.00  0.00     0.040 A 
ATOM     19  C   UNL     1       0.879   3.388  -1.274  1.00  0.00     0.141 A 
ATOM     20  C   UNL     1       1.507  -0.182  -1.831  1.00  0.00     0.067 C 
BRANCH  16  21
ATOM     21  C   UNL     1       0.098   0.843   0.951  1.00  0.00     0.141 C 
ATOM     22  C   UNL     1       0.476  -0.615   1.099  1.00  0.00     0.029 C 
ENDBRANCH  16  21
ENDBRANCH  14  15
ENDBRANCH  12  14
ENDBRANCH   7  12
ENDBRANCH   3   6
ENDBRANCH   1   2
BRANCH   1  23
ATOM     23  C   UNL     1       4.090   5.550  -5.573  1.00  0.00     0.042 C 
BRANCH  23  24
ATOM     24  C   UNL     1       3.156   6.715  -5.247  1.00  0.00     0.118 C 
BRANCH  24  25
ATOM     25  N   UNL     1       2.401   6.594  -3.990  1.00  0.00    -0.352 N 
ATOM     26  C   UNL     1       1.304   7.377  -3.581  1.00  0.00     0.251 C 
ATOM     27  H   UNL     1       2.694   5.889  -3.369  1.00  0.00     0.163 HD
ATOM     28  O   UNL     1       0.851   7.316  -2.460  1.00  0.00    -0.269 OA
BRANCH  26  29
ATOM     29  C   UNL     1       0.750   8.289  -4.597  1.00  0.00     0.039 A 
ATOM     30  C   UNL     1       1.017   9.656  -4.510  1.00  0.00     0.014 A 
ATOM     31  C   UNL     1       0.351   7.700  -5.784  1.00  0.00     0.014 A 
ATOM     32  C   UNL     1       1.081  10.402  -5.690  1.00  0.00     0.010 A 
ATOM     33  C   UNL     1       0.587   8.401  -6.949  1.00  0.00     0.010 A 
ATOM     34  C   UNL     1       0.963   9.750  -6.929  1.00  0.00    -0.014 A 
BRANCH  34  35
ATOM     35  C   UNL     1       1.402  10.423  -8.165  1.00  0.00     0.031 A 
ATOM     36  C   UNL     1       2.630  11.290  -8.096  1.00  0.00     0.074 A 
ATOM     37  C   UNL     1       0.922  10.148  -9.399  1.00  0.00     0.049 A 
ATOM     38  N   UNL     1       2.692  12.573  -8.270  1.00  0.00    -0.248 NA
ATOM     39  C   UNL     1       3.926  10.682  -7.762  1.00  0.00     0.031 C 
ATOM     40  C   UNL     1      -0.053   9.130  -9.809  1.00  0.00     0.029 A 
ATOM     41  N   UNL     1       1.350  10.644 -10.595  1.00  0.00    -0.354 N 
ATOM     42  C   UNL     1       4.047  12.915  -8.263  1.00  0.00     0.074 A 
ATOM     43  C   UNL     1       4.747  11.737  -7.813  1.00  0.00     0.031 C 
ATOM     44  C   UNL     1       0.097   8.870 -11.124  1.00  0.00     0.029 A 
ATOM     45  C   UNL     1       0.994   9.859 -11.681  1.00  0.00     0.049 A 
ATOM     46  H   UNL     1       1.864  11.480 -10.679  1.00  0.00     0.167 HD
ATOM     47  C   UNL     1       4.504  14.085  -8.800  1.00  0.00     0.034 A 
ATOM     48  C   UNL     1       1.406   9.999 -12.959  1.00  0.00     0.034 A 
ATOM     49  C   UNL     1       3.424  14.991  -9.104  1.00  0.00     0.049 A 
ATOM     50  C   UNL     1       1.804  11.414 -13.131  1.00  0.00     0.074 A 
ATOM     51  C   UNL     1       2.388  15.562  -8.392  1.00  0.00     0.029 A 
ATOM     52  N   UNL     1       3.094  15.163 -10.427  1.00  0.00    -0.354 N 
ATOM     53  N   UNL     1       0.965  12.411 -13.046  1.00  0.00    -0.248 NA
ATOM     54  C   UNL     1       3.206  11.764 -12.993  1.00  0.00     0.031 C 
ATOM     55  C   UNL     1       1.281  15.539  -9.292  1.00  0.00     0.029 A 
ATOM     56  C   UNL     1       1.736  15.010 -10.503  1.00  0.00     0.049 A 
ATOM     57  H   UNL     1       3.711  15.356 -11.170  1.00  0.00     0.167 HD
ATOM     58  C   UNL     1       1.678  13.412 -12.400  1.00  0.00     0.074 A 
ATOM     59  C   UNL     1       3.078  13.004 -12.514  1.00  0.00     0.031 C 
ATOM     60  C   UNL     1       1.062  14.323 -11.584  1.00  0.00     0.034 A 
BRANCH  47  61
ATOM     61  C   UNL     1       5.889  14.355  -9.351  1.00  0.00     0.023 A 
ATOM     62  C   UNL     1       6.219  15.697  -9.666  1.00  0.00     0.012 A 
ATOM     63  C   UNL     1       6.769  13.359  -9.823  1.00  0.00     0.148 A 
ATOM     64  C   UNL     1       7.327  16.025 -10.456  1.00  0.00     0.002 A 
ATOM     65  C   UNL     1       7.915  13.696 -10.541  1.00  0.00     0.091 A 
ATOM     66  F   UNL     1       6.440  12.069  -9.704  1.00  0.00    -0.205 F 
ATOM     67  C   UNL     1       8.182  15.023 -10.889  1.00  0.00     0.022 A 
BRANCH  65  68
ATOM     68  S   UNL     1       9.091  12.440 -11.059  1.00  0.00     0.127 S 
ATOM     69  O   UNL     1       8.695  12.221 -12.446  1.00  0.00    -0.237 OA
ATOM     70  O   UNL     1      10.372  13.125 -10.880  1.00  0.00    -0.237 OA
ATOM     71  O   UNL     1       8.879  11.329 -10.139  1.00  0.00    -0.744 OA
ENDBRANCH  65  68
ENDBRANCH  47  61
BRANCH  48  72
ATOM     72  C   UNL     1       1.610   8.949 -13.976  1.00  0.00     0.023 A 
ATOM     73  C   UNL     1       1.580   9.275 -15.342  1.00  0.00     0.012 A 
ATOM     74  C   UNL     1       2.065   7.661 -13.604  1.00  0.00     0.148 A 
ATOM     75  C   UNL     1       2.006   8.355 -16.308  1.00  0.00     0.002 A 
ATOM     76  C   UNL     1       2.475   6.747 -14.568  1.00  0.00     0.091 A 
ATOM     77  F   UNL     1       2.179   7.365 -12.301  1.00  0.00    -0.205 F 
ATOM     78  C   UNL     1       2.456   7.094 -15.923  1.00  0.00     0.022 A 
BRANCH  76  79
ATOM     79  S   UNL     1       3.068   5.106 -14.129  1.00  0.00     0.127 S 
ATOM     80  O   UNL     1       2.450   4.269 -15.158  1.00  0.00    -0.237 OA
ATOM     81  O   UNL     1       4.514   5.262 -14.254  1.00  0.00    -0.237 OA
ATOM     82  O   UNL     1       2.567   4.861 -12.782  1.00  0.00    -0.744 OA
ENDBRANCH  76  79
ENDBRANCH  48  72
BRANCH  60  83
ATOM     83  C   UNL     1      -0.449  14.389 -11.557  1.00  0.00     0.023 A 
ATOM     84  C   UNL     1      -1.233  13.275 -11.190  1.00  0.00     0.012 A 
ATOM     85  C   UNL     1      -1.077  15.642 -11.677  1.00  0.00     0.148 A 
ATOM     86  C   UNL     1      -2.607  13.400 -10.968  1.00  0.00     0.002 A 
ATOM     87  C   UNL     1      -2.436  15.774 -11.407  1.00  0.00     0.091 A 
ATOM     88  F   UNL     1      -0.325  16.701 -12.017  1.00  0.00    -0.205 F 
ATOM     89  C   UNL     1      -3.206  14.653 -11.062  1.00  0.00     0.022 A 
BRANCH  87  90
ATOM     90  S   UNL     1      -3.235  17.382 -11.368  1.00  0.00     0.127 S 
ATOM     91  O   UNL     1      -3.922  17.414 -12.657  1.00  0.00    -0.237 OA
ATOM     92  O   UNL     1      -4.120  17.271 -10.207  1.00  0.00    -0.237 OA
ATOM     93  O   UNL     1      -2.161  18.354 -11.201  1.00  0.00    -0.744 OA
ENDBRANCH  87  90
ENDBRANCH  60  83
ENDBRANCH  34  35
ENDBRANCH  26  29
ENDBRANCH  24  25
ENDBRANCH  23  24
ENDBRANCH   1  23
TORSDOF 17
