REMARK SMILES CC[N@@H+](C[C@@H](C)C(=O)NCCCNC(=O)c1ccc(-c2c3nc(c(-c4cccc(S(=O)(=O)[O-])c4F)c4ccc([nH]4)c(-c4cccc(S(=O)(=O)[O-])c4F)c4nc(c(-c5cccc(S(=O)(=O)[O-])c5F)c5ccc2[nH]5)C=C4)C=C3)cc1)[C@@H]1CCC[C@H](S(C)(=O)=O)C1
REMARK SMILES IDX 10 1 9 2 7 3 8 4 5 6 6 7 4 8 3 9 2 11 1 12 79 13 80 14 88 15
REMARK SMILES IDX 81 16 83 17 82 18 84 19 85 20 86 21 87 22 11 23 12 24 13 25
REMARK SMILES IDX 14 26 15 28 16 29 17 30 78 31 18 32 77 33 19 34 20 35 21 36
REMARK SMILES IDX 71 37 22 38 76 39 70 40 72 41 23 42 75 43 69 44 68 45 24 47
REMARK SMILES IDX 56 48 36 49 55 50 37 51 40 52 54 53 73 54 38 55 39 56 53 58
REMARK SMILES IDX 74 59 41 60 25 61 26 62 34 63 27 64 29 65 35 66 28 67 30 68
REMARK SMILES IDX 31 69 32 70 33 71 57 72 58 73 66 74 59 75 61 76 67 77 60 78
REMARK SMILES IDX 62 79 63 80 64 81 65 82 42 83 43 84 51 85 44 86 46 87 52 88
REMARK SMILES IDX 45 89 47 90 48 91 49 92 50 93
REMARK H PARENT 9 5 3 10 13 27 72 46 40 57
REMARK Flexibility Score: inf
ROOT
ATOM      1  C   UNL     1       1.627   6.246  -2.492  1.00  0.00     0.117 C 
ENDROOT
BRANCH   1   2
ATOM      2  N   UNL     1       0.457   6.485  -1.667  1.00  0.00    -0.356 N 
ATOM      3  C   UNL     1      -0.192   5.688  -0.779  1.00  0.00     0.228 C 
ATOM      4  O   UNL     1      -1.279   6.087  -0.351  1.00  0.00    -0.275 OA
ATOM      5  H   UNL     1       0.066   7.383  -1.770  1.00  0.00     0.163 HD
BRANCH   3   6
ATOM      6  C   UNL     1       0.451   4.433  -0.197  1.00  0.00     0.130 C 
ATOM      7  C   UNL     1       1.571   4.944   0.711  1.00  0.00     0.024 C 
BRANCH   6   8
ATOM      8  C   UNL     1       0.699   3.311  -1.259  1.00  0.00     0.275 C 
BRANCH   8   9
ATOM      9  N   UNL     1       1.286   1.992  -0.900  1.00  0.00    -0.332 N 
ATOM     10  H   UNL     1       1.013   1.337  -1.633  1.00  0.00     0.348 HD
BRANCH   9  11
ATOM     11  C   UNL     1       0.646   1.381   0.263  1.00  0.00     0.259 C 
ATOM     12  C   UNL     1       0.411  -0.125   0.141  1.00  0.00     0.071 C 
ENDBRANCH   9  11
BRANCH   9  13
ATOM     13  C   UNL     1       2.746   1.818  -1.139  1.00  0.00     0.185 C 
ATOM     14  C   UNL     1       3.376   0.511  -0.618  1.00  0.00     0.065 C 
ATOM     15  C   UNL     1       3.530   3.007  -0.602  1.00  0.00     0.084 C 
ATOM     16  C   UNL     1       4.902   0.482  -0.738  1.00  0.00     0.007 C 
ATOM     17  C   UNL     1       5.053   2.965  -0.569  1.00  0.00     0.114 C 
ATOM     18  C   UNL     1       5.537   1.649   0.015  1.00  0.00     0.020 C 
BRANCH  17  19
ATOM     19  S   UNL     1       5.568   4.417   0.403  1.00  0.00     0.150 S 
ATOM     20  C   UNL     1       7.332   4.346   0.503  1.00  0.00     0.158 C 
ATOM     21  O   UNL     1       5.238   5.598  -0.370  1.00  0.00    -0.229 OA
ATOM     22  O   UNL     1       5.066   4.266   1.760  1.00  0.00    -0.229 OA
ENDBRANCH  17  19
ENDBRANCH   9  13
ENDBRANCH   8   9
ENDBRANCH   6   8
ENDBRANCH   3   6
ENDBRANCH   1   2
BRANCH   1  23
ATOM     23  C   UNL     1       1.208   5.965  -3.930  1.00  0.00     0.042 C 
BRANCH  23  24
ATOM     24  C   UNL     1       0.691   7.214  -4.632  1.00  0.00     0.118 C 
BRANCH  24  25
ATOM     25  N   UNL     1       1.746   8.199  -4.839  1.00  0.00    -0.352 N 
ATOM     26  C   UNL     1       2.080   8.878  -5.984  1.00  0.00     0.251 C 
ATOM     27  H   UNL     1       2.295   8.406  -4.048  1.00  0.00     0.163 HD
ATOM     28  O   UNL     1       3.120   9.526  -6.033  1.00  0.00    -0.269 OA
BRANCH  26  29
ATOM     29  C   UNL     1       1.189   8.800  -7.158  1.00  0.00     0.039 A 
ATOM     30  C   UNL     1       1.751   8.594  -8.419  1.00  0.00     0.014 A 
ATOM     31  C   UNL     1      -0.196   8.908  -7.008  1.00  0.00     0.014 A 
ATOM     32  C   UNL     1       0.915   8.440  -9.525  1.00  0.00     0.010 A 
ATOM     33  C   UNL     1      -1.027   8.665  -8.094  1.00  0.00     0.010 A 
ATOM     34  C   UNL     1      -0.481   8.441  -9.366  1.00  0.00    -0.014 A 
BRANCH  34  35
ATOM     35  C   UNL     1      -1.388   8.206 -10.517  1.00  0.00     0.031 A 
ATOM     36  C   UNL     1      -2.370   9.267 -10.931  1.00  0.00     0.074 A 
ATOM     37  C   UNL     1      -1.383   7.006 -11.132  1.00  0.00     0.049 A 
ATOM     38  N   UNL     1      -3.279   9.225 -11.870  1.00  0.00    -0.248 NA
ATOM     39  C   UNL     1      -2.349  10.531 -10.175  1.00  0.00     0.031 C 
ATOM     40  C   UNL     1      -0.531   5.872 -10.768  1.00  0.00     0.029 A 
ATOM     41  N   UNL     1      -2.137   6.533 -12.175  1.00  0.00    -0.354 N 
ATOM     42  C   UNL     1      -3.960  10.434 -11.792  1.00  0.00     0.074 A 
ATOM     43  C   UNL     1      -3.386  11.174 -10.691  1.00  0.00     0.031 C 
ATOM     44  C   UNL     1      -0.803   4.838 -11.580  1.00  0.00     0.029 A 
ATOM     45  C   UNL     1      -1.873   5.221 -12.495  1.00  0.00     0.049 A 
ATOM     46  H   UNL     1      -2.804   7.079 -12.650  1.00  0.00     0.167 HD
ATOM     47  C   UNL     1      -4.955  10.900 -12.584  1.00  0.00     0.034 A 
ATOM     48  C   UNL     1      -2.439   4.414 -13.414  1.00  0.00     0.034 A 
ATOM     49  C   UNL     1      -5.497  10.173 -13.700  1.00  0.00     0.049 A 
ATOM     50  C   UNL     1      -3.524   4.966 -14.298  1.00  0.00     0.074 A 
ATOM     51  C   UNL     1      -6.444  10.590 -14.618  1.00  0.00     0.029 A 
ATOM     52  N   UNL     1      -5.152   8.875 -14.041  1.00  0.00    -0.354 N 
ATOM     53  N   UNL     1      -4.047   6.168 -14.311  1.00  0.00    -0.248 NA
ATOM     54  C   UNL     1      -4.074   4.061 -15.318  1.00  0.00     0.031 C 
ATOM     55  C   UNL     1      -6.698   9.530 -15.493  1.00  0.00     0.029 A 
ATOM     56  C   UNL     1      -5.878   8.469 -15.148  1.00  0.00     0.049 A 
ATOM     57  H   UNL     1      -4.488   8.324 -13.568  1.00  0.00     0.167 HD
ATOM     58  C   UNL     1      -4.957   6.177 -15.362  1.00  0.00     0.074 A 
ATOM     59  C   UNL     1      -4.899   4.865 -15.974  1.00  0.00     0.031 C 
ATOM     60  C   UNL     1      -5.774   7.177 -15.776  1.00  0.00     0.034 A 
BRANCH  47  61
ATOM     61  C   UNL     1      -5.494  12.277 -12.296  1.00  0.00     0.023 A 
ATOM     62  C   UNL     1      -4.691  13.409 -12.544  1.00  0.00     0.012 A 
ATOM     63  C   UNL     1      -6.813  12.455 -11.834  1.00  0.00     0.148 A 
ATOM     64  C   UNL     1      -5.176  14.694 -12.301  1.00  0.00     0.002 A 
ATOM     65  C   UNL     1      -7.307  13.740 -11.642  1.00  0.00     0.091 A 
ATOM     66  F   UNL     1      -7.556  11.367 -11.585  1.00  0.00    -0.205 F 
ATOM     67  C   UNL     1      -6.486  14.859 -11.861  1.00  0.00     0.022 A 
BRANCH  65  68
ATOM     68  S   UNL     1      -9.006  14.064 -11.160  1.00  0.00     0.127 S 
ATOM     69  O   UNL     1      -8.834  14.585  -9.804  1.00  0.00    -0.237 OA
ATOM     70  O   UNL     1      -9.420  15.061 -12.148  1.00  0.00    -0.237 OA
ATOM     71  O   UNL     1      -9.702  12.789 -11.254  1.00  0.00    -0.744 OA
ENDBRANCH  65  68
ENDBRANCH  47  61
BRANCH  48  72
ATOM     72  C   UNL     1      -1.952   3.015 -13.580  1.00  0.00     0.023 A 
ATOM     73  C   UNL     1      -1.254   2.658 -14.750  1.00  0.00     0.012 A 
ATOM     74  C   UNL     1      -2.158   2.044 -12.581  1.00  0.00     0.148 A 
ATOM     75  C   UNL     1      -0.803   1.351 -14.939  1.00  0.00     0.002 A 
ATOM     76  C   UNL     1      -1.656   0.760 -12.750  1.00  0.00     0.091 A 
ATOM     77  F   UNL     1      -2.830   2.402 -11.477  1.00  0.00    -0.205 F 
ATOM     78  C   UNL     1      -0.996   0.405 -13.936  1.00  0.00     0.022 A 
BRANCH  76  79
ATOM     79  S   UNL     1      -1.739  -0.487 -11.459  1.00  0.00     0.127 S 
ATOM     80  O   UNL     1      -2.676  -1.449 -12.033  1.00  0.00    -0.237 OA
ATOM     81  O   UNL     1      -0.350  -0.942 -11.391  1.00  0.00    -0.237 OA
ATOM     82  O   UNL     1      -2.201   0.210 -10.267  1.00  0.00    -0.744 OA
ENDBRANCH  76  79
ENDBRANCH  48  72
BRANCH  60  83
ATOM     83  C   UNL     1      -6.643   6.917 -16.979  1.00  0.00     0.023 A 
ATOM     84  C   UNL     1      -7.745   6.045 -16.879  1.00  0.00     0.012 A 
ATOM     85  C   UNL     1      -6.409   7.601 -18.188  1.00  0.00     0.148 A 
ATOM     86  C   UNL     1      -8.580   5.830 -17.975  1.00  0.00     0.002 A 
ATOM     87  C   UNL     1      -7.277   7.424 -19.259  1.00  0.00     0.091 A 
ATOM     88  F   UNL     1      -5.346   8.414 -18.267  1.00  0.00    -0.205 F 
ATOM     89  C   UNL     1      -8.354   6.529 -19.159  1.00  0.00     0.022 A 
BRANCH  87  90
ATOM     90  S   UNL     1      -7.124   8.355 -20.787  1.00  0.00     0.127 S 
ATOM     91  O   UNL     1      -6.699   7.319 -21.726  1.00  0.00    -0.237 OA
ATOM     92  O   UNL     1      -8.489   8.841 -20.990  1.00  0.00    -0.237 OA
ATOM     93  O   UNL     1      -6.142   9.400 -20.527  1.00  0.00    -0.744 OA
ENDBRANCH  87  90
ENDBRANCH  60  83
ENDBRANCH  34  35
ENDBRANCH  26  29
ENDBRANCH  24  25
ENDBRANCH  23  24
ENDBRANCH   1  23
TORSDOF 18
