REMARK SMILES O=C(NCCCNC(=O)[C@H]1Cc2c([nH]c3ccccc23)[C@@H](c2ccc(OC(F)(F)F)cc2)[NH2+]1)c1ccc(-c2c3nc(c(-c4cccc(S(=O)(=O)[O-])c4F)c4ccc([nH]4)c(-c4cccc(S(=O)(=O)[O-])c4F)c4nc(c(-c5cccc(S(=O)(=O)[O-])c5F)c5ccc2[nH]5)C=C4)C=C3)cc1
REMARK SMILES IDX 5 1 4 2 3 3 1 4 2 5 34 7 35 8 96 9 36 10 95 11 37 12 38 13
REMARK SMILES IDX 39 14 89 15 40 16 94 17 88 18 90 19 41 20 93 21 87 22 86 23
REMARK SMILES IDX 42 25 74 26 54 27 73 28 55 29 58 30 72 31 91 32 56 33 57 34
REMARK SMILES IDX 71 36 92 37 59 38 43 39 44 40 52 41 45 42 47 43 53 44 46 45
REMARK SMILES IDX 48 46 49 47 50 48 51 49 75 50 76 51 84 52 77 53 79 54 85 55
REMARK SMILES IDX 78 56 80 57 81 58 82 59 83 60 60 61 61 62 69 63 62 64 64 65
REMARK SMILES IDX 70 66 63 67 65 68 66 69 67 70 68 71 6 72 7 73 8 74 9 76
REMARK SMILES IDX 10 77 11 78 33 79 12 80 21 81 13 84 20 85 14 86 15 87 19 88
REMARK SMILES IDX 16 90 18 91 17 92 22 93 23 94 32 95 24 96 31 97 25 98 26 99
REMARK SMILES IDX 27 100 28 101 29 102 30 103
REMARK H PARENT 3 6 90 24 58 35 7 75 33 82 33 83 14 89
REMARK Flexibility Score: inf
ROOT
ATOM      1  C   UNL     1       4.628   2.318   0.117  1.00  0.00     0.042 C 
ENDROOT
BRANCH   1   2
ATOM      2  C   UNL     1       4.354   0.975   0.764  1.00  0.00     0.118 C 
BRANCH   2   3
ATOM      3  N   UNL     1       2.925   0.665   0.746  1.00  0.00    -0.352 N 
ATOM      4  O   UNL     1       1.028  -0.171  -0.125  1.00  0.00    -0.269 OA
ATOM      5  C   UNL     1       2.241  -0.265   0.003  1.00  0.00     0.251 C 
ATOM      6  H   UNL     1       2.371   1.204   1.356  1.00  0.00     0.163 HD
BRANCH   5   7
ATOM      7  C   UNL     1       2.991  -1.370  -0.623  1.00  0.00     0.039 A 
ATOM      8  C   UNL     1       4.065  -1.941   0.061  1.00  0.00     0.014 A 
ATOM      9  C   UNL     1       2.611  -1.857  -1.875  1.00  0.00     0.014 A 
ATOM     10  C   UNL     1       4.863  -2.877  -0.567  1.00  0.00     0.010 A 
ATOM     11  C   UNL     1       3.334  -2.905  -2.449  1.00  0.00     0.010 A 
ATOM     12  C   UNL     1       4.471  -3.412  -1.801  1.00  0.00    -0.014 A 
BRANCH  12  13
ATOM     13  C   UNL     1       5.185  -4.611  -2.291  1.00  0.00     0.031 A 
ATOM     14  C   UNL     1       5.936  -4.605  -3.586  1.00  0.00     0.074 A 
ATOM     15  C   UNL     1       5.142  -5.715  -1.516  1.00  0.00     0.049 A 
ATOM     16  N   UNL     1       6.623  -5.574  -4.130  1.00  0.00    -0.248 NA
ATOM     17  C   UNL     1       5.916  -3.365  -4.379  1.00  0.00     0.031 C 
ATOM     18  C   UNL     1       4.396  -5.829  -0.255  1.00  0.00     0.029 A 
ATOM     19  N   UNL     1       5.729  -6.942  -1.659  1.00  0.00    -0.354 N 
ATOM     20  C   UNL     1       7.075  -5.085  -5.348  1.00  0.00     0.074 A 
ATOM     21  C   UNL     1       6.595  -3.725  -5.461  1.00  0.00     0.031 C 
ATOM     22  C   UNL     1       4.597  -7.042   0.272  1.00  0.00     0.029 A 
ATOM     23  C   UNL     1       5.411  -7.820  -0.649  1.00  0.00     0.049 A 
ATOM     24  H   UNL     1       6.320  -7.175  -2.412  1.00  0.00     0.167 HD
ATOM     25  C   UNL     1       7.824  -5.722  -6.278  1.00  0.00     0.034 A 
ATOM     26  C   UNL     1       5.705  -9.123  -0.499  1.00  0.00     0.034 A 
ATOM     27  C   UNL     1       8.316  -7.067  -6.130  1.00  0.00     0.049 A 
ATOM     28  C   UNL     1       6.545  -9.787  -1.548  1.00  0.00     0.074 A 
ATOM     29  C   UNL     1       9.151  -7.772  -6.979  1.00  0.00     0.029 A 
ATOM     30  N   UNL     1       8.004  -7.917  -5.080  1.00  0.00    -0.354 N 
ATOM     31  N   UNL     1       7.083  -9.263  -2.622  1.00  0.00    -0.248 NA
ATOM     32  C   UNL     1       6.835 -11.213  -1.357  1.00  0.00     0.031 C 
ATOM     33  C   UNL     1       9.310  -9.062  -6.464  1.00  0.00     0.029 A 
ATOM     34  C   UNL     1       8.607  -9.149  -5.273  1.00  0.00     0.049 A 
ATOM     35  H   UNL     1       7.438  -7.680  -4.310  1.00  0.00     0.167 HD
ATOM     36  C   UNL     1       7.792 -10.291  -3.227  1.00  0.00     0.074 A 
ATOM     37  C   UNL     1       7.646 -11.455  -2.376  1.00  0.00     0.031 C 
ATOM     38  C   UNL     1       8.482 -10.281  -4.393  1.00  0.00     0.034 A 
BRANCH  25  39
ATOM     39  C   UNL     1       8.180  -4.984  -7.540  1.00  0.00     0.023 A 
ATOM     40  C   UNL     1       9.168  -3.979  -7.513  1.00  0.00     0.012 A 
ATOM     41  C   UNL     1       7.620  -5.371  -8.774  1.00  0.00     0.148 A 
ATOM     42  C   UNL     1       9.585  -3.365  -8.693  1.00  0.00     0.002 A 
ATOM     43  C   UNL     1       8.071  -4.784  -9.950  1.00  0.00     0.091 A 
ATOM     44  F   UNL     1       6.669  -6.316  -8.774  1.00  0.00    -0.205 F 
ATOM     45  C   UNL     1       9.048  -3.776  -9.911  1.00  0.00     0.022 A 
BRANCH  43  46
ATOM     46  S   UNL     1       7.503  -5.300 -11.574  1.00  0.00     0.127 S 
ATOM     47  O   UNL     1       6.808  -4.099 -12.038  1.00  0.00    -0.237 OA
ATOM     48  O   UNL     1       8.763  -5.579 -12.263  1.00  0.00    -0.237 OA
ATOM     49  O   UNL     1       6.653  -6.461 -11.357  1.00  0.00    -0.744 OA
ENDBRANCH  43  46
ENDBRANCH  25  39
BRANCH  26  50
ATOM     50  C   UNL     1       5.191  -9.876   0.678  1.00  0.00     0.023 A 
ATOM     51  C   UNL     1       6.091 -10.373   1.639  1.00  0.00     0.012 A 
ATOM     52  C   UNL     1       3.809 -10.087   0.857  1.00  0.00     0.148 A 
ATOM     53  C   UNL     1       5.627 -11.103   2.735  1.00  0.00     0.002 A 
ATOM     54  C   UNL     1       3.350 -10.756   1.984  1.00  0.00     0.091 A 
ATOM     55  F   UNL     1       2.967  -9.619  -0.075  1.00  0.00    -0.205 F 
ATOM     56  C   UNL     1       4.257 -11.285   2.912  1.00  0.00     0.022 A 
BRANCH  54  57
ATOM     57  S   UNL     1       1.599 -10.899   2.357  1.00  0.00     0.127 S 
ATOM     58  O   UNL     1       1.331 -12.290   2.003  1.00  0.00    -0.237 OA
ATOM     59  O   UNL     1       1.568 -10.610   3.791  1.00  0.00    -0.237 OA
ATOM     60  O   UNL     1       0.944  -9.892   1.533  1.00  0.00    -0.744 OA
ENDBRANCH  54  57
ENDBRANCH  26  50
BRANCH  38  61
ATOM     61  C   UNL     1       9.151 -11.565  -4.802  1.00  0.00     0.023 A 
ATOM     62  C   UNL     1       8.370 -12.652  -5.241  1.00  0.00     0.012 A 
ATOM     63  C   UNL     1      10.554 -11.675  -4.797  1.00  0.00     0.148 A 
ATOM     64  C   UNL     1       8.975 -13.845  -5.632  1.00  0.00     0.002 A 
ATOM     65  C   UNL     1      11.152 -12.847  -5.241  1.00  0.00     0.091 A 
ATOM     66  F   UNL     1      11.276 -10.634  -4.358  1.00  0.00    -0.205 F 
ATOM     67  C   UNL     1      10.364 -13.938  -5.643  1.00  0.00     0.022 A 
BRANCH  65  68
ATOM     68  S   UNL     1      12.933 -13.025  -5.382  1.00  0.00     0.127 S 
ATOM     69  O   UNL     1      13.223 -13.976  -4.310  1.00  0.00    -0.237 OA
ATOM     70  O   UNL     1      13.083 -13.564  -6.734  1.00  0.00    -0.237 OA
ATOM     71  O   UNL     1      13.488 -11.690  -5.198  1.00  0.00    -0.744 OA
ENDBRANCH  65  68
ENDBRANCH  38  61
ENDBRANCH  12  13
ENDBRANCH   5   7
ENDBRANCH   2   3
ENDBRANCH   1   2
BRANCH   1  72
ATOM     72  C   UNL     1       4.021   3.440   0.939  1.00  0.00     0.118 C 
BRANCH  72  73
ATOM     73  N   UNL     1       4.907   3.855   2.015  1.00  0.00    -0.351 N 
ATOM     74  C   UNL     1       5.777   4.879   2.205  1.00  0.00     0.278 C 
ATOM     75  H   UNL     1       4.867   3.249   2.790  1.00  0.00     0.163 HD
ATOM     76  O   UNL     1       6.407   4.853   3.274  1.00  0.00    -0.268 OA
BRANCH  74  77
ATOM     77  C   UNL     1       6.008   6.065   1.237  1.00  0.00     0.277 C 
ATOM     78  C   UNL     1       5.194   6.027  -0.047  1.00  0.00     0.114 C 
ATOM     79  N   UNL     1       5.719   7.308   2.005  1.00  0.00    -0.325 N 
ATOM     80  C   UNL     1       5.314   7.281  -0.802  1.00  0.00    -0.006 A 
ATOM     81  C   UNL     1       5.979   8.583   1.301  1.00  0.00     0.262 C 
ATOM     82  H   UNL     1       6.293   7.295   2.848  1.00  0.00     0.347 HD
ATOM     83  H   UNL     1       4.714   7.293   2.182  1.00  0.00     0.347 HD
ATOM     84  C   UNL     1       5.671   8.448  -0.170  1.00  0.00     0.083 A 
ATOM     85  C   UNL     1       4.892   7.570  -2.114  1.00  0.00     0.003 A 
ATOM     86  N   UNL     1       5.631   9.439  -1.123  1.00  0.00    -0.353 N 
ATOM     87  C   UNL     1       5.061   8.943  -2.286  1.00  0.00     0.046 A 
ATOM     88  C   UNL     1       4.307   6.800  -3.136  1.00  0.00     0.010 A 
ATOM     89  H   UNL     1       5.957  10.359  -0.998  1.00  0.00     0.166 HD
ATOM     90  C   UNL     1       4.652   9.590  -3.459  1.00  0.00     0.026 A 
ATOM     91  C   UNL     1       3.883   7.434  -4.303  1.00  0.00     0.001 A 
ATOM     92  C   UNL     1       4.051   8.808  -4.457  1.00  0.00     0.002 A 
BRANCH  81  93
ATOM     93  C   UNL     1       5.163   9.657   2.027  1.00  0.00     0.016 A 
ATOM     94  C   UNL     1       3.971  10.190   1.512  1.00  0.00     0.014 A 
ATOM     95  C   UNL     1       5.547  10.060   3.320  1.00  0.00     0.014 A 
ATOM     96  C   UNL     1       3.234  11.135   2.229  1.00  0.00     0.047 A 
ATOM     97  C   UNL     1       4.785  10.979   4.056  1.00  0.00     0.047 A 
ATOM     98  C   UNL     1       3.631  11.534   3.506  1.00  0.00     0.129 A 
BRANCH  98  99
ATOM     99  O   UNL     1       2.808  12.454   4.086  1.00  0.00    -0.406 OA
BRANCH  99 100
ATOM    100  C   UNL     1       3.054  12.803   5.435  1.00  0.00     0.573 C 
ATOM    101  F   UNL     1       2.939  11.731   6.247  1.00  0.00    -0.132 F 
ATOM    102  F   UNL     1       4.276  13.357   5.586  1.00  0.00    -0.132 F 
ATOM    103  F   UNL     1       2.135  13.719   5.816  1.00  0.00    -0.132 F 
ENDBRANCH  99 100
ENDBRANCH  98  99
ENDBRANCH  81  93
ENDBRANCH  74  77
ENDBRANCH  72  73
ENDBRANCH   1  72
TORSDOF 16
