REMARK SMILES C=CCn1nc(C(=O)NCCCNC(=O)c2ccc(-c3c4nc(c(-c5cccc(S(=O)(=O)[O-])c5F)c5ccc([nH]5)c(-c5cccc(S(=O)(=O)[O-])c5F)c5nc(c(-c6cccc(S(=O)(=O)[O-])c6F)c6ccc3[nH]6)C=C5)C=C4)cc2)c2c1CC[C@@H]([NH2+]Cc1nc(C)cc(=O)[nH]1)C2
REMARK SMILES IDX 11 1 10 2 9 3 7 4 8 5 6 7 4 8 5 9 80 10 79 11 81 12 94 13
REMARK SMILES IDX 82 14 83 15 3 16 2 17 1 18 84 19 85 22 86 23 87 24 93 25
REMARK SMILES IDX 88 26 91 27 89 29 90 30 92 31 12 32 13 33 14 34 15 36 16 37
REMARK SMILES IDX 17 38 78 39 18 40 77 41 19 42 20 43 21 44 71 45 22 46 76 47
REMARK SMILES IDX 70 48 72 49 23 50 75 51 69 52 68 53 24 55 56 56 36 57 55 58
REMARK SMILES IDX 37 59 40 60 54 61 73 62 38 63 39 64 53 66 74 67 41 68 25 69
REMARK SMILES IDX 26 70 34 71 27 72 29 73 35 74 28 75 30 76 31 77 32 78 33 79
REMARK SMILES IDX 57 80 58 81 66 82 59 83 61 84 67 85 60 86 62 87 63 88 64 89
REMARK SMILES IDX 65 90 42 91 43 92 51 93 44 94 46 95 52 96 45 97 47 98 48 99
REMARK SMILES IDX 49 100 50 101
REMARK H PARENT 9 6 84 20 84 21 93 28 13 35 72 54 40 65
REMARK Flexibility Score: inf
ROOT
ATOM      1  C   UNL     1      -4.178   0.373   7.444  1.00  0.00     0.042 C 
ENDROOT
BRANCH   1   2
ATOM      2  C   UNL     1      -2.803  -0.305   7.371  1.00  0.00     0.118 C 
BRANCH   2   3
ATOM      3  N   UNL     1      -2.709  -1.307   6.326  1.00  0.00    -0.351 N 
ATOM      4  C   UNL     1      -2.240  -1.332   5.028  1.00  0.00     0.272 C 
ATOM      5  O   UNL     1      -2.066  -2.477   4.595  1.00  0.00    -0.267 OA
ATOM      6  H   UNL     1      -3.066  -2.179   6.611  1.00  0.00     0.163 HD
BRANCH   4   7
ATOM      7  C   UNL     1      -1.970  -0.143   4.164  1.00  0.00     0.153 A 
ATOM      8  N   UNL     1      -1.428   0.792   2.291  1.00  0.00    -0.265 N 
ATOM      9  N   UNL     1      -1.414  -0.375   2.950  1.00  0.00    -0.167 NA
ATOM     10  C   UNL     1      -1.873   1.820   3.058  1.00  0.00     0.043 A 
ATOM     11  C   UNL     1      -2.235   1.260   4.264  1.00  0.00     0.012 A 
ATOM     12  C   UNL     1      -2.080   3.234   2.635  1.00  0.00     0.062 C 
ATOM     13  C   UNL     1      -2.869   2.092   5.299  1.00  0.00     0.105 C 
ATOM     14  C   UNL     1      -2.401   4.113   3.857  1.00  0.00     0.072 C 
ATOM     15  C   UNL     1      -3.402   3.457   4.820  1.00  0.00     0.187 C 
BRANCH   8  16
ATOM     16  C   UNL     1      -1.053   0.826   0.882  1.00  0.00     0.171 C 
BRANCH  16  17
ATOM     17  C   UNL     1       0.439   0.860   0.701  1.00  0.00    -0.011 C 
ATOM     18  C   UNL     1       1.121  -0.005  -0.061  1.00  0.00     0.006 C 
ENDBRANCH  16  17
ENDBRANCH   8  16
BRANCH  15  19
ATOM     19  N   UNL     1      -4.714   3.312   4.159  1.00  0.00    -0.337 N 
ATOM     20  H   UNL     1      -4.942   2.320   4.096  1.00  0.00     0.346 HD
ATOM     21  H   UNL     1      -4.646   3.738   3.234  1.00  0.00     0.346 HD
BRANCH  19  22
ATOM     22  C   UNL     1      -5.787   3.998   4.890  1.00  0.00     0.337 C 
BRANCH  22  23
ATOM     23  C   UNL     1      -7.082   3.864   4.102  1.00  0.00     0.164 A 
ATOM     24  N   UNL     1      -7.640   4.905   3.567  1.00  0.00    -0.234 NA
ATOM     25  N   UNL     1      -7.597   2.600   4.003  1.00  0.00    -0.306 N 
ATOM     26  C   UNL     1      -8.801   4.704   2.861  1.00  0.00     0.045 A 
ATOM     27  C   UNL     1      -8.723   2.335   3.287  1.00  0.00     0.251 A 
ATOM     28  H   UNL     1      -7.139   1.860   4.464  1.00  0.00     0.171 HD
ATOM     29  C   UNL     1      -9.422   5.931   2.260  1.00  0.00     0.067 C 
ATOM     30  C   UNL     1      -9.373   3.505   2.687  1.00  0.00     0.095 A 
ATOM     31  O   UNL     1      -9.165   1.205   3.133  1.00  0.00    -0.270 OA
ENDBRANCH  22  23
ENDBRANCH  19  22
ENDBRANCH  15  19
ENDBRANCH   4   7
ENDBRANCH   2   3
ENDBRANCH   1   2
BRANCH   1  32
ATOM     32  C   UNL     1      -5.039   0.012   8.625  1.00  0.00     0.118 C 
BRANCH  32  33
ATOM     33  N   UNL     1      -4.554   0.635   9.858  1.00  0.00    -0.352 N 
ATOM     34  C   UNL     1      -5.019   0.420  11.145  1.00  0.00     0.251 C 
ATOM     35  H   UNL     1      -3.816   1.278   9.762  1.00  0.00     0.163 HD
ATOM     36  O   UNL     1      -4.846   1.243  12.021  1.00  0.00    -0.269 OA
BRANCH  34  37
ATOM     37  C   UNL     1      -5.756  -0.832  11.392  1.00  0.00     0.039 A 
ATOM     38  C   UNL     1      -6.954  -0.830  12.101  1.00  0.00     0.014 A 
ATOM     39  C   UNL     1      -5.293  -1.979  10.756  1.00  0.00     0.014 A 
ATOM     40  C   UNL     1      -7.740  -1.976  12.062  1.00  0.00     0.010 A 
ATOM     41  C   UNL     1      -6.167  -3.010  10.537  1.00  0.00     0.010 A 
ATOM     42  C   UNL     1      -7.367  -3.049  11.231  1.00  0.00    -0.014 A 
BRANCH  42  43
ATOM     43  C   UNL     1      -8.293  -4.150  10.985  1.00  0.00     0.031 A 
ATOM     44  C   UNL     1      -9.691  -3.722  10.721  1.00  0.00     0.074 A 
ATOM     45  C   UNL     1      -7.921  -5.444  10.859  1.00  0.00     0.049 A 
ATOM     46  N   UNL     1     -10.680  -3.794  11.549  1.00  0.00    -0.248 NA
ATOM     47  C   UNL     1      -9.995  -2.964   9.497  1.00  0.00     0.031 C 
ATOM     48  C   UNL     1      -6.564  -6.002  10.810  1.00  0.00     0.029 A 
ATOM     49  N   UNL     1      -8.696  -6.535  10.608  1.00  0.00    -0.354 N 
ATOM     50  C   UNL     1     -11.792  -3.366  10.834  1.00  0.00     0.074 A 
ATOM     51  C   UNL     1     -11.279  -2.650   9.696  1.00  0.00     0.031 C 
ATOM     52  C   UNL     1      -6.604  -7.240  10.275  1.00  0.00     0.029 A 
ATOM     53  C   UNL     1      -7.990  -7.633  10.122  1.00  0.00     0.049 A 
ATOM     54  H   UNL     1      -9.669  -6.548  10.757  1.00  0.00     0.167 HD
ATOM     55  C   UNL     1     -13.017  -3.910  11.078  1.00  0.00     0.034 A 
ATOM     56  C   UNL     1      -8.507  -8.769   9.595  1.00  0.00     0.034 A 
ATOM     57  C   UNL     1     -13.032  -4.632  12.331  1.00  0.00     0.049 A 
ATOM     58  C   UNL     1      -9.889  -8.893  10.112  1.00  0.00     0.074 A 
ATOM     59  C   UNL     1     -12.665  -4.336  13.631  1.00  0.00     0.029 A 
ATOM     60  N   UNL     1     -13.081  -6.005  12.264  1.00  0.00    -0.354 N 
ATOM     61  N   UNL     1     -10.164  -9.123  11.366  1.00  0.00    -0.248 NA
ATOM     62  C   UNL     1     -10.968  -8.318   9.327  1.00  0.00     0.031 C 
ATOM     63  C   UNL     1     -12.021  -5.518  14.104  1.00  0.00     0.029 A 
ATOM     64  C   UNL     1     -12.121  -6.491  13.109  1.00  0.00     0.049 A 
ATOM     65  H   UNL     1     -13.694  -6.540  11.709  1.00  0.00     0.167 HD
ATOM     66  C   UNL     1     -11.233  -8.279  11.635  1.00  0.00     0.074 A 
ATOM     67  C   UNL     1     -11.758  -7.905  10.322  1.00  0.00     0.031 C 
ATOM     68  C   UNL     1     -11.400  -7.722  12.871  1.00  0.00     0.034 A 
BRANCH  55  69
ATOM     69  C   UNL     1     -14.069  -4.164  10.019  1.00  0.00     0.023 A 
ATOM     70  C   UNL     1     -15.331  -4.622  10.463  1.00  0.00     0.012 A 
ATOM     71  C   UNL     1     -13.806  -4.267   8.634  1.00  0.00     0.148 A 
ATOM     72  C   UNL     1     -16.244  -5.222   9.590  1.00  0.00     0.002 A 
ATOM     73  C   UNL     1     -14.752  -4.781   7.757  1.00  0.00     0.091 A 
ATOM     74  F   UNL     1     -12.587  -4.006   8.158  1.00  0.00    -0.205 F 
ATOM     75  C   UNL     1     -15.957  -5.296   8.233  1.00  0.00     0.022 A 
BRANCH  73  76
ATOM     76  S   UNL     1     -14.451  -4.845   5.986  1.00  0.00     0.127 S 
ATOM     77  O   UNL     1     -14.237  -6.274   5.780  1.00  0.00    -0.237 OA
ATOM     78  O   UNL     1     -15.709  -4.320   5.454  1.00  0.00    -0.237 OA
ATOM     79  O   UNL     1     -13.300  -3.982   5.755  1.00  0.00    -0.744 OA
ENDBRANCH  73  76
ENDBRANCH  55  69
BRANCH  56  80
ATOM     80  C   UNL     1      -7.979  -9.650   8.528  1.00  0.00     0.023 A 
ATOM     81  C   UNL     1      -8.538 -10.931   8.347  1.00  0.00     0.012 A 
ATOM     82  C   UNL     1      -7.139  -9.144   7.512  1.00  0.00     0.148 A 
ATOM     83  C   UNL     1      -8.310 -11.661   7.174  1.00  0.00     0.002 A 
ATOM     84  C   UNL     1      -6.906  -9.877   6.352  1.00  0.00     0.091 A 
ATOM     85  F   UNL     1      -6.647  -7.904   7.634  1.00  0.00    -0.205 F 
ATOM     86  C   UNL     1      -7.502 -11.130   6.172  1.00  0.00     0.022 A 
BRANCH  84  87
ATOM     87  S   UNL     1      -5.889  -9.239   5.014  1.00  0.00     0.127 S 
ATOM     88  O   UNL     1      -5.066 -10.402   4.676  1.00  0.00    -0.237 OA
ATOM     89  O   UNL     1      -6.893  -8.888   4.014  1.00  0.00    -0.237 OA
ATOM     90  O   UNL     1      -5.143  -8.126   5.586  1.00  0.00    -0.744 OA
ENDBRANCH  84  87
ENDBRANCH  56  80
BRANCH  68  91
ATOM     91  C   UNL     1     -10.590  -8.257  14.027  1.00  0.00     0.023 A 
ATOM     92  C   UNL     1      -9.179  -8.267  14.036  1.00  0.00     0.012 A 
ATOM     93  C   UNL     1     -11.274  -8.615  15.202  1.00  0.00     0.148 A 
ATOM     94  C   UNL     1      -8.472  -8.655  15.178  1.00  0.00     0.002 A 
ATOM     95  C   UNL     1     -10.568  -8.951  16.350  1.00  0.00     0.091 A 
ATOM     96  F   UNL     1     -12.616  -8.602  15.184  1.00  0.00    -0.205 F 
ATOM     97  C   UNL     1      -9.166  -8.984  16.340  1.00  0.00     0.022 A 
BRANCH  95  98
ATOM     98  S   UNL     1     -11.412  -9.262  17.903  1.00  0.00     0.127 S 
ATOM     99  O   UNL     1     -11.398 -10.721  17.972  1.00  0.00    -0.237 OA
ATOM    100  O   UNL     1     -10.544  -8.595  18.875  1.00  0.00    -0.237 OA
ATOM    101  O   UNL     1     -12.729  -8.649  17.769  1.00  0.00    -0.744 OA
ENDBRANCH  95  98
ENDBRANCH  68  91
ENDBRANCH  42  43
ENDBRANCH  34  37
ENDBRANCH  32  33
ENDBRANCH   1  32
TORSDOF 18
