REMARK SMILES CN(C)C(=O)Nc1cccc(/C=C/C(=O)NCCCNC(=O)c2ccc(-c3c4nc(c(-c5cccc(S(=O)(=O)[O-])c5F)c5ccc([nH]5)c(-c5cccc(S(=O)(=O)[O-])c5F)c5nc(c(-c6cccc(S(=O)(=O)[O-])c6F)c6ccc3[nH]6)C=C5)C=C4)cc2)n1
REMARK SMILES IDX 18 1 17 2 16 3 14 4 15 5 13 7 12 8 11 9 7 10 8 11 86 12 9 13
REMARK SMILES IDX 10 14 6 15 1 16 2 17 3 18 4 19 5 20 19 22 20 23 21 24 22 26
REMARK SMILES IDX 23 27 24 28 85 29 25 30 84 31 26 32 27 33 28 34 78 35 29 36
REMARK SMILES IDX 83 37 77 38 79 39 30 40 82 41 76 42 75 43 31 45 63 46 43 47
REMARK SMILES IDX 62 48 44 49 47 50 61 51 80 52 45 53 46 54 60 56 81 57 48 58
REMARK SMILES IDX 32 59 33 60 41 61 34 62 36 63 42 64 35 65 37 66 38 67 39 68
REMARK SMILES IDX 40 69 64 70 65 71 73 72 66 73 68 74 74 75 67 76 69 77 70 78
REMARK SMILES IDX 71 79 72 80 49 81 50 82 58 83 51 84 53 85 59 86 52 87 54 88
REMARK SMILES IDX 55 89 56 90 57 91
REMARK H PARENT 16 6 6 21 20 25 79 44 47 55
REMARK Flexibility Score: inf
ROOT
ATOM      1  C   UNL     1      -2.836  -9.934   2.178  1.00  0.00     0.042 C 
ENDROOT
BRANCH   1   2
ATOM      2  C   UNL     1      -1.407  -9.524   2.529  1.00  0.00     0.118 C 
BRANCH   2   3
ATOM      3  N   UNL     1      -0.451  -9.989   1.539  1.00  0.00    -0.352 N 
ATOM      4  C   UNL     1       0.228  -9.320   0.568  1.00  0.00     0.244 C 
ATOM      5  O   UNL     1       1.113  -9.905  -0.054  1.00  0.00    -0.270 OA
ATOM      6  H   UNL     1      -0.262 -10.954   1.577  1.00  0.00     0.163 HD
BRANCH   4   7
ATOM      7  C   UNL     1      -0.009  -7.883   0.305  1.00  0.00     0.073 C 
ATOM      8  C   UNL     1      -1.211  -7.288   0.301  1.00  0.00     0.034 C 
BRANCH   8   9
ATOM      9  C   UNL     1      -1.424  -5.862   0.043  1.00  0.00     0.066 A 
ATOM     10  C   UNL     1      -0.611  -3.865  -0.781  1.00  0.00     0.134 A 
ATOM     11  C   UNL     1      -1.781  -3.198  -0.440  1.00  0.00     0.047 A 
ATOM     12  N   UNL     1      -0.438  -5.187  -0.588  1.00  0.00    -0.231 NA
ATOM     13  C   UNL     1      -2.786  -3.904   0.210  1.00  0.00     0.006 A 
ATOM     14  C   UNL     1      -2.601  -5.256   0.469  1.00  0.00     0.028 A 
BRANCH  10  15
ATOM     15  N   UNL     1       0.478  -3.219  -1.355  1.00  0.00    -0.292 N 
ATOM     16  C   UNL     1       0.948   0.279  -0.335  1.00  0.00     0.148 C 
ATOM     17  N   UNL     1       0.612  -1.130  -0.241  1.00  0.00    -0.331 N 
ATOM     18  C   UNL     1       0.363  -1.623   1.109  1.00  0.00     0.148 C 
ATOM     19  C   UNL     1       0.860  -1.919  -1.348  1.00  0.00     0.322 C 
ATOM     20  O   UNL     1       1.512  -1.495  -2.305  1.00  0.00    -0.248 OA
ATOM     21  H   UNL     1       1.081  -3.813  -1.858  1.00  0.00     0.173 HD
ENDBRANCH  10  15
ENDBRANCH   8   9
ENDBRANCH   4   7
ENDBRANCH   2   3
ENDBRANCH   1   2
BRANCH   1  22
ATOM     22  C   UNL     1      -3.129 -11.409   2.434  1.00  0.00     0.118 C 
BRANCH  22  23
ATOM     23  N   UNL     1      -3.117 -11.729   3.855  1.00  0.00    -0.352 N 
ATOM     24  C   UNL     1      -4.110 -12.240   4.653  1.00  0.00     0.251 C 
ATOM     25  H   UNL     1      -2.264 -11.552   4.314  1.00  0.00     0.163 HD
ATOM     26  O   UNL     1      -3.969 -12.219   5.873  1.00  0.00    -0.269 OA
BRANCH  24  27
ATOM     27  C   UNL     1      -5.341 -12.808   4.059  1.00  0.00     0.039 A 
ATOM     28  C   UNL     1      -6.567 -12.568   4.686  1.00  0.00     0.014 A 
ATOM     29  C   UNL     1      -5.287 -13.611   2.917  1.00  0.00     0.014 A 
ATOM     30  C   UNL     1      -7.743 -13.090   4.140  1.00  0.00     0.010 A 
ATOM     31  C   UNL     1      -6.465 -14.067   2.332  1.00  0.00     0.010 A 
ATOM     32  C   UNL     1      -7.704 -13.822   2.942  1.00  0.00    -0.014 A 
BRANCH  32  33
ATOM     33  C   UNL     1      -8.942 -14.343   2.308  1.00  0.00     0.031 A 
ATOM     34  C   UNL     1      -9.136 -15.826   2.137  1.00  0.00     0.074 A 
ATOM     35  C   UNL     1      -9.842 -13.480   1.798  1.00  0.00     0.049 A 
ATOM     36  N   UNL     1     -10.099 -16.468   1.528  1.00  0.00    -0.248 NA
ATOM     37  C   UNL     1      -8.096 -16.703   2.701  1.00  0.00     0.031 C 
ATOM     38  C   UNL     1      -9.732 -12.020   1.839  1.00  0.00     0.029 A 
ATOM     39  N   UNL     1     -11.012 -13.704   1.117  1.00  0.00    -0.354 N 
ATOM     40  C   UNL     1      -9.763 -17.814   1.597  1.00  0.00     0.074 A 
ATOM     41  C   UNL     1      -8.490 -17.896   2.280  1.00  0.00     0.031 C 
ATOM     42  C   UNL     1     -10.788 -11.480   1.212  1.00  0.00     0.029 A 
ATOM     43  C   UNL     1     -11.633 -12.551   0.694  1.00  0.00     0.049 A 
ATOM     44  H   UNL     1     -11.373 -14.604   0.947  1.00  0.00     0.167 HD
ATOM     45  C   UNL     1     -10.462 -18.889   1.158  1.00  0.00     0.034 A 
ATOM     46  C   UNL     1     -12.751 -12.377  -0.040  1.00  0.00     0.034 A 
ATOM     47  C   UNL     1     -11.747 -18.803   0.519  1.00  0.00     0.049 A 
ATOM     48  C   UNL     1     -13.525 -13.587  -0.487  1.00  0.00     0.074 A 
ATOM     49  C   UNL     1     -12.577 -19.833   0.114  1.00  0.00     0.029 A 
ATOM     50  N   UNL     1     -12.387 -17.619   0.187  1.00  0.00    -0.354 N 
ATOM     51  N   UNL     1     -13.267 -14.855  -0.279  1.00  0.00    -0.248 NA
ATOM     52  C   UNL     1     -14.765 -13.343  -1.238  1.00  0.00     0.031 C 
ATOM     53  C   UNL     1     -13.709 -19.271  -0.485  1.00  0.00     0.029 A 
ATOM     54  C   UNL     1     -13.598 -17.891  -0.425  1.00  0.00     0.049 A 
ATOM     55  H   UNL     1     -12.033 -16.717   0.361  1.00  0.00     0.167 HD
ATOM     56  C   UNL     1     -14.329 -15.558  -0.836  1.00  0.00     0.074 A 
ATOM     57  C   UNL     1     -15.243 -14.572  -1.376  1.00  0.00     0.031 C 
ATOM     58  C   UNL     1     -14.525 -16.898  -0.904  1.00  0.00     0.034 A 
BRANCH  45  59
ATOM     59  C   UNL     1      -9.873 -20.255   1.401  1.00  0.00     0.023 A 
ATOM     60  C   UNL     1      -9.821 -20.767   2.714  1.00  0.00     0.012 A 
ATOM     61  C   UNL     1      -9.421 -21.053   0.332  1.00  0.00     0.148 A 
ATOM     62  C   UNL     1      -9.292 -22.032   2.965  1.00  0.00     0.002 A 
ATOM     63  C   UNL     1      -8.938 -22.332   0.584  1.00  0.00     0.091 A 
ATOM     64  F   UNL     1      -9.459 -20.544  -0.908  1.00  0.00    -0.205 F 
ATOM     65  C   UNL     1      -8.860 -22.818   1.900  1.00  0.00     0.022 A 
BRANCH  63  66
ATOM     66  S   UNL     1      -8.433 -23.454  -0.725  1.00  0.00     0.127 S 
ATOM     67  O   UNL     1      -6.981 -23.475  -0.553  1.00  0.00    -0.237 OA
ATOM     68  O   UNL     1      -9.110 -24.695  -0.346  1.00  0.00    -0.237 OA
ATOM     69  O   UNL     1      -8.908 -22.860  -1.967  1.00  0.00    -0.744 OA
ENDBRANCH  63  66
ENDBRANCH  45  59
BRANCH  46  70
ATOM     70  C   UNL     1     -13.239 -11.000  -0.337  1.00  0.00     0.023 A 
ATOM     71  C   UNL     1     -14.416 -10.538   0.285  1.00  0.00     0.012 A 
ATOM     72  C   UNL     1     -12.536 -10.139  -1.201  1.00  0.00     0.148 A 
ATOM     73  C   UNL     1     -14.902  -9.257   0.025  1.00  0.00     0.002 A 
ATOM     74  C   UNL     1     -12.995  -8.844  -1.411  1.00  0.00     0.091 A 
ATOM     75  F   UNL     1     -11.424 -10.600  -1.790  1.00  0.00    -0.205 F 
ATOM     76  C   UNL     1     -14.188  -8.406  -0.814  1.00  0.00     0.022 A 
BRANCH  74  77
ATOM     77  S   UNL     1     -12.069  -7.636  -2.366  1.00  0.00     0.127 S 
ATOM     78  O   UNL     1     -12.899  -7.497  -3.559  1.00  0.00    -0.237 OA
ATOM     79  O   UNL     1     -12.073  -6.477  -1.472  1.00  0.00    -0.237 OA
ATOM     80  O   UNL     1     -10.753  -8.225  -2.574  1.00  0.00    -0.744 OA
ENDBRANCH  74  77
ENDBRANCH  46  70
BRANCH  58  81
ATOM     81  C   UNL     1     -15.798 -17.388  -1.543  1.00  0.00     0.023 A 
ATOM     82  C   UNL     1     -15.960 -17.309  -2.940  1.00  0.00     0.012 A 
ATOM     83  C   UNL     1     -16.796 -18.006  -0.764  1.00  0.00     0.148 A 
ATOM     84  C   UNL     1     -17.110 -17.811  -3.548  1.00  0.00     0.002 A 
ATOM     85  C   UNL     1     -17.915 -18.550  -1.382  1.00  0.00     0.091 A 
ATOM     86  F   UNL     1     -16.630 -18.054   0.566  1.00  0.00    -0.205 F 
ATOM     87  C   UNL     1     -18.079 -18.442  -2.772  1.00  0.00     0.022 A 
BRANCH  85  88
ATOM     88  S   UNL     1     -19.166 -19.467  -0.476  1.00  0.00     0.127 S 
ATOM     89  O   UNL     1     -20.297 -18.541  -0.510  1.00  0.00    -0.237 OA
ATOM     90  O   UNL     1     -19.331 -20.663  -1.302  1.00  0.00    -0.237 OA
ATOM     91  O   UNL     1     -18.604 -19.717   0.845  1.00  0.00    -0.744 OA
ENDBRANCH  85  88
ENDBRANCH  58  81
ENDBRANCH  32  33
ENDBRANCH  24  27
ENDBRANCH  22  23
ENDBRANCH   1  22
TORSDOF 15
