REMARK SMILES CC(C)C(=O)Nc1ccc2[nH]cc([C@@H](C(=O)NCCCNC(=O)c3ccc(-c4c5nc(c(-c6cccc(S(=O)(=O)[O-])c6F)c6ccc([nH]6)c(-c6cccc(S(=O)(=O)[O-])c6F)c6nc(c(-c7cccc(S(=O)(=O)[O-])c7F)c7ccc4[nH]7)C=C6)C=C5)cc3)[NH+]3CC[NH+](CCC#N)CC3)c2c1
REMARK SMILES IDX 18 1 17 2 15 3 16 4 14 6 13 7 7 8 8 9 98 10 9 11 97 12 10 13
REMARK SMILES IDX 11 14 12 15 6 17 4 18 5 19 2 21 1 22 3 23 87 24 88 25 96 26
REMARK SMILES IDX 89 28 95 29 90 30 91 32 92 33 93 34 94 35 19 36 20 37 21 38
REMARK SMILES IDX 22 39 23 41 24 42 25 43 86 44 26 45 85 46 27 47 28 48 29 49
REMARK SMILES IDX 79 50 30 51 84 52 78 53 80 54 31 55 83 56 77 57 76 58 32 60
REMARK SMILES IDX 64 61 44 62 63 63 45 64 48 65 62 66 81 67 46 68 47 69 61 71
REMARK SMILES IDX 82 72 49 73 33 74 34 75 42 76 35 77 37 78 43 79 36 80 38 81
REMARK SMILES IDX 39 82 40 83 41 84 65 85 66 86 74 87 67 88 69 89 75 90 68 91
REMARK SMILES IDX 70 92 71 93 72 94 73 95 50 96 51 97 59 98 52 99 54 100
REMARK SMILES IDX 60 101 53 102 55 103 56 104 57 105 58 106
REMARK H PARENT 17 5 11 16 6 20 87 27 90 31 21 40 80 59 48 70
REMARK Flexibility Score: inf
ROOT
ATOM      1  C   UNL     1      -0.119   3.221  -6.040  1.00  0.00     0.118 C 
ENDROOT
BRANCH   1   2
ATOM      2  N   UNL     1      -0.646   2.601  -7.238  1.00  0.00    -0.351 N 
ATOM      3  C   UNL     1      -0.956   1.280  -7.423  1.00  0.00     0.283 C 
ATOM      4  O   UNL     1      -1.090   0.905  -8.591  1.00  0.00    -0.268 OA
ATOM      5  H   UNL     1      -0.798   3.196  -8.007  1.00  0.00     0.163 HD
BRANCH   3   6
ATOM      6  C   UNL     1      -1.221   0.415  -6.171  1.00  0.00     0.308 C 
BRANCH   6   7
ATOM      7  C   UNL     1      -0.016  -0.045  -5.398  1.00  0.00     0.044 A 
ATOM      8  C   UNL     1      -0.661  -0.124  -1.666  1.00  0.00     0.041 A 
ATOM      9  C   UNL     1       0.235  -1.154  -1.396  1.00  0.00     0.028 A 
ATOM     10  C   UNL     1      -0.849   0.340  -2.964  1.00  0.00     0.037 A 
ATOM     11  C   UNL     1       1.120  -1.612  -2.375  1.00  0.00     0.029 A 
ATOM     12  C   UNL     1       0.011  -0.132  -3.972  1.00  0.00     0.011 A 
ATOM     13  C   UNL     1       1.020  -1.033  -3.642  1.00  0.00     0.046 A 
ATOM     14  N   UNL     1       1.770  -1.231  -4.776  1.00  0.00    -0.361 N 
ATOM     15  C   UNL     1       1.170  -0.607  -5.844  1.00  0.00     0.094 A 
ATOM     16  H   UNL     1       2.610  -1.742  -4.818  1.00  0.00     0.166 HD
BRANCH   8  17
ATOM     17  N   UNL     1      -1.380   0.493  -0.647  1.00  0.00    -0.326 N 
ATOM     18  C   UNL     1      -0.870   1.366   0.275  1.00  0.00     0.226 C 
ATOM     19  O   UNL     1      -1.679   1.944   1.011  1.00  0.00    -0.274 OA
ATOM     20  H   UNL     1      -2.340   0.284  -0.585  1.00  0.00     0.169 HD
BRANCH  18  21
ATOM     21  C   UNL     1       0.626   1.712   0.352  1.00  0.00     0.072 C 
ATOM     22  C   UNL     1       1.517   0.575   0.835  1.00  0.00     0.018 C 
ATOM     23  C   UNL     1       1.164   2.376  -0.917  1.00  0.00     0.018 C 
ENDBRANCH  18  21
ENDBRANCH   8  17
ENDBRANCH   6   7
BRANCH   6  24
ATOM     24  N   UNL     1      -2.069  -0.739  -6.517  1.00  0.00    -0.312 N 
ATOM     25  C   UNL     1      -1.368  -1.787  -7.264  1.00  0.00     0.325 C 
ATOM     26  C   UNL     1      -2.885  -1.253  -5.425  1.00  0.00     0.325 C 
ATOM     27  H   UNL     1      -2.748  -0.349  -7.170  1.00  0.00     0.349 HD
ATOM     28  C   UNL     1      -0.865  -3.034  -6.479  1.00  0.00     0.324 C 
ATOM     29  C   UNL     1      -2.284  -2.382  -4.560  1.00  0.00     0.324 C 
ATOM     30  N   UNL     1      -1.565  -3.452  -5.252  1.00  0.00    -0.325 N 
ATOM     31  H   UNL     1      -0.800  -3.707  -4.627  1.00  0.00     0.348 HD
BRANCH  30  32
ATOM     32  C   UNL     1      -2.371  -4.647  -5.409  1.00  0.00     0.278 C 
BRANCH  32  33
ATOM     33  C   UNL     1      -3.659  -4.378  -6.144  1.00  0.00     0.181 C 
BRANCH  33  34
ATOM     34  C   UNL     1      -3.400  -4.121  -7.619  1.00  0.00     0.068 C 
ATOM     35  N   UNL     1      -3.184  -3.907  -8.843  1.00  0.00    -0.198 NA
ENDBRANCH  33  34
ENDBRANCH  32  33
ENDBRANCH  30  32
ENDBRANCH   6  24
ENDBRANCH   3   6
ENDBRANCH   1   2
BRANCH   1  36
ATOM     36  C   UNL     1       1.365   2.925  -5.850  1.00  0.00     0.042 C 
BRANCH  36  37
ATOM     37  C   UNL     1       2.155   3.042  -7.145  1.00  0.00     0.118 C 
BRANCH  37  38
ATOM     38  N   UNL     1       2.217   4.437  -7.546  1.00  0.00    -0.352 N 
ATOM     39  C   UNL     1       3.162   5.345  -7.135  1.00  0.00     0.251 C 
ATOM     40  H   UNL     1       1.523   4.759  -8.165  1.00  0.00     0.163 HD
ATOM     41  O   UNL     1       2.896   6.537  -7.069  1.00  0.00    -0.269 OA
BRANCH  39  42
ATOM     42  C   UNL     1       4.503   4.836  -6.782  1.00  0.00     0.039 A 
ATOM     43  C   UNL     1       5.171   5.337  -5.665  1.00  0.00     0.014 A 
ATOM     44  C   UNL     1       5.096   3.859  -7.589  1.00  0.00     0.014 A 
ATOM     45  C   UNL     1       6.444   4.852  -5.358  1.00  0.00     0.010 A 
ATOM     46  C   UNL     1       6.315   3.309  -7.226  1.00  0.00     0.010 A 
ATOM     47  C   UNL     1       7.023   3.837  -6.138  1.00  0.00    -0.014 A 
BRANCH  47  48
ATOM     48  C   UNL     1       8.406   3.362  -5.901  1.00  0.00     0.031 A 
ATOM     49  C   UNL     1       9.444   3.562  -6.976  1.00  0.00     0.074 A 
ATOM     50  C   UNL     1       8.699   2.678  -4.780  1.00  0.00     0.049 A 
ATOM     51  N   UNL     1      10.682   3.146  -7.014  1.00  0.00    -0.248 NA
ATOM     52  C   UNL     1       9.023   4.287  -8.190  1.00  0.00     0.031 C 
ATOM     53  C   UNL     1       7.750   2.344  -3.716  1.00  0.00     0.029 A 
ATOM     54  N   UNL     1       9.877   2.112  -4.364  1.00  0.00    -0.354 N 
ATOM     55  C   UNL     1      11.164   3.508  -8.267  1.00  0.00     0.074 A 
ATOM     56  C   UNL     1      10.079   4.145  -8.976  1.00  0.00     0.031 C 
ATOM     57  C   UNL     1       8.384   1.632  -2.769  1.00  0.00     0.029 A 
ATOM     58  C   UNL     1       9.775   1.442  -3.167  1.00  0.00     0.049 A 
ATOM     59  H   UNL     1      10.716   2.179  -4.875  1.00  0.00     0.167 HD
ATOM     60  C   UNL     1      12.412   3.358  -8.768  1.00  0.00     0.034 A 
ATOM     61  C   UNL     1      10.704   0.755  -2.474  1.00  0.00     0.034 A 
ATOM     62  C   UNL     1      13.507   2.810  -8.020  1.00  0.00     0.049 A 
ATOM     63  C   UNL     1      12.110   0.697  -3.011  1.00  0.00     0.074 A 
ATOM     64  C   UNL     1      14.839   2.726  -8.381  1.00  0.00     0.029 A 
ATOM     65  N   UNL     1      13.397   2.262  -6.752  1.00  0.00    -0.354 N 
ATOM     66  N   UNL     1      12.590   1.202  -4.122  1.00  0.00    -0.248 NA
ATOM     67  C   UNL     1      13.112   0.013  -2.181  1.00  0.00     0.031 C 
ATOM     68  C   UNL     1      15.534   2.118  -7.332  1.00  0.00     0.029 A 
ATOM     69  C   UNL     1      14.636   1.836  -6.314  1.00  0.00     0.049 A 
ATOM     70  H   UNL     1      12.559   2.188  -6.239  1.00  0.00     0.167 HD
ATOM     71  C   UNL     1      13.953   0.931  -4.107  1.00  0.00     0.074 A 
ATOM     72  C   UNL     1      14.226   0.237  -2.866  1.00  0.00     0.031 C 
ATOM     73  C   UNL     1      14.893   1.210  -5.043  1.00  0.00     0.034 A 
BRANCH  60  74
ATOM     74  C   UNL     1      12.682   3.864 -10.160  1.00  0.00     0.023 A 
ATOM     75  C   UNL     1      12.748   5.253 -10.394  1.00  0.00     0.012 A 
ATOM     76  C   UNL     1      12.947   2.971 -11.217  1.00  0.00     0.148 A 
ATOM     77  C   UNL     1      13.046   5.746 -11.663  1.00  0.00     0.002 A 
ATOM     78  C   UNL     1      13.288   3.470 -12.469  1.00  0.00     0.091 A 
ATOM     79  F   UNL     1      12.860   1.655 -10.978  1.00  0.00    -0.205 F 
ATOM     80  C   UNL     1      13.328   4.856 -12.696  1.00  0.00     0.022 A 
BRANCH  78  81
ATOM     81  S   UNL     1      13.745   2.413 -13.847  1.00  0.00     0.127 S 
ATOM     82  O   UNL     1      12.627   2.622 -14.764  1.00  0.00    -0.237 OA
ATOM     83  O   UNL     1      15.010   3.006 -14.281  1.00  0.00    -0.237 OA
ATOM     84  O   UNL     1      13.859   1.066 -13.302  1.00  0.00    -0.744 OA
ENDBRANCH  78  81
ENDBRANCH  60  74
BRANCH  61  85
ATOM     85  C   UNL     1      10.356   0.144  -1.161  1.00  0.00     0.023 A 
ATOM     86  C   UNL     1      10.887   0.699   0.020  1.00  0.00     0.012 A 
ATOM     87  C   UNL     1       9.489  -0.961  -1.068  1.00  0.00     0.148 A 
ATOM     88  C   UNL     1      10.592   0.141   1.265  1.00  0.00     0.002 A 
ATOM     89  C   UNL     1       9.155  -1.478   0.180  1.00  0.00     0.091 A 
ATOM     90  F   UNL     1       9.002  -1.488  -2.201  1.00  0.00    -0.205 F 
ATOM     91  C   UNL     1       9.719  -0.940   1.346  1.00  0.00     0.022 A 
BRANCH  89  92
ATOM     92  S   UNL     1       7.927  -2.776   0.368  1.00  0.00     0.127 S 
ATOM     93  O   UNL     1       8.764  -3.962   0.530  1.00  0.00    -0.237 OA
ATOM     94  O   UNL     1       7.213  -2.357   1.575  1.00  0.00    -0.237 OA
ATOM     95  O   UNL     1       7.121  -2.720  -0.845  1.00  0.00    -0.744 OA
ENDBRANCH  89  92
ENDBRANCH  61  85
BRANCH  73  96
ATOM     96  C   UNL     1      16.310   0.802  -4.753  1.00  0.00     0.023 A 
ATOM     97  C   UNL     1      16.674  -0.556  -4.840  1.00  0.00     0.012 A 
ATOM     98  C   UNL     1      17.297   1.771  -4.487  1.00  0.00     0.148 A 
ATOM     99  C   UNL     1      17.996  -0.947  -4.638  1.00  0.00     0.002 A 
ATOM    100  C   UNL     1      18.620   1.379  -4.333  1.00  0.00     0.091 A 
ATOM    101  F   UNL     1      16.924   3.055  -4.391  1.00  0.00    -0.205 F 
ATOM    102  C   UNL     1      18.970   0.020  -4.397  1.00  0.00     0.022 A 
BRANCH 100 103
ATOM    103  S   UNL     1      19.951   2.566  -4.119  1.00  0.00     0.127 S 
ATOM    104  O   UNL     1      20.239   2.436  -2.692  1.00  0.00    -0.237 OA
ATOM    105  O   UNL     1      20.990   2.035  -5.002  1.00  0.00    -0.237 OA
ATOM    106  O   UNL     1      19.407   3.852  -4.535  1.00  0.00    -0.744 OA
ENDBRANCH 100 103
ENDBRANCH  73  96
ENDBRANCH  47  48
ENDBRANCH  39  42
ENDBRANCH  37  38
ENDBRANCH  36  37
ENDBRANCH   1  36
TORSDOF 20
