REMARK SMILES O=C(NCCCNC(=O)c1ccccc1NC(=O)c1ccc(N2C(=O)[C@H]3CC=CC[C@H]3C2=O)cc1)c1ccc(-c2c3nc(c(-c4cccc(S(=O)(=O)[O-])c4F)c4ccc([nH]4)c(-c4cccc(S(=O)(=O)[O-])c4F)c4nc(c(-c5cccc(S(=O)(=O)[O-])c5F)c5ccc2[nH]5)C=C4)C=C3)cc1
REMARK SMILES IDX 5 1 4 2 3 3 1 4 2 5 36 7 37 8 98 9 38 10 97 11 39 12 40 13
REMARK SMILES IDX 41 14 91 15 42 16 96 17 90 18 92 19 43 20 95 21 89 22 88 23
REMARK SMILES IDX 44 25 76 26 56 27 75 28 57 29 60 30 74 31 93 32 58 33 59 34
REMARK SMILES IDX 73 36 94 37 61 38 45 39 46 40 54 41 47 42 49 43 55 44 48 45
REMARK SMILES IDX 50 46 51 47 52 48 53 49 77 50 78 51 86 52 79 53 81 54 87 55
REMARK SMILES IDX 80 56 82 57 83 58 84 59 85 60 62 61 63 62 71 63 64 64 66 65
REMARK SMILES IDX 72 66 65 67 67 68 68 69 69 70 70 71 6 72 7 73 8 74 9 76
REMARK SMILES IDX 10 77 11 78 15 79 12 80 14 81 13 82 16 83 17 84 18 86 19 87
REMARK SMILES IDX 20 88 35 89 21 90 34 91 22 92 23 93 24 94 32 95 25 96 26 97
REMARK SMILES IDX 31 98 33 99 27 100 30 101 28 102 29 103
REMARK H PARENT 3 6 92 24 60 35 7 75 16 85
REMARK Flexibility Score: inf
ROOT
ATOM      1  C   UNL     1       5.022  -1.454   1.745  1.00  0.00     0.042 C 
ENDROOT
BRANCH   1   2
ATOM      2  C   UNL     1       4.570  -1.240   0.307  1.00  0.00     0.118 C 
BRANCH   2   3
ATOM      3  N   UNL     1       3.125  -1.135   0.167  1.00  0.00    -0.352 N 
ATOM      4  O   UNL     1       1.117  -0.153  -0.086  1.00  0.00    -0.269 OA
ATOM      5  C   UNL     1       2.339  -0.059  -0.171  1.00  0.00     0.251 C 
ATOM      6  H   UNL     1       2.631  -1.968   0.341  1.00  0.00     0.163 HD
BRANCH   5   7
ATOM      7  C   UNL     1       2.958   1.215  -0.597  1.00  0.00     0.039 A 
ATOM      8  C   UNL     1       4.041   1.228  -1.476  1.00  0.00     0.014 A 
ATOM      9  C   UNL     1       2.442   2.418  -0.108  1.00  0.00     0.014 A 
ATOM     10  C   UNL     1       4.723   2.414  -1.717  1.00  0.00     0.010 A 
ATOM     11  C   UNL     1       3.064   3.625  -0.440  1.00  0.00     0.010 A 
ATOM     12  C   UNL     1       4.237   3.630  -1.211  1.00  0.00    -0.014 A 
BRANCH  12  13
ATOM     13  C   UNL     1       4.935   4.896  -1.548  1.00  0.00     0.031 A 
ATOM     14  C   UNL     1       5.537   5.763  -0.476  1.00  0.00     0.074 A 
ATOM     15  C   UNL     1       5.016   5.265  -2.842  1.00  0.00     0.049 A 
ATOM     16  N   UNL     1       6.166   6.904  -0.600  1.00  0.00    -0.248 NA
ATOM     17  C   UNL     1       5.409   5.300   0.915  1.00  0.00     0.031 C 
ATOM     18  C   UNL     1       4.436   4.524  -3.965  1.00  0.00     0.029 A 
ATOM     19  N   UNL     1       5.606   6.353  -3.432  1.00  0.00    -0.354 N 
ATOM     20  C   UNL     1       6.467   7.318   0.692  1.00  0.00     0.074 A 
ATOM     21  C   UNL     1       5.947   6.308   1.588  1.00  0.00     0.031 C 
ATOM     22  C   UNL     1       4.715   5.166  -5.108  1.00  0.00     0.029 A 
ATOM     23  C   UNL     1       5.440   6.391  -4.796  1.00  0.00     0.049 A 
ATOM     24  H   UNL     1       6.100   7.039  -2.928  1.00  0.00     0.167 HD
ATOM     25  C   UNL     1       7.130   8.431   1.092  1.00  0.00     0.034 A 
ATOM     26  C   UNL     1       5.809   7.319  -5.699  1.00  0.00     0.034 A 
ATOM     27  C   UNL     1       7.679   9.410   0.192  1.00  0.00     0.049 A 
ATOM     28  C   UNL     1       6.563   8.529  -5.229  1.00  0.00     0.074 A 
ATOM     29  C   UNL     1       8.424  10.536   0.496  1.00  0.00     0.029 A 
ATOM     30  N   UNL     1       7.539   9.386  -1.188  1.00  0.00    -0.354 N 
ATOM     31  N   UNL     1       6.944   8.840  -4.015  1.00  0.00    -0.248 NA
ATOM     32  C   UNL     1       6.961   9.502  -6.255  1.00  0.00     0.031 C 
ATOM     33  C   UNL     1       8.718  11.203  -0.698  1.00  0.00     0.029 A 
ATOM     34  C   UNL     1       8.175  10.481  -1.749  1.00  0.00     0.049 A 
ATOM     35  H   UNL     1       7.058   8.693  -1.694  1.00  0.00     0.167 HD
ATOM     36  C   UNL     1       7.650  10.030  -4.131  1.00  0.00     0.074 A 
ATOM     37  C   UNL     1       7.662  10.372  -5.540  1.00  0.00     0.031 C 
ATOM     38  C   UNL     1       8.222  10.780  -3.158  1.00  0.00     0.034 A 
BRANCH  25  39
ATOM     39  C   UNL     1       7.331   8.634   2.572  1.00  0.00     0.023 A 
ATOM     40  C   UNL     1       8.265   7.837   3.264  1.00  0.00     0.012 A 
ATOM     41  C   UNL     1       6.644   9.650   3.266  1.00  0.00     0.148 A 
ATOM     42  C   UNL     1       8.489   8.025   4.628  1.00  0.00     0.002 A 
ATOM     43  C   UNL     1       6.903   9.858   4.617  1.00  0.00     0.091 A 
ATOM     44  F   UNL     1       5.743  10.385   2.599  1.00  0.00    -0.205 F 
ATOM     45  C   UNL     1       7.816   9.041   5.301  1.00  0.00     0.022 A 
BRANCH  43  46
ATOM     46  S   UNL     1       6.141  11.193   5.549  1.00  0.00     0.127 S 
ATOM     47  O   UNL     1       5.144  10.470   6.337  1.00  0.00    -0.237 OA
ATOM     48  O   UNL     1       7.268  11.713   6.324  1.00  0.00    -0.237 OA
ATOM     49  O   UNL     1       5.612  12.119   4.558  1.00  0.00    -0.744 OA
ENDBRANCH  43  46
ENDBRANCH  25  39
BRANCH  26  50
ATOM     50  C   UNL     1       5.503   7.101  -7.139  1.00  0.00     0.023 A 
ATOM     51  C   UNL     1       6.549   6.804  -8.033  1.00  0.00     0.012 A 
ATOM     52  C   UNL     1       4.176   7.114  -7.612  1.00  0.00     0.148 A 
ATOM     53  C   UNL     1       6.281   6.540  -9.376  1.00  0.00     0.002 A 
ATOM     54  C   UNL     1       3.910   6.793  -8.938  1.00  0.00     0.091 A 
ATOM     55  F   UNL     1       3.196   7.411  -6.747  1.00  0.00    -0.205 F 
ATOM     56  C   UNL     1       4.963   6.521  -9.825  1.00  0.00     0.022 A 
BRANCH  54  57
ATOM     57  S   UNL     1       2.237   6.601  -9.563  1.00  0.00     0.127 S 
ATOM     58  O   UNL     1       2.101   7.780 -10.415  1.00  0.00    -0.237 OA
ATOM     59  O   UNL     1       2.327   5.329 -10.281  1.00  0.00    -0.237 OA
ATOM     60  O   UNL     1       1.380   6.566  -8.387  1.00  0.00    -0.744 OA
ENDBRANCH  54  57
ENDBRANCH  26  50
BRANCH  38  61
ATOM     61  C   UNL     1       8.940  12.034  -3.580  1.00  0.00     0.023 A 
ATOM     62  C   UNL     1       8.198  13.162  -3.981  1.00  0.00     0.012 A 
ATOM     63  C   UNL     1      10.344  12.117  -3.509  1.00  0.00     0.148 A 
ATOM     64  C   UNL     1       8.846  14.346  -4.333  1.00  0.00     0.002 A 
ATOM     65  C   UNL     1      10.980  13.313  -3.816  1.00  0.00     0.091 A 
ATOM     66  F   UNL     1      11.032  11.024  -3.146  1.00  0.00    -0.205 F 
ATOM     67  C   UNL     1      10.233  14.426  -4.239  1.00  0.00     0.022 A 
BRANCH  65  68
ATOM     68  S   UNL     1      12.753  13.533  -3.633  1.00  0.00     0.127 S 
ATOM     69  O   UNL     1      13.200  13.526  -5.025  1.00  0.00    -0.237 OA
ATOM     70  O   UNL     1      12.840  14.835  -2.971  1.00  0.00    -0.237 OA
ATOM     71  O   UNL     1      13.213  12.413  -2.822  1.00  0.00    -0.744 OA
ENDBRANCH  65  68
ENDBRANCH  38  61
ENDBRANCH  12  13
ENDBRANCH   5   7
ENDBRANCH   2   3
ENDBRANCH   1   2
BRANCH   1  72
ATOM     72  C   UNL     1       4.518  -2.742   2.372  1.00  0.00     0.118 C 
BRANCH  72  73
ATOM     73  N   UNL     1       4.899  -3.922   1.607  1.00  0.00    -0.352 N 
ATOM     74  C   UNL     1       5.671  -4.995   1.964  1.00  0.00     0.253 C 
ATOM     75  H   UNL     1       4.547  -3.952   0.688  1.00  0.00     0.163 HD
ATOM     76  O   UNL     1       6.040  -5.790   1.103  1.00  0.00    -0.269 OA
BRANCH  74  77
ATOM     77  C   UNL     1       6.051  -5.232   3.373  1.00  0.00     0.063 A 
ATOM     78  C   UNL     1       7.415  -5.472   3.606  1.00  0.00     0.016 A 
ATOM     79  C   UNL     1       5.111  -5.303   4.423  1.00  0.00     0.054 A 
ATOM     80  C   UNL     1       7.863  -5.779   4.887  1.00  0.00     0.001 A 
ATOM     81  C   UNL     1       5.579  -5.678   5.687  1.00  0.00     0.027 A 
ATOM     82  C   UNL     1       6.942  -5.894   5.922  1.00  0.00     0.002 A 
BRANCH  79  83
ATOM     83  N   UNL     1       3.750  -5.027   4.150  1.00  0.00    -0.321 N 
ATOM     84  C   UNL     1       2.680  -4.652   4.928  1.00  0.00     0.255 C 
ATOM     85  H   UNL     1       3.520  -5.124   3.198  1.00  0.00     0.170 HD
ATOM     86  O   UNL     1       1.573  -4.507   4.414  1.00  0.00    -0.269 OA
BRANCH  84  87
ATOM     87  C   UNL     1       2.814  -4.405   6.370  1.00  0.00     0.040 A 
ATOM     88  C   UNL     1       2.062  -5.209   7.221  1.00  0.00     0.016 A 
ATOM     89  C   UNL     1       3.693  -3.454   6.890  1.00  0.00     0.016 A 
ATOM     90  C   UNL     1       2.301  -5.168   8.594  1.00  0.00     0.027 A 
ATOM     91  C   UNL     1       3.920  -3.414   8.273  1.00  0.00     0.027 A 
ATOM     92  C   UNL     1       3.277  -4.318   9.139  1.00  0.00     0.052 A 
BRANCH  92  93
ATOM     93  N   UNL     1       3.670  -4.440  10.503  1.00  0.00    -0.250 N 
ATOM     94  C   UNL     1       3.547  -5.601  11.232  1.00  0.00     0.238 C 
ATOM     95  C   UNL     1       4.284  -3.448  11.227  1.00  0.00     0.238 C 
ATOM     96  O   UNL     1       3.039  -6.666  10.896  1.00  0.00    -0.274 OA
ATOM     97  C   UNL     1       4.197  -5.425  12.581  1.00  0.00     0.096 C 
ATOM     98  C   UNL     1       4.732  -3.996  12.560  1.00  0.00     0.096 C 
ATOM     99  O   UNL     1       4.443  -2.273  10.921  1.00  0.00    -0.274 OA
ATOM    100  C   UNL     1       5.239  -6.529  12.799  1.00  0.00     0.041 C 
ATOM    101  C   UNL     1       6.250  -3.835  12.689  1.00  0.00     0.041 C 
ATOM    102  C   UNL     1       6.552  -6.226  12.142  1.00  0.00    -0.030 C 
ATOM    103  C   UNL     1       7.019  -4.973  12.088  1.00  0.00    -0.030 C 
ENDBRANCH  92  93
ENDBRANCH  84  87
ENDBRANCH  79  83
ENDBRANCH  74  77
ENDBRANCH  72  73
ENDBRANCH   1  72
TORSDOF 16
