REMARK SMILES Cc1ccc(-c2cc(Cl)ccc2Cl)c(C(=O)NCCCNC(=O)c2ccc(-c3c4nc(c(-c5cccc(S(=O)(=O)[O-])c5F)c5ccc([nH]5)c(-c5cccc(S(=O)(=O)[O-])c5F)c5nc(c(-c6cccc(S(=O)(=O)[O-])c6F)c6ccc3[nH]6)C=C5)C=C4)cc2)c1
REMARK SMILES IDX 20 1 19 2 18 3 17 4 15 5 16 6 14 8 1 9 2 10 3 11 87 12 4 13
REMARK SMILES IDX 5 14 6 15 7 16 12 17 8 18 11 19 13 20 9 21 10 22 21 23 22 24
REMARK SMILES IDX 23 26 24 27 25 28 86 29 26 30 85 31 27 32 28 33 29 34 79 35
REMARK SMILES IDX 30 36 84 37 78 38 80 39 31 40 83 41 77 42 76 43 32 45 64 46
REMARK SMILES IDX 44 47 63 48 45 49 48 50 62 51 81 52 46 53 47 54 61 56 82 57
REMARK SMILES IDX 49 58 33 59 34 60 42 61 35 62 37 63 43 64 36 65 38 66 39 67
REMARK SMILES IDX 40 68 41 69 65 70 66 71 74 72 67 73 69 74 75 75 68 76 70 77
REMARK SMILES IDX 71 78 72 79 73 80 50 81 51 82 59 83 52 84 54 85 60 86 53 87
REMARK SMILES IDX 55 88 56 89 57 90 58 91
REMARK H PARENT 17 7 21 25 80 44 48 55
REMARK Flexibility Score: inf
ROOT
ATOM      1  C   UNL     1       1.287   5.220  -1.048  1.00  0.00     0.118 C 
ENDROOT
BRANCH   1   2
ATOM      2  C   UNL     1       1.281   3.837  -0.430  1.00  0.00     0.042 C 
BRANCH   2   3
ATOM      3  C   UNL     1       0.419   3.733   0.827  1.00  0.00     0.118 C 
BRANCH   3   4
ATOM      4  N   UNL     1      -0.964   3.424   0.506  1.00  0.00    -0.352 N 
ATOM      5  C   UNL     1      -1.662   2.271   0.234  1.00  0.00     0.251 C 
ATOM      6  O   UNL     1      -2.873   2.439   0.088  1.00  0.00    -0.269 OA
ATOM      7  H   UNL     1      -1.533   4.226   0.478  1.00  0.00     0.163 HD
BRANCH   5   8
ATOM      8  C   UNL     1      -1.063   0.884   0.106  1.00  0.00     0.047 A 
ATOM      9  C   UNL     1       2.419  -0.706  -0.131  1.00  0.00     0.044 C 
ATOM     10  C   UNL     1       0.924  -0.582  -0.068  1.00  0.00    -0.050 A 
ATOM     11  C   UNL     1       0.110  -1.702  -0.119  1.00  0.00     0.004 A 
ATOM     12  C   UNL     1       0.326   0.681   0.044  1.00  0.00     0.018 A 
ATOM     13  C   UNL     1      -1.275  -1.546  -0.089  1.00  0.00     0.010 A 
ATOM     14  C   UNL     1      -1.888  -0.271   0.016  1.00  0.00    -0.004 A 
BRANCH  14  15
ATOM     15  C   UNL     1      -3.368  -0.248   0.009  1.00  0.00     0.003 A 
ATOM     16  C   UNL     1      -4.048   0.166  -1.156  1.00  0.00     0.030 A 
ATOM     17  C   UNL     1      -4.143  -0.643   1.118  1.00  0.00     0.049 A 
ATOM     18  C   UNL     1      -5.441   0.228  -1.189  1.00  0.00     0.041 A 
ATOM     19  C   UNL     1      -5.542  -0.602   1.069  1.00  0.00     0.023 A 
ATOM     20  Cl  UNL     1      -3.419  -1.202   2.589  1.00  0.00    -0.084 Cl
ATOM     21  Cl  UNL     1      -6.242   0.782  -2.607  1.00  0.00    -0.084 Cl
ATOM     22  C   UNL     1      -6.191  -0.157  -0.082  1.00  0.00     0.022 A 
ENDBRANCH  14  15
ENDBRANCH   5   8
ENDBRANCH   3   4
ENDBRANCH   2   3
ENDBRANCH   1   2
BRANCH   1  23
ATOM     23  N   UNL     1       2.455   6.004  -0.678  1.00  0.00    -0.352 N 
ATOM     24  C   UNL     1       2.840   7.258  -1.113  1.00  0.00     0.251 C 
ATOM     25  H   UNL     1       3.058   5.581  -0.025  1.00  0.00     0.163 HD
ATOM     26  O   UNL     1       3.958   7.670  -0.812  1.00  0.00    -0.269 OA
BRANCH  24  27
ATOM     27  C   UNL     1       1.852   8.132  -1.789  1.00  0.00     0.039 A 
ATOM     28  C   UNL     1       1.713   9.437  -1.301  1.00  0.00     0.014 A 
ATOM     29  C   UNL     1       0.908   7.610  -2.668  1.00  0.00     0.014 A 
ATOM     30  C   UNL     1       0.499  10.099  -1.455  1.00  0.00     0.010 A 
ATOM     31  C   UNL     1      -0.325   8.216  -2.742  1.00  0.00     0.010 A 
ATOM     32  C   UNL     1      -0.548   9.416  -2.062  1.00  0.00    -0.014 A 
BRANCH  32  33
ATOM     33  C   UNL     1      -1.940   9.828  -2.020  1.00  0.00     0.031 A 
ATOM     34  C   UNL     1      -2.496  10.617  -3.130  1.00  0.00     0.074 A 
ATOM     35  C   UNL     1      -2.731   9.274  -1.075  1.00  0.00     0.049 A 
ATOM     36  N   UNL     1      -3.657  11.173  -3.122  1.00  0.00    -0.248 NA
ATOM     37  C   UNL     1      -1.739  10.864  -4.349  1.00  0.00     0.031 C 
ATOM     38  C   UNL     1      -4.184   9.174  -1.075  1.00  0.00     0.029 A 
ATOM     39  N   UNL     1      -2.365   8.865   0.214  1.00  0.00    -0.354 N 
ATOM     40  C   UNL     1      -3.920  11.595  -4.409  1.00  0.00     0.074 A 
ATOM     41  C   UNL     1      -2.660  11.472  -5.100  1.00  0.00     0.031 C 
ATOM     42  C   UNL     1      -4.604   9.017   0.191  1.00  0.00     0.029 A 
ATOM     43  C   UNL     1      -3.443   9.236   1.038  1.00  0.00     0.049 A 
ATOM     44  H   UNL     1      -1.533   8.414   0.485  1.00  0.00     0.167 HD
ATOM     45  C   UNL     1      -5.214  11.849  -4.759  1.00  0.00     0.034 A 
ATOM     46  C   UNL     1      -3.351  10.197   2.008  1.00  0.00     0.034 A 
ATOM     47  C   UNL     1      -6.083  11.809  -3.570  1.00  0.00     0.049 A 
ATOM     48  C   UNL     1      -4.358  11.326   1.833  1.00  0.00     0.074 A 
ATOM     49  C   UNL     1      -6.909  10.837  -3.030  1.00  0.00     0.029 A 
ATOM     50  N   UNL     1      -5.932  12.783  -2.589  1.00  0.00    -0.354 N 
ATOM     51  N   UNL     1      -5.065  11.518   0.753  1.00  0.00    -0.248 NA
ATOM     52  C   UNL     1      -4.627  12.339   2.850  1.00  0.00     0.031 C 
ATOM     53  C   UNL     1      -7.163  11.184  -1.673  1.00  0.00     0.029 A 
ATOM     54  C   UNL     1      -6.527  12.384  -1.402  1.00  0.00     0.049 A 
ATOM     55  H   UNL     1      -5.465  13.640  -2.720  1.00  0.00     0.167 HD
ATOM     56  C   UNL     1      -5.766  12.691   0.852  1.00  0.00     0.074 A 
ATOM     57  C   UNL     1      -5.520  13.124   2.218  1.00  0.00     0.031 C 
ATOM     58  C   UNL     1      -6.430  13.232  -0.217  1.00  0.00     0.034 A 
BRANCH  45  59
ATOM     59  C   UNL     1      -5.768  11.845  -6.181  1.00  0.00     0.023 A 
ATOM     60  C   UNL     1      -7.168  11.698  -6.327  1.00  0.00     0.012 A 
ATOM     61  C   UNL     1      -5.035  11.882  -7.391  1.00  0.00     0.148 A 
ATOM     62  C   UNL     1      -7.785  11.503  -7.569  1.00  0.00     0.002 A 
ATOM     63  C   UNL     1      -5.640  11.638  -8.630  1.00  0.00     0.091 A 
ATOM     64  F   UNL     1      -3.749  12.226  -7.384  1.00  0.00    -0.205 F 
ATOM     65  C   UNL     1      -7.017  11.441  -8.721  1.00  0.00     0.022 A 
BRANCH  63  66
ATOM     66  S   UNL     1      -4.692  11.498 -10.159  1.00  0.00     0.127 S 
ATOM     67  O   UNL     1      -5.127  10.197 -10.673  1.00  0.00    -0.237 OA
ATOM     68  O   UNL     1      -5.168  12.645 -10.930  1.00  0.00    -0.237 OA
ATOM     69  O   UNL     1      -3.285  11.546  -9.778  1.00  0.00    -0.744 OA
ENDBRANCH  63  66
ENDBRANCH  45  59
BRANCH  46  70
ATOM     70  C   UNL     1      -1.972  10.360   2.566  1.00  0.00     0.023 A 
ATOM     71  C   UNL     1      -1.387   9.223   3.177  1.00  0.00     0.012 A 
ATOM     72  C   UNL     1      -1.134  11.414   2.162  1.00  0.00     0.148 A 
ATOM     73  C   UNL     1      -0.001   9.067   3.225  1.00  0.00     0.002 A 
ATOM     74  C   UNL     1       0.251  11.258   2.230  1.00  0.00     0.091 A 
ATOM     75  F   UNL     1      -1.690  12.523   1.658  1.00  0.00    -0.205 F 
ATOM     76  C   UNL     1       0.818  10.068   2.713  1.00  0.00     0.022 A 
BRANCH  74  77
ATOM     77  S   UNL     1       1.365  12.515   1.586  1.00  0.00     0.127 S 
ATOM     78  O   UNL     1       1.607  13.328   2.773  1.00  0.00    -0.237 OA
ATOM     79  O   UNL     1       2.512  11.726   1.137  1.00  0.00    -0.237 OA
ATOM     80  O   UNL     1       0.621  13.145   0.505  1.00  0.00    -0.744 OA
ENDBRANCH  74  77
ENDBRANCH  46  70
BRANCH  58  81
ATOM     81  C   UNL     1      -7.025  14.629  -0.273  1.00  0.00     0.023 A 
ATOM     82  C   UNL     1      -6.584  15.671   0.564  1.00  0.00     0.012 A 
ATOM     83  C   UNL     1      -7.944  14.984  -1.297  1.00  0.00     0.148 A 
ATOM     84  C   UNL     1      -7.064  16.980   0.435  1.00  0.00     0.002 A 
ATOM     85  C   UNL     1      -8.327  16.308  -1.495  1.00  0.00     0.091 A 
ATOM     86  F   UNL     1      -8.470  14.032  -2.083  1.00  0.00    -0.205 F 
ATOM     87  C   UNL     1      -7.915  17.305  -0.611  1.00  0.00     0.022 A 
BRANCH  85  88
ATOM     88  S   UNL     1      -9.216  16.797  -2.982  1.00  0.00     0.127 S 
ATOM     89  O   UNL     1     -10.608  16.695  -2.554  1.00  0.00    -0.237 OA
ATOM     90  O   UNL     1      -8.745  18.166  -3.198  1.00  0.00    -0.237 OA
ATOM     91  O   UNL     1      -8.783  15.852  -4.004  1.00  0.00    -0.744 OA
ENDBRANCH  85  88
ENDBRANCH  58  81
ENDBRANCH  32  33
ENDBRANCH  24  27
ENDBRANCH   1  23
TORSDOF 14
