REMARK SMILES C#CC[N@H+](CC(=O)NCCCNC(=O)c1ccc(-c2c3nc(c(-c4cccc(S(=O)(=O)[O-])c4F)c4ccc([nH]4)c(-c4cccc(S(=O)(=O)[O-])c4F)c4nc(c(-c5cccc(S(=O)(=O)[O-])c5F)c5ccc2[nH]5)C=C4)C=C3)cc1)[C@H](C)C(=O)NCCC
REMARK SMILES IDX 9 1 8 2 6 3 7 4 5 6 4 7 3 9 2 10 1 11 78 12 79 13 80 14
REMARK SMILES IDX 81 15 82 16 83 18 84 19 85 20 10 21 11 22 12 23 13 24 14 26
REMARK SMILES IDX 15 27 16 28 77 29 17 30 76 31 18 32 19 33 20 34 70 35 21 36
REMARK SMILES IDX 75 37 69 38 71 39 22 40 74 41 68 42 67 43 23 45 55 46 35 47
REMARK SMILES IDX 54 48 36 49 39 50 53 51 72 52 37 53 38 54 52 56 73 57 40 58
REMARK SMILES IDX 24 59 25 60 33 61 26 62 28 63 34 64 27 65 29 66 30 67 31 68
REMARK SMILES IDX 32 69 56 70 57 71 65 72 58 73 60 74 66 75 59 76 61 77 62 78
REMARK SMILES IDX 63 79 64 80 41 81 42 82 50 83 43 84 45 85 51 86 44 87 46 88
REMARK SMILES IDX 47 89 48 90 49 91
REMARK H PARENT 8 5 4 8 82 17 12 25 71 44 39 55
REMARK Flexibility Score: inf
ROOT
ATOM      1  C   UNL     1      -3.653  -1.770  -2.845  1.00  0.00     0.118 C 
ENDROOT
BRANCH   1   2
ATOM      2  N   UNL     1      -4.196  -3.038  -2.372  1.00  0.00    -0.351 N 
ATOM      3  C   UNL     1      -4.271  -3.565  -1.105  1.00  0.00     0.275 C 
ATOM      4  O   UNL     1      -4.788  -4.675  -0.973  1.00  0.00    -0.269 OA
ATOM      5  H   UNL     1      -4.571  -3.612  -3.078  1.00  0.00     0.163 HD
BRANCH   3   6
ATOM      6  C   UNL     1      -3.746  -2.759   0.095  1.00  0.00     0.364 C 
BRANCH   6   7
ATOM      7  N   UNL     1      -2.312  -2.965   0.452  1.00  0.00    -0.307 N 
ATOM      8  H   UNL     1      -2.193  -3.850   0.945  1.00  0.00     0.350 HD
BRANCH   7   9
ATOM      9  C   UNL     1      -1.484  -3.189  -0.722  1.00  0.00     0.355 C 
BRANCH   9  10
ATOM     10  C   UNL     1      -0.074  -3.571  -0.600  1.00  0.00    -0.047 C 
ATOM     11  C   UNL     1       1.104  -3.756  -0.721  1.00  0.00     0.010 C 
ENDBRANCH   9  10
ENDBRANCH   7   9
BRANCH   7  12
ATOM     12  C   UNL     1      -1.853  -1.984   1.491  1.00  0.00     0.272 C 
ATOM     13  C   UNL     1      -2.643  -0.684   1.752  1.00  0.00     0.086 C 
BRANCH  12  14
ATOM     14  C   UNL     1      -0.343  -1.664   1.540  1.00  0.00     0.278 C 
ATOM     15  O   UNL     1       0.360  -2.138   2.440  1.00  0.00    -0.268 OA
ATOM     16  N   UNL     1       0.260  -0.796   0.670  1.00  0.00    -0.351 N 
ATOM     17  H   UNL     1       1.170  -0.530   0.934  1.00  0.00     0.163 HD
BRANCH  16  18
ATOM     18  C   UNL     1      -0.197  -0.196  -0.574  1.00  0.00     0.116 C 
BRANCH  18  19
ATOM     19  C   UNL     1       0.356   1.208  -0.789  1.00  0.00     0.018 C 
ATOM     20  C   UNL     1       1.825   1.190  -1.188  1.00  0.00     0.006 C 
ENDBRANCH  18  19
ENDBRANCH  16  18
ENDBRANCH  12  14
ENDBRANCH   7  12
ENDBRANCH   6   7
ENDBRANCH   3   6
ENDBRANCH   1   2
BRANCH   1  21
ATOM     21  C   UNL     1      -2.385  -1.935  -3.686  1.00  0.00     0.042 C 
BRANCH  21  22
ATOM     22  C   UNL     1      -2.591  -2.641  -5.010  1.00  0.00     0.118 C 
BRANCH  22  23
ATOM     23  N   UNL     1      -3.171  -1.756  -5.998  1.00  0.00    -0.352 N 
ATOM     24  C   UNL     1      -2.588  -1.204  -7.113  1.00  0.00     0.251 C 
ATOM     25  H   UNL     1      -4.115  -1.517  -5.851  1.00  0.00     0.163 HD
ATOM     26  O   UNL     1      -3.142  -0.257  -7.665  1.00  0.00    -0.269 OA
BRANCH  24  27
ATOM     27  C   UNL     1      -1.302  -1.726  -7.637  1.00  0.00     0.039 A 
ATOM     28  C   UNL     1      -0.384  -0.822  -8.178  1.00  0.00     0.014 A 
ATOM     29  C   UNL     1      -1.005  -3.093  -7.637  1.00  0.00     0.014 A 
ATOM     30  C   UNL     1       0.837  -1.284  -8.678  1.00  0.00     0.010 A 
ATOM     31  C   UNL     1       0.253  -3.538  -8.040  1.00  0.00     0.010 A 
ATOM     32  C   UNL     1       1.181  -2.642  -8.587  1.00  0.00    -0.014 A 
BRANCH  32  33
ATOM     33  C   UNL     1       2.502  -3.131  -9.065  1.00  0.00     0.031 A 
ATOM     34  C   UNL     1       2.586  -4.157 -10.167  1.00  0.00     0.074 A 
ATOM     35  C   UNL     1       3.630  -2.692  -8.469  1.00  0.00     0.049 A 
ATOM     36  N   UNL     1       3.647  -4.713 -10.691  1.00  0.00    -0.248 NA
ATOM     37  C   UNL     1       1.318  -4.635 -10.744  1.00  0.00     0.031 C 
ATOM     38  C   UNL     1       3.682  -1.755  -7.344  1.00  0.00     0.029 A 
ATOM     39  N   UNL     1       4.949  -2.994  -8.707  1.00  0.00    -0.354 N 
ATOM     40  C   UNL     1       3.177  -5.631 -11.624  1.00  0.00     0.074 A 
ATOM     41  C   UNL     1       1.734  -5.572 -11.584  1.00  0.00     0.031 C 
ATOM     42  C   UNL     1       4.962  -1.555  -6.994  1.00  0.00     0.029 A 
ATOM     43  C   UNL     1       5.821  -2.384  -7.833  1.00  0.00     0.049 A 
ATOM     44  H   UNL     1       5.243  -3.589  -9.434  1.00  0.00     0.167 HD
ATOM     45  C   UNL     1       3.883  -6.437 -12.450  1.00  0.00     0.034 A 
ATOM     46  C   UNL     1       7.157  -2.501  -7.699  1.00  0.00     0.034 A 
ATOM     47  C   UNL     1       5.319  -6.471 -12.513  1.00  0.00     0.049 A 
ATOM     48  C   UNL     1       7.912  -3.394  -8.647  1.00  0.00     0.074 A 
ATOM     49  C   UNL     1       6.121  -7.183 -13.389  1.00  0.00     0.029 A 
ATOM     50  N   UNL     1       6.168  -5.792 -11.655  1.00  0.00    -0.354 N 
ATOM     51  N   UNL     1       7.454  -4.126  -9.633  1.00  0.00    -0.248 NA
ATOM     52  C   UNL     1       9.373  -3.451  -8.487  1.00  0.00     0.031 C 
ATOM     53  C   UNL     1       7.453  -6.982 -13.021  1.00  0.00     0.029 A 
ATOM     54  C   UNL     1       7.484  -6.092 -11.961  1.00  0.00     0.049 A 
ATOM     55  H   UNL     1       5.878  -5.186 -10.935  1.00  0.00     0.167 HD
ATOM     56  C   UNL     1       8.571  -4.698 -10.231  1.00  0.00     0.074 A 
ATOM     57  C   UNL     1       9.728  -4.207  -9.515  1.00  0.00     0.031 C 
ATOM     58  C   UNL     1       8.631  -5.562 -11.273  1.00  0.00     0.034 A 
BRANCH  45  59
ATOM     59  C   UNL     1       3.127  -7.351 -13.378  1.00  0.00     0.023 A 
ATOM     60  C   UNL     1       2.444  -6.823 -14.491  1.00  0.00     0.012 A 
ATOM     61  C   UNL     1       3.197  -8.749 -13.207  1.00  0.00     0.148 A 
ATOM     62  C   UNL     1       1.826  -7.670 -15.410  1.00  0.00     0.002 A 
ATOM     63  C   UNL     1       2.622  -9.587 -14.153  1.00  0.00     0.091 A 
ATOM     64  F   UNL     1       3.837  -9.228 -12.131  1.00  0.00    -0.205 F 
ATOM     65  C   UNL     1       1.928  -9.050 -15.249  1.00  0.00     0.022 A 
BRANCH  63  66
ATOM     66  S   UNL     1       2.775 -11.375 -14.084  1.00  0.00     0.127 S 
ATOM     67  O   UNL     1       1.382 -11.782 -13.896  1.00  0.00    -0.237 OA
ATOM     68  O   UNL     1       3.327 -11.684 -15.403  1.00  0.00    -0.237 OA
ATOM     69  O   UNL     1       3.660 -11.664 -12.965  1.00  0.00    -0.744 OA
ENDBRANCH  63  66
ENDBRANCH  45  59
BRANCH  46  70
ATOM     70  C   UNL     1       7.876  -1.760  -6.624  1.00  0.00     0.023 A 
ATOM     71  C   UNL     1       8.807  -0.756  -6.957  1.00  0.00     0.012 A 
ATOM     72  C   UNL     1       7.656  -2.067  -5.268  1.00  0.00     0.148 A 
ATOM     73  C   UNL     1       9.546  -0.115  -5.962  1.00  0.00     0.002 A 
ATOM     74  C   UNL     1       8.346  -1.377  -4.279  1.00  0.00     0.091 A 
ATOM     75  F   UNL     1       6.774  -3.032  -4.969  1.00  0.00    -0.205 F 
ATOM     76  C   UNL     1       9.311  -0.419  -4.624  1.00  0.00     0.022 A 
BRANCH  74  77
ATOM     77  S   UNL     1       7.999  -1.607  -2.533  1.00  0.00     0.127 S 
ATOM     78  O   UNL     1       9.202  -2.299  -2.079  1.00  0.00    -0.237 OA
ATOM     79  O   UNL     1       7.866  -0.226  -2.069  1.00  0.00    -0.237 OA
ATOM     80  O   UNL     1       6.763  -2.377  -2.477  1.00  0.00    -0.744 OA
ENDBRANCH  74  77
ENDBRANCH  46  70
BRANCH  58  81
ATOM     81  C   UNL     1       9.994  -5.992 -11.751  1.00  0.00     0.023 A 
ATOM     82  C   UNL     1      10.791  -6.843 -10.961  1.00  0.00     0.012 A 
ATOM     83  C   UNL     1      10.453  -5.598 -13.024  1.00  0.00     0.148 A 
ATOM     84  C   UNL     1      12.042  -7.262 -11.414  1.00  0.00     0.002 A 
ATOM     85  C   UNL     1      11.673  -6.067 -13.493  1.00  0.00     0.091 A 
ATOM     86  F   UNL     1       9.685  -4.777 -13.755  1.00  0.00    -0.205 F 
ATOM     87  C   UNL     1      12.477  -6.884 -12.683  1.00  0.00     0.022 A 
BRANCH  85  88
ATOM     88  S   UNL     1      12.268  -5.715 -15.150  1.00  0.00     0.127 S 
ATOM     89  O   UNL     1      13.417  -4.853 -14.877  1.00  0.00    -0.237 OA
ATOM     90  O   UNL     1      12.610  -7.050 -15.643  1.00  0.00    -0.237 OA
ATOM     91  O   UNL     1      11.164  -5.074 -15.850  1.00  0.00    -0.744 OA
ENDBRANCH  85  88
ENDBRANCH  58  81
ENDBRANCH  32  33
ENDBRANCH  24  27
ENDBRANCH  22  23
ENDBRANCH  21  22
ENDBRANCH   1  21
TORSDOF 20
