REMARK SMILES COc1cccc([C@@H]2CN(C(=O)c3cnn(C)c3)C[C@H]2C(=O)NCCCNC(=O)c2ccc(-c3c4nc(c(-c5cccc(S(=O)(=O)[O-])c5F)c5ccc([nH]5)c(-c5cccc(S(=O)(=O)[O-])c5F)c5nc(c(-c6cccc(S(=O)(=O)[O-])c6F)c6ccc3[nH]6)C=C5)C=C4)cc2)c1OC
REMARK SMILES IDX 25 1 24 2 23 3 21 4 22 5 20 7 8 8 9 9 10 10 19 11 7 12 3 13
REMARK SMILES IDX 4 14 93 15 5 16 6 17 2 18 1 19 94 20 95 21 11 22 12 23 13 24
REMARK SMILES IDX 14 25 18 26 15 27 16 28 17 29 26 30 27 31 28 32 29 34 30 35
REMARK SMILES IDX 31 36 92 37 32 38 91 39 33 40 34 41 35 42 85 43 36 44 90 45
REMARK SMILES IDX 84 46 86 47 37 48 89 49 83 50 82 51 38 53 70 54 50 55 69 56
REMARK SMILES IDX 51 57 54 58 68 59 87 60 52 61 53 62 67 64 88 65 55 66 39 67
REMARK SMILES IDX 40 68 48 69 41 70 43 71 49 72 42 73 44 74 45 75 46 76 47 77
REMARK SMILES IDX 71 78 72 79 80 80 73 81 75 82 81 83 74 84 76 85 77 86 78 87
REMARK SMILES IDX 79 88 56 89 57 90 65 91 58 92 60 93 66 94 59 95 61 96 62 97
REMARK SMILES IDX 63 98 64 99
REMARK H PARENT 23 6 27 33 86 52 54 63
REMARK Flexibility Score: inf
ROOT
ATOM      1  C   UNL     1       4.861  -2.122  -7.449  1.00  0.00     0.042 C 
ENDROOT
BRANCH   1   2
ATOM      2  C   UNL     1       5.687  -1.246  -6.515  1.00  0.00     0.117 C 
BRANCH   2   3
ATOM      3  N   UNL     1       4.961  -0.073  -6.055  1.00  0.00    -0.356 N 
ATOM      4  C   UNL     1       4.508   0.295  -4.829  1.00  0.00     0.225 C 
ATOM      5  O   UNL     1       3.961   1.400  -4.748  1.00  0.00    -0.275 OA
ATOM      6  H   UNL     1       4.761   0.577  -6.766  1.00  0.00     0.163 HD
BRANCH   4   7
ATOM      7  C   UNL     1       4.641  -0.573  -3.590  1.00  0.00     0.107 C 
ATOM      8  C   UNL     1       3.851  -1.894  -3.672  1.00  0.00     0.057 C 
ATOM      9  C   UNL     1       4.769  -2.943  -3.042  1.00  0.00     0.129 C 
ATOM     10  N   UNL     1       6.112  -2.411  -3.209  1.00  0.00    -0.337 N 
ATOM     11  C   UNL     1       6.081  -0.959  -3.270  1.00  0.00     0.134 C 
BRANCH   8  12
ATOM     12  C   UNL     1       2.455  -1.868  -3.072  1.00  0.00     0.004 A 
ATOM     13  C   UNL     1       0.878  -1.484  -1.259  1.00  0.00     0.161 A 
ATOM     14  C   UNL     1      -0.178  -1.864  -2.096  1.00  0.00     0.050 A 
ATOM     15  C   UNL     1       2.203  -1.511  -1.728  1.00  0.00     0.164 A 
ATOM     16  C   UNL     1       0.069  -2.227  -3.416  1.00  0.00     0.004 A 
ATOM     17  C   UNL     1       1.373  -2.219  -3.903  1.00  0.00     0.008 A 
BRANCH  13  18
ATOM     18  O   UNL     1       0.599  -1.165   0.045  1.00  0.00    -0.493 OA
ATOM     19  C   UNL     1      -0.219   0.003   0.130  1.00  0.00     0.278 C 
ENDBRANCH  13  18
BRANCH  15  20
ATOM     20  O   UNL     1       3.324  -1.266  -0.976  1.00  0.00    -0.493 OA
ATOM     21  C   UNL     1       3.211  -0.382   0.128  1.00  0.00     0.278 C 
ENDBRANCH  15  20
ENDBRANCH   8  12
BRANCH  10  22
ATOM     22  C   UNL     1       7.317  -3.075  -3.044  1.00  0.00     0.257 C 
ATOM     23  O   UNL     1       8.379  -2.456  -2.962  1.00  0.00    -0.269 OA
BRANCH  22  24
ATOM     24  C   UNL     1       7.300  -4.520  -2.926  1.00  0.00     0.077 A 
ATOM     25  C   UNL     1       8.081  -5.303  -2.046  1.00  0.00     0.149 A 
ATOM     26  C   UNL     1       6.610  -5.460  -3.668  1.00  0.00     0.122 A 
ATOM     27  N   UNL     1       7.833  -6.612  -2.151  1.00  0.00    -0.181 NA
ATOM     28  N   UNL     1       6.915  -6.678  -3.132  1.00  0.00    -0.275 N 
ATOM     29  C   UNL     1       6.344  -7.952  -3.499  1.00  0.00     0.173 C 
ENDBRANCH  22  24
ENDBRANCH  10  22
ENDBRANCH   4   7
ENDBRANCH   2   3
ENDBRANCH   1   2
BRANCH   1  30
ATOM     30  C   UNL     1       4.463  -1.441  -8.753  1.00  0.00     0.118 C 
BRANCH  30  31
ATOM     31  N   UNL     1       5.609  -1.144  -9.602  1.00  0.00    -0.352 N 
ATOM     32  C   UNL     1       5.943  -1.645 -10.838  1.00  0.00     0.251 C 
ATOM     33  H   UNL     1       6.240  -0.484  -9.235  1.00  0.00     0.163 HD
ATOM     34  O   UNL     1       7.052  -1.407 -11.309  1.00  0.00    -0.269 OA
BRANCH  32  35
ATOM     35  C   UNL     1       4.982  -2.480 -11.592  1.00  0.00     0.039 A 
ATOM     36  C   UNL     1       5.443  -3.632 -12.236  1.00  0.00     0.014 A 
ATOM     37  C   UNL     1       3.637  -2.117 -11.686  1.00  0.00     0.014 A 
ATOM     38  C   UNL     1       4.541  -4.457 -12.916  1.00  0.00     0.010 A 
ATOM     39  C   UNL     1       2.729  -2.975 -12.299  1.00  0.00     0.010 A 
ATOM     40  C   UNL     1       3.172  -4.151 -12.925  1.00  0.00    -0.014 A 
BRANCH  40  41
ATOM     41  C   UNL     1       2.174  -5.024 -13.593  1.00  0.00     0.031 A 
ATOM     42  C   UNL     1       1.373  -4.490 -14.750  1.00  0.00     0.074 A 
ATOM     43  C   UNL     1       1.908  -6.246 -13.092  1.00  0.00     0.049 A 
ATOM     44  N   UNL     1       0.345  -5.021 -15.358  1.00  0.00    -0.248 NA
ATOM     45  C   UNL     1       1.758  -3.165 -15.268  1.00  0.00     0.031 C 
ATOM     46  C   UNL     1       2.569  -6.850 -11.933  1.00  0.00     0.029 A 
ATOM     47  N   UNL     1       0.981  -7.186 -13.470  1.00  0.00    -0.354 N 
ATOM     48  C   UNL     1      -0.068  -4.082 -16.295  1.00  0.00     0.074 A 
ATOM     49  C   UNL     1       0.805  -2.937 -16.161  1.00  0.00     0.031 C 
ATOM     50  C   UNL     1       2.019  -8.051 -11.689  1.00  0.00     0.029 A 
ATOM     51  C   UNL     1       0.951  -8.293 -12.654  1.00  0.00     0.049 A 
ATOM     52  H   UNL     1       0.392  -7.077 -14.252  1.00  0.00     0.167 HD
ATOM     53  C   UNL     1      -1.063  -4.176 -17.208  1.00  0.00     0.034 A 
ATOM     54  C   UNL     1       0.148  -9.375 -12.675  1.00  0.00     0.034 A 
ATOM     55  C   UNL     1      -1.884  -5.342 -17.387  1.00  0.00     0.049 A 
ATOM     56  C   UNL     1      -0.895  -9.489 -13.754  1.00  0.00     0.074 A 
ATOM     57  C   UNL     1      -2.886  -5.555 -18.316  1.00  0.00     0.029 A 
ATOM     58  N   UNL     1      -1.780  -6.501 -16.634  1.00  0.00    -0.354 N 
ATOM     59  N   UNL     1      -1.192  -8.636 -14.705  1.00  0.00    -0.248 NA
ATOM     60  C   UNL     1      -1.689 -10.726 -13.789  1.00  0.00     0.031 C 
ATOM     61  C   UNL     1      -3.379  -6.852 -18.136  1.00  0.00     0.029 A 
ATOM     62  C   UNL     1      -2.684  -7.442 -17.092  1.00  0.00     0.049 A 
ATOM     63  H   UNL     1      -1.156  -6.634 -15.885  1.00  0.00     0.167 HD
ATOM     64  C   UNL     1      -2.178  -9.248 -15.471  1.00  0.00     0.074 A 
ATOM     65  C   UNL     1      -2.415 -10.551 -14.885  1.00  0.00     0.031 C 
ATOM     66  C   UNL     1      -2.845  -8.765 -16.547  1.00  0.00     0.034 A 
BRANCH  53  67
ATOM     67  C   UNL     1      -1.264  -3.014 -18.143  1.00  0.00     0.023 A 
ATOM     68  C   UNL     1      -0.348  -2.821 -19.197  1.00  0.00     0.012 A 
ATOM     69  C   UNL     1      -2.373  -2.156 -18.021  1.00  0.00     0.148 A 
ATOM     70  C   UNL     1      -0.518  -1.774 -20.102  1.00  0.00     0.002 A 
ATOM     71  C   UNL     1      -2.555  -1.136 -18.949  1.00  0.00     0.091 A 
ATOM     72  F   UNL     1      -3.218  -2.342 -16.997  1.00  0.00    -0.205 F 
ATOM     73  C   UNL     1      -1.626  -0.939 -19.984  1.00  0.00     0.022 A 
BRANCH  71  74
ATOM     74  S   UNL     1      -3.985  -0.048 -18.921  1.00  0.00     0.127 S 
ATOM     75  O   UNL     1      -3.400   1.197 -18.427  1.00  0.00    -0.237 OA
ATOM     76  O   UNL     1      -4.380  -0.019 -20.330  1.00  0.00    -0.237 OA
ATOM     77  O   UNL     1      -4.952  -0.683 -18.036  1.00  0.00    -0.744 OA
ENDBRANCH  71  74
ENDBRANCH  53  67
BRANCH  54  78
ATOM     78  C   UNL     1       0.354 -10.473 -11.689  1.00  0.00     0.023 A 
ATOM     79  C   UNL     1       0.900 -11.695 -12.127  1.00  0.00     0.012 A 
ATOM     80  C   UNL     1       0.054 -10.308 -10.324  1.00  0.00     0.148 A 
ATOM     81  C   UNL     1       1.113 -12.743 -11.230  1.00  0.00     0.002 A 
ATOM     82  C   UNL     1       0.320 -11.338  -9.426  1.00  0.00     0.091 A 
ATOM     83  F   UNL     1      -0.482  -9.147  -9.920  1.00  0.00    -0.205 F 
ATOM     84  C   UNL     1       0.834 -12.562  -9.878  1.00  0.00     0.022 A 
BRANCH  82  85
ATOM     85  S   UNL     1       0.119 -11.101  -7.656  1.00  0.00     0.127 S 
ATOM     86  O   UNL     1      -1.248 -11.562  -7.439  1.00  0.00    -0.237 OA
ATOM     87  O   UNL     1       1.157 -11.969  -7.097  1.00  0.00    -0.237 OA
ATOM     88  O   UNL     1       0.366  -9.679  -7.443  1.00  0.00    -0.744 OA
ENDBRANCH  82  85
ENDBRANCH  54  78
BRANCH  66  89
ATOM     89  C   UNL     1      -3.867  -9.656 -17.196  1.00  0.00     0.023 A 
ATOM     90  C   UNL     1      -5.130  -9.812 -16.595  1.00  0.00     0.012 A 
ATOM     91  C   UNL     1      -3.610 -10.259 -18.442  1.00  0.00     0.148 A 
ATOM     92  C   UNL     1      -6.121 -10.569 -17.218  1.00  0.00     0.002 A 
ATOM     93  C   UNL     1      -4.614 -10.983 -19.075  1.00  0.00     0.091 A 
ATOM     94  F   UNL     1      -2.392 -10.117 -18.985  1.00  0.00    -0.205 F 
ATOM     95  C   UNL     1      -5.868 -11.144 -18.462  1.00  0.00     0.022 A 
BRANCH  93  96
ATOM     96  S   UNL     1      -4.396 -11.684 -20.715  1.00  0.00     0.127 S 
ATOM     97  O   UNL     1      -4.153 -13.092 -20.407  1.00  0.00    -0.237 OA
ATOM     98  O   UNL     1      -5.688 -11.413 -21.348  1.00  0.00    -0.237 OA
ATOM     99  O   UNL     1      -3.276 -10.965 -21.306  1.00  0.00    -0.744 OA
ENDBRANCH  93  96
ENDBRANCH  66  89
ENDBRANCH  40  41
ENDBRANCH  32  35
ENDBRANCH  30  31
ENDBRANCH   1  30
TORSDOF 18
