REMARK SMILES O=C(NCCCNC(=O)c1ccc(N2C(=O)/C(=C\C3=Cc4ccccc4OC3)SC2=S)cc1)c1ccc(-c2c3nc(c(-c4cccc(S(=O)(=O)[O-])c4F)c4ccc([nH]4)c(-c4cccc(S(=O)(=O)[O-])c4F)c4nc(c(-c5cccc(S(=O)(=O)[O-])c5F)c5ccc2[nH]5)C=C4)C=C3)cc1
REMARK SMILES IDX 4 1 3 2 1 3 2 4 34 6 35 7 96 8 36 9 95 10 37 11 38 12 39 13
REMARK SMILES IDX 89 14 40 15 94 16 88 17 90 18 41 19 93 20 87 21 86 22 42 24
REMARK SMILES IDX 74 25 54 26 73 27 55 28 58 29 72 30 91 31 56 32 57 33 71 35
REMARK SMILES IDX 92 36 59 37 43 38 44 39 52 40 45 41 47 42 53 43 46 44 48 45
REMARK SMILES IDX 49 46 50 47 51 48 75 49 76 50 84 51 77 52 79 53 85 54 78 55
REMARK SMILES IDX 80 56 81 57 82 58 83 59 60 60 61 61 69 62 62 63 64 64 70 65
REMARK SMILES IDX 63 66 65 67 66 68 67 69 68 70 5 71 6 72 7 73 8 74 9 76 10 77
REMARK SMILES IDX 11 78 33 79 12 80 32 81 13 82 14 83 15 84 30 85 16 86 17 87
REMARK SMILES IDX 29 88 31 89 18 90 19 91 20 92 28 93 21 94 27 95 22 96 26 97
REMARK SMILES IDX 23 98 25 99 24 100
REMARK H PARENT 3 5 90 23 58 34 7 75
REMARK Flexibility Score: inf
ROOT
ATOM      1  C   UNL     1       4.600   0.569  -1.385  1.00  0.00     0.118 C 
ENDROOT
BRANCH   1   2
ATOM      2  N   UNL     1       3.179   0.527  -1.064  1.00  0.00    -0.352 N 
ATOM      3  O   UNL     1       1.284  -0.079  -0.028  1.00  0.00    -0.269 OA
ATOM      4  C   UNL     1       2.512  -0.053  -0.009  1.00  0.00     0.251 C 
ATOM      5  H   UNL     1       2.600   0.991  -1.711  1.00  0.00     0.163 HD
BRANCH   4   6
ATOM      6  C   UNL     1       3.250  -0.668   1.120  1.00  0.00     0.039 A 
ATOM      7  C   UNL     1       4.401  -0.077   1.641  1.00  0.00     0.014 A 
ATOM      8  C   UNL     1       2.765  -1.851   1.691  1.00  0.00     0.014 A 
ATOM      9  C   UNL     1       5.157  -0.752   2.594  1.00  0.00     0.010 A 
ATOM     10  C   UNL     1       3.474  -2.476   2.725  1.00  0.00     0.010 A 
ATOM     11  C   UNL     1       4.702  -1.956   3.156  1.00  0.00    -0.014 A 
BRANCH  11  12
ATOM     12  C   UNL     1       5.508  -2.596   4.231  1.00  0.00     0.031 A 
ATOM     13  C   UNL     1       6.120  -3.961   4.058  1.00  0.00     0.074 A 
ATOM     14  C   UNL     1       5.726  -1.905   5.369  1.00  0.00     0.049 A 
ATOM     15  N   UNL     1       6.935  -4.601   4.858  1.00  0.00    -0.248 NA
ATOM     16  C   UNL     1       5.772  -4.710   2.840  1.00  0.00     0.031 C 
ATOM     17  C   UNL     1       5.133  -0.603   5.686  1.00  0.00     0.029 A 
ATOM     18  N   UNL     1       6.513  -2.184   6.457  1.00  0.00    -0.354 N 
ATOM     19  C   UNL     1       7.177  -5.832   4.259  1.00  0.00     0.074 A 
ATOM     20  C   UNL     1       6.407  -5.859   3.034  1.00  0.00     0.031 C 
ATOM     21  C   UNL     1       5.608  -0.178   6.865  1.00  0.00     0.029 A 
ATOM     22  C   UNL     1       6.507  -1.190   7.408  1.00  0.00     0.049 A 
ATOM     23  H   UNL     1       7.031  -3.016   6.549  1.00  0.00     0.167 HD
ATOM     24  C   UNL     1       7.987  -6.836   4.676  1.00  0.00     0.034 A 
ATOM     25  C   UNL     1       7.152  -1.097   8.587  1.00  0.00     0.034 A 
ATOM     26  C   UNL     1       8.779  -6.794   5.878  1.00  0.00     0.049 A 
ATOM     27  C   UNL     1       8.089  -2.198   8.992  1.00  0.00     0.074 A 
ATOM     28  C   UNL     1       9.657  -7.748   6.364  1.00  0.00     0.029 A 
ATOM     29  N   UNL     1       8.794  -5.744   6.783  1.00  0.00    -0.354 N 
ATOM     30  N   UNL     1       8.402  -3.293   8.344  1.00  0.00    -0.248 NA
ATOM     31  C   UNL     1       8.789  -2.035  10.274  1.00  0.00     0.031 C 
ATOM     32  C   UNL     1      10.200  -7.275   7.564  1.00  0.00     0.029 A 
ATOM     33  C   UNL     1       9.668  -6.023   7.821  1.00  0.00     0.049 A 
ATOM     34  H   UNL     1       8.261  -4.920   6.700  1.00  0.00     0.167 HD
ATOM     35  C   UNL     1       9.340  -3.946   9.133  1.00  0.00     0.074 A 
ATOM     36  C   UNL     1       9.579  -3.100  10.285  1.00  0.00     0.031 C 
ATOM     37  C   UNL     1       9.929  -5.152   8.937  1.00  0.00     0.034 A 
BRANCH  24  38
ATOM     38  C   UNL     1       8.115  -8.050   3.791  1.00  0.00     0.023 A 
ATOM     39  C   UNL     1       8.885  -7.961   2.614  1.00  0.00     0.012 A 
ATOM     40  C   UNL     1       7.553  -9.289   4.157  1.00  0.00     0.148 A 
ATOM     41  C   UNL     1       9.076  -9.079   1.802  1.00  0.00     0.002 A 
ATOM     42  C   UNL     1       7.778 -10.408   3.361  1.00  0.00     0.091 A 
ATOM     43  F   UNL     1       6.808  -9.350   5.270  1.00  0.00    -0.205 F 
ATOM     44  C   UNL     1       8.533 -10.303   2.182  1.00  0.00     0.022 A 
BRANCH  42  45
ATOM     45  S   UNL     1       7.180 -12.046   3.798  1.00  0.00     0.127 S 
ATOM     46  O   UNL     1       6.104 -12.235   2.826  1.00  0.00    -0.237 OA
ATOM     47  O   UNL     1       8.362 -12.878   3.568  1.00  0.00    -0.237 OA
ATOM     48  O   UNL     1       6.761 -11.961   5.190  1.00  0.00    -0.744 OA
ENDBRANCH  42  45
ENDBRANCH  24  38
BRANCH  25  49
ATOM     49  C   UNL     1       6.969   0.116   9.431  1.00  0.00     0.023 A 
ATOM     50  C   UNL     1       8.032   1.027   9.583  1.00  0.00     0.012 A 
ATOM     51  C   UNL     1       5.730   0.401  10.035  1.00  0.00     0.148 A 
ATOM     52  C   UNL     1       7.869   2.188  10.341  1.00  0.00     0.002 A 
ATOM     53  C   UNL     1       5.556   1.589  10.735  1.00  0.00     0.091 A 
ATOM     54  F   UNL     1       4.734  -0.488   9.901  1.00  0.00    -0.205 F 
ATOM     55  C   UNL     1       6.628   2.477  10.903  1.00  0.00     0.022 A 
BRANCH  53  56
ATOM     56  S   UNL     1       3.941   2.090  11.340  1.00  0.00     0.127 S 
ATOM     57  O   UNL     1       3.995   1.661  12.734  1.00  0.00    -0.237 OA
ATOM     58  O   UNL     1       3.967   3.540  11.139  1.00  0.00    -0.237 OA
ATOM     59  O   UNL     1       2.986   1.393  10.488  1.00  0.00    -0.744 OA
ENDBRANCH  53  56
ENDBRANCH  25  49
BRANCH  37  60
ATOM     60  C   UNL     1      10.887  -5.627   9.995  1.00  0.00     0.023 A 
ATOM     61  C   UNL     1      10.383  -6.077  11.232  1.00  0.00     0.012 A 
ATOM     62  C   UNL     1      12.274  -5.670   9.756  1.00  0.00     0.148 A 
ATOM     63  C   UNL     1      11.247  -6.530  12.228  1.00  0.00     0.002 A 
ATOM     64  C   UNL     1      13.126  -6.162  10.739  1.00  0.00     0.091 A 
ATOM     65  F   UNL     1      12.738  -5.215   8.583  1.00  0.00    -0.205 F 
ATOM     66  C   UNL     1      12.616  -6.582  11.978  1.00  0.00     0.022 A 
BRANCH  64  67
ATOM     67  S   UNL     1      14.893  -6.338  10.465  1.00  0.00     0.127 S 
ATOM     68  O   UNL     1      15.419  -5.154  11.141  1.00  0.00    -0.237 OA
ATOM     69  O   UNL     1      15.193  -7.605  11.133  1.00  0.00    -0.237 OA
ATOM     70  O   UNL     1      15.065  -6.369   9.018  1.00  0.00    -0.744 OA
ENDBRANCH  64  67
ENDBRANCH  37  60
ENDBRANCH  11  12
ENDBRANCH   4   6
ENDBRANCH   1   2
BRANCH   1  71
ATOM     71  C   UNL     1       4.945  -0.119  -2.699  1.00  0.00     0.042 C 
BRANCH  71  72
ATOM     72  C   UNL     1       4.336   0.522  -3.939  1.00  0.00     0.118 C 
BRANCH  72  73
ATOM     73  N   UNL     1       4.766   1.898  -4.136  1.00  0.00    -0.352 N 
ATOM     74  C   UNL     1       5.592   2.467  -5.071  1.00  0.00     0.251 C 
ATOM     75  H   UNL     1       4.398   2.534  -3.481  1.00  0.00     0.163 HD
ATOM     76  O   UNL     1       5.937   3.638  -4.931  1.00  0.00    -0.269 OA
BRANCH  74  77
ATOM     77  C   UNL     1       6.097   1.704  -6.234  1.00  0.00     0.039 A 
ATOM     78  C   UNL     1       7.428   1.877  -6.613  1.00  0.00     0.016 A 
ATOM     79  C   UNL     1       5.280   0.878  -7.002  1.00  0.00     0.016 A 
ATOM     80  C   UNL     1       7.952   1.174  -7.707  1.00  0.00     0.027 A 
ATOM     81  C   UNL     1       5.818   0.152  -8.075  1.00  0.00     0.027 A 
ATOM     82  C   UNL     1       7.165   0.283  -8.456  1.00  0.00     0.051 A 
BRANCH  82  83
ATOM     83  N   UNL     1       7.730  -0.534  -9.499  1.00  0.00    -0.261 N 
ATOM     84  C   UNL     1       9.059  -0.960  -9.421  1.00  0.00     0.270 C 
ATOM     85  C   UNL     1       7.076  -0.941 -10.658  1.00  0.00     0.152 C 
ATOM     86  O   UNL     1      10.003  -0.407  -8.881  1.00  0.00    -0.268 OA
ATOM     87  C   UNL     1       9.238  -2.166 -10.277  1.00  0.00     0.081 C 
ATOM     88  S   UNL     1       8.102  -2.068 -11.569  1.00  0.00    -0.054 SA
ATOM     89  S   UNL     1       5.612  -0.463 -11.317  1.00  0.00    -0.051 S 
ATOM     90  C   UNL     1       9.945  -3.283 -10.044  1.00  0.00     0.028 C 
BRANCH  90  91
ATOM     91  C   UNL     1      10.609  -3.736  -8.811  1.00  0.00    -0.009 C 
ATOM     92  C   UNL     1      10.899  -2.936  -7.765  1.00  0.00     0.019 C 
ATOM     93  C   UNL     1      10.026  -5.071  -8.348  1.00  0.00     0.265 C 
ATOM     94  C   UNL     1       9.720  -2.814  -6.856  1.00  0.00     0.017 A 
ATOM     95  O   UNL     1       8.722  -4.856  -7.762  1.00  0.00    -0.488 OA
ATOM     96  C   UNL     1       9.610  -1.724  -5.990  1.00  0.00     0.012 A 
ATOM     97  C   UNL     1       8.670  -3.749  -6.939  1.00  0.00     0.127 A 
ATOM     98  C   UNL     1       8.435  -1.535  -5.260  1.00  0.00     0.001 A 
ATOM     99  C   UNL     1       7.492  -3.546  -6.226  1.00  0.00     0.047 A 
ATOM    100  C   UNL     1       7.373  -2.432  -5.393  1.00  0.00     0.004 A 
ENDBRANCH  90  91
ENDBRANCH  82  83
ENDBRANCH  74  77
ENDBRANCH  72  73
ENDBRANCH  71  72
ENDBRANCH   1  71
TORSDOF 15
