REMARK SMILES COc1ccc(-c2cc(CC3(C(=O)NCCCNC(=O)c4ccc(-c5c6nc(c(-c7cccc(S(=O)(=O)[O-])c7F)c7ccc([nH]7)c(-c7cccc(S(=O)(=O)[O-])c7F)c7nc(c(-c8cccc(S(=O)(=O)[O-])c8F)c8ccc5[nH]8)C=C7)C=C6)cc4)CCN(C(=O)C4CCCC4)CC3)on2)cc1
REMARK SMILES IDX 15 1 14 2 12 3 13 4 11 6 84 7 95 8 85 9 94 10 86 11 87 12
REMARK SMILES IDX 88 13 10 14 9 15 7 16 8 17 97 18 96 19 6 20 3 21 4 22 99 23
REMARK SMILES IDX 5 24 98 25 2 26 1 27 89 28 90 29 93 30 91 31 92 32 16 33
REMARK SMILES IDX 17 34 18 35 19 36 20 38 21 39 22 40 83 41 23 42 82 43 24 44
REMARK SMILES IDX 25 45 26 46 76 47 27 48 81 49 75 50 77 51 28 52 80 53 74 54
REMARK SMILES IDX 73 55 29 57 61 58 41 59 60 60 42 61 45 62 59 63 78 64 43 65
REMARK SMILES IDX 44 66 58 68 79 69 46 70 30 71 31 72 39 73 32 74 34 75 40 76
REMARK SMILES IDX 33 77 35 78 36 79 37 80 38 81 62 82 63 83 71 84 64 85 66 86
REMARK SMILES IDX 72 87 65 88 67 89 68 90 69 91 70 92 47 93 48 94 56 95 49 96
REMARK SMILES IDX 51 97 57 98 50 99 52 100 53 101 54 102 55 103
REMARK H PARENT 14 5 18 37 77 56 45 67
REMARK Flexibility Score: inf
ROOT
ATOM      1  C   UNL     1       3.252   8.788  -9.896  1.00  0.00     0.117 C 
ENDROOT
BRANCH   1   2
ATOM      2  N   UNL     1       4.565   8.399  -9.396  1.00  0.00    -0.356 N 
ATOM      3  C   UNL     1       4.956   7.716  -8.283  1.00  0.00     0.226 C 
ATOM      4  O   UNL     1       6.170   7.524  -8.164  1.00  0.00    -0.274 OA
ATOM      5  H   UNL     1       5.312   8.683  -9.972  1.00  0.00     0.163 HD
BRANCH   3   6
ATOM      6  C   UNL     1       3.945   7.168  -7.243  1.00  0.00     0.060 C 
ATOM      7  C   UNL     1       3.162   8.367  -6.643  1.00  0.00     0.039 C 
ATOM      8  C   UNL     1       3.069   6.105  -7.958  1.00  0.00     0.039 C 
ATOM      9  C   UNL     1       1.695   8.134  -6.296  1.00  0.00     0.120 C 
ATOM     10  C   UNL     1       1.665   5.950  -7.393  1.00  0.00     0.120 C 
ATOM     11  N   UNL     1       1.009   7.233  -7.215  1.00  0.00    -0.342 N 
ATOM     12  C   UNL     1      -0.284   7.565  -7.599  1.00  0.00     0.225 C 
ATOM     13  O   UNL     1      -0.783   8.651  -7.290  1.00  0.00    -0.275 OA
BRANCH   6  14
ATOM     14  C   UNL     1       4.800   6.482  -6.123  1.00  0.00     0.095 C 
BRANCH  14  15
ATOM     15  C   UNL     1       4.011   5.748  -5.103  1.00  0.00     0.138 A 
ATOM     16  C   UNL     1       2.818   4.425  -3.806  1.00  0.00     0.114 A 
ATOM     17  C   UNL     1       3.720   4.422  -4.897  1.00  0.00     0.077 A 
ATOM     18  N   UNL     1       2.615   5.670  -3.358  1.00  0.00    -0.080 NA
ATOM     19  O   UNL     1       3.396   6.491  -4.148  1.00  0.00    -0.361 OA
BRANCH  16  20
ATOM     20  C   UNL     1       2.189   3.282  -3.179  1.00  0.00     0.004 A 
ATOM     21  C   UNL     1       1.014   1.106  -1.879  1.00  0.00     0.118 A 
ATOM     22  C   UNL     1       0.231   1.958  -2.660  1.00  0.00     0.047 A 
ATOM     23  C   UNL     1       2.391   1.312  -1.787  1.00  0.00     0.047 A 
ATOM     24  C   UNL     1       0.813   3.056  -3.300  1.00  0.00     0.014 A 
ATOM     25  C   UNL     1       2.977   2.399  -2.435  1.00  0.00     0.014 A 
BRANCH  21  26
ATOM     26  O   UNL     1       0.364   0.068  -1.268  1.00  0.00    -0.497 OA
ATOM     27  C   UNL     1       0.784  -0.148   0.079  1.00  0.00     0.278 C 
ENDBRANCH  21  26
ENDBRANCH  16  20
ENDBRANCH  14  15
ENDBRANCH   6  14
BRANCH  12  28
ATOM     28  C   UNL     1      -1.143   6.603  -8.415  1.00  0.00     0.078 C 
ATOM     29  C   UNL     1      -0.581   6.244  -9.784  1.00  0.00     0.013 C 
ATOM     30  C   UNL     1      -1.484   5.295  -7.705  1.00  0.00     0.013 C 
ATOM     31  C   UNL     1      -1.183   4.887 -10.110  1.00  0.00     0.001 C 
ATOM     32  C   UNL     1      -1.512   4.216  -8.782  1.00  0.00     0.001 C 
ENDBRANCH  12  28
ENDBRANCH   3   6
ENDBRANCH   1   2
BRANCH   1  33
ATOM     33  C   UNL     1       3.043  10.297  -9.903  1.00  0.00     0.042 C 
BRANCH  33  34
ATOM     34  C   UNL     1       3.985  11.057 -10.826  1.00  0.00     0.118 C 
BRANCH  34  35
ATOM     35  N   UNL     1       3.776  10.737 -12.231  1.00  0.00    -0.352 N 
ATOM     36  C   UNL     1       3.379  11.543 -13.271  1.00  0.00     0.251 C 
ATOM     37  H   UNL     1       3.946   9.798 -12.473  1.00  0.00     0.163 HD
ATOM     38  O   UNL     1       3.083  11.031 -14.346  1.00  0.00    -0.269 OA
BRANCH  36  39
ATOM     39  C   UNL     1       3.292  13.011 -13.098  1.00  0.00     0.039 A 
ATOM     40  C   UNL     1       2.219  13.696 -13.675  1.00  0.00     0.014 A 
ATOM     41  C   UNL     1       4.268  13.719 -12.392  1.00  0.00     0.014 A 
ATOM     42  C   UNL     1       2.096  15.076 -13.492  1.00  0.00     0.010 A 
ATOM     43  C   UNL     1       4.092  15.075 -12.130  1.00  0.00     0.010 A 
ATOM     44  C   UNL     1       3.012  15.774 -12.688  1.00  0.00    -0.014 A 
BRANCH  44  45
ATOM     45  C   UNL     1       2.855  17.228 -12.421  1.00  0.00     0.031 A 
ATOM     46  C   UNL     1       3.924  18.202 -12.844  1.00  0.00     0.074 A 
ATOM     47  C   UNL     1       1.786  17.665 -11.725  1.00  0.00     0.049 A 
ATOM     48  N   UNL     1       3.978  19.497 -12.663  1.00  0.00    -0.248 NA
ATOM     49  C   UNL     1       5.100  17.648 -13.536  1.00  0.00     0.031 C 
ATOM     50  C   UNL     1       0.725  16.814 -11.180  1.00  0.00     0.029 A 
ATOM     51  N   UNL     1       1.427  18.931 -11.334  1.00  0.00    -0.354 N 
ATOM     52  C   UNL     1       5.202  19.904 -13.181  1.00  0.00     0.074 A 
ATOM     53  C   UNL     1       5.878  18.715 -13.650  1.00  0.00     0.031 C 
ATOM     54  C   UNL     1      -0.169  17.582 -10.537  1.00  0.00     0.029 A 
ATOM     55  C   UNL     1       0.267  18.973 -10.595  1.00  0.00     0.049 A 
ATOM     56  H   UNL     1       1.950  19.734 -11.561  1.00  0.00     0.167 HD
ATOM     57  C   UNL     1       5.706  21.157 -13.287  1.00  0.00     0.034 A 
ATOM     58  C   UNL     1      -0.371  20.013 -10.024  1.00  0.00     0.034 A 
ATOM     59  C   UNL     1       5.012  22.343 -12.862  1.00  0.00     0.049 A 
ATOM     60  C   UNL     1       0.186  21.400 -10.199  1.00  0.00     0.074 A 
ATOM     61  C   UNL     1       5.396  23.664 -13.012  1.00  0.00     0.029 A 
ATOM     62  N   UNL     1       3.796  22.353 -12.198  1.00  0.00    -0.354 N 
ATOM     63  N   UNL     1       1.265  21.781 -10.840  1.00  0.00    -0.248 NA
ATOM     64  C   UNL     1      -0.582  22.505  -9.607  1.00  0.00     0.031 C 
ATOM     65  C   UNL     1       4.424  24.472 -12.414  1.00  0.00     0.029 A 
ATOM     66  C   UNL     1       3.418  23.656 -11.921  1.00  0.00     0.049 A 
ATOM     67  H   UNL     1       3.277  21.552 -11.958  1.00  0.00     0.167 HD
ATOM     68  C   UNL     1       1.285  23.169 -10.761  1.00  0.00     0.074 A 
ATOM     69  C   UNL     1       0.098  23.562 -10.029  1.00  0.00     0.031 C 
ATOM     70  C   UNL     1       2.208  24.038 -11.239  1.00  0.00     0.034 A 
BRANCH  57  71
ATOM     71  C   UNL     1       7.056  21.318 -13.938  1.00  0.00     0.023 A 
ATOM     72  C   UNL     1       7.191  21.099 -15.325  1.00  0.00     0.012 A 
ATOM     73  C   UNL     1       8.175  21.745 -13.196  1.00  0.00     0.148 A 
ATOM     74  C   UNL     1       8.423  21.266 -15.956  1.00  0.00     0.002 A 
ATOM     75  C   UNL     1       9.389  21.955 -13.841  1.00  0.00     0.091 A 
ATOM     76  F   UNL     1       8.034  21.929 -11.876  1.00  0.00    -0.205 F 
ATOM     77  C   UNL     1       9.518  21.704 -15.217  1.00  0.00     0.022 A 
BRANCH  75  78
ATOM     78  S   UNL     1      10.838  22.597 -12.995  1.00  0.00     0.127 S 
ATOM     79  O   UNL     1      11.715  21.427 -12.984  1.00  0.00    -0.237 OA
ATOM     80  O   UNL     1      11.267  23.670 -13.893  1.00  0.00    -0.237 OA
ATOM     81  O   UNL     1      10.377  23.045 -11.689  1.00  0.00    -0.744 OA
ENDBRANCH  75  78
ENDBRANCH  57  71
BRANCH  58  82
ATOM     82  C   UNL     1      -1.649  19.791  -9.288  1.00  0.00     0.023 A 
ATOM     83  C   UNL     1      -2.857  20.260  -9.842  1.00  0.00     0.012 A 
ATOM     84  C   UNL     1      -1.677  19.103  -8.060  1.00  0.00     0.148 A 
ATOM     85  C   UNL     1      -4.065  20.078  -9.169  1.00  0.00     0.002 A 
ATOM     86  C   UNL     1      -2.891  18.877  -7.422  1.00  0.00     0.091 A 
ATOM     87  F   UNL     1      -0.516  18.674  -7.546  1.00  0.00    -0.205 F 
ATOM     88  C   UNL     1      -4.084  19.379  -7.965  1.00  0.00     0.022 A 
BRANCH  86  89
ATOM     89  S   UNL     1      -3.027  17.879  -5.935  1.00  0.00     0.127 S 
ATOM     90  O   UNL     1      -3.348  18.886  -4.928  1.00  0.00    -0.237 OA
ATOM     91  O   UNL     1      -4.127  16.977  -6.278  1.00  0.00    -0.237 OA
ATOM     92  O   UNL     1      -1.735  17.222  -5.785  1.00  0.00    -0.744 OA
ENDBRANCH  86  89
ENDBRANCH  58  82
BRANCH  70  93
ATOM     93  C   UNL     1       1.960  25.509 -11.029  1.00  0.00     0.023 A 
ATOM     94  C   UNL     1       2.090  26.068  -9.743  1.00  0.00     0.012 A 
ATOM     95  C   UNL     1       1.668  26.349 -12.123  1.00  0.00     0.148 A 
ATOM     96  C   UNL     1       1.898  27.435  -9.542  1.00  0.00     0.002 A 
ATOM     97  C   UNL     1       1.529  27.717 -11.923  1.00  0.00     0.091 A 
ATOM     98  F   UNL     1       1.530  25.795 -13.336  1.00  0.00    -0.205 F 
ATOM     99  C   UNL     1       1.630  28.260 -10.632  1.00  0.00     0.022 A 
BRANCH  97 100
ATOM    100  S   UNL     1       1.282  28.867 -13.281  1.00  0.00     0.127 S 
ATOM    101  O   UNL     1      -0.117  29.247 -13.098  1.00  0.00    -0.237 OA
ATOM    102  O   UNL     1       2.247  29.923 -12.972  1.00  0.00    -0.237 OA
ATOM    103  O   UNL     1       1.574  28.121 -14.497  1.00  0.00    -0.744 OA
ENDBRANCH  97 100
ENDBRANCH  70  93
ENDBRANCH  44  45
ENDBRANCH  36  39
ENDBRANCH  34  35
ENDBRANCH  33  34
ENDBRANCH   1  33
TORSDOF 18
