REMARK SMILES C[C@H](NC(=O)NCCc1ccccc1F)C(=O)NCCCNC(=O)c1ccc(-c2c3nc(c(-c4cccc(S(=O)(=O)[O-])c4F)c4ccc([nH]4)c(-c4cccc(S(=O)(=O)[O-])c4F)c4nc(c(-c5cccc(S(=O)(=O)[O-])c5F)c5ccc2[nH]5)C=C4)C=C3)cc1
REMARK SMILES IDX 19 1 18 2 16 3 17 4 2 6 1 7 3 8 4 9 5 11 6 12 7 14 8 15 9 16
REMARK SMILES IDX 10 17 14 18 11 19 13 20 15 21 12 22 20 23 21 24 22 25 23 26
REMARK SMILES IDX 24 28 25 29 26 30 87 31 27 32 86 33 28 34 29 35 30 36 80 37
REMARK SMILES IDX 31 38 85 39 79 40 81 41 32 42 84 43 78 44 77 45 33 47 65 48
REMARK SMILES IDX 45 49 64 50 46 51 49 52 63 53 82 54 47 55 48 56 62 58 83 59
REMARK SMILES IDX 50 60 34 61 35 62 43 63 36 64 38 65 44 66 37 67 39 68 40 69
REMARK SMILES IDX 41 70 42 71 66 72 67 73 75 74 68 75 70 76 76 77 69 78 71 79
REMARK SMILES IDX 72 80 73 81 74 82 51 83 52 84 60 85 53 86 55 87 61 88 54 89
REMARK SMILES IDX 56 90 57 91 58 92 59 93
REMARK H PARENT 18 5 3 10 6 13 22 27 81 46 49 57
REMARK Flexibility Score: inf
ROOT
ATOM      1  C   UNL     1      -1.184  -0.516   2.095  1.00  0.00     0.117 C 
ENDROOT
BRANCH   1   2
ATOM      2  N   UNL     1      -1.820  -0.700   0.800  1.00  0.00    -0.354 N 
ATOM      3  C   UNL     1      -1.344  -1.315  -0.318  1.00  0.00     0.242 C 
ATOM      4  O   UNL     1      -2.131  -1.544  -1.239  1.00  0.00    -0.273 OA
ATOM      5  H   UNL     1      -2.727  -0.325   0.720  1.00  0.00     0.163 HD
BRANCH   3   6
ATOM      6  C   UNL     1       0.107  -1.804  -0.371  1.00  0.00     0.170 C 
ATOM      7  C   UNL     1       0.277  -2.978   0.597  1.00  0.00     0.041 C 
BRANCH   6   8
ATOM      8  N   UNL     1       1.026  -0.697  -0.129  1.00  0.00    -0.327 N 
ATOM      9  C   UNL     1       2.344  -0.538  -0.274  1.00  0.00     0.315 C 
ATOM     10  H   UNL     1       0.577   0.109   0.215  1.00  0.00     0.166 HD
ATOM     11  O   UNL     1       2.836   0.548   0.033  1.00  0.00    -0.249 OA
ATOM     12  N   UNL     1       3.161  -1.492  -0.732  1.00  0.00    -0.338 N 
ATOM     13  H   UNL     1       4.104  -1.210  -0.758  1.00  0.00     0.165 HD
BRANCH  12  14
ATOM     14  C   UNL     1       2.964  -2.851  -1.200  1.00  0.00     0.122 C 
BRANCH  14  15
ATOM     15  C   UNL     1       3.717  -3.143  -2.494  1.00  0.00     0.060 C 
BRANCH  15  16
ATOM     16  C   UNL     1       5.169  -3.408  -2.224  1.00  0.00    -0.010 A 
ATOM     17  C   UNL     1       6.149  -2.469  -2.560  1.00  0.00     0.007 A 
ATOM     18  C   UNL     1       5.550  -4.583  -1.567  1.00  0.00     0.126 A 
ATOM     19  C   UNL     1       7.482  -2.708  -2.228  1.00  0.00     0.000 A 
ATOM     20  C   UNL     1       6.874  -4.822  -1.227  1.00  0.00     0.039 A 
ATOM     21  F   UNL     1       4.619  -5.488  -1.229  1.00  0.00    -0.207 F 
ATOM     22  C   UNL     1       7.844  -3.879  -1.558  1.00  0.00     0.003 A 
ENDBRANCH  15  16
ENDBRANCH  14  15
ENDBRANCH  12  14
ENDBRANCH   6   8
ENDBRANCH   3   6
ENDBRANCH   1   2
BRANCH   1  23
ATOM     23  C   UNL     1      -1.565   0.801   2.735  1.00  0.00     0.042 C 
BRANCH  23  24
ATOM     24  C   UNL     1      -3.056   0.927   2.994  1.00  0.00     0.118 C 
BRANCH  24  25
ATOM     25  N   UNL     1      -3.580  -0.137   3.845  1.00  0.00    -0.352 N 
ATOM     26  C   UNL     1      -4.257  -0.033   5.038  1.00  0.00     0.251 C 
ATOM     27  H   UNL     1      -3.429  -1.054   3.521  1.00  0.00     0.163 HD
ATOM     28  O   UNL     1      -4.476  -1.024   5.718  1.00  0.00    -0.269 OA
BRANCH  26  29
ATOM     29  C   UNL     1      -4.690   1.306   5.484  1.00  0.00     0.039 A 
ATOM     30  C   UNL     1      -4.426   1.710   6.792  1.00  0.00     0.014 A 
ATOM     31  C   UNL     1      -5.281   2.183   4.571  1.00  0.00     0.014 A 
ATOM     32  C   UNL     1      -4.687   3.029   7.160  1.00  0.00     0.010 A 
ATOM     33  C   UNL     1      -5.421   3.520   4.903  1.00  0.00     0.010 A 
ATOM     34  C   UNL     1      -5.143   3.955   6.206  1.00  0.00    -0.014 A 
BRANCH  34  35
ATOM     35  C   UNL     1      -5.339   5.385   6.547  1.00  0.00     0.031 A 
ATOM     36  C   UNL     1      -6.697   6.014   6.388  1.00  0.00     0.074 A 
ATOM     37  C   UNL     1      -4.280   6.133   6.918  1.00  0.00     0.049 A 
ATOM     38  N   UNL     1      -7.057   7.252   6.602  1.00  0.00    -0.248 NA
ATOM     39  C   UNL     1      -7.787   5.155   5.891  1.00  0.00     0.031 C 
ATOM     40  C   UNL     1      -2.898   5.656   7.006  1.00  0.00     0.029 A 
ATOM     41  N   UNL     1      -4.197   7.455   7.275  1.00  0.00    -0.354 N 
ATOM     42  C   UNL     1      -8.394   7.326   6.233  1.00  0.00     0.074 A 
ATOM     43  C   UNL     1      -8.772   6.026   5.732  1.00  0.00     0.031 C 
ATOM     44  C   UNL     1      -2.111   6.660   7.422  1.00  0.00     0.029 A 
ATOM     45  C   UNL     1      -2.922   7.860   7.600  1.00  0.00     0.049 A 
ATOM     46  H   UNL     1      -4.975   8.057   7.297  1.00  0.00     0.167 HD
ATOM     47  C   UNL     1      -9.243   8.372   6.343  1.00  0.00     0.034 A 
ATOM     48  C   UNL     1      -2.462   9.061   8.003  1.00  0.00     0.034 A 
ATOM     49  C   UNL     1      -8.876   9.639   6.908  1.00  0.00     0.049 A 
ATOM     50  C   UNL     1      -3.439  10.190   8.182  1.00  0.00     0.074 A 
ATOM     51  C   UNL     1      -9.686  10.730   7.162  1.00  0.00     0.029 A 
ATOM     52  N   UNL     1      -7.595   9.983   7.310  1.00  0.00    -0.354 N 
ATOM     53  N   UNL     1      -4.735  10.194   7.979  1.00  0.00    -0.248 NA
ATOM     54  C   UNL     1      -2.907  11.467   8.679  1.00  0.00     0.031 C 
ATOM     55  C   UNL     1      -8.890  11.744   7.698  1.00  0.00     0.029 A 
ATOM     56  C   UNL     1      -7.590  11.274   7.805  1.00  0.00     0.049 A 
ATOM     57  H   UNL     1      -6.806   9.397   7.252  1.00  0.00     0.167 HD
ATOM     58  C   UNL     1      -5.178  11.457   8.354  1.00  0.00     0.074 A 
ATOM     59  C   UNL     1      -4.014  12.189   8.809  1.00  0.00     0.031 C 
ATOM     60  C   UNL     1      -6.433  11.965   8.313  1.00  0.00     0.034 A 
BRANCH  47  61
ATOM     61  C   UNL     1     -10.675   8.172   5.922  1.00  0.00     0.023 A 
ATOM     62  C   UNL     1     -11.521   7.363   6.708  1.00  0.00     0.012 A 
ATOM     63  C   UNL     1     -11.206   8.856   4.812  1.00  0.00     0.148 A 
ATOM     64  C   UNL     1     -12.868   7.218   6.382  1.00  0.00     0.002 A 
ATOM     65  C   UNL     1     -12.560   8.746   4.522  1.00  0.00     0.091 A 
ATOM     66  F   UNL     1     -10.380   9.602   4.065  1.00  0.00    -0.205 F 
ATOM     67  C   UNL     1     -13.390   7.920   5.299  1.00  0.00     0.022 A 
BRANCH  65  68
ATOM     68  S   UNL     1     -13.351   9.677   3.205  1.00  0.00     0.127 S 
ATOM     69  O   UNL     1     -13.702   8.616   2.263  1.00  0.00    -0.237 OA
ATOM     70  O   UNL     1     -14.490  10.280   3.897  1.00  0.00    -0.237 OA
ATOM     71  O   UNL     1     -12.355  10.627   2.729  1.00  0.00    -0.744 OA
ENDBRANCH  65  68
ENDBRANCH  47  61
BRANCH  48  72
ATOM     72  C   UNL     1      -1.022   9.214   8.356  1.00  0.00     0.023 A 
ATOM     73  C   UNL     1      -0.655   9.353   9.709  1.00  0.00     0.012 A 
ATOM     74  C   UNL     1      -0.012   9.145   7.376  1.00  0.00     0.148 A 
ATOM     75  C   UNL     1       0.688   9.437  10.079  1.00  0.00     0.002 A 
ATOM     76  C   UNL     1       1.325   9.172   7.756  1.00  0.00     0.091 A 
ATOM     77  F   UNL     1      -0.382   9.021   6.094  1.00  0.00    -0.205 F 
ATOM     78  C   UNL     1       1.677   9.333   9.105  1.00  0.00     0.022 A 
BRANCH  76  79
ATOM     79  S   UNL     1       2.666   8.901   6.591  1.00  0.00     0.127 S 
ATOM     80  O   UNL     1       3.299  10.216   6.553  1.00  0.00    -0.237 OA
ATOM     81  O   UNL     1       3.443   7.861   7.266  1.00  0.00    -0.237 OA
ATOM     82  O   UNL     1       2.030   8.469   5.354  1.00  0.00    -0.744 OA
ENDBRANCH  76  79
ENDBRANCH  48  72
BRANCH  60  83
ATOM     83  C   UNL     1      -6.651  13.372   8.798  1.00  0.00     0.023 A 
ATOM     84  C   UNL     1      -6.264  14.456   7.987  1.00  0.00     0.012 A 
ATOM     85  C   UNL     1      -7.388  13.611   9.976  1.00  0.00     0.148 A 
ATOM     86  C   UNL     1      -6.602  15.760   8.345  1.00  0.00     0.002 A 
ATOM     87  C   UNL     1      -7.764  14.908  10.300  1.00  0.00     0.091 A 
ATOM     88  F   UNL     1      -7.735  12.561  10.735  1.00  0.00    -0.205 F 
ATOM     89  C   UNL     1      -7.365  15.984   9.490  1.00  0.00     0.022 A 
BRANCH  87  90
ATOM     90  S   UNL     1      -8.839  15.284  11.688  1.00  0.00     0.127 S 
ATOM     91  O   UNL     1      -7.936  16.017  12.573  1.00  0.00    -0.237 OA
ATOM     92  O   UNL     1      -9.877  16.103  11.061  1.00  0.00    -0.237 OA
ATOM     93  O   UNL     1      -9.303  14.002  12.201  1.00  0.00    -0.744 OA
ENDBRANCH  87  90
ENDBRANCH  60  83
ENDBRANCH  34  35
ENDBRANCH  26  29
ENDBRANCH  24  25
ENDBRANCH  23  24
ENDBRANCH   1  23
TORSDOF 17
