REMARK SMILES O=C(NCCCNC(=O)[C@H]1CCCN(C(=O)C2CC[NH+](Cc3ccco3)CC2)C1)c1ccc(-c2c3nc(c(-c4cccc(S(=O)(=O)[O-])c4F)c4ccc([nH]4)c(-c4cccc(S(=O)(=O)[O-])c4F)c4nc(c(-c5cccc(S(=O)(=O)[O-])c5F)c5ccc2[nH]5)C=C4)C=C3)cc1
REMARK SMILES IDX 5 1 4 2 3 3 1 4 2 5 30 7 31 8 92 9 32 10 91 11 33 12 34 13
REMARK SMILES IDX 35 14 85 15 36 16 90 17 84 18 86 19 37 20 89 21 83 22 82 23
REMARK SMILES IDX 38 25 70 26 50 27 69 28 51 29 54 30 68 31 87 32 52 33 53 34
REMARK SMILES IDX 67 36 88 37 55 38 39 39 40 40 48 41 41 42 43 43 49 44 42 45
REMARK SMILES IDX 44 46 45 47 46 48 47 49 71 50 72 51 80 52 73 53 75 54 81 55
REMARK SMILES IDX 74 56 76 57 77 58 78 59 79 60 56 61 57 62 65 63 58 64 60 65
REMARK SMILES IDX 66 66 59 67 61 68 62 69 63 70 64 71 6 72 7 73 8 74 9 76
REMARK SMILES IDX 10 77 11 78 29 79 12 80 14 81 13 82 15 83 16 84 17 85 18 86
REMARK SMILES IDX 28 87 19 88 27 89 20 90 21 92 22 93 23 94 26 95 24 96 25 97
REMARK H PARENT 3 6 86 24 54 35 7 75 20 91
REMARK Flexibility Score: inf
ROOT
ATOM      1  C   UNL     1       4.231   2.241   0.926  1.00  0.00     0.042 C 
ENDROOT
BRANCH   1   2
ATOM      2  C   UNL     1       3.928   1.870  -0.516  1.00  0.00     0.118 C 
BRANCH   2   3
ATOM      3  N   UNL     1       4.515   0.579  -0.847  1.00  0.00    -0.352 N 
ATOM      4  O   UNL     1       4.468  -1.670  -0.956  1.00  0.00    -0.269 OA
ATOM      5  C   UNL     1       3.865  -0.601  -1.072  1.00  0.00     0.251 C 
ATOM      6  H   UNL     1       5.496   0.554  -0.917  1.00  0.00     0.163 HD
BRANCH   5   7
ATOM      7  C   UNL     1       2.448  -0.558  -1.469  1.00  0.00     0.039 A 
ATOM      8  C   UNL     1       2.025   0.426  -2.369  1.00  0.00     0.014 A 
ATOM      9  C   UNL     1       1.551  -1.501  -0.969  1.00  0.00     0.014 A 
ATOM     10  C   UNL     1       0.684   0.542  -2.682  1.00  0.00     0.010 A 
ATOM     11  C   UNL     1       0.218  -1.453  -1.376  1.00  0.00     0.010 A 
ATOM     12  C   UNL     1      -0.220  -0.433  -2.237  1.00  0.00    -0.014 A 
BRANCH  12  13
ATOM     13  C   UNL     1      -1.572  -0.455  -2.834  1.00  0.00     0.031 A 
ATOM     14  C   UNL     1      -2.800  -0.250  -2.004  1.00  0.00     0.074 A 
ATOM     15  C   UNL     1      -1.656  -0.685  -4.160  1.00  0.00     0.049 A 
ATOM     16  N   UNL     1      -4.048  -0.252  -2.388  1.00  0.00    -0.248 NA
ATOM     17  C   UNL     1      -2.614  -0.022  -0.561  1.00  0.00     0.031 C 
ATOM     18  C   UNL     1      -0.512  -0.944  -5.044  1.00  0.00     0.029 A 
ATOM     19  N   UNL     1      -2.737  -0.750  -4.997  1.00  0.00    -0.354 N 
ATOM     20  C   UNL     1      -4.801  -0.074  -1.236  1.00  0.00     0.074 A 
ATOM     21  C   UNL     1      -3.869   0.044  -0.135  1.00  0.00     0.031 C 
ATOM     22  C   UNL     1      -0.950  -1.121  -6.297  1.00  0.00     0.029 A 
ATOM     23  C   UNL     1      -2.404  -1.065  -6.294  1.00  0.00     0.049 A 
ATOM     24  H   UNL     1      -3.662  -0.586  -4.701  1.00  0.00     0.167 HD
ATOM     25  C   UNL     1      -6.148  -0.014  -1.120  1.00  0.00     0.034 A 
ATOM     26  C   UNL     1      -3.184  -1.327  -7.358  1.00  0.00     0.034 A 
ATOM     27  C   UNL     1      -7.055  -0.103  -2.234  1.00  0.00     0.049 A 
ATOM     28  C   UNL     1      -4.671  -1.241  -7.187  1.00  0.00     0.074 A 
ATOM     29  C   UNL     1      -8.431   0.040  -2.232  1.00  0.00     0.029 A 
ATOM     30  N   UNL     1      -6.684  -0.380  -3.541  1.00  0.00    -0.354 N 
ATOM     31  N   UNL     1      -5.359  -0.914  -6.120  1.00  0.00    -0.248 NA
ATOM     32  C   UNL     1      -5.490  -1.540  -8.367  1.00  0.00     0.031 C 
ATOM     33  C   UNL     1      -8.897  -0.194  -3.529  1.00  0.00     0.029 A 
ATOM     34  C   UNL     1      -7.808  -0.446  -4.347  1.00  0.00     0.049 A 
ATOM     35  H   UNL     1      -5.759  -0.511  -3.850  1.00  0.00     0.167 HD
ATOM     36  C   UNL     1      -6.691  -0.951  -6.504  1.00  0.00     0.074 A 
ATOM     37  C   UNL     1      -6.710  -1.292  -7.913  1.00  0.00     0.031 C 
ATOM     38  C   UNL     1      -7.802  -0.748  -5.755  1.00  0.00     0.034 A 
BRANCH  25  39
ATOM     39  C   UNL     1      -6.744   0.170   0.250  1.00  0.00     0.023 A 
ATOM     40  C   UNL     1      -6.695   1.433   0.873  1.00  0.00     0.012 A 
ATOM     41  C   UNL     1      -7.461  -0.878   0.861  1.00  0.00     0.148 A 
ATOM     42  C   UNL     1      -7.344   1.647   2.088  1.00  0.00     0.002 A 
ATOM     43  C   UNL     1      -8.140  -0.645   2.050  1.00  0.00     0.091 A 
ATOM     44  F   UNL     1      -7.478  -2.075   0.258  1.00  0.00    -0.205 F 
ATOM     45  C   UNL     1      -8.077   0.614   2.669  1.00  0.00     0.022 A 
BRANCH  43  46
ATOM     46  S   UNL     1      -9.178  -1.883   2.836  1.00  0.00     0.127 S 
ATOM     47  O   UNL     1      -8.457  -2.122   4.086  1.00  0.00    -0.237 OA
ATOM     48  O   UNL     1     -10.444  -1.167   2.990  1.00  0.00    -0.237 OA
ATOM     49  O   UNL     1      -9.222  -3.015   1.921  1.00  0.00    -0.744 OA
ENDBRANCH  43  46
ENDBRANCH  25  39
BRANCH  26  50
ATOM     50  C   UNL     1      -2.571  -1.702  -8.661  1.00  0.00     0.023 A 
ATOM     51  C   UNL     1      -2.698  -0.842  -9.768  1.00  0.00     0.012 A 
ATOM     52  C   UNL     1      -1.850  -2.905  -8.804  1.00  0.00     0.148 A 
ATOM     53  C   UNL     1      -2.153  -1.192 -11.004  1.00  0.00     0.002 A 
ATOM     54  C   UNL     1      -1.255  -3.216 -10.020  1.00  0.00     0.091 A 
ATOM     55  F   UNL     1      -1.751  -3.719  -7.744  1.00  0.00    -0.205 F 
ATOM     56  C   UNL     1      -1.424  -2.372 -11.127  1.00  0.00     0.022 A 
BRANCH  54  57
ATOM     57  S   UNL     1      -0.179  -4.641 -10.216  1.00  0.00     0.127 S 
ATOM     58  O   UNL     1      -1.044  -5.571 -10.935  1.00  0.00    -0.237 OA
ATOM     59  O   UNL     1       0.922  -4.086 -11.005  1.00  0.00    -0.237 OA
ATOM     60  O   UNL     1       0.196  -5.031  -8.863  1.00  0.00    -0.744 OA
ENDBRANCH  54  57
ENDBRANCH  26  50
BRANCH  38  61
ATOM     61  C   UNL     1      -9.130  -0.874  -6.451  1.00  0.00     0.023 A 
ATOM     62  C   UNL     1      -9.595  -2.146  -6.841  1.00  0.00     0.012 A 
ATOM     63  C   UNL     1      -9.938   0.258  -6.670  1.00  0.00     0.148 A 
ATOM     64  C   UNL     1     -10.829  -2.284  -7.472  1.00  0.00     0.002 A 
ATOM     65  C   UNL     1     -11.190   0.106  -7.250  1.00  0.00     0.091 A 
ATOM     66  F   UNL     1      -9.466   1.460  -6.306  1.00  0.00    -0.205 F 
ATOM     67  C   UNL     1     -11.631  -1.161  -7.665  1.00  0.00     0.022 A 
BRANCH  65  68
ATOM     68  S   UNL     1     -12.331   1.477  -7.454  1.00  0.00     0.127 S 
ATOM     69  O   UNL     1     -12.344   1.640  -8.906  1.00  0.00    -0.237 OA
ATOM     70  O   UNL     1     -13.567   0.935  -6.889  1.00  0.00    -0.237 OA
ATOM     71  O   UNL     1     -11.762   2.591  -6.707  1.00  0.00    -0.744 OA
ENDBRANCH  65  68
ENDBRANCH  38  61
ENDBRANCH  12  13
ENDBRANCH   5   7
ENDBRANCH   2   3
ENDBRANCH   1   2
BRANCH   1  72
ATOM     72  C   UNL     1       5.732   2.364   1.161  1.00  0.00     0.117 C 
BRANCH  72  73
ATOM     73  N   UNL     1       6.288   3.385   0.292  1.00  0.00    -0.356 N 
ATOM     74  C   UNL     1       6.071   4.730   0.415  1.00  0.00     0.224 C 
ATOM     75  H   UNL     1       6.867   3.086  -0.446  1.00  0.00     0.163 HD
ATOM     76  O   UNL     1       6.347   5.486  -0.512  1.00  0.00    -0.275 OA
BRANCH  74  77
ATOM     77  C   UNL     1       5.648   5.217   1.780  1.00  0.00     0.098 C 
ATOM     78  C   UNL     1       6.971   5.447   2.534  1.00  0.00     0.017 C 
ATOM     79  C   UNL     1       4.716   6.438   1.712  1.00  0.00     0.133 C 
ATOM     80  C   UNL     1       6.702   6.128   3.853  1.00  0.00     0.022 C 
ATOM     81  N   UNL     1       4.636   7.077   3.034  1.00  0.00    -0.342 N 
ATOM     82  C   UNL     1       5.938   7.397   3.540  1.00  0.00     0.119 C 
BRANCH  81  83
ATOM     83  C   UNL     1       3.448   7.202   3.724  1.00  0.00     0.226 C 
ATOM     84  O   UNL     1       2.400   6.790   3.209  1.00  0.00    -0.275 OA
BRANCH  83  85
ATOM     85  C   UNL     1       3.343   7.867   5.131  1.00  0.00     0.090 C 
ATOM     86  C   UNL     1       3.395   9.391   5.165  1.00  0.00     0.075 C 
ATOM     87  C   UNL     1       4.115   7.269   6.308  1.00  0.00     0.075 C 
ATOM     88  C   UNL     1       4.793   9.973   5.341  1.00  0.00     0.263 C 
ATOM     89  C   UNL     1       5.447   7.941   6.688  1.00  0.00     0.263 C 
ATOM     90  N   UNL     1       5.611   9.366   6.390  1.00  0.00    -0.329 N 
ATOM     91  H   UNL     1       5.166   9.781   7.209  1.00  0.00     0.348 HD
BRANCH  90  92
ATOM     92  C   UNL     1       7.033   9.801   6.376  1.00  0.00     0.338 C 
BRANCH  92  93
ATOM     93  C   UNL     1       7.829   9.558   5.116  1.00  0.00     0.157 A 
ATOM     94  C   UNL     1       7.866  10.164   3.871  1.00  0.00     0.052 A 
ATOM     95  O   UNL     1       8.755   8.547   5.146  1.00  0.00    -0.463 OA
ATOM     96  C   UNL     1       8.811   9.453   3.089  1.00  0.00     0.042 A 
ATOM     97  C   UNL     1       9.342   8.495   3.918  1.00  0.00     0.195 A 
ENDBRANCH  92  93
ENDBRANCH  90  92
ENDBRANCH  83  85
ENDBRANCH  81  83
ENDBRANCH  74  77
ENDBRANCH  72  73
ENDBRANCH   1  72
TORSDOF 17
