REMARK SMILES CC(C)[NH2+][C@@]1(C(=O)NCCCNC(=O)c2ccc(-c3c4nc(c(-c5cccc(S(=O)(=O)[O-])c5F)c5ccc([nH]5)c(-c5cccc(S(=O)(=O)[O-])c5F)c5nc(c(-c6cccc(S(=O)(=O)[O-])c6F)c6ccc3[nH]6)C=C5)C=C4)cc2)CC[C@@H](Sc2ccncc2)C1
REMARK SMILES IDX 10 1 9 2 8 3 6 4 7 5 5 7 78 8 88 9 79 10 80 11 4 12 2 15
REMARK SMILES IDX 1 16 3 17 81 18 82 19 83 20 87 21 84 22 86 23 85 24 11 25
REMARK SMILES IDX 12 26 13 27 14 29 15 30 16 31 77 32 17 33 76 34 18 35 19 36
REMARK SMILES IDX 20 37 70 38 21 39 75 40 69 41 71 42 22 43 74 44 68 45 67 46
REMARK SMILES IDX 23 48 55 49 35 50 54 51 36 52 39 53 53 54 72 55 37 56 38 57
REMARK SMILES IDX 52 59 73 60 40 61 24 62 25 63 33 64 26 65 28 66 34 67 27 68
REMARK SMILES IDX 29 69 30 70 31 71 32 72 56 73 57 74 65 75 58 76 60 77 66 78
REMARK SMILES IDX 59 79 61 80 62 81 63 82 64 83 41 84 42 85 50 86 43 87 45 88
REMARK SMILES IDX 51 89 44 90 46 91 47 92 48 93 49 94
REMARK H PARENT 8 6 4 13 4 14 12 28 71 47 39 58
REMARK Flexibility Score: inf
ROOT
ATOM      1  C   UNL     1      -3.349   4.820   3.828  1.00  0.00     0.042 C 
ENDROOT
BRANCH   1   2
ATOM      2  C   UNL     1      -1.881   4.571   3.517  1.00  0.00     0.118 C 
BRANCH   2   3
ATOM      3  N   UNL     1      -1.559   3.168   3.468  1.00  0.00    -0.351 N 
ATOM      4  C   UNL     1      -1.287   2.317   2.445  1.00  0.00     0.281 C 
ATOM      5  O   UNL     1      -1.047   1.159   2.817  1.00  0.00    -0.268 OA
ATOM      6  H   UNL     1      -1.529   2.740   4.354  1.00  0.00     0.163 HD
BRANCH   4   7
ATOM      7  C   UNL     1      -1.332   2.718   0.910  1.00  0.00     0.176 C 
ATOM      8  C   UNL     1      -0.663   4.037   0.498  1.00  0.00     0.080 C 
ATOM      9  C   UNL     1      -2.809   2.864   0.470  1.00  0.00     0.094 C 
ATOM     10  C   UNL     1      -1.734   5.066   0.148  1.00  0.00     0.022 C 
ATOM     11  C   UNL     1      -3.076   4.353   0.230  1.00  0.00     0.058 C 
BRANCH   7  12
ATOM     12  N   UNL     1      -0.743   1.594   0.116  1.00  0.00    -0.332 N 
ATOM     13  H   UNL     1      -1.294   0.759   0.314  1.00  0.00     0.347 HD
ATOM     14  H   UNL     1      -0.770   1.920  -0.850  1.00  0.00     0.347 HD
BRANCH  12  15
ATOM     15  C   UNL     1       0.669   1.254   0.353  1.00  0.00     0.176 C 
ATOM     16  C   UNL     1       0.834  -0.235   0.031  1.00  0.00     0.075 C 
ATOM     17  C   UNL     1       1.642   2.054  -0.521  1.00  0.00     0.075 C 
ENDBRANCH  12  15
ENDBRANCH   7  12
BRANCH  11  18
ATOM     18  S   UNL     1      -4.221   4.698  -1.168  1.00  0.00    -0.122 SA
BRANCH  18  19
ATOM     19  C   UNL     1      -3.150   4.521  -2.581  1.00  0.00     0.011 A 
ATOM     20  C   UNL     1      -2.809   3.266  -3.073  1.00  0.00     0.035 A 
ATOM     21  C   UNL     1      -2.642   5.658  -3.208  1.00  0.00     0.035 A 
ATOM     22  C   UNL     1      -1.925   3.198  -4.135  1.00  0.00     0.112 A 
ATOM     23  C   UNL     1      -1.761   5.486  -4.261  1.00  0.00     0.112 A 
ATOM     24  N   UNL     1      -1.377   4.279  -4.730  1.00  0.00    -0.265 NA
ENDBRANCH  18  19
ENDBRANCH  11  18
ENDBRANCH   4   7
ENDBRANCH   2   3
ENDBRANCH   1   2
BRANCH   1  25
ATOM     25  C   UNL     1      -3.628   4.861   5.322  1.00  0.00     0.118 C 
BRANCH  25  26
ATOM     26  N   UNL     1      -2.926   5.965   5.974  1.00  0.00    -0.352 N 
ATOM     27  C   UNL     1      -3.417   7.074   6.612  1.00  0.00     0.251 C 
ATOM     28  H   UNL     1      -1.944   5.902   5.951  1.00  0.00     0.163 HD
ATOM     29  O   UNL     1      -2.659   8.011   6.864  1.00  0.00    -0.269 OA
BRANCH  27  30
ATOM     30  C   UNL     1      -4.840   7.143   6.991  1.00  0.00     0.039 A 
ATOM     31  C   UNL     1      -5.517   8.362   6.897  1.00  0.00     0.014 A 
ATOM     32  C   UNL     1      -5.503   6.006   7.456  1.00  0.00     0.014 A 
ATOM     33  C   UNL     1      -6.874   8.421   7.216  1.00  0.00     0.010 A 
ATOM     34  C   UNL     1      -6.873   6.040   7.659  1.00  0.00     0.010 A 
ATOM     35  C   UNL     1      -7.570   7.252   7.566  1.00  0.00    -0.014 A 
BRANCH  35  36
ATOM     36  C   UNL     1      -9.024   7.268   7.855  1.00  0.00     0.031 A 
ATOM     37  C   UNL     1      -9.527   6.827   9.203  1.00  0.00     0.074 A 
ATOM     38  C   UNL     1      -9.891   7.586   6.875  1.00  0.00     0.049 A 
ATOM     39  N   UNL     1     -10.759   6.710   9.625  1.00  0.00    -0.248 NA
ATOM     40  C   UNL     1      -8.515   6.427  10.196  1.00  0.00     0.031 C 
ATOM     41  C   UNL     1      -9.523   7.947   5.503  1.00  0.00     0.029 A 
ATOM     42  N   UNL     1     -11.261   7.633   6.874  1.00  0.00    -0.354 N 
ATOM     43  C   UNL     1     -10.671   6.182  10.908  1.00  0.00     0.074 A 
ATOM     44  C   UNL     1      -9.269   5.957  11.178  1.00  0.00     0.031 C 
ATOM     45  C   UNL     1     -10.638   8.200   4.801  1.00  0.00     0.029 A 
ATOM     46  C   UNL     1     -11.799   7.982   5.658  1.00  0.00     0.049 A 
ATOM     47  H   UNL     1     -11.807   7.437   7.669  1.00  0.00     0.167 HD
ATOM     48  C   UNL     1     -11.664   5.937  11.795  1.00  0.00     0.034 A 
ATOM     49  C   UNL     1     -13.084   8.107   5.276  1.00  0.00     0.034 A 
ATOM     50  C   UNL     1     -13.051   6.203  11.530  1.00  0.00     0.049 A 
ATOM     51  C   UNL     1     -14.169   7.865   6.289  1.00  0.00     0.074 A 
ATOM     52  C   UNL     1     -14.129   6.087  12.389  1.00  0.00     0.029 A 
ATOM     53  N   UNL     1     -13.554   6.626  10.309  1.00  0.00    -0.354 N 
ATOM     54  N   UNL     1     -14.059   7.521   7.549  1.00  0.00    -0.248 NA
ATOM     55  C   UNL     1     -15.552   8.063   5.837  1.00  0.00     0.031 C 
ATOM     56  C   UNL     1     -15.289   6.403  11.674  1.00  0.00     0.029 A 
ATOM     57  C   UNL     1     -14.930   6.758  10.383  1.00  0.00     0.049 A 
ATOM     58  H   UNL     1     -13.013   6.806   9.507  1.00  0.00     0.167 HD
ATOM     59  C   UNL     1     -15.354   7.496   8.052  1.00  0.00     0.074 A 
ATOM     60  C   UNL     1     -16.230   7.878   6.962  1.00  0.00     0.031 C 
ATOM     61  C   UNL     1     -15.782   7.178   9.299  1.00  0.00     0.034 A 
BRANCH  48  62
ATOM     62  C   UNL     1     -11.273   5.385  13.142  1.00  0.00     0.023 A 
ATOM     63  C   UNL     1     -10.542   6.186  14.045  1.00  0.00     0.012 A 
ATOM     64  C   UNL     1     -11.645   4.082  13.526  1.00  0.00     0.148 A 
ATOM     65  C   UNL     1     -10.141   5.682  15.282  1.00  0.00     0.002 A 
ATOM     66  C   UNL     1     -11.288   3.605  14.782  1.00  0.00     0.091 A 
ATOM     67  F   UNL     1     -12.320   3.324  12.649  1.00  0.00    -0.205 F 
ATOM     68  C   UNL     1     -10.523   4.396  15.654  1.00  0.00     0.022 A 
BRANCH  66  69
ATOM     69  S   UNL     1     -11.804   1.995  15.387  1.00  0.00     0.127 S 
ATOM     70  O   UNL     1     -10.547   1.249  15.348  1.00  0.00    -0.237 OA
ATOM     71  O   UNL     1     -12.283   2.312  16.733  1.00  0.00    -0.237 OA
ATOM     72  O   UNL     1     -12.836   1.534  14.470  1.00  0.00    -0.744 OA
ENDBRANCH  66  69
ENDBRANCH  48  62
BRANCH  49  73
ATOM     73  C   UNL     1     -13.404   8.557   3.893  1.00  0.00     0.023 A 
ATOM     74  C   UNL     1     -13.923   9.851   3.692  1.00  0.00     0.012 A 
ATOM     75  C   UNL     1     -13.151   7.737   2.776  1.00  0.00     0.148 A 
ATOM     76  C   UNL     1     -14.210  10.311   2.407  1.00  0.00     0.002 A 
ATOM     77  C   UNL     1     -13.388   8.221   1.495  1.00  0.00     0.091 A 
ATOM     78  F   UNL     1     -12.658   6.509   2.991  1.00  0.00    -0.205 F 
ATOM     79  C   UNL     1     -13.934   9.501   1.309  1.00  0.00     0.022 A 
BRANCH  77  80
ATOM     80  S   UNL     1     -12.945   7.304   0.016  1.00  0.00     0.127 S 
ATOM     81  O   UNL     1     -14.254   7.046  -0.579  1.00  0.00    -0.237 OA
ATOM     82  O   UNL     1     -12.122   8.278  -0.702  1.00  0.00    -0.237 OA
ATOM     83  O   UNL     1     -12.223   6.128   0.480  1.00  0.00    -0.744 OA
ENDBRANCH  77  80
ENDBRANCH  49  73
BRANCH  61  84
ATOM     84  C   UNL     1     -17.261   7.266   9.573  1.00  0.00     0.023 A 
ATOM     85  C   UNL     1     -18.139   6.316   9.016  1.00  0.00     0.012 A 
ATOM     86  C   UNL     1     -17.767   8.250  10.445  1.00  0.00     0.148 A 
ATOM     87  C   UNL     1     -19.504   6.365   9.295  1.00  0.00     0.002 A 
ATOM     88  C   UNL     1     -19.119   8.259  10.762  1.00  0.00     0.091 A 
ATOM     89  F   UNL     1     -16.916   9.155  10.950  1.00  0.00    -0.205 F 
ATOM     90  C   UNL     1     -19.992   7.327  10.177  1.00  0.00     0.022 A 
BRANCH  88  91
ATOM     91  S   UNL     1     -19.818   9.395  11.966  1.00  0.00     0.127 S 
ATOM     92  O   UNL     1     -20.607  10.283  11.114  1.00  0.00    -0.237 OA
ATOM     93  O   UNL     1     -20.609   8.500  12.811  1.00  0.00    -0.237 OA
ATOM     94  O   UNL     1     -18.686  10.018  12.637  1.00  0.00    -0.744 OA
ENDBRANCH  88  91
ENDBRANCH  61  84
ENDBRANCH  35  36
ENDBRANCH  27  30
ENDBRANCH  25  26
ENDBRANCH   1  25
TORSDOF 17
