REMARK SMILES CO[C@@H]1C[C@@H](C(=O)NCCCNC(=O)c2ccc(-c3c4nc(c(-c5cccc(S(=O)(=O)[O-])c5F)c5ccc([nH]5)c(-c5cccc(S(=O)(=O)[O-])c5F)c5nc(c(-c6cccc(S(=O)(=O)[O-])c6F)c6ccc3[nH]6)C=C5)C=C4)cc2)N(C(=O)CSc2cccs2)C1
REMARK SMILES IDX 9 1 8 2 6 3 7 4 5 6 3 7 4 8 88 9 78 10 2 11 1 12 79 13 80 14
REMARK SMILES IDX 81 15 82 16 83 17 84 18 87 19 85 20 86 21 10 22 11 23 12 24
REMARK SMILES IDX 13 25 14 27 15 28 16 29 77 30 17 31 76 32 18 33 19 34 20 35
REMARK SMILES IDX 70 36 21 37 75 38 69 39 71 40 22 41 74 42 68 43 67 44 23 46
REMARK SMILES IDX 55 47 35 48 54 49 36 50 39 51 53 52 72 53 37 54 38 55 52 57
REMARK SMILES IDX 73 58 40 59 24 60 25 61 33 62 26 63 28 64 34 65 27 66 29 67
REMARK SMILES IDX 30 68 31 69 32 70 56 71 57 72 65 73 58 74 60 75 66 76 59 77
REMARK SMILES IDX 61 78 62 79 63 80 64 81 41 82 42 83 50 84 43 85 45 86 51 87
REMARK SMILES IDX 44 88 46 89 47 90 48 91 49 92
REMARK H PARENT 8 5 12 26 71 45 39 56
REMARK Flexibility Score: inf
ROOT
ATOM      1  C   UNL     1       4.753   1.610   3.152  1.00  0.00     0.117 C 
ENDROOT
BRANCH   1   2
ATOM      2  N   UNL     1       5.232   0.408   2.485  1.00  0.00    -0.354 N 
ATOM      3  C   UNL     1       4.622  -0.815   2.398  1.00  0.00     0.242 C 
ATOM      4  O   UNL     1       5.347  -1.767   2.692  1.00  0.00    -0.273 OA
ATOM      5  H   UNL     1       6.107   0.484   2.040  1.00  0.00     0.163 HD
BRANCH   3   6
ATOM      6  C   UNL     1       3.228  -0.986   1.724  1.00  0.00     0.177 C 
ATOM      7  C   UNL     1       0.842  -0.532   2.055  1.00  0.00     0.139 C 
ATOM      8  C   UNL     1       2.225   0.059   2.236  1.00  0.00     0.069 C 
ATOM      9  C   UNL     1       1.069  -2.033   2.136  1.00  0.00     0.152 C 
ATOM     10  N   UNL     1       2.489  -2.270   1.871  1.00  0.00    -0.327 N 
BRANCH   7  11
ATOM     11  O   UNL     1       0.160  -0.058   0.893  1.00  0.00    -0.380 OA
ATOM     12  C   UNL     1       0.768  -0.283  -0.367  1.00  0.00     0.195 C 
ENDBRANCH   7  11
BRANCH  10  13
ATOM     13  C   UNL     1       2.828  -3.566   1.514  1.00  0.00     0.233 C 
ATOM     14  O   UNL     1       1.955  -4.447   1.486  1.00  0.00    -0.274 OA
BRANCH  13  15
ATOM     15  C   UNL     1       4.256  -3.990   1.231  1.00  0.00     0.175 C 
BRANCH  15  16
ATOM     16  S   UNL     1       4.895  -3.318  -0.324  1.00  0.00    -0.105 SA
BRANCH  16  17
ATOM     17  C   UNL     1       3.872  -4.151  -1.479  1.00  0.00     0.060 A 
ATOM     18  C   UNL     1       3.800  -5.512  -1.688  1.00  0.00     0.027 A 
ATOM     19  S   UNL     1       2.830  -3.290  -2.524  1.00  0.00    -0.137 S 
ATOM     20  C   UNL     1       2.859  -5.850  -2.705  1.00  0.00     0.013 A 
ATOM     21  C   UNL     1       2.255  -4.734  -3.238  1.00  0.00     0.066 A 
ENDBRANCH  16  17
ENDBRANCH  15  16
ENDBRANCH  13  15
ENDBRANCH  10  13
ENDBRANCH   3   6
ENDBRANCH   1   2
BRANCH   1  22
ATOM     22  C   UNL     1       4.729   1.434   4.671  1.00  0.00     0.042 C 
BRANCH  22  23
ATOM     23  C   UNL     1       6.107   1.168   5.275  1.00  0.00     0.118 C 
BRANCH  23  24
ATOM     24  N   UNL     1       7.036   2.261   5.013  1.00  0.00    -0.352 N 
ATOM     25  C   UNL     1       7.602   3.156   5.883  1.00  0.00     0.251 C 
ATOM     26  H   UNL     1       7.295   2.374   4.069  1.00  0.00     0.163 HD
ATOM     27  O   UNL     1       8.142   4.171   5.441  1.00  0.00    -0.269 OA
BRANCH  25  28
ATOM     28  C   UNL     1       7.566   2.907   7.337  1.00  0.00     0.039 A 
ATOM     29  C   UNL     1       7.297   3.969   8.205  1.00  0.00     0.014 A 
ATOM     30  C   UNL     1       7.833   1.633   7.846  1.00  0.00     0.014 A 
ATOM     31  C   UNL     1       7.243   3.740   9.581  1.00  0.00     0.010 A 
ATOM     32  C   UNL     1       7.705   1.392   9.210  1.00  0.00     0.010 A 
ATOM     33  C   UNL     1       7.419   2.443  10.093  1.00  0.00    -0.014 A 
BRANCH  33  34
ATOM     34  C   UNL     1       7.303   2.161  11.546  1.00  0.00     0.031 A 
ATOM     35  C   UNL     1       8.487   1.635  12.312  1.00  0.00     0.074 A 
ATOM     36  C   UNL     1       6.104   2.285  12.150  1.00  0.00     0.049 A 
ATOM     37  N   UNL     1       8.558   1.260  13.562  1.00  0.00    -0.248 NA
ATOM     38  C   UNL     1       9.750   1.480  11.569  1.00  0.00     0.031 C 
ATOM     39  C   UNL     1       4.864   2.702  11.492  1.00  0.00     0.029 A 
ATOM     40  N   UNL     1       5.725   2.041  13.446  1.00  0.00    -0.354 N 
ATOM     41  C   UNL     1       9.853   0.787  13.745  1.00  0.00     0.074 A 
ATOM     42  C   UNL     1      10.527   0.895  12.470  1.00  0.00     0.031 C 
ATOM     43  C   UNL     1       3.863   2.684  12.387  1.00  0.00     0.029 A 
ATOM     44  C   UNL     1       4.381   2.229  13.673  1.00  0.00     0.049 A 
ATOM     45  H   UNL     1       6.355   1.757  14.148  1.00  0.00     0.167 HD
ATOM     46  C   UNL     1      10.437   0.333  14.879  1.00  0.00     0.034 A 
ATOM     47  C   UNL     1       3.648   2.049  14.789  1.00  0.00     0.034 A 
ATOM     48  C   UNL     1       9.779   0.283  16.157  1.00  0.00     0.049 A 
ATOM     49  C   UNL     1       4.340   1.604  16.049  1.00  0.00     0.074 A 
ATOM     50  C   UNL     1      10.313  -0.064  17.385  1.00  0.00     0.029 A 
ATOM     51  N   UNL     1       8.444   0.588  16.371  1.00  0.00    -0.354 N 
ATOM     52  N   UNL     1       5.606   1.325  16.241  1.00  0.00    -0.248 NA
ATOM     53  C   UNL     1       3.510   1.486  17.257  1.00  0.00     0.031 C 
ATOM     54  C   UNL     1       9.295   0.016  18.341  1.00  0.00     0.029 A 
ATOM     55  C   UNL     1       8.134   0.432  17.711  1.00  0.00     0.049 A 
ATOM     56  H   UNL     1       7.811   0.873  15.674  1.00  0.00     0.167 HD
ATOM     57  C   UNL     1       5.733   1.036  17.595  1.00  0.00     0.074 A 
ATOM     58  C   UNL     1       4.418   1.196  18.180  1.00  0.00     0.031 C 
ATOM     59  C   UNL     1       6.834   0.656  18.288  1.00  0.00     0.034 A 
BRANCH  46  60
ATOM     60  C   UNL     1      11.882  -0.089  14.809  1.00  0.00     0.023 A 
ATOM     61  C   UNL     1      12.884   0.893  14.671  1.00  0.00     0.012 A 
ATOM     62  C   UNL     1      12.253  -1.439  14.957  1.00  0.00     0.148 A 
ATOM     63  C   UNL     1      14.231   0.537  14.653  1.00  0.00     0.002 A 
ATOM     64  C   UNL     1      13.601  -1.783  14.982  1.00  0.00     0.091 A 
ATOM     65  F   UNL     1      11.286  -2.361  15.068  1.00  0.00    -0.205 F 
ATOM     66  C   UNL     1      14.589  -0.798  14.819  1.00  0.00     0.022 A 
BRANCH  64  67
ATOM     67  S   UNL     1      14.170  -3.462  15.270  1.00  0.00     0.127 S 
ATOM     68  O   UNL     1      14.720  -3.815  13.961  1.00  0.00    -0.237 OA
ATOM     69  O   UNL     1      15.172  -3.271  16.319  1.00  0.00    -0.237 OA
ATOM     70  O   UNL     1      12.998  -4.221  15.678  1.00  0.00    -0.744 OA
ENDBRANCH  64  67
ENDBRANCH  46  60
BRANCH  47  71
ATOM     71  C   UNL     1       2.191   2.360  14.784  1.00  0.00     0.023 A 
ATOM     72  C   UNL     1       1.722   3.479  15.499  1.00  0.00     0.012 A 
ATOM     73  C   UNL     1       1.272   1.574  14.063  1.00  0.00     0.148 A 
ATOM     74  C   UNL     1       0.362   3.789  15.526  1.00  0.00     0.002 A 
ATOM     75  C   UNL     1      -0.074   1.920  14.048  1.00  0.00     0.091 A 
ATOM     76  F   UNL     1       1.734   0.504  13.399  1.00  0.00    -0.205 F 
ATOM     77  C   UNL     1      -0.535   3.016  14.793  1.00  0.00     0.022 A 
BRANCH  75  78
ATOM     78  S   UNL     1      -1.270   1.061  13.018  1.00  0.00     0.127 S 
ATOM     79  O   UNL     1      -1.983   0.249  14.002  1.00  0.00    -0.237 OA
ATOM     80  O   UNL     1      -2.044   2.170  12.457  1.00  0.00    -0.237 OA
ATOM     81  O   UNL     1      -0.482   0.330  12.037  1.00  0.00    -0.744 OA
ENDBRANCH  75  78
ENDBRANCH  47  71
BRANCH  59  82
ATOM     82  C   UNL     1       6.681   0.422  19.767  1.00  0.00     0.023 A 
ATOM     83  C   UNL     1       6.012  -0.729  20.228  1.00  0.00     0.012 A 
ATOM     84  C   UNL     1       7.271   1.300  20.697  1.00  0.00     0.148 A 
ATOM     85  C   UNL     1       5.905  -0.986  21.594  1.00  0.00     0.002 A 
ATOM     86  C   UNL     1       7.202   1.012  22.055  1.00  0.00     0.091 A 
ATOM     87  F   UNL     1       7.886   2.400  20.239  1.00  0.00    -0.205 F 
ATOM     88  C   UNL     1       6.510  -0.123  22.506  1.00  0.00     0.022 A 
BRANCH  86  89
ATOM     89  S   UNL     1       8.034   2.015  23.292  1.00  0.00     0.127 S 
ATOM     90  O   UNL     1       6.911   2.722  23.907  1.00  0.00    -0.237 OA
ATOM     91  O   UNL     1       8.657   1.002  24.145  1.00  0.00    -0.237 OA
ATOM     92  O   UNL     1       8.977   2.851  22.562  1.00  0.00    -0.744 OA
ENDBRANCH  86  89
ENDBRANCH  59  82
ENDBRANCH  33  34
ENDBRANCH  25  28
ENDBRANCH  23  24
ENDBRANCH  22  23
ENDBRANCH   1  22
TORSDOF 18
