REMARK SMILES CC(C)C[C@@H]([NH2+][C@H]1CCOC2(CCOCC2)C1)C(=O)NCCCNC(=O)c1ccc(-c2c3nc(c(-c4cccc(S(=O)(=O)[O-])c4F)c4ccc([nH]4)c(-c4cccc(S(=O)(=O)[O-])c4F)c4nc(c(-c5cccc(S(=O)(=O)[O-])c5F)c5ccc2[nH]5)C=C4)C=C3)cc1
REMARK SMILES IDX 22 1 21 2 20 3 18 4 19 5 5 7 4 8 2 9 1 10 3 11 6 12 7 15
REMARK SMILES IDX 8 16 17 17 9 18 11 19 10 20 12 21 16 22 13 23 15 24 14 25
REMARK SMILES IDX 23 26 24 27 25 28 26 30 27 31 28 32 89 33 29 34 88 35 30 36
REMARK SMILES IDX 31 37 32 38 82 39 33 40 87 41 81 42 83 43 34 44 86 45 80 46
REMARK SMILES IDX 79 47 35 49 67 50 47 51 66 52 48 53 51 54 65 55 84 56 49 57
REMARK SMILES IDX 50 58 64 60 85 61 52 62 36 63 37 64 45 65 38 66 40 67 46 68
REMARK SMILES IDX 39 69 41 70 42 71 43 72 44 73 68 74 69 75 77 76 70 77 72 78
REMARK SMILES IDX 78 79 71 80 73 81 74 82 75 83 76 84 53 85 54 86 62 87 55 88
REMARK SMILES IDX 57 89 63 90 56 91 58 92 59 93 60 94 61 95
REMARK H PARENT 20 6 6 13 6 14 24 29 83 48 51 59
REMARK Flexibility Score: inf
ROOT
ATOM      1  C   UNL     1      -0.213   6.945  -2.759  1.00  0.00     0.042 C 
ENDROOT
BRANCH   1   2
ATOM      2  C   UNL     1      -0.441   5.706  -1.898  1.00  0.00     0.118 C 
BRANCH   2   3
ATOM      3  N   UNL     1       0.649   5.498  -0.963  1.00  0.00    -0.351 N 
ATOM      4  C   UNL     1       0.692   5.665   0.388  1.00  0.00     0.278 C 
ATOM      5  O   UNL     1       1.774   5.451   0.947  1.00  0.00    -0.268 OA
ATOM      6  H   UNL     1       1.490   5.188  -1.369  1.00  0.00     0.163 HD
BRANCH   4   7
ATOM      7  C   UNL     1      -0.549   6.074   1.213  1.00  0.00     0.273 C 
BRANCH   7   8
ATOM      8  C   UNL     1      -0.960   7.533   0.920  1.00  0.00     0.078 C 
BRANCH   8   9
ATOM      9  C   UNL     1      -2.227   8.043   1.641  1.00  0.00    -0.011 C 
ATOM     10  C   UNL     1      -2.128   7.936   3.162  1.00  0.00     0.007 C 
ATOM     11  C   UNL     1      -2.508   9.493   1.236  1.00  0.00     0.007 C 
ENDBRANCH   8   9
ENDBRANCH   7   8
BRANCH   7  12
ATOM     12  N   UNL     1      -1.677   5.129   1.033  1.00  0.00    -0.333 N 
ATOM     13  H   UNL     1      -1.983   5.193   0.063  1.00  0.00     0.347 HD
ATOM     14  H   UNL     1      -2.377   5.412   1.720  1.00  0.00     0.347 HD
BRANCH  12  15
ATOM     15  C   UNL     1      -1.402   3.710   1.322  1.00  0.00     0.188 C 
ATOM     16  C   UNL     1      -0.547   3.436   2.564  1.00  0.00     0.093 C 
ATOM     17  C   UNL     1      -2.765   3.013   1.495  1.00  0.00     0.100 C 
ATOM     18  C   UNL     1      -0.457   1.943   2.822  1.00  0.00     0.167 C 
ATOM     19  C   UNL     1      -2.648   1.528   1.886  1.00  0.00     0.078 C 
ATOM     20  O   UNL     1      -1.751   1.377   2.999  1.00  0.00    -0.374 OA
ATOM     21  C   UNL     1      -2.226   0.644   0.698  1.00  0.00     0.064 C 
ATOM     22  C   UNL     1      -4.020   1.034   2.387  1.00  0.00     0.064 C 
ATOM     23  C   UNL     1      -2.287  -0.832   1.076  1.00  0.00     0.163 C 
ATOM     24  C   UNL     1      -3.988  -0.462   2.674  1.00  0.00     0.163 C 
ATOM     25  O   UNL     1      -3.601  -1.188   1.507  1.00  0.00    -0.381 OA
ENDBRANCH  12  15
ENDBRANCH   7  12
ENDBRANCH   4   7
ENDBRANCH   2   3
ENDBRANCH   1   2
BRANCH   1  26
ATOM     26  C   UNL     1       1.013   6.858  -3.660  1.00  0.00     0.118 C 
BRANCH  26  27
ATOM     27  N   UNL     1       0.876   5.848  -4.702  1.00  0.00    -0.352 N 
ATOM     28  C   UNL     1       0.965   5.993  -6.066  1.00  0.00     0.251 C 
ATOM     29  H   UNL     1       0.694   4.934  -4.385  1.00  0.00     0.163 HD
ATOM     30  O   UNL     1       0.655   5.063  -6.805  1.00  0.00    -0.269 OA
BRANCH  28  31
ATOM     31  C   UNL     1       1.415   7.280  -6.636  1.00  0.00     0.039 A 
ATOM     32  C   UNL     1       0.681   7.861  -7.674  1.00  0.00     0.014 A 
ATOM     33  C   UNL     1       2.547   7.922  -6.127  1.00  0.00     0.014 A 
ATOM     34  C   UNL     1       1.038   9.125  -8.150  1.00  0.00     0.010 A 
ATOM     35  C   UNL     1       2.856   9.209  -6.551  1.00  0.00     0.010 A 
ATOM     36  C   UNL     1       2.105   9.825  -7.565  1.00  0.00    -0.014 A 
BRANCH  36  37
ATOM     37  C   UNL     1       2.459  11.209  -7.974  1.00  0.00     0.031 A 
ATOM     38  C   UNL     1       3.818  11.492  -8.554  1.00  0.00     0.074 A 
ATOM     39  C   UNL     1       1.613  12.223  -7.702  1.00  0.00     0.049 A 
ATOM     40  N   UNL     1       4.377  12.642  -8.824  1.00  0.00    -0.248 NA
ATOM     41  C   UNL     1       4.674  10.327  -8.835  1.00  0.00     0.031 C 
ATOM     42  C   UNL     1       0.296  12.084  -7.079  1.00  0.00     0.029 A 
ATOM     43  N   UNL     1       1.755  13.578  -7.877  1.00  0.00    -0.354 N 
ATOM     44  C   UNL     1       5.663  12.345  -9.257  1.00  0.00     0.074 A 
ATOM     45  C   UNL     1       5.811  10.908  -9.193  1.00  0.00     0.031 C 
ATOM     46  C   UNL     1      -0.245  13.302  -6.913  1.00  0.00     0.029 A 
ATOM     47  C   UNL     1       0.699  14.310  -7.384  1.00  0.00     0.049 A 
ATOM     48  H   UNL     1       2.537  13.986  -8.313  1.00  0.00     0.167 HD
ATOM     49  C   UNL     1       6.627  13.191  -9.692  1.00  0.00     0.034 A 
ATOM     50  C   UNL     1       0.519  15.644  -7.304  1.00  0.00     0.034 A 
ATOM     51  C   UNL     1       6.454  14.613  -9.809  1.00  0.00     0.049 A 
ATOM     52  C   UNL     1       1.585  16.559  -7.844  1.00  0.00     0.074 A 
ATOM     53  C   UNL     1       7.337  15.546 -10.322  1.00  0.00     0.029 A 
ATOM     54  N   UNL     1       5.324  15.307  -9.408  1.00  0.00    -0.354 N 
ATOM     55  N   UNL     1       2.739  16.250  -8.384  1.00  0.00    -0.248 NA
ATOM     56  C   UNL     1       1.313  18.003  -7.796  1.00  0.00     0.031 C 
ATOM     57  C   UNL     1       6.743  16.808 -10.221  1.00  0.00     0.029 A 
ATOM     58  C   UNL     1       5.484  16.657  -9.664  1.00  0.00     0.049 A 
ATOM     59  H   UNL     1       4.525  14.900  -9.002  1.00  0.00     0.167 HD
ATOM     60  C   UNL     1       3.309  17.454  -8.780  1.00  0.00     0.074 A 
ATOM     61  C   UNL     1       2.370  18.499  -8.426  1.00  0.00     0.031 C 
ATOM     62  C   UNL     1       4.508  17.676  -9.373  1.00  0.00     0.034 A 
BRANCH  49  63
ATOM     63  C   UNL     1       7.938  12.594 -10.132  1.00  0.00     0.023 A 
ATOM     64  C   UNL     1       7.999  11.871 -11.341  1.00  0.00     0.012 A 
ATOM     65  C   UNL     1       9.116  12.798  -9.388  1.00  0.00     0.148 A 
ATOM     66  C   UNL     1       9.205  11.331 -11.786  1.00  0.00     0.002 A 
ATOM     67  C   UNL     1      10.323  12.294  -9.861  1.00  0.00     0.091 A 
ATOM     68  F   UNL     1       9.035  13.469  -8.230  1.00  0.00    -0.205 F 
ATOM     69  C   UNL     1      10.367  11.551 -11.052  1.00  0.00     0.022 A 
BRANCH  67  70
ATOM     70  S   UNL     1      11.887  12.593  -9.029  1.00  0.00     0.127 S 
ATOM     71  O   UNL     1      12.166  11.282  -8.446  1.00  0.00    -0.237 OA
ATOM     72  O   UNL     1      12.763  12.965 -10.141  1.00  0.00    -0.237 OA
ATOM     73  O   UNL     1      11.634  13.663  -8.074  1.00  0.00    -0.744 OA
ENDBRANCH  67  70
ENDBRANCH  49  63
BRANCH  50  74
ATOM     74  C   UNL     1      -0.754  16.190  -6.753  1.00  0.00     0.023 A 
ATOM     75  C   UNL     1      -1.674  16.800  -7.628  1.00  0.00     0.012 A 
ATOM     76  C   UNL     1      -1.075  16.079  -5.387  1.00  0.00     0.148 A 
ATOM     77  C   UNL     1      -2.878  17.317  -7.148  1.00  0.00     0.002 A 
ATOM     78  C   UNL     1      -2.300  16.548  -4.924  1.00  0.00     0.091 A 
ATOM     79  F   UNL     1      -0.182  15.507  -4.568  1.00  0.00    -0.205 F 
ATOM     80  C   UNL     1      -3.196  17.181  -5.799  1.00  0.00     0.022 A 
BRANCH  78  81
ATOM     81  S   UNL     1      -2.848  16.296  -3.231  1.00  0.00     0.127 S 
ATOM     82  O   UNL     1      -2.731  17.642  -2.675  1.00  0.00    -0.237 OA
ATOM     83  O   UNL     1      -4.221  15.825  -3.422  1.00  0.00    -0.237 OA
ATOM     84  O   UNL     1      -1.947  15.297  -2.673  1.00  0.00    -0.744 OA
ENDBRANCH  78  81
ENDBRANCH  50  74
BRANCH  62  85
ATOM     85  C   UNL     1       4.865  19.092  -9.737  1.00  0.00     0.023 A 
ATOM     86  C   UNL     1       5.263  19.995  -8.733  1.00  0.00     0.012 A 
ATOM     87  C   UNL     1       4.911  19.489 -11.088  1.00  0.00     0.148 A 
ATOM     88  C   UNL     1       5.684  21.282  -9.068  1.00  0.00     0.002 A 
ATOM     89  C   UNL     1       5.376  20.756 -11.417  1.00  0.00     0.091 A 
ATOM     90  F   UNL     1       4.510  18.617 -12.025  1.00  0.00    -0.205 F 
ATOM     91  C   UNL     1       5.754  21.657 -10.408  1.00  0.00     0.022 A 
BRANCH  89  92
ATOM     92  S   UNL     1       5.593  21.291 -13.119  1.00  0.00     0.127 S 
ATOM     93  O   UNL     1       4.512  22.265 -13.264  1.00  0.00    -0.237 OA
ATOM     94  O   UNL     1       6.936  21.870 -13.093  1.00  0.00    -0.237 OA
ATOM     95  O   UNL     1       5.467  20.092 -13.937  1.00  0.00    -0.744 OA
ENDBRANCH  89  92
ENDBRANCH  62  85
ENDBRANCH  36  37
ENDBRANCH  28  31
ENDBRANCH  26  27
ENDBRANCH   1  26
TORSDOF 17
