REMARK SMILES CO[C@H]1CN(C(=O)c2cn(C(C)C)cc(C(=O)NCCCNC(=O)c3ccc(-c4c5nc(c(-c6cccc(S(=O)(=O)[O-])c6F)c6ccc([nH]6)c(-c6cccc(S(=O)(=O)[O-])c6F)c6nc(c(-c7cccc(S(=O)(=O)[O-])c7F)c7ccc4[nH]7)C=C6)C=C5)cc3)c2=O)CC[C@H]1[NH3+]
REMARK SMILES IDX 20 1 19 2 18 3 16 4 17 5 15 7 8 8 9 9 88 10 10 11 89 12
REMARK SMILES IDX 14 13 6 14 7 15 5 16 3 17 4 18 92 19 91 20 90 21 2 22 1 23
REMARK SMILES IDX 93 24 11 28 12 29 13 30 21 31 22 32 23 33 24 35 25 36 26 37
REMARK SMILES IDX 87 38 27 39 86 40 28 41 29 42 30 43 80 44 31 45 85 46 79 47
REMARK SMILES IDX 81 48 32 49 84 50 78 51 77 52 33 54 65 55 45 56 64 57 46 58
REMARK SMILES IDX 49 59 63 60 82 61 47 62 48 63 62 65 83 66 50 67 34 68 35 69
REMARK SMILES IDX 43 70 36 71 38 72 44 73 37 74 39 75 40 76 41 77 42 78 66 79
REMARK SMILES IDX 67 80 75 81 68 82 70 83 76 84 69 85 71 86 72 87 73 88 74 89
REMARK SMILES IDX 51 90 52 91 60 92 53 93 55 94 61 95 54 96 56 97 57 98 58 99
REMARK SMILES IDX 59 100
REMARK H PARENT 18 6 93 25 93 26 93 27 22 34 81 53 49 64
REMARK Flexibility Score: inf
ROOT
ATOM      1  C   UNL     1       7.075  -0.244   0.306  1.00  0.00     0.042 C 
ENDROOT
BRANCH   1   2
ATOM      2  C   UNL     1       6.218   0.476   1.344  1.00  0.00     0.118 C 
BRANCH   2   3
ATOM      3  N   UNL     1       6.305   1.919   1.195  1.00  0.00    -0.352 N 
ATOM      4  C   UNL     1       5.506   2.827   0.575  1.00  0.00     0.256 C 
ATOM      5  O   UNL     1       5.866   4.008   0.653  1.00  0.00    -0.269 OA
ATOM      6  H   UNL     1       7.096   2.316   1.627  1.00  0.00     0.163 HD
BRANCH   4   7
ATOM      7  C   UNL     1       4.221   2.483  -0.091  1.00  0.00     0.104 A 
ATOM      8  C   UNL     1       2.390   1.019  -1.079  1.00  0.00     0.104 A 
ATOM      9  C   UNL     1       1.624   2.115  -1.144  1.00  0.00     0.103 A 
ATOM     10  C   UNL     1       3.819   1.196  -0.723  1.00  0.00     0.207 A 
ATOM     11  N   UNL     1       2.059   3.387  -0.786  1.00  0.00    -0.350 N 
ATOM     12  O   UNL     1       4.617   0.305  -0.992  1.00  0.00    -0.288 OA
ATOM     13  C   UNL     1       3.326   3.485  -0.210  1.00  0.00     0.103 A 
BRANCH   8  14
ATOM     14  C   UNL     1       1.832  -0.293  -1.465  1.00  0.00     0.259 C 
ATOM     15  O   UNL     1       1.324  -0.436  -2.575  1.00  0.00    -0.269 OA
BRANCH  14  16
ATOM     16  N   UNL     1       1.878  -1.303  -0.515  1.00  0.00    -0.335 N 
ATOM     17  C   UNL     1       0.734  -1.575   1.657  1.00  0.00     0.195 C 
ATOM     18  C   UNL     1       2.011  -1.104   0.931  1.00  0.00     0.158 C 
ATOM     19  C   UNL     1       0.381  -3.047   1.270  1.00  0.00     0.213 C 
ATOM     20  C   UNL     1       0.352  -3.201  -0.261  1.00  0.00     0.089 C 
ATOM     21  C   UNL     1       1.623  -2.679  -0.923  1.00  0.00     0.126 C 
BRANCH  17  22
ATOM     22  O   UNL     1       0.915  -1.362   3.064  1.00  0.00    -0.373 OA
ATOM     23  C   UNL     1      -0.252  -1.622   3.834  1.00  0.00     0.195 C 
ENDBRANCH  17  22
BRANCH  19  24
ATOM     24  N   UNL     1       1.260  -4.046   1.897  1.00  0.00    -0.353 N 
ATOM     25  H   UNL     1       2.216  -3.913   1.567  1.00  0.00     0.344 HD
ATOM     26  H   UNL     1       0.942  -4.983   1.650  1.00  0.00     0.344 HD
ATOM     27  H   UNL     1       1.233  -3.935   2.911  1.00  0.00     0.344 HD
ENDBRANCH  19  24
ENDBRANCH  14  16
ENDBRANCH   8  14
BRANCH  11  28
ATOM     28  C   UNL     1       1.252   4.605  -1.041  1.00  0.00     0.080 C 
ATOM     29  C   UNL     1       1.066   4.814  -2.545  1.00  0.00     0.031 C 
ATOM     30  C   UNL     1      -0.085   4.547  -0.304  1.00  0.00     0.031 C 
ENDBRANCH  11  28
ENDBRANCH   4   7
ENDBRANCH   2   3
ENDBRANCH   1   2
BRANCH   1  31
ATOM     31  C   UNL     1       8.565  -0.207   0.611  1.00  0.00     0.118 C 
BRANCH  31  32
ATOM     32  N   UNL     1       8.931  -1.084   1.715  1.00  0.00    -0.352 N 
ATOM     33  C   UNL     1       9.779  -2.167   1.731  1.00  0.00     0.251 C 
ATOM     34  H   UNL     1       8.508  -0.870   2.578  1.00  0.00     0.163 HD
ATOM     35  O   UNL     1       9.807  -2.896   2.719  1.00  0.00    -0.269 OA
BRANCH  33  36
ATOM     36  C   UNL     1      10.628  -2.467   0.556  1.00  0.00     0.039 A 
ATOM     37  C   UNL     1      11.294  -1.447  -0.126  1.00  0.00     0.014 A 
ATOM     38  C   UNL     1      10.756  -3.791   0.126  1.00  0.00     0.014 A 
ATOM     39  C   UNL     1      11.937  -1.724  -1.328  1.00  0.00     0.010 A 
ATOM     40  C   UNL     1      11.480  -4.080  -1.035  1.00  0.00     0.010 A 
ATOM     41  C   UNL     1      12.035  -3.042  -1.800  1.00  0.00    -0.014 A 
BRANCH  41  42
ATOM     42  C   UNL     1      12.727  -3.311  -3.088  1.00  0.00     0.031 A 
ATOM     43  C   UNL     1      11.978  -3.885  -4.262  1.00  0.00     0.074 A 
ATOM     44  C   UNL     1      14.032  -2.999  -3.211  1.00  0.00     0.049 A 
ATOM     45  N   UNL     1      12.426  -4.177  -5.456  1.00  0.00    -0.248 NA
ATOM     46  C   UNL     1      10.546  -4.173  -4.076  1.00  0.00     0.031 C 
ATOM     47  C   UNL     1      14.870  -2.448  -2.143  1.00  0.00     0.029 A 
ATOM     48  N   UNL     1      14.879  -3.085  -4.286  1.00  0.00    -0.354 N 
ATOM     49  C   UNL     1      11.349  -4.719  -6.148  1.00  0.00     0.074 A 
ATOM     50  C   UNL     1      10.222  -4.720  -5.241  1.00  0.00     0.031 C 
ATOM     51  C   UNL     1      16.096  -2.204  -2.628  1.00  0.00     0.029 A 
ATOM     52  C   UNL     1      16.149  -2.630  -4.022  1.00  0.00     0.049 A 
ATOM     53  H   UNL     1      14.604  -3.438  -5.163  1.00  0.00     0.167 HD
ATOM     54  C   UNL     1      11.298  -5.154  -7.428  1.00  0.00     0.034 A 
ATOM     55  C   UNL     1      17.242  -2.568  -4.808  1.00  0.00     0.034 A 
ATOM     56  C   UNL     1      12.401  -5.098  -8.349  1.00  0.00     0.049 A 
ATOM     57  C   UNL     1      17.154  -3.046  -6.227  1.00  0.00     0.074 A 
ATOM     58  C   UNL     1      12.427  -5.479  -9.679  1.00  0.00     0.029 A 
ATOM     59  N   UNL     1      13.665  -4.621  -8.043  1.00  0.00    -0.354 N 
ATOM     60  N   UNL     1      16.110  -3.500  -6.875  1.00  0.00    -0.248 NA
ATOM     61  C   UNL     1      18.386  -2.993  -7.026  1.00  0.00     0.031 C 
ATOM     62  C   UNL     1      13.710  -5.236 -10.178  1.00  0.00     0.029 A 
ATOM     63  C   UNL     1      14.479  -4.697  -9.159  1.00  0.00     0.049 A 
ATOM     64  H   UNL     1      13.943  -4.280  -7.162  1.00  0.00     0.167 HD
ATOM     65  C   UNL     1      16.554  -3.777  -8.162  1.00  0.00     0.074 A 
ATOM     66  C   UNL     1      17.957  -3.421  -8.208  1.00  0.00     0.031 C 
ATOM     67  C   UNL     1      15.862  -4.298  -9.203  1.00  0.00     0.034 A 
BRANCH  54  68
ATOM     68  C   UNL     1       9.988  -5.686  -7.944  1.00  0.00     0.023 A 
ATOM     69  C   UNL     1       8.985  -4.779  -8.337  1.00  0.00     0.012 A 
ATOM     70  C   UNL     1       9.791  -7.068  -8.136  1.00  0.00     0.148 A 
ATOM     71  C   UNL     1       7.798  -5.239  -8.905  1.00  0.00     0.002 A 
ATOM     72  C   UNL     1       8.617  -7.518  -8.729  1.00  0.00     0.091 A 
ATOM     73  F   UNL     1      10.756  -7.911  -7.742  1.00  0.00    -0.205 F 
ATOM     74  C   UNL     1       7.619  -6.605  -9.111  1.00  0.00     0.022 A 
BRANCH  72  75
ATOM     75  S   UNL     1       8.308  -9.250  -9.090  1.00  0.00     0.127 S 
ATOM     76  O   UNL     1       7.187  -9.542  -8.196  1.00  0.00    -0.237 OA
ATOM     77  O   UNL     1       7.960  -9.211 -10.510  1.00  0.00    -0.237 OA
ATOM     78  O   UNL     1       9.544  -9.955  -8.782  1.00  0.00    -0.744 OA
ENDBRANCH  72  75
ENDBRANCH  54  68
BRANCH  55  79
ATOM     79  C   UNL     1      18.493  -1.978  -4.261  1.00  0.00     0.023 A 
ATOM     80  C   UNL     1      18.871  -0.682  -4.658  1.00  0.00     0.012 A 
ATOM     81  C   UNL     1      19.252  -2.653  -3.286  1.00  0.00     0.148 A 
ATOM     82  C   UNL     1      19.987  -0.066  -4.092  1.00  0.00     0.002 A 
ATOM     83  C   UNL     1      20.336  -2.017  -2.694  1.00  0.00     0.091 A 
ATOM     84  F   UNL     1      18.871  -3.888  -2.930  1.00  0.00    -0.205 F 
ATOM     85  C   UNL     1      20.711  -0.727  -3.103  1.00  0.00     0.022 A 
BRANCH  83  86
ATOM     86  S   UNL     1      21.258  -2.738  -1.332  1.00  0.00     0.127 S 
ATOM     87  O   UNL     1      22.584  -2.904  -1.925  1.00  0.00    -0.237 OA
ATOM     88  O   UNL     1      21.163  -1.687  -0.319  1.00  0.00    -0.237 OA
ATOM     89  O   UNL     1      20.565  -3.973  -0.992  1.00  0.00    -0.744 OA
ENDBRANCH  83  86
ENDBRANCH  55  79
BRANCH  67  90
ATOM     90  C   UNL     1      16.596  -4.517 -10.496  1.00  0.00     0.023 A 
ATOM     91  C   UNL     1      17.416  -5.652 -10.636  1.00  0.00     0.012 A 
ATOM     92  C   UNL     1      16.379  -3.671 -11.601  1.00  0.00     0.148 A 
ATOM     93  C   UNL     1      18.018  -5.940 -11.859  1.00  0.00     0.002 A 
ATOM     94  C   UNL     1      16.956  -3.983 -12.825  1.00  0.00     0.091 A 
ATOM     95  F   UNL     1      15.601  -2.592 -11.435  1.00  0.00    -0.205 F 
ATOM     96  C   UNL     1      17.779  -5.114 -12.955  1.00  0.00     0.022 A 
BRANCH  94  97
ATOM     97  S   UNL     1      16.650  -3.022 -14.312  1.00  0.00     0.127 S 
ATOM     98  O   UNL     1      17.963  -2.428 -14.558  1.00  0.00    -0.237 OA
ATOM     99  O   UNL     1      16.258  -4.055 -15.271  1.00  0.00    -0.237 OA
ATOM    100  O   UNL     1      15.596  -2.076 -13.973  1.00  0.00    -0.744 OA
ENDBRANCH  94  97
ENDBRANCH  67  90
ENDBRANCH  41  42
ENDBRANCH  33  36
ENDBRANCH  31  32
ENDBRANCH   1  31
TORSDOF 18
