REMARK SMILES O=C(NCCCNC(=O)c1ccc2c(c1)OCCOCCOCCO2)c1ccc(-c2c3nc(c(-c4cccc(S(=O)(=O)[O-])c4F)c4ccc([nH]4)c(-c4cccc(S(=O)(=O)[O-])c4F)c4nc(c(-c5cccc(S(=O)(=O)[O-])c5F)c5ccc2[nH]5)C=C4)C=C3)cc1
REMARK SMILES IDX 6 1 5 2 4 3 3 4 1 5 2 6 26 8 27 9 88 10 28 11 87 12 29 13
REMARK SMILES IDX 30 14 31 15 81 16 32 17 86 18 80 19 82 20 33 21 85 22 79 23
REMARK SMILES IDX 78 24 34 26 66 27 46 28 65 29 47 30 50 31 64 32 83 33 48 34
REMARK SMILES IDX 49 35 63 37 84 38 51 39 35 40 36 41 44 42 37 43 39 44 45 45
REMARK SMILES IDX 38 46 40 47 41 48 42 49 43 50 67 51 68 52 76 53 69 54 71 55
REMARK SMILES IDX 77 56 70 57 72 58 73 59 74 60 75 61 52 62 53 63 61 64 54 65
REMARK SMILES IDX 56 66 62 67 55 68 57 69 58 70 59 71 60 72 7 73 8 74 9 76
REMARK SMILES IDX 10 77 11 78 15 79 12 80 14 81 13 82 16 83 17 84 18 85 19 86
REMARK SMILES IDX 20 87 25 89 24 90 23 91 22 92 21 93
REMARK H PARENT 3 7 82 25 50 36 7 75
REMARK Flexibility Score: 80.00
ROOT
ATOM      1  C   UNL     1       4.378   2.405  -2.890  1.00  0.00     0.118 C 
ENDROOT
BRANCH   1   2
ATOM      2  C   UNL     1       4.965   1.195  -2.176  1.00  0.00     0.042 C 
BRANCH   2   3
ATOM      3  C   UNL     1       4.600   1.085  -0.701  1.00  0.00     0.118 C 
BRANCH   3   4
ATOM      4  N   UNL     1       3.166   0.976  -0.476  1.00  0.00    -0.352 N 
ATOM      5  O   UNL     1       1.198   0.040   0.042  1.00  0.00    -0.269 OA
ATOM      6  C   UNL     1       2.424  -0.015   0.116  1.00  0.00     0.251 C 
ATOM      7  H   UNL     1       2.640   1.742  -0.804  1.00  0.00     0.163 HD
BRANCH   6   8
ATOM      8  C   UNL     1       3.070  -1.144   0.826  1.00  0.00     0.039 A 
ATOM      9  C   UNL     1       2.482  -2.410   0.742  1.00  0.00     0.014 A 
ATOM     10  C   UNL     1       4.208  -0.965   1.616  1.00  0.00     0.014 A 
ATOM     11  C   UNL     1       3.055  -3.494   1.413  1.00  0.00     0.010 A 
ATOM     12  C   UNL     1       4.833  -2.063   2.206  1.00  0.00     0.010 A 
ATOM     13  C   UNL     1       4.250  -3.335   2.135  1.00  0.00    -0.014 A 
BRANCH  13  14
ATOM     14  C   UNL     1       4.867  -4.481   2.855  1.00  0.00     0.031 A 
ATOM     15  C   UNL     1       5.026  -4.439   4.354  1.00  0.00     0.074 A 
ATOM     16  C   UNL     1       5.314  -5.549   2.163  1.00  0.00     0.049 A 
ATOM     17  N   UNL     1       5.551  -5.337   5.148  1.00  0.00    -0.248 NA
ATOM     18  C   UNL     1       4.560  -3.229   5.054  1.00  0.00     0.031 C 
ATOM     19  C   UNL     1       5.294  -5.681   0.705  1.00  0.00     0.029 A 
ATOM     20  N   UNL     1       5.881  -6.724   2.593  1.00  0.00    -0.354 N 
ATOM     21  C   UNL     1       5.506  -4.790   6.425  1.00  0.00     0.074 A 
ATOM     22  C   UNL     1       4.938  -3.467   6.303  1.00  0.00     0.031 C 
ATOM     23  C   UNL     1       5.799  -6.877   0.363  1.00  0.00     0.029 A 
ATOM     24  C   UNL     1       6.200  -7.590   1.573  1.00  0.00     0.049 A 
ATOM     25  H   UNL     1       6.043  -6.927   3.542  1.00  0.00     0.167 HD
ATOM     26  C   UNL     1       5.861  -5.354   7.601  1.00  0.00     0.034 A 
ATOM     27  C   UNL     1       6.747  -8.822   1.604  1.00  0.00     0.034 A 
ATOM     28  C   UNL     1       6.345  -6.697   7.737  1.00  0.00     0.049 A 
ATOM     29  C   UNL     1       7.071  -9.452   2.930  1.00  0.00     0.074 A 
ATOM     30  C   UNL     1       6.648  -7.380   8.901  1.00  0.00     0.029 A 
ATOM     31  N   UNL     1       6.578  -7.564   6.685  1.00  0.00    -0.354 N 
ATOM     32  N   UNL     1       6.906  -8.959   4.132  1.00  0.00    -0.248 NA
ATOM     33  C   UNL     1       7.627 -10.815   2.912  1.00  0.00     0.031 C 
ATOM     34  C   UNL     1       7.064  -8.666   8.553  1.00  0.00     0.029 A 
ATOM     35  C   UNL     1       7.014  -8.781   7.172  1.00  0.00     0.049 A 
ATOM     36  H   UNL     1       6.453  -7.347   5.733  1.00  0.00     0.167 HD
ATOM     37  C   UNL     1       7.315  -9.954   5.012  1.00  0.00     0.074 A 
ATOM     38  C   UNL     1       7.725 -11.085   4.208  1.00  0.00     0.031 C 
ATOM     39  C   UNL     1       7.359  -9.920   6.364  1.00  0.00     0.034 A 
BRANCH  26  40
ATOM     40  C   UNL     1       5.648  -4.567   8.863  1.00  0.00     0.023 A 
ATOM     41  C   UNL     1       4.349  -4.493   9.405  1.00  0.00     0.012 A 
ATOM     42  C   UNL     1       6.734  -4.028   9.578  1.00  0.00     0.148 A 
ATOM     43  C   UNL     1       4.133  -3.889  10.642  1.00  0.00     0.002 A 
ATOM     44  C   UNL     1       6.515  -3.454  10.825  1.00  0.00     0.091 A 
ATOM     45  F   UNL     1       7.958  -4.109   9.036  1.00  0.00    -0.205 F 
ATOM     46  C   UNL     1       5.215  -3.382  11.356  1.00  0.00     0.022 A 
BRANCH  44  47
ATOM     47  S   UNL     1       7.842  -2.822  11.856  1.00  0.00     0.127 S 
ATOM     48  O   UNL     1       7.475  -1.410  11.976  1.00  0.00    -0.237 OA
ATOM     49  O   UNL     1       7.674  -3.602  13.082  1.00  0.00    -0.237 OA
ATOM     50  O   UNL     1       9.077  -3.074  11.128  1.00  0.00    -0.744 OA
ENDBRANCH  44  47
ENDBRANCH  26  40
BRANCH  27  51
ATOM     51  C   UNL     1       6.947  -9.565   0.330  1.00  0.00     0.023 A 
ATOM     52  C   UNL     1       6.067 -10.613  -0.003  1.00  0.00     0.012 A 
ATOM     53  C   UNL     1       7.955  -9.195  -0.580  1.00  0.00     0.148 A 
ATOM     54  C   UNL     1       6.195 -11.288  -1.217  1.00  0.00     0.002 A 
ATOM     55  C   UNL     1       8.052  -9.845  -1.805  1.00  0.00     0.091 A 
ATOM     56  F   UNL     1       8.783  -8.199  -0.237  1.00  0.00    -0.205 F 
ATOM     57  C   UNL     1       7.179 -10.898  -2.121  1.00  0.00     0.022 A 
BRANCH  55  58
ATOM     58  S   UNL     1       9.216  -9.342  -3.078  1.00  0.00     0.127 S 
ATOM     59  O   UNL     1      10.114 -10.494  -3.132  1.00  0.00    -0.237 OA
ATOM     60  O   UNL     1       8.340  -9.188  -4.241  1.00  0.00    -0.237 OA
ATOM     61  O   UNL     1       9.811  -8.102  -2.603  1.00  0.00    -0.744 OA
ENDBRANCH  55  58
ENDBRANCH  27  51
BRANCH  39  62
ATOM     62  C   UNL     1       7.846 -11.134   7.103  1.00  0.00     0.023 A 
ATOM     63  C   UNL     1       9.231 -11.331   7.256  1.00  0.00     0.012 A 
ATOM     64  C   UNL     1       6.940 -11.951   7.806  1.00  0.00     0.148 A 
ATOM     65  C   UNL     1       9.710 -12.322   8.110  1.00  0.00     0.002 A 
ATOM     66  C   UNL     1       7.425 -12.916   8.680  1.00  0.00     0.091 A 
ATOM     67  F   UNL     1       5.627 -11.734   7.642  1.00  0.00    -0.205 F 
ATOM     68  C   UNL     1       8.809 -13.103   8.832  1.00  0.00     0.022 A 
BRANCH  66  69
ATOM     69  S   UNL     1       6.351 -13.914   9.717  1.00  0.00     0.127 S 
ATOM     70  O   UNL     1       6.662 -15.266   9.253  1.00  0.00    -0.237 OA
ATOM     71  O   UNL     1       6.843 -13.601  11.059  1.00  0.00    -0.237 OA
ATOM     72  O   UNL     1       4.992 -13.470   9.442  1.00  0.00    -0.744 OA
ENDBRANCH  66  69
ENDBRANCH  39  62
ENDBRANCH  13  14
ENDBRANCH   6   8
ENDBRANCH   3   4
ENDBRANCH   2   3
ENDBRANCH   1   2
BRANCH   1  73
ATOM     73  N   UNL     1       4.845   3.667  -2.336  1.00  0.00    -0.352 N 
ATOM     74  C   UNL     1       5.701   4.596  -2.865  1.00  0.00     0.251 C 
ATOM     75  H   UNL     1       4.493   3.887  -1.443  1.00  0.00     0.163 HD
ATOM     76  O   UNL     1       6.114   5.524  -2.170  1.00  0.00    -0.269 OA
BRANCH  74  77
ATOM     77  C   UNL     1       6.152   4.493  -4.268  1.00  0.00     0.043 A 
ATOM     78  C   UNL     1       5.232   4.345  -5.313  1.00  0.00     0.018 A 
ATOM     79  C   UNL     1       7.523   4.611  -4.532  1.00  0.00     0.064 A 
ATOM     80  C   UNL     1       5.692   4.214  -6.621  1.00  0.00     0.051 A 
ATOM     81  C   UNL     1       7.984   4.532  -5.843  1.00  0.00     0.162 A 
ATOM     82  C   UNL     1       7.060   4.310  -6.879  1.00  0.00     0.161 A 
BRANCH  81  83
ATOM     83  O   UNL     1       9.280   4.679  -6.238  1.00  0.00    -0.487 OA
BRANCH  83  84
ATOM     84  C   UNL     1      10.303   4.841  -5.261  1.00  0.00     0.258 C 
BRANCH  84  85
ATOM     85  C   UNL     1      11.609   5.314  -5.929  1.00  0.00     0.201 C 
BRANCH  85  86
ATOM     86  O   UNL     1      11.776   4.838  -7.268  1.00  0.00    -0.376 OA
BRANCH  86  87
ATOM     87  C   UNL     1      11.126   5.688  -8.221  1.00  0.00     0.188 CG0
ATOM     88  G   UNL     1      10.691   4.875  -9.436  1.00  0.00     0.000 G0
ENDBRANCH  86  87
ENDBRANCH  85  86
ENDBRANCH  84  85
ENDBRANCH  83  84
ENDBRANCH  81  83
BRANCH  82  89
ATOM     89  O   UNL     1       7.500   4.066  -8.157  1.00  0.00    -0.487 OA
BRANCH  89  90
ATOM     90  C   UNL     1       7.621   5.281  -8.909  1.00  0.00     0.258 C 
BRANCH  90  91
ATOM     91  C   UNL     1       8.417   4.988 -10.188  1.00  0.00     0.201 C 
BRANCH  91  92
ATOM     92  O   UNL     1       9.717   5.596 -10.199  1.00  0.00    -0.376 OA
BRANCH  92  93
ATOM     93  C   UNL     1      10.691   4.875  -9.436  1.00  0.00     0.188 CG0
ATOM     94  G   UNL     1      11.126   5.688  -8.221  1.00  0.00     0.000 G0
ENDBRANCH  92  93
ENDBRANCH  91  92
ENDBRANCH  90  91
ENDBRANCH  89  90
ENDBRANCH  82  89
ENDBRANCH  74  77
ENDBRANCH   1  73
TORSDOF 13
