REMARK SMILES CCC[C@]1(C(=O)NCCCNC(=O)c2ccc(-c3c4nc(c(-c5cccc(S(=O)(=O)[O-])c5F)c5ccc([nH]5)c(-c5cccc(S(=O)(=O)[O-])c5F)c5nc(c(-c6cccc(S(=O)(=O)[O-])c6F)c6ccc3[nH]6)C=C5)C=C4)cc2)CCN(C(=O)N[C@H]2CCOC2)C1
REMARK SMILES IDX 9 1 8 2 7 3 5 4 6 5 4 7 77 8 88 9 78 10 79 11 3 12 2 13 1 14
REMARK SMILES IDX 80 15 81 16 82 17 83 19 84 20 87 21 85 22 86 23 10 24 11 25
REMARK SMILES IDX 12 26 13 28 14 29 15 30 76 31 16 32 75 33 17 34 18 35 19 36
REMARK SMILES IDX 69 37 20 38 74 39 68 40 70 41 21 42 73 43 67 44 66 45 22 47
REMARK SMILES IDX 54 48 34 49 53 50 35 51 38 52 52 53 71 54 36 55 37 56 51 58
REMARK SMILES IDX 72 59 39 60 23 61 24 62 32 63 25 64 27 65 33 66 26 67 28 68
REMARK SMILES IDX 29 69 30 70 31 71 55 72 56 73 64 74 57 75 59 76 65 77 58 78
REMARK SMILES IDX 60 79 61 80 62 81 63 82 40 83 41 84 49 85 42 86 44 87 50 88
REMARK SMILES IDX 43 89 45 90 46 91 47 92 48 93
REMARK H PARENT 7 6 82 18 11 27 70 46 38 57
REMARK Flexibility Score: inf
ROOT
ATOM      1  C   UNL     1       6.636   5.327  -0.868  1.00  0.00     0.042 C 
ENDROOT
BRANCH   1   2
ATOM      2  C   UNL     1       5.418   5.019  -1.727  1.00  0.00     0.117 C 
BRANCH   2   3
ATOM      3  N   UNL     1       5.422   3.664  -2.247  1.00  0.00    -0.355 N 
ATOM      4  C   UNL     1       4.625   2.587  -2.050  1.00  0.00     0.228 C 
ATOM      5  O   UNL     1       4.816   1.660  -2.845  1.00  0.00    -0.274 OA
ATOM      6  H   UNL     1       6.159   3.491  -2.876  1.00  0.00     0.163 HD
BRANCH   4   7
ATOM      7  C   UNL     1       3.512   2.514  -0.989  1.00  0.00     0.068 C 
ATOM      8  C   UNL     1       3.886   2.911   0.462  1.00  0.00     0.040 C 
ATOM      9  C   UNL     1       2.433   3.581  -1.362  1.00  0.00     0.138 C 
ATOM     10  C   UNL     1       2.622   3.593   0.960  1.00  0.00     0.122 C 
ATOM     11  N   UNL     1       2.268   4.407  -0.163  1.00  0.00    -0.324 N 
BRANCH   7  12
ATOM     12  C   UNL     1       2.874   1.084  -0.964  1.00  0.00     0.018 C 
BRANCH  12  13
ATOM     13  C   UNL     1       3.789  -0.159  -0.872  1.00  0.00    -0.002 C 
ATOM     14  C   UNL     1       5.009  -0.087   0.033  1.00  0.00     0.004 C 
ENDBRANCH  12  13
ENDBRANCH   7  12
BRANCH  11  15
ATOM     15  C   UNL     1       1.843   5.681  -0.266  1.00  0.00     0.317 C 
ATOM     16  O   UNL     1       1.344   6.082  -1.326  1.00  0.00    -0.249 OA
ATOM     17  N   UNL     1       1.926   6.612   0.689  1.00  0.00    -0.333 N 
ATOM     18  H   UNL     1       1.316   7.346   0.445  1.00  0.00     0.165 HD
BRANCH  17  19
ATOM     19  C   UNL     1       2.571   6.970   1.965  1.00  0.00     0.112 C 
ATOM     20  C   UNL     1       3.549   6.069   2.675  1.00  0.00     0.056 C 
ATOM     21  C   UNL     1       3.420   8.242   1.808  1.00  0.00     0.185 C 
ATOM     22  C   UNL     1       4.346   7.016   3.545  1.00  0.00     0.162 C 
ATOM     23  O   UNL     1       4.414   8.251   2.835  1.00  0.00    -0.379 OA
ENDBRANCH  17  19
ENDBRANCH  11  15
ENDBRANCH   4   7
ENDBRANCH   2   3
ENDBRANCH   1   2
BRANCH   1  24
ATOM     24  C   UNL     1       7.974   5.014  -1.528  1.00  0.00     0.118 C 
BRANCH  24  25
ATOM     25  N   UNL     1       8.187   5.750  -2.766  1.00  0.00    -0.352 N 
ATOM     26  C   UNL     1       9.138   6.691  -3.081  1.00  0.00     0.251 C 
ATOM     27  H   UNL     1       7.552   5.542  -3.489  1.00  0.00     0.163 HD
ATOM     28  O   UNL     1       9.047   7.320  -4.130  1.00  0.00    -0.269 OA
BRANCH  26  29
ATOM     29  C   UNL     1      10.255   6.960  -2.150  1.00  0.00     0.039 A 
ATOM     30  C   UNL     1      10.607   8.286  -1.883  1.00  0.00     0.014 A 
ATOM     31  C   UNL     1      10.955   5.914  -1.544  1.00  0.00     0.014 A 
ATOM     32  C   UNL     1      11.614   8.562  -0.955  1.00  0.00     0.010 A 
ATOM     33  C   UNL     1      11.896   6.192  -0.558  1.00  0.00     0.010 A 
ATOM     34  C   UNL     1      12.240   7.518  -0.255  1.00  0.00    -0.014 A 
BRANCH  34  35
ATOM     35  C   UNL     1      13.246   7.787   0.805  1.00  0.00     0.031 A 
ATOM     36  C   UNL     1      14.653   7.270   0.662  1.00  0.00     0.074 A 
ATOM     37  C   UNL     1      12.867   8.406   1.942  1.00  0.00     0.049 A 
ATOM     38  N   UNL     1      15.641   7.323   1.518  1.00  0.00    -0.248 NA
ATOM     39  C   UNL     1      14.987   6.576  -0.593  1.00  0.00     0.031 C 
ATOM     40  C   UNL     1      11.514   8.883   2.236  1.00  0.00     0.029 A 
ATOM     41  N   UNL     1      13.577   8.706   3.079  1.00  0.00    -0.354 N 
ATOM     42  C   UNL     1      16.693   6.632   0.928  1.00  0.00     0.074 A 
ATOM     43  C   UNL     1      16.218   6.149  -0.350  1.00  0.00     0.031 C 
ATOM     44  C   UNL     1      11.489   9.406   3.472  1.00  0.00     0.029 A 
ATOM     45  C   UNL     1      12.811   9.270   4.074  1.00  0.00     0.049 A 
ATOM     46  H   UNL     1      14.541   8.534   3.174  1.00  0.00     0.167 HD
ATOM     47  C   UNL     1      17.947   6.436   1.397  1.00  0.00     0.034 A 
ATOM     48  C   UNL     1      13.129   9.618   5.337  1.00  0.00     0.034 A 
ATOM     49  C   UNL     1      18.431   6.960   2.646  1.00  0.00     0.049 A 
ATOM     50  C   UNL     1      14.545   9.431   5.813  1.00  0.00     0.074 A 
ATOM     51  C   UNL     1      19.715   6.908   3.157  1.00  0.00     0.029 A 
ATOM     52  N   UNL     1      17.651   7.616   3.584  1.00  0.00    -0.354 N 
ATOM     53  N   UNL     1      15.571   8.928   5.171  1.00  0.00    -0.248 NA
ATOM     54  C   UNL     1      14.857   9.891   7.174  1.00  0.00     0.031 C 
ATOM     55  C   UNL     1      19.704   7.500   4.423  1.00  0.00     0.029 A 
ATOM     56  C   UNL     1      18.423   7.958   4.681  1.00  0.00     0.049 A 
ATOM     57  H   UNL     1      16.691   7.810   3.486  1.00  0.00     0.167 HD
ATOM     58  C   UNL     1      16.655   9.044   6.033  1.00  0.00     0.074 A 
ATOM     59  C   UNL     1      16.166   9.685   7.236  1.00  0.00     0.031 C 
ATOM     60  C   UNL     1      17.937   8.645   5.850  1.00  0.00     0.034 A 
BRANCH  47  61
ATOM     61  C   UNL     1      18.909   5.652   0.544  1.00  0.00     0.023 A 
ATOM     62  C   UNL     1      19.424   6.222  -0.638  1.00  0.00     0.012 A 
ATOM     63  C   UNL     1      19.369   4.386   0.958  1.00  0.00     0.148 A 
ATOM     64  C   UNL     1      20.360   5.533  -1.409  1.00  0.00     0.002 A 
ATOM     65  C   UNL     1      20.337   3.726   0.209  1.00  0.00     0.091 A 
ATOM     66  F   UNL     1      18.853   3.852   2.074  1.00  0.00    -0.205 F 
ATOM     67  C   UNL     1      20.824   4.293  -0.980  1.00  0.00     0.022 A 
BRANCH  65  68
ATOM     68  S   UNL     1      21.063   2.165   0.721  1.00  0.00     0.127 S 
ATOM     69  O   UNL     1      20.552   1.253  -0.301  1.00  0.00    -0.237 OA
ATOM     70  O   UNL     1      22.495   2.448   0.625  1.00  0.00    -0.237 OA
ATOM     71  O   UNL     1      20.579   1.918   2.072  1.00  0.00    -0.744 OA
ENDBRANCH  65  68
ENDBRANCH  47  61
BRANCH  48  72
ATOM     72  C   UNL     1      12.096  10.215   6.231  1.00  0.00     0.023 A 
ATOM     73  C   UNL     1      12.198  11.568   6.608  1.00  0.00     0.012 A 
ATOM     74  C   UNL     1      11.011   9.451   6.703  1.00  0.00     0.148 A 
ATOM     75  C   UNL     1      11.261  12.139   7.470  1.00  0.00     0.002 A 
ATOM     76  C   UNL     1      10.049  10.041   7.515  1.00  0.00     0.091 A 
ATOM     77  F   UNL     1      10.937   8.162   6.343  1.00  0.00    -0.205 F 
ATOM     78  C   UNL     1      10.182  11.379   7.915  1.00  0.00     0.022 A 
BRANCH  76  79
ATOM     79  S   UNL     1       8.564   9.172   8.032  1.00  0.00     0.127 S 
ATOM     80  O   UNL     1       8.826   8.950   9.452  1.00  0.00    -0.237 OA
ATOM     81  O   UNL     1       7.520  10.157   7.745  1.00  0.00    -0.237 OA
ATOM     82  O   UNL     1       8.500   7.974   7.205  1.00  0.00    -0.744 OA
ENDBRANCH  76  79
ENDBRANCH  48  72
BRANCH  60  83
ATOM     83  C   UNL     1      18.927   8.927   6.951  1.00  0.00     0.023 A 
ATOM     84  C   UNL     1      18.874   8.192   8.152  1.00  0.00     0.012 A 
ATOM     85  C   UNL     1      19.963   9.861   6.755  1.00  0.00     0.148 A 
ATOM     86  C   UNL     1      19.820   8.406   9.154  1.00  0.00     0.002 A 
ATOM     87  C   UNL     1      20.933  10.030   7.735  1.00  0.00     0.091 A 
ATOM     88  F   UNL     1      19.985  10.561   5.612  1.00  0.00    -0.205 F 
ATOM     89  C   UNL     1      20.855   9.313   8.941  1.00  0.00     0.022 A 
BRANCH  87  90
ATOM     90  S   UNL     1      22.357  11.100   7.508  1.00  0.00     0.127 S 
ATOM     91  O   UNL     1      22.067  12.185   8.445  1.00  0.00    -0.237 OA
ATOM     92  O   UNL     1      23.464  10.230   7.907  1.00  0.00    -0.237 OA
ATOM     93  O   UNL     1      22.359  11.477   6.101  1.00  0.00    -0.744 OA
ENDBRANCH  87  90
ENDBRANCH  60  83
ENDBRANCH  34  35
ENDBRANCH  26  29
ENDBRANCH  24  25
ENDBRANCH   1  24
TORSDOF 17
