REMARK SMILES C[C@@H](C(=O)NCCCNC(=O)c1ccc(-c2c3nc(c(-c4cccc(S(=O)(=O)[O-])c4F)c4ccc([nH]4)c(-c4cccc(S(=O)(=O)[O-])c4F)c4nc(c(-c5cccc(S(=O)(=O)[O-])c5F)c5ccc2[nH]5)C=C4)C=C3)cc1)[C@@H](N[S@](=O)C(C)(C)C)C(C)(C)C
REMARK SMILES IDX 6 1 5 2 3 3 4 4 2 6 1 7 75 8 76 9 77 11 78 12 79 13 80 14
REMARK SMILES IDX 81 15 82 16 83 17 84 18 85 19 86 20 7 21 8 22 9 23 10 24
REMARK SMILES IDX 11 26 12 27 13 28 74 29 14 30 73 31 15 32 16 33 17 34 67 35
REMARK SMILES IDX 18 36 72 37 66 38 68 39 19 40 71 41 65 42 64 43 20 45 52 46
REMARK SMILES IDX 32 47 51 48 33 49 36 50 50 51 69 52 34 53 35 54 49 56 70 57
REMARK SMILES IDX 37 58 21 59 22 60 30 61 23 62 25 63 31 64 24 65 26 66 27 67
REMARK SMILES IDX 28 68 29 69 53 70 54 71 62 72 55 73 57 74 63 75 56 76 58 77
REMARK SMILES IDX 59 78 60 79 61 80 38 81 39 82 47 83 40 84 42 85 48 86 41 87
REMARK SMILES IDX 43 88 44 89 45 90 46 91
REMARK H PARENT 5 5 76 10 9 25 68 44 36 55
REMARK Flexibility Score: inf
ROOT
ATOM      1  C   UNL     1      -6.096  -3.597   5.832  1.00  0.00     0.117 C 
ENDROOT
BRANCH   1   2
ATOM      2  N   UNL     1      -6.696  -3.435   4.516  1.00  0.00    -0.356 N 
ATOM      3  C   UNL     1      -6.524  -2.443   3.595  1.00  0.00     0.224 C 
ATOM      4  O   UNL     1      -7.392  -2.299   2.734  1.00  0.00    -0.275 OA
ATOM      5  H   UNL     1      -7.319  -4.149   4.250  1.00  0.00     0.163 HD
BRANCH   3   6
ATOM      6  C   UNL     1      -5.292  -1.548   3.665  1.00  0.00     0.094 C 
ATOM      7  C   UNL     1      -5.699  -0.397   4.607  1.00  0.00     0.020 C 
BRANCH   6   8
ATOM      8  C   UNL     1      -4.808  -1.071   2.227  1.00  0.00     0.085 C 
BRANCH   8   9
ATOM      9  N   UNL     1      -3.826   0.038   2.432  1.00  0.00    -0.233 NA
ATOM     10  H   UNL     1      -3.111  -0.345   3.050  1.00  0.00     0.138 HD
BRANCH   9  11
ATOM     11  S   UNL     1      -2.996   0.813   1.226  1.00  0.00     0.097 S 
ATOM     12  O   UNL     1      -1.550   1.010   1.563  1.00  0.00    -0.242 OA
BRANCH  11  13
ATOM     13  C   UNL     1      -3.817   2.478   1.287  1.00  0.00     0.052 C 
ATOM     14  C   UNL     1      -3.378   3.260   2.530  1.00  0.00     0.027 C 
ATOM     15  C   UNL     1      -3.337   3.226   0.026  1.00  0.00     0.027 C 
ATOM     16  C   UNL     1      -5.343   2.356   1.226  1.00  0.00     0.027 C 
ENDBRANCH  11  13
ENDBRANCH   9  11
ENDBRANCH   8   9
BRANCH   8  17
ATOM     17  C   UNL     1      -4.252  -2.264   1.288  1.00  0.00    -0.021 C 
ATOM     18  C   UNL     1      -5.254  -3.428   1.103  1.00  0.00     0.012 C 
ATOM     19  C   UNL     1      -3.974  -1.781  -0.162  1.00  0.00     0.012 C 
ATOM     20  C   UNL     1      -2.957  -2.874   1.862  1.00  0.00     0.012 C 
ENDBRANCH   8  17
ENDBRANCH   6   8
ENDBRANCH   3   6
ENDBRANCH   1   2
BRANCH   1  21
ATOM     21  C   UNL     1      -7.088  -3.216   6.933  1.00  0.00     0.042 C 
BRANCH  21  22
ATOM     22  C   UNL     1      -8.321  -4.116   7.008  1.00  0.00     0.118 C 
BRANCH  22  23
ATOM     23  N   UNL     1      -8.002  -5.471   7.439  1.00  0.00    -0.352 N 
ATOM     24  C   UNL     1      -8.460  -6.178   8.523  1.00  0.00     0.251 C 
ATOM     25  H   UNL     1      -7.363  -5.952   6.865  1.00  0.00     0.163 HD
ATOM     26  O   UNL     1      -7.931  -7.252   8.809  1.00  0.00    -0.269 OA
BRANCH  24  27
ATOM     27  C   UNL     1      -9.558  -5.650   9.364  1.00  0.00     0.039 A 
ATOM     28  C   UNL     1      -9.428  -5.715  10.754  1.00  0.00     0.014 A 
ATOM     29  C   UNL     1     -10.711  -5.101   8.797  1.00  0.00     0.014 A 
ATOM     30  C   UNL     1     -10.412  -5.154  11.572  1.00  0.00     0.010 A 
ATOM     31  C   UNL     1     -11.661  -4.483   9.613  1.00  0.00     0.010 A 
ATOM     32  C   UNL     1     -11.514  -4.488  11.008  1.00  0.00    -0.014 A 
BRANCH  32  33
ATOM     33  C   UNL     1     -12.466  -3.727  11.861  1.00  0.00     0.031 A 
ATOM     34  C   UNL     1     -13.921  -4.106  11.934  1.00  0.00     0.074 A 
ATOM     35  C   UNL     1     -12.028  -2.624  12.505  1.00  0.00     0.049 A 
ATOM     36  N   UNL     1     -14.891  -3.517  12.584  1.00  0.00    -0.248 NA
ATOM     37  C   UNL     1     -14.347  -5.288  11.165  1.00  0.00     0.031 C 
ATOM     38  C   UNL     1     -10.659  -2.105  12.455  1.00  0.00     0.029 A 
ATOM     39  N   UNL     1     -12.693  -1.722  13.300  1.00  0.00    -0.354 N 
ATOM     40  C   UNL     1     -16.045  -4.230  12.280  1.00  0.00     0.074 A 
ATOM     41  C   UNL     1     -15.657  -5.290  11.374  1.00  0.00     0.031 C 
ATOM     42  C   UNL     1     -10.586  -0.978  13.180  1.00  0.00     0.029 A 
ATOM     43  C   UNL     1     -11.908  -0.669  13.715  1.00  0.00     0.049 A 
ATOM     44  H   UNL     1     -13.640  -1.819  13.550  1.00  0.00     0.167 HD
ATOM     45  C   UNL     1     -17.308  -4.029  12.728  1.00  0.00     0.034 A 
ATOM     46  C   UNL     1     -12.218   0.434  14.423  1.00  0.00     0.034 A 
ATOM     47  C   UNL     1     -17.685  -2.996  13.656  1.00  0.00     0.049 A 
ATOM     48  C   UNL     1     -13.628   0.616  14.917  1.00  0.00     0.074 A 
ATOM     49  C   UNL     1     -18.920  -2.784  14.247  1.00  0.00     0.029 A 
ATOM     50  N   UNL     1     -16.849  -1.990  14.111  1.00  0.00    -0.354 N 
ATOM     51  N   UNL     1     -14.662  -0.174  14.769  1.00  0.00    -0.248 NA
ATOM     52  C   UNL     1     -13.907   1.829  15.701  1.00  0.00     0.031 C 
ATOM     53  C   UNL     1     -18.841  -1.625  15.024  1.00  0.00     0.029 A 
ATOM     54  C   UNL     1     -17.547  -1.137  14.950  1.00  0.00     0.049 A 
ATOM     55  H   UNL     1     -15.899  -1.895  13.872  1.00  0.00     0.167 HD
ATOM     56  C   UNL     1     -15.704   0.429  15.464  1.00  0.00     0.074 A 
ATOM     57  C   UNL     1     -15.168   1.633  16.062  1.00  0.00     0.031 C 
ATOM     58  C   UNL     1     -16.996   0.034  15.579  1.00  0.00     0.034 A 
BRANCH  45  59
ATOM     59  C   UNL     1     -18.390  -4.966  12.259  1.00  0.00     0.023 A 
ATOM     60  C   UNL     1     -18.445  -6.279  12.768  1.00  0.00     0.012 A 
ATOM     61  C   UNL     1     -19.419  -4.508  11.413  1.00  0.00     0.148 A 
ATOM     62  C   UNL     1     -19.498  -7.127  12.429  1.00  0.00     0.002 A 
ATOM     63  C   UNL     1     -20.489  -5.344  11.115  1.00  0.00     0.091 A 
ATOM     64  F   UNL     1     -19.340  -3.260  10.929  1.00  0.00    -0.205 F 
ATOM     65  C   UNL     1     -20.525  -6.656  11.615  1.00  0.00     0.022 A 
BRANCH  63  66
ATOM     66  S   UNL     1     -21.903  -4.808  10.145  1.00  0.00     0.127 S 
ATOM     67  O   UNL     1     -21.782  -5.653   8.957  1.00  0.00    -0.237 OA
ATOM     68  O   UNL     1     -23.022  -5.147  11.023  1.00  0.00    -0.237 OA
ATOM     69  O   UNL     1     -21.717  -3.383   9.912  1.00  0.00    -0.744 OA
ENDBRANCH  63  66
ENDBRANCH  45  59
BRANCH  46  70
ATOM     70  C   UNL     1     -11.173   1.453  14.729  1.00  0.00     0.023 A 
ATOM     71  C   UNL     1     -10.764   1.655  16.062  1.00  0.00     0.012 A 
ATOM     72  C   UNL     1     -10.592   2.232  13.709  1.00  0.00     0.148 A 
ATOM     73  C   UNL     1      -9.833   2.645  16.378  1.00  0.00     0.002 A 
ATOM     74  C   UNL     1      -9.619   3.173  14.024  1.00  0.00     0.091 A 
ATOM     75  F   UNL     1     -11.003   2.038  12.448  1.00  0.00    -0.205 F 
ATOM     76  C   UNL     1      -9.255   3.398  15.360  1.00  0.00     0.022 A 
BRANCH  74  77
ATOM     77  S   UNL     1      -8.726   4.085  12.760  1.00  0.00     0.127 S 
ATOM     78  O   UNL     1      -9.313   5.417  12.880  1.00  0.00    -0.237 OA
ATOM     79  O   UNL     1      -7.343   3.975  13.226  1.00  0.00    -0.237 OA
ATOM     80  O   UNL     1      -8.991   3.382  11.512  1.00  0.00    -0.744 OA
ENDBRANCH  74  77
ENDBRANCH  46  70
BRANCH  58  81
ATOM     81  C   UNL     1     -17.919   0.893  16.403  1.00  0.00     0.023 A 
ATOM     82  C   UNL     1     -18.323   2.153  15.919  1.00  0.00     0.012 A 
ATOM     83  C   UNL     1     -18.438   0.425  17.627  1.00  0.00     0.148 A 
ATOM     84  C   UNL     1     -19.197   2.950  16.656  1.00  0.00     0.002 A 
ATOM     85  C   UNL     1     -19.351   1.202  18.331  1.00  0.00     0.091 A 
ATOM     86  F   UNL     1     -18.032  -0.771  18.078  1.00  0.00    -0.205 F 
ATOM     87  C   UNL     1     -19.720   2.470  17.855  1.00  0.00     0.022 A 
BRANCH  85  88
ATOM     88  S   UNL     1     -20.150   0.630  19.834  1.00  0.00     0.127 S 
ATOM     89  O   UNL     1     -19.551   1.505  20.841  1.00  0.00    -0.237 OA
ATOM     90  O   UNL     1     -21.561   0.898  19.555  1.00  0.00    -0.237 OA
ATOM     91  O   UNL     1     -19.814  -0.782  19.959  1.00  0.00    -0.744 OA
ENDBRANCH  85  88
ENDBRANCH  58  81
ENDBRANCH  32  33
ENDBRANCH  24  27
ENDBRANCH  22  23
ENDBRANCH  21  22
ENDBRANCH   1  21
TORSDOF 18
