REMARK SMILES O=C(NCCCNC(=O)c1cc(Cl)c2c(c1)[C@H]1C=CC[C@H]1[C@H](c1ccc(S(=O)(=O)N3CCOCC3)cc1)N2)c1ccc(-c2c3nc(c(-c4cccc(S(=O)(=O)[O-])c4F)c4ccc([nH]4)c(-c4cccc(S(=O)(=O)[O-])c4F)c4nc(c(-c5cccc(S(=O)(=O)[O-])c5F)c5ccc2[nH]5)C=C4)C=C3)cc1
REMARK SMILES IDX 5 1 4 2 3 3 1 4 2 5 39 7 40 8 101 9 41 10 100 11 42 12 43 13
REMARK SMILES IDX 44 14 94 15 45 16 99 17 93 18 95 19 46 20 98 21 92 22 91 23
REMARK SMILES IDX 47 25 79 26 59 27 78 28 60 29 63 30 77 31 96 32 61 33 62 34
REMARK SMILES IDX 76 36 97 37 64 38 48 39 49 40 57 41 50 42 52 43 58 44 51 45
REMARK SMILES IDX 53 46 54 47 55 48 56 49 80 50 81 51 89 52 82 53 84 54 90 55
REMARK SMILES IDX 83 56 85 57 86 58 87 59 88 60 65 61 66 62 74 63 67 64 69 65
REMARK SMILES IDX 75 66 68 67 70 68 71 69 72 70 73 71 6 72 7 73 8 74 9 76
REMARK SMILES IDX 10 77 11 78 16 79 12 80 15 81 13 82 14 83 17 84 38 85 18 86
REMARK SMILES IDX 21 87 22 88 19 90 20 91 23 92 24 93 37 94 25 95 36 96 26 97
REMARK SMILES IDX 27 98 28 99 29 100 30 101 31 102 35 103 32 104 34 105 33 106
REMARK H PARENT 3 6 95 24 63 35 7 75 38 89
REMARK Flexibility Score: inf
ROOT
ATOM      1  C   UNL     1       4.976   1.984   1.069  1.00  0.00     0.042 C 
ENDROOT
BRANCH   1   2
ATOM      2  C   UNL     1       4.611   0.506   1.070  1.00  0.00     0.118 C 
BRANCH   2   3
ATOM      3  N   UNL     1       3.173   0.290   0.993  1.00  0.00    -0.352 N 
ATOM      4  O   UNL     1       1.189  -0.102   0.012  1.00  0.00    -0.269 OA
ATOM      5  C   UNL     1       2.411  -0.206  -0.035  1.00  0.00     0.251 C 
ATOM      6  H   UNL     1       2.670   0.538   1.802  1.00  0.00     0.163 HD
BRANCH   5   7
ATOM      7  C   UNL     1       3.064  -0.843  -1.196  1.00  0.00     0.039 A 
ATOM      8  C   UNL     1       4.088  -1.777  -1.013  1.00  0.00     0.014 A 
ATOM      9  C   UNL     1       2.632  -0.514  -2.484  1.00  0.00     0.014 A 
ATOM     10  C   UNL     1       4.770  -2.280  -2.116  1.00  0.00     0.010 A 
ATOM     11  C   UNL     1       3.276  -1.069  -3.591  1.00  0.00     0.010 A 
ATOM     12  C   UNL     1       4.370  -1.930  -3.414  1.00  0.00    -0.014 A 
BRANCH  12  13
ATOM     13  C   UNL     1       5.076  -2.507  -4.580  1.00  0.00     0.031 A 
ATOM     14  C   UNL     1       5.933  -1.647  -5.464  1.00  0.00     0.074 A 
ATOM     15  C   UNL     1       4.945  -3.823  -4.831  1.00  0.00     0.049 A 
ATOM     16  N   UNL     1       6.618  -1.989  -6.524  1.00  0.00    -0.248 NA
ATOM     17  C   UNL     1       6.040  -0.221  -5.114  1.00  0.00     0.031 C 
ATOM     18  C   UNL     1       4.130  -4.752  -4.045  1.00  0.00     0.029 A 
ATOM     19  N   UNL     1       5.490  -4.606  -5.815  1.00  0.00    -0.354 N 
ATOM     20  C   UNL     1       7.219  -0.824  -6.981  1.00  0.00     0.074 A 
ATOM     21  C   UNL     1       6.814   0.241  -6.089  1.00  0.00     0.031 C 
ATOM     22  C   UNL     1       4.242  -5.983  -4.567  1.00  0.00     0.029 A 
ATOM     23  C   UNL     1       5.105  -5.923  -5.743  1.00  0.00     0.049 A 
ATOM     24  H   UNL     1       6.099  -4.259  -6.506  1.00  0.00     0.167 HD
ATOM     25  C   UNL     1       8.050  -0.663  -8.037  1.00  0.00     0.034 A 
ATOM     26  C   UNL     1       5.405  -6.967  -6.537  1.00  0.00     0.034 A 
ATOM     27  C   UNL     1       8.472  -1.728  -8.906  1.00  0.00     0.049 A 
ATOM     28  C   UNL     1       6.321  -6.758  -7.707  1.00  0.00     0.074 A 
ATOM     29  C   UNL     1       9.327  -1.661  -9.993  1.00  0.00     0.029 A 
ATOM     30  N   UNL     1       8.076  -3.050  -8.789  1.00  0.00    -0.354 N 
ATOM     31  N   UNL     1       6.932  -5.661  -8.084  1.00  0.00    -0.248 NA
ATOM     32  C   UNL     1       6.608  -7.929  -8.546  1.00  0.00     0.031 C 
ATOM     33  C   UNL     1       9.448  -2.945 -10.532  1.00  0.00     0.029 A 
ATOM     34  C   UNL     1       8.674  -3.812  -9.777  1.00  0.00     0.049 A 
ATOM     35  H   UNL     1       7.460  -3.397  -8.103  1.00  0.00     0.167 HD
ATOM     36  C   UNL     1       7.692  -6.012  -9.191  1.00  0.00     0.074 A 
ATOM     37  C   UNL     1       7.476  -7.428  -9.417  1.00  0.00     0.031 C 
ATOM     38  C   UNL     1       8.486  -5.228  -9.959  1.00  0.00     0.034 A 
BRANCH  25  39
ATOM     39  C   UNL     1       8.616   0.708  -8.286  1.00  0.00     0.023 A 
ATOM     40  C   UNL     1       9.715   1.140  -7.519  1.00  0.00     0.012 A 
ATOM     41  C   UNL     1       8.133   1.519  -9.331  1.00  0.00     0.148 A 
ATOM     42  C   UNL     1      10.324   2.366  -7.782  1.00  0.00     0.002 A 
ATOM     43  C   UNL     1       8.762   2.728  -9.604  1.00  0.00     0.091 A 
ATOM     44  F   UNL     1       7.077   1.091 -10.036  1.00  0.00    -0.205 F 
ATOM     45  C   UNL     1       9.854   3.154  -8.830  1.00  0.00     0.022 A 
BRANCH  43  46
ATOM     46  S   UNL     1       8.270   3.799 -10.961  1.00  0.00     0.127 S 
ATOM     47  O   UNL     1       7.760   4.967 -10.243  1.00  0.00    -0.237 OA
ATOM     48  O   UNL     1       9.538   4.015 -11.656  1.00  0.00    -0.237 OA
ATOM     49  O   UNL     1       7.274   3.055 -11.720  1.00  0.00    -0.744 OA
ENDBRANCH  43  46
ENDBRANCH  25  39
BRANCH  26  50
ATOM     50  C   UNL     1       4.875  -8.312  -6.194  1.00  0.00     0.023 A 
ATOM     51  C   UNL     1       5.735  -9.255  -5.602  1.00  0.00     0.012 A 
ATOM     52  C   UNL     1       3.513  -8.626  -6.364  1.00  0.00     0.148 A 
ATOM     53  C   UNL     1       5.248 -10.493  -5.186  1.00  0.00     0.002 A 
ATOM     54  C   UNL     1       3.026  -9.845  -5.911  1.00  0.00     0.091 A 
ATOM     55  F   UNL     1       2.718  -7.707  -6.931  1.00  0.00    -0.205 F 
ATOM     56  C   UNL     1       3.893 -10.784  -5.330  1.00  0.00     0.022 A 
BRANCH  54  57
ATOM     57  S   UNL     1       1.281 -10.269  -5.953  1.00  0.00     0.127 S 
ATOM     58  O   UNL     1       1.276 -11.419  -6.855  1.00  0.00    -0.237 OA
ATOM     59  O   UNL     1       1.019 -10.586  -4.549  1.00  0.00    -0.237 OA
ATOM     60  O   UNL     1       0.595  -9.084  -6.447  1.00  0.00    -0.744 OA
ENDBRANCH  54  57
ENDBRANCH  26  50
BRANCH  38  61
ATOM     61  C   UNL     1       9.203  -5.872 -11.111  1.00  0.00     0.023 A 
ATOM     62  C   UNL     1       8.503  -6.121 -12.307  1.00  0.00     0.012 A 
ATOM     63  C   UNL     1      10.586  -6.128 -11.046  1.00  0.00     0.148 A 
ATOM     64  C   UNL     1       9.169  -6.627 -13.422  1.00  0.00     0.002 A 
ATOM     65  C   UNL     1      11.250  -6.601 -12.171  1.00  0.00     0.091 A 
ATOM     66  F   UNL     1      11.225  -5.895  -9.890  1.00  0.00    -0.205 F 
ATOM     67  C   UNL     1      10.542  -6.855 -13.358  1.00  0.00     0.022 A 
BRANCH  65  68
ATOM     68  S   UNL     1      13.028  -6.854 -12.207  1.00  0.00     0.127 S 
ATOM     69  O   UNL     1      13.120  -8.313 -12.235  1.00  0.00    -0.237 OA
ATOM     70  O   UNL     1      13.411  -6.193 -13.455  1.00  0.00    -0.237 OA
ATOM     71  O   UNL     1      13.548  -6.220 -11.003  1.00  0.00    -0.744 OA
ENDBRANCH  65  68
ENDBRANCH  38  61
ENDBRANCH  12  13
ENDBRANCH   5   7
ENDBRANCH   2   3
ENDBRANCH   1   2
BRANCH   1  72
ATOM     72  C   UNL     1       4.358   2.774   2.215  1.00  0.00     0.118 C 
BRANCH  72  73
ATOM     73  N   UNL     1       4.754   2.264   3.521  1.00  0.00    -0.352 N 
ATOM     74  C   UNL     1       5.536   2.847   4.483  1.00  0.00     0.251 C 
ATOM     75  H   UNL     1       4.409   1.370   3.745  1.00  0.00     0.163 HD
ATOM     76  O   UNL     1       5.921   2.205   5.455  1.00  0.00    -0.269 OA
BRANCH  74  77
ATOM     77  C   UNL     1       5.934   4.257   4.335  1.00  0.00     0.041 A 
ATOM     78  C   UNL     1       4.980   5.245   4.102  1.00  0.00     0.036 A 
ATOM     79  C   UNL     1       7.280   4.588   4.464  1.00  0.00     0.020 A 
ATOM     80  C   UNL     1       5.400   6.550   3.871  1.00  0.00     0.065 A 
ATOM     81  C   UNL     1       7.699   5.914   4.276  1.00  0.00    -0.015 A 
ATOM     82  Cl  UNL     1       4.197   7.739   3.502  1.00  0.00    -0.082 Cl
ATOM     83  C   UNL     1       6.765   6.897   3.911  1.00  0.00     0.057 A 
ATOM     84  C   UNL     1       9.137   6.267   4.522  1.00  0.00     0.049 C 
ATOM     85  N   UNL     1       7.171   8.206   3.685  1.00  0.00    -0.376 N 
ATOM     86  C   UNL     1      10.113   5.766   3.489  1.00  0.00    -0.023 C 
ATOM     87  C   UNL     1       9.443   7.781   4.540  1.00  0.00     0.031 C 
ATOM     88  C   UNL     1       8.579   8.505   3.473  1.00  0.00     0.114 C 
ATOM     89  H   UNL     1       6.506   8.931   3.669  1.00  0.00     0.161 HD
ATOM     90  C   UNL     1      11.136   6.617   3.354  1.00  0.00    -0.030 C 
ATOM     91  C   UNL     1      10.961   7.794   4.262  1.00  0.00     0.034 C 
BRANCH  88  92
ATOM     92  C   UNL     1       8.772  10.017   3.476  1.00  0.00    -0.025 A 
ATOM     93  C   UNL     1       7.917  10.917   4.140  1.00  0.00     0.007 A 
ATOM     94  C   UNL     1       9.865  10.541   2.780  1.00  0.00     0.007 A 
ATOM     95  C   UNL     1       8.165  12.297   4.124  1.00  0.00     0.022 A 
ATOM     96  C   UNL     1      10.140  11.900   2.810  1.00  0.00     0.022 A 
ATOM     97  C   UNL     1       9.297  12.783   3.469  1.00  0.00     0.082 A 
BRANCH  97  98
ATOM     98  S   UNL     1       9.649  14.526   3.504  1.00  0.00     0.243 S 
ATOM     99  O   UNL     1       8.788  15.137   2.509  1.00  0.00    -0.207 OA
ATOM    100  O   UNL     1       9.609  14.925   4.891  1.00  0.00    -0.207 OA
BRANCH  98 101
ATOM    101  N   UNL     1      11.235  14.667   2.975  1.00  0.00    -0.193 NA
ATOM    102  C   UNL     1      11.588  14.788   1.544  1.00  0.00     0.131 C 
ATOM    103  C   UNL     1      12.373  14.605   3.910  1.00  0.00     0.131 C 
ATOM    104  C   UNL     1      12.756  13.864   1.155  1.00  0.00     0.177 C 
ATOM    105  C   UNL     1      13.413  13.600   3.416  1.00  0.00     0.177 C 
ATOM    106  O   UNL     1      13.845  13.917   2.086  1.00  0.00    -0.379 OA
ENDBRANCH  98 101
ENDBRANCH  97  98
ENDBRANCH  88  92
ENDBRANCH  74  77
ENDBRANCH  72  73
ENDBRANCH   1  72
TORSDOF 16
