REMARK SMILES COc1ccc(OCC(=O)N/N=C(/C)C(=O)NCCCNC(=O)c2ccc(-c3c4nc(c(-c5cccc(S(=O)(=O)[O-])c5F)c5ccc([nH]5)c(-c5cccc(S(=O)(=O)[O-])c5F)c5nc(c(-c6cccc(S(=O)(=O)[O-])c6F)c6ccc3[nH]6)C=C5)C=C4)cc2)cc1
REMARK SMILES IDX 18 1 17 2 15 3 16 4 13 6 12 7 14 8 11 9 9 10 10 11 8 13 7 14
REMARK SMILES IDX 6 15 3 16 4 17 88 18 5 19 87 20 2 21 1 22 19 23 20 24 21 25
REMARK SMILES IDX 22 26 23 28 24 29 25 30 86 31 26 32 85 33 27 34 28 35 29 36
REMARK SMILES IDX 79 37 30 38 84 39 78 40 80 41 31 42 83 43 77 44 76 45 32 47
REMARK SMILES IDX 64 48 44 49 63 50 45 51 48 52 62 53 81 54 46 55 47 56 61 58
REMARK SMILES IDX 82 59 49 60 33 61 34 62 42 63 35 64 37 65 43 66 36 67 38 68
REMARK SMILES IDX 39 69 40 70 41 71 65 72 66 73 74 74 67 75 69 76 75 77 68 78
REMARK SMILES IDX 70 79 71 80 72 81 73 82 50 83 51 84 59 85 52 86 54 87 60 88
REMARK SMILES IDX 53 89 55 90 56 91 57 92 58 93
REMARK H PARENT 17 5 11 12 21 27 80 46 48 57
REMARK Flexibility Score: inf
ROOT
ATOM      1  C   UNL     1       1.075  -2.756   8.971  1.00  0.00     0.118 C 
ENDROOT
BRANCH   1   2
ATOM      2  N   UNL     1       2.314  -3.319   8.457  1.00  0.00    -0.351 N 
ATOM      3  C   UNL     1       2.575  -4.426   7.692  1.00  0.00     0.267 C 
ATOM      4  O   UNL     1       3.695  -4.923   7.709  1.00  0.00    -0.268 OA
ATOM      5  H   UNL     1       3.118  -2.808   8.706  1.00  0.00     0.163 HD
BRANCH   3   6
ATOM      6  C   UNL     1       1.562  -4.939   6.689  1.00  0.00     0.122 C 
ATOM      7  N   UNL     1       1.805  -5.167   5.428  1.00  0.00    -0.172 NA
ATOM      8  C   UNL     1       0.193  -5.307   7.194  1.00  0.00     0.075 C 
BRANCH   7   9
ATOM      9  N   UNL     1       3.041  -5.066   4.865  1.00  0.00    -0.244 N 
ATOM     10  C   UNL     1       3.937  -4.039   4.740  1.00  0.00     0.277 C 
ATOM     11  O   UNL     1       4.928  -4.226   4.019  1.00  0.00    -0.269 OA
ATOM     12  H   UNL     1       3.356  -5.908   4.465  1.00  0.00     0.193 HD
BRANCH  10  13
ATOM     13  C   UNL     1       3.767  -2.692   5.437  1.00  0.00     0.331 C 
BRANCH  13  14
ATOM     14  O   UNL     1       2.472  -2.125   5.465  1.00  0.00    -0.484 OA
BRANCH  14  15
ATOM     15  C   UNL     1       2.000  -1.590   4.301  1.00  0.00     0.120 A 
ATOM     16  C   UNL     1       0.768  -0.467   2.037  1.00  0.00     0.119 A 
ATOM     17  C   UNL     1       0.068  -0.587   3.238  1.00  0.00     0.050 A 
ATOM     18  C   UNL     1       2.094  -0.893   1.979  1.00  0.00     0.050 A 
ATOM     19  C   UNL     1       0.680  -1.144   4.362  1.00  0.00     0.050 A 
ATOM     20  C   UNL     1       2.707  -1.454   3.106  1.00  0.00     0.050 A 
BRANCH  16  21
ATOM     21  O   UNL     1       0.057   0.081   1.005  1.00  0.00    -0.497 OA
ATOM     22  C   UNL     1       0.680   0.059  -0.273  1.00  0.00     0.278 C 
ENDBRANCH  16  21
ENDBRANCH  14  15
ENDBRANCH  13  14
ENDBRANCH  10  13
ENDBRANCH   7   9
ENDBRANCH   3   6
ENDBRANCH   1   2
BRANCH   1  23
ATOM     23  C   UNL     1       1.163  -2.656  10.494  1.00  0.00     0.042 C 
BRANCH  23  24
ATOM     24  C   UNL     1       2.124  -1.573  10.975  1.00  0.00     0.118 C 
BRANCH  24  25
ATOM     25  N   UNL     1       1.558  -0.238  10.852  1.00  0.00    -0.352 N 
ATOM     26  C   UNL     1       1.455   0.736  11.818  1.00  0.00     0.251 C 
ATOM     27  H   UNL     1       1.203  -0.002   9.964  1.00  0.00     0.163 HD
ATOM     28  O   UNL     1       0.795   1.746  11.607  1.00  0.00    -0.269 OA
BRANCH  26  29
ATOM     29  C   UNL     1       2.127   0.539  13.121  1.00  0.00     0.039 A 
ATOM     30  C   UNL     1       1.394   0.720  14.296  1.00  0.00     0.014 A 
ATOM     31  C   UNL     1       3.469   0.150  13.178  1.00  0.00     0.014 A 
ATOM     32  C   UNL     1       1.989   0.447  15.530  1.00  0.00     0.010 A 
ATOM     33  C   UNL     1       4.042  -0.178  14.404  1.00  0.00     0.010 A 
ATOM     34  C   UNL     1       3.307  -0.035  15.592  1.00  0.00    -0.014 A 
BRANCH  34  35
ATOM     35  C   UNL     1       3.929  -0.422  16.883  1.00  0.00     0.031 A 
ATOM     36  C   UNL     1       5.115   0.334  17.412  1.00  0.00     0.074 A 
ATOM     37  C   UNL     1       3.491  -1.522  17.527  1.00  0.00     0.049 A 
ATOM     38  N   UNL     1       5.828   0.102  18.483  1.00  0.00    -0.248 NA
ATOM     39  C   UNL     1       5.580   1.486  16.620  1.00  0.00     0.031 C 
ATOM     40  C   UNL     1       2.408  -2.394  17.067  1.00  0.00     0.029 A 
ATOM     41  N   UNL     1       3.923  -2.113  18.687  1.00  0.00    -0.354 N 
ATOM     42  C   UNL     1       6.846   1.046  18.474  1.00  0.00     0.074 A 
ATOM     43  C   UNL     1       6.673   1.843  17.279  1.00  0.00     0.031 C 
ATOM     44  C   UNL     1       2.264  -3.409  17.935  1.00  0.00     0.029 A 
ATOM     45  C   UNL     1       3.251  -3.271  19.001  1.00  0.00     0.049 A 
ATOM     46  H   UNL     1       4.646  -1.742  19.243  1.00  0.00     0.167 HD
ATOM     47  C   UNL     1       7.818   1.255  19.394  1.00  0.00     0.034 A 
ATOM     48  C   UNL     1       3.411  -4.125  20.031  1.00  0.00     0.034 A 
ATOM     49  C   UNL     1       7.945   0.511  20.617  1.00  0.00     0.049 A 
ATOM     50  C   UNL     1       4.450  -3.828  21.077  1.00  0.00     0.074 A 
ATOM     51  C   UNL     1       8.818   0.727  21.669  1.00  0.00     0.029 A 
ATOM     52  N   UNL     1       7.178  -0.593  20.954  1.00  0.00    -0.354 N 
ATOM     53  N   UNL     1       5.284  -2.819  21.144  1.00  0.00    -0.248 NA
ATOM     54  C   UNL     1       4.547  -4.765  22.206  1.00  0.00     0.031 C 
ATOM     55  C   UNL     1       8.577  -0.247  22.644  1.00  0.00     0.029 A 
ATOM     56  C   UNL     1       7.558  -1.073  22.195  1.00  0.00     0.049 A 
ATOM     57  H   UNL     1       6.467  -0.978  20.393  1.00  0.00     0.167 HD
ATOM     58  C   UNL     1       5.989  -2.986  22.331  1.00  0.00     0.074 A 
ATOM     59  C   UNL     1       5.467  -4.181  22.963  1.00  0.00     0.031 C 
ATOM     60  C   UNL     1       6.992  -2.230  22.839  1.00  0.00     0.034 A 
BRANCH  47  61
ATOM     61  C   UNL     1       8.771   2.392  19.150  1.00  0.00     0.023 A 
ATOM     62  C   UNL     1       8.333   3.712  19.376  1.00  0.00     0.012 A 
ATOM     63  C   UNL     1      10.100   2.162  18.747  1.00  0.00     0.148 A 
ATOM     64  C   UNL     1       9.196   4.789  19.180  1.00  0.00     0.002 A 
ATOM     65  C   UNL     1      10.964   3.240  18.584  1.00  0.00     0.091 A 
ATOM     66  F   UNL     1      10.490   0.902  18.505  1.00  0.00    -0.205 F 
ATOM     67  C   UNL     1      10.512   4.553  18.793  1.00  0.00     0.022 A 
BRANCH  65  68
ATOM     68  S   UNL     1      12.692   3.015  18.147  1.00  0.00     0.127 S 
ATOM     69  O   UNL     1      12.664   3.233  16.703  1.00  0.00    -0.237 OA
ATOM     70  O   UNL     1      13.353   4.075  18.910  1.00  0.00    -0.237 OA
ATOM     71  O   UNL     1      13.030   1.666  18.581  1.00  0.00    -0.744 OA
ENDBRANCH  65  68
ENDBRANCH  47  61
BRANCH  48  72
ATOM     72  C   UNL     1       2.497  -5.293  20.163  1.00  0.00     0.023 A 
ATOM     73  C   UNL     1       1.494  -5.267  21.151  1.00  0.00     0.012 A 
ATOM     74  C   UNL     1       2.572  -6.394  19.288  1.00  0.00     0.148 A 
ATOM     75  C   UNL     1       0.591  -6.323  21.276  1.00  0.00     0.002 A 
ATOM     76  C   UNL     1       1.638  -7.420  19.386  1.00  0.00     0.091 A 
ATOM     77  F   UNL     1       3.546  -6.411  18.367  1.00  0.00    -0.205 F 
ATOM     78  C   UNL     1       0.654  -7.393  20.386  1.00  0.00     0.022 A 
BRANCH  76  79
ATOM     79  S   UNL     1       1.572  -8.757  18.188  1.00  0.00     0.127 S 
ATOM     80  O   UNL     1       2.260  -9.831  18.897  1.00  0.00    -0.237 OA
ATOM     81  O   UNL     1       0.131  -8.954  18.020  1.00  0.00    -0.237 OA
ATOM     82  O   UNL     1       2.240  -8.238  17.001  1.00  0.00    -0.744 OA
ENDBRANCH  76  79
ENDBRANCH  48  72
BRANCH  60  83
ATOM     83  C   UNL     1       7.598  -2.665  24.145  1.00  0.00     0.023 A 
ATOM     84  C   UNL     1       8.507  -3.741  24.156  1.00  0.00     0.012 A 
ATOM     85  C   UNL     1       7.338  -1.965  25.338  1.00  0.00     0.148 A 
ATOM     86  C   UNL     1       9.134  -4.127  25.339  1.00  0.00     0.002 A 
ATOM     87  C   UNL     1       7.995  -2.333  26.509  1.00  0.00     0.091 A 
ATOM     88  F   UNL     1       6.452  -0.959  25.314  1.00  0.00    -0.205 F 
ATOM     89  C   UNL     1       8.887  -3.417  26.512  1.00  0.00     0.022 A 
BRANCH  87  90
ATOM     90  S   UNL     1       7.788  -1.411  28.037  1.00  0.00     0.127 S 
ATOM     91  O   UNL     1       6.777  -2.204  28.732  1.00  0.00    -0.237 OA
ATOM     92  O   UNL     1       9.125  -1.474  28.631  1.00  0.00    -0.237 OA
ATOM     93  O   UNL     1       7.378  -0.073  27.632  1.00  0.00    -0.744 OA
ENDBRANCH  87  90
ENDBRANCH  60  83
ENDBRANCH  34  35
ENDBRANCH  26  29
ENDBRANCH  24  25
ENDBRANCH  23  24
ENDBRANCH   1  23
TORSDOF 18
