REMARK SMILES CC1(C)CC[C@@]2(C(=O)NCCCNC(=O)c3ccc(-c4c5nc(c(-c6cccc(S(=O)(=O)[O-])c6F)c6ccc([nH]6)c(-c6cccc(S(=O)(=O)[O-])c6F)c6nc(c(-c7cccc(S(=O)(=O)[O-])c7F)c7ccc4[nH]7)C=C6)C=C5)cc3)CC[C@@]3(C)C(=CC[C@H]4[C@@]5(C)CC[C@H](O)C(C)(C)[C@@H]5CC[C@]43C)[C@@H]2C1
REMARK SMILES IDX 12 1 11 2 10 3 9 4 7 5 8 6 6 8 1 9 2 10 3 11 4 12 102 13
REMARK SMILES IDX 5 14 101 15 83 16 79 17 81 18 84 19 80 20 82 21 99 22 85 23
REMARK SMILES IDX 86 24 98 25 100 26 87 27 97 28 88 29 89 30 96 31 90 32 93 33
REMARK SMILES IDX 91 34 94 35 95 36 92 37 13 39 14 40 15 42 16 43 17 44 78 45
REMARK SMILES IDX 18 46 77 47 19 48 20 49 21 50 71 51 22 52 76 53 70 54 72 55
REMARK SMILES IDX 23 56 75 57 69 58 68 59 24 61 56 62 36 63 55 64 37 65 40 66
REMARK SMILES IDX 54 67 73 68 38 69 39 70 53 72 74 73 41 74 25 75 26 76 34 77
REMARK SMILES IDX 27 78 29 79 35 80 28 81 30 82 31 83 32 84 33 85 57 86 58 87
REMARK SMILES IDX 66 88 59 89 61 90 67 91 60 92 62 93 63 94 64 95 65 96 42 97
REMARK SMILES IDX 43 98 51 99 44 100 46 101 52 102 45 103 47 104 48 105 49 106
REMARK SMILES IDX 50 107
REMARK H PARENT 9 7 92 38 13 41 72 60 40 71
REMARK Flexibility Score: inf
ROOT
ATOM      1  C   UNL     1      -1.200   2.216  -3.480  1.00  0.00     0.118 C 
ENDROOT
BRANCH   1   2
ATOM      2  C   UNL     1      -1.072   1.082  -2.479  1.00  0.00     0.042 C 
BRANCH   2   3
ATOM      3  C   UNL     1      -0.169   1.338  -1.296  1.00  0.00     0.117 C 
BRANCH   3   4
ATOM      4  N   UNL     1      -0.726   2.067  -0.186  1.00  0.00    -0.356 N 
ATOM      5  C   UNL     1      -0.723   1.740   1.144  1.00  0.00     0.226 C 
ATOM      6  O   UNL     1      -1.683   1.156   1.645  1.00  0.00    -0.274 OA
ATOM      7  H   UNL     1      -1.170   2.916  -0.415  1.00  0.00     0.163 HD
BRANCH   5   8
ATOM      8  C   UNL     1       0.496   2.179   2.009  1.00  0.00     0.056 C 
ATOM      9  C   UNL     1       3.901   0.056   1.131  1.00  0.00     0.011 C 
ATOM     10  C   UNL     1       2.584   0.574   0.498  1.00  0.00    -0.035 C 
ATOM     11  C   UNL     1       2.588  -0.054  -0.933  1.00  0.00     0.011 C 
ATOM     12  C   UNL     1       1.476  -0.051   1.379  1.00  0.00     0.007 C 
ATOM     13  C   UNL     1       2.563   2.176   0.418  1.00  0.00     0.015 C 
ATOM     14  C   UNL     1       1.091   0.860   2.534  1.00  0.00     0.018 C 
ATOM     15  C   UNL     1       1.556   3.049   1.292  1.00  0.00     0.031 C 
ATOM     16  C   UNL     1       0.797   4.353   0.756  1.00  0.00    -0.064 C 
ATOM     17  C   UNL     1       0.033   2.998   3.235  1.00  0.00     0.018 C 
ATOM     18  C   UNL     1      -0.008   5.209   1.807  1.00  0.00    -0.006 C 
ATOM     19  C   UNL     1       0.688   4.637  -0.556  1.00  0.00    -0.027 C 
ATOM     20  C   UNL     1      -0.696   4.281   2.847  1.00  0.00     0.013 C 
ATOM     21  C   UNL     1       1.090   6.010   2.579  1.00  0.00     0.017 C 
ATOM     22  C   UNL     1      -1.127   6.274   1.156  1.00  0.00    -0.020 C 
ATOM     23  C   UNL     1      -0.423   5.450  -1.173  1.00  0.00     0.032 C 
ATOM     24  C   UNL     1      -1.634   5.817  -0.265  1.00  0.00     0.006 C 
ATOM     25  C   UNL     1      -2.349   6.653   2.087  1.00  0.00     0.008 C 
ATOM     26  C   UNL     1      -0.428   7.670   0.898  1.00  0.00     0.012 C 
ATOM     27  C   UNL     1      -3.080   5.058  -0.455  1.00  0.00    -0.025 C 
ATOM     28  C   UNL     1      -3.754   6.583   1.440  1.00  0.00     0.005 C 
ATOM     29  C   UNL     1      -3.687   5.714  -1.732  1.00  0.00     0.012 C 
ATOM     30  C   UNL     1      -3.087   3.547  -0.701  1.00  0.00     0.010 C 
ATOM     31  C   UNL     1      -3.951   5.196   0.838  1.00  0.00     0.003 C 
ATOM     32  C   UNL     1      -4.435   2.832  -0.825  1.00  0.00     0.033 C 
ATOM     33  C   UNL     1      -5.407   4.566   0.785  1.00  0.00    -0.006 C 
ATOM     34  C   UNL     1      -5.265   3.048   0.433  1.00  0.00     0.120 C 
ATOM     35  C   UNL     1      -6.380   5.250  -0.193  1.00  0.00     0.014 C 
ATOM     36  C   UNL     1      -6.074   4.642   2.181  1.00  0.00     0.014 C 
BRANCH  34  37
ATOM     37  O   UNL     1      -6.537   2.430   0.276  1.00  0.00    -0.393 OA
ATOM     38  H   UNL     1      -7.005   2.838  -0.470  1.00  0.00     0.210 HD
ENDBRANCH  34  37
ENDBRANCH   5   8
ENDBRANCH   3   4
ENDBRANCH   2   3
ENDBRANCH   1   2
BRANCH   1  39
ATOM     39  N   UNL     1      -0.077   2.438  -4.377  1.00  0.00    -0.352 N 
ATOM     40  C   UNL     1      -0.185   2.817  -5.701  1.00  0.00     0.251 C 
ATOM     41  H   UNL     1       0.829   2.308  -4.013  1.00  0.00     0.163 HD
ATOM     42  O   UNL     1       0.803   3.070  -6.383  1.00  0.00    -0.269 OA
BRANCH  40  43
ATOM     43  C   UNL     1      -1.543   2.849  -6.284  1.00  0.00     0.039 A 
ATOM     44  C   UNL     1      -1.899   1.839  -7.179  1.00  0.00     0.014 A 
ATOM     45  C   UNL     1      -2.506   3.720  -5.760  1.00  0.00     0.014 A 
ATOM     46  C   UNL     1      -3.242   1.666  -7.513  1.00  0.00     0.010 A 
ATOM     47  C   UNL     1      -3.852   3.485  -6.030  1.00  0.00     0.010 A 
ATOM     48  C   UNL     1      -4.234   2.466  -6.920  1.00  0.00    -0.014 A 
BRANCH  48  49
ATOM     49  C   UNL     1      -5.668   2.270  -7.261  1.00  0.00     0.031 A 
ATOM     50  C   UNL     1      -6.419   3.370  -7.960  1.00  0.00     0.074 A 
ATOM     51  C   UNL     1      -6.307   1.133  -6.916  1.00  0.00     0.049 A 
ATOM     52  N   UNL     1      -7.659   3.389  -8.374  1.00  0.00    -0.248 NA
ATOM     53  C   UNL     1      -5.691   4.628  -8.202  1.00  0.00     0.031 C 
ATOM     54  C   UNL     1      -5.723   0.026  -6.154  1.00  0.00     0.029 A 
ATOM     55  N   UNL     1      -7.597   0.724  -7.153  1.00  0.00    -0.354 N 
ATOM     56  C   UNL     1      -7.867   4.663  -8.886  1.00  0.00     0.074 A 
ATOM     57  C   UNL     1      -6.644   5.406  -8.690  1.00  0.00     0.031 C 
ATOM     58  C   UNL     1      -6.644  -0.941  -6.004  1.00  0.00     0.029 A 
ATOM     59  C   UNL     1      -7.887  -0.523  -6.647  1.00  0.00     0.049 A 
ATOM     60  H   UNL     1      -8.253   1.272  -7.640  1.00  0.00     0.167 HD
ATOM     61  C   UNL     1      -8.960   5.162  -9.510  1.00  0.00     0.034 A 
ATOM     62  C   UNL     1      -9.021  -1.252  -6.711  1.00  0.00     0.034 A 
ATOM     63  C   UNL     1     -10.149   4.402  -9.770  1.00  0.00     0.049 A 
ATOM     64  C   UNL     1     -10.200  -0.703  -7.475  1.00  0.00     0.074 A 
ATOM     65  C   UNL     1     -11.271   4.779 -10.486  1.00  0.00     0.029 A 
ATOM     66  N   UNL     1     -10.371   3.109  -9.325  1.00  0.00    -0.354 N 
ATOM     67  N   UNL     1     -10.310   0.435  -8.117  1.00  0.00    -0.248 NA
ATOM     68  C   UNL     1     -11.395  -1.556  -7.561  1.00  0.00     0.031 C 
ATOM     69  C   UNL     1     -12.177   3.714 -10.465  1.00  0.00     0.029 A 
ATOM     70  C   UNL     1     -11.612   2.671  -9.748  1.00  0.00     0.049 A 
ATOM     71  H   UNL     1      -9.738   2.580  -8.788  1.00  0.00     0.167 HD
ATOM     72  C   UNL     1     -11.567   0.419  -8.711  1.00  0.00     0.074 A 
ATOM     73  C   UNL     1     -12.174  -0.851  -8.371  1.00  0.00     0.031 C 
ATOM     74  C   UNL     1     -12.173   1.377  -9.456  1.00  0.00     0.034 A 
BRANCH  61  75
ATOM     75  C   UNL     1      -8.883   6.577 -10.018  1.00  0.00     0.023 A 
ATOM     76  C   UNL     1      -8.072   6.867 -11.135  1.00  0.00     0.012 A 
ATOM     77  C   UNL     1      -9.632   7.608  -9.421  1.00  0.00     0.148 A 
ATOM     78  C   UNL     1      -7.976   8.168 -11.625  1.00  0.00     0.002 A 
ATOM     79  C   UNL     1      -9.566   8.894  -9.943  1.00  0.00     0.091 A 
ATOM     80  F   UNL     1     -10.378   7.317  -8.345  1.00  0.00    -0.205 F 
ATOM     81  C   UNL     1      -8.729   9.178 -11.036  1.00  0.00     0.022 A 
BRANCH  79  82
ATOM     82  S   UNL     1     -10.554  10.250  -9.302  1.00  0.00     0.127 S 
ATOM     83  O   UNL     1      -9.545  11.050  -8.610  1.00  0.00    -0.237 OA
ATOM     84  O   UNL     1     -11.077  10.857 -10.527  1.00  0.00    -0.237 OA
ATOM     85  O   UNL     1     -11.565   9.640  -8.450  1.00  0.00    -0.744 OA
ENDBRANCH  79  82
ENDBRANCH  61  75
BRANCH  62  86
ATOM     86  C   UNL     1      -9.068  -2.622  -6.121  1.00  0.00     0.023 A 
ATOM     87  C   UNL     1      -9.118  -3.740  -6.978  1.00  0.00     0.012 A 
ATOM     88  C   UNL     1      -9.043  -2.828  -4.729  1.00  0.00     0.148 A 
ATOM     89  C   UNL     1      -9.176  -5.035  -6.460  1.00  0.00     0.002 A 
ATOM     90  C   UNL     1      -9.047  -4.123  -4.220  1.00  0.00     0.091 A 
ATOM     91  F   UNL     1      -9.012  -1.755  -3.927  1.00  0.00    -0.205 F 
ATOM     92  C   UNL     1      -9.130  -5.227  -5.082  1.00  0.00     0.022 A 
BRANCH  90  93
ATOM     93  S   UNL     1      -8.857  -4.465  -2.466  1.00  0.00     0.127 S 
ATOM     94  O   UNL     1     -10.215  -4.846  -2.086  1.00  0.00    -0.237 OA
ATOM     95  O   UNL     1      -7.889  -5.563  -2.472  1.00  0.00    -0.237 OA
ATOM     96  O   UNL     1      -8.353  -3.229  -1.883  1.00  0.00    -0.744 OA
ENDBRANCH  90  93
ENDBRANCH  62  86
BRANCH  74  97
ATOM     97  C   UNL     1     -13.552   1.088  -9.987  1.00  0.00     0.023 A 
ATOM     98  C   UNL     1     -14.655   1.115  -9.112  1.00  0.00     0.012 A 
ATOM     99  C   UNL     1     -13.765   0.888 -11.366  1.00  0.00     0.148 A 
ATOM    100  C   UNL     1     -15.948   0.923  -9.598  1.00  0.00     0.002 A 
ATOM    101  C   UNL     1     -15.060   0.744 -11.848  1.00  0.00     0.091 A 
ATOM    102  F   UNL     1     -12.699   0.848 -12.179  1.00  0.00    -0.205 F 
ATOM    103  C   UNL     1     -16.151   0.751 -10.965  1.00  0.00     0.022 A 
BRANCH 101 104
ATOM    104  S   UNL     1     -15.420   0.616 -13.604  1.00  0.00     0.127 S 
ATOM    105  O   UNL     1     -15.724  -0.807 -13.744  1.00  0.00    -0.237 OA
ATOM    106  O   UNL     1     -16.573   1.504 -13.753  1.00  0.00    -0.237 OA
ATOM    107  O   UNL     1     -14.219   1.072 -14.291  1.00  0.00    -0.744 OA
ENDBRANCH 101 104
ENDBRANCH  74  97
ENDBRANCH  48  49
ENDBRANCH  40  43
ENDBRANCH   1  39
TORSDOF 14
