REMARK SMILES CC[C@@H](O)C[NH+]1CC(n2cc(C(=O)NCCCNC(=O)c3ccc(-c4c5nc(c(-c6cccc(S(=O)(=O)[O-])c6F)c6ccc([nH]6)c(-c6cccc(S(=O)(=O)[O-])c6F)c6nc(c(-c7cccc(S(=O)(=O)[O-])c7F)c7ccc4[nH]7)C=C6)C=C5)cc3)nn2)C1
REMARK SMILES IDX 15 1 14 2 12 3 13 4 11 6 9 7 10 8 85 9 84 10 8 11 6 12 7 13
REMARK SMILES IDX 86 14 5 16 3 17 2 18 1 19 4 20 16 22 17 23 18 24 19 25 20 27
REMARK SMILES IDX 21 28 22 29 83 30 23 31 82 32 24 33 25 34 26 35 76 36 27 37
REMARK SMILES IDX 81 38 75 39 77 40 28 41 80 42 74 43 73 44 29 46 61 47 41 48
REMARK SMILES IDX 60 49 42 50 45 51 59 52 78 53 43 54 44 55 58 57 79 58 46 59
REMARK SMILES IDX 30 60 31 61 39 62 32 63 34 64 40 65 33 66 35 67 36 68 37 69
REMARK SMILES IDX 38 70 62 71 63 72 71 73 64 74 66 75 72 76 65 77 67 78 68 79
REMARK SMILES IDX 69 80 70 81 47 82 48 83 56 84 49 85 51 86 57 87 50 88 52 89
REMARK SMILES IDX 53 90 54 91 55 92
REMARK H PARENT 14 5 6 15 4 21 18 26 77 45 45 56
REMARK Flexibility Score: inf
ROOT
ATOM      1  C   UNL     1      -1.061  -0.249   7.356  1.00  0.00     0.118 C 
ENDROOT
BRANCH   1   2
ATOM      2  N   UNL     1      -1.929   0.595   8.162  1.00  0.00    -0.351 N 
ATOM      3  C   UNL     1      -2.402   1.867   7.923  1.00  0.00     0.273 C 
ATOM      4  O   UNL     1      -3.356   2.260   8.602  1.00  0.00    -0.267 OA
ATOM      5  H   UNL     1      -2.224   0.195   9.012  1.00  0.00     0.163 HD
BRANCH   3   6
ATOM      6  C   UNL     1      -1.820   2.691   6.875  1.00  0.00     0.170 A 
ATOM      7  N   UNL     1      -0.579   3.596   5.344  1.00  0.00    -0.237 N 
ATOM      8  C   UNL     1      -0.534   2.700   6.373  1.00  0.00     0.145 A 
ATOM      9  N   UNL     1      -1.785   4.163   5.237  1.00  0.00    -0.066 NA
ATOM     10  N   UNL     1      -2.545   3.651   6.199  1.00  0.00    -0.125 NA
BRANCH   7  11
ATOM     11  C   UNL     1       0.487   3.731   4.409  1.00  0.00     0.218 C 
ATOM     12  N   UNL     1       0.966   3.599   2.379  1.00  0.00    -0.329 N 
ATOM     13  C   UNL     1       0.293   4.670   3.201  1.00  0.00     0.296 C 
ATOM     14  C   UNL     1       0.385   2.620   3.339  1.00  0.00     0.296 C 
ATOM     15  H   UNL     1       1.961   3.612   2.153  1.00  0.00     0.348 HD
BRANCH  12  16
ATOM     16  C   UNL     1       0.342   3.499   1.052  1.00  0.00     0.294 C 
BRANCH  16  17
ATOM     17  C   UNL     1       0.901   2.350   0.170  1.00  0.00     0.169 C 
BRANCH  17  18
ATOM     18  C   UNL     1       0.464   0.952   0.635  1.00  0.00     0.034 C 
ATOM     19  C   UNL     1       0.983  -0.181  -0.240  1.00  0.00     0.007 C 
ENDBRANCH  17  18
BRANCH  17  20
ATOM     20  O   UNL     1       0.435   2.564  -1.169  1.00  0.00    -0.387 OA
ATOM     21  H   UNL     1      -0.534   2.535  -1.183  1.00  0.00     0.211 HD
ENDBRANCH  17  20
ENDBRANCH  16  17
ENDBRANCH  12  16
ENDBRANCH   7  11
ENDBRANCH   3   6
ENDBRANCH   1   2
BRANCH   1  22
ATOM     22  C   UNL     1       0.351  -0.387   7.933  1.00  0.00     0.042 C 
BRANCH  22  23
ATOM     23  C   UNL     1       0.420  -1.443   9.025  1.00  0.00     0.118 C 
BRANCH  23  24
ATOM     24  N   UNL     1       0.261  -2.808   8.502  1.00  0.00    -0.352 N 
ATOM     25  C   UNL     1       0.293  -4.007   9.194  1.00  0.00     0.251 C 
ATOM     26  H   UNL     1       0.111  -2.879   7.532  1.00  0.00     0.163 HD
ATOM     27  O   UNL     1       0.478  -5.064   8.600  1.00  0.00    -0.269 OA
BRANCH  25  28
ATOM     28  C   UNL     1       0.088  -3.989  10.652  1.00  0.00     0.039 A 
ATOM     29  C   UNL     1       0.789  -4.836  11.517  1.00  0.00     0.014 A 
ATOM     30  C   UNL     1      -0.820  -3.063  11.148  1.00  0.00     0.014 A 
ATOM     31  C   UNL     1       0.611  -4.681  12.891  1.00  0.00     0.010 A 
ATOM     32  C   UNL     1      -0.823  -2.764  12.478  1.00  0.00     0.010 A 
ATOM     33  C   UNL     1      -0.191  -3.629  13.358  1.00  0.00    -0.014 A 
BRANCH  33  34
ATOM     34  C   UNL     1      -0.301  -3.303  14.772  1.00  0.00     0.031 A 
ATOM     35  C   UNL     1       1.005  -2.949  15.387  1.00  0.00     0.074 A 
ATOM     36  C   UNL     1      -1.502  -3.072  15.352  1.00  0.00     0.049 A 
ATOM     37  N   UNL     1       1.695  -3.645  16.228  1.00  0.00    -0.248 NA
ATOM     38  C   UNL     1       1.738  -1.795  14.834  1.00  0.00     0.031 C 
ATOM     39  C   UNL     1      -2.824  -3.049  14.705  1.00  0.00     0.029 A 
ATOM     40  N   UNL     1      -1.789  -2.639  16.608  1.00  0.00    -0.354 N 
ATOM     41  C   UNL     1       2.806  -2.857  16.527  1.00  0.00     0.074 A 
ATOM     42  C   UNL     1       2.918  -1.924  15.443  1.00  0.00     0.031 C 
ATOM     43  C   UNL     1      -3.697  -2.373  15.483  1.00  0.00     0.029 A 
ATOM     44  C   UNL     1      -3.054  -2.065  16.744  1.00  0.00     0.049 A 
ATOM     45  H   UNL     1      -1.157  -2.723  17.359  1.00  0.00     0.167 HD
ATOM     46  C   UNL     1       3.306  -2.818  17.797  1.00  0.00     0.034 A 
ATOM     47  C   UNL     1      -3.511  -1.337  17.795  1.00  0.00     0.034 A 
ATOM     48  C   UNL     1       2.760  -3.909  18.579  1.00  0.00     0.049 A 
ATOM     49  C   UNL     1      -2.621  -1.631  18.941  1.00  0.00     0.074 A 
ATOM     50  C   UNL     1       2.730  -5.284  18.467  1.00  0.00     0.029 A 
ATOM     51  N   UNL     1       1.753  -3.579  19.456  1.00  0.00    -0.354 N 
ATOM     52  N   UNL     1      -2.540  -2.804  19.502  1.00  0.00    -0.248 NA
ATOM     53  C   UNL     1      -1.484  -0.752  19.150  1.00  0.00     0.031 C 
ATOM     54  C   UNL     1       1.429  -5.662  18.914  1.00  0.00     0.029 A 
ATOM     55  C   UNL     1       0.766  -4.517  19.361  1.00  0.00     0.049 A 
ATOM     56  H   UNL     1       1.745  -2.796  20.052  1.00  0.00     0.167 HD
ATOM     57  C   UNL     1      -1.178  -2.988  19.700  1.00  0.00     0.074 A 
ATOM     58  C   UNL     1      -0.592  -1.653  19.573  1.00  0.00     0.031 C 
ATOM     59  C   UNL     1      -0.627  -4.236  19.630  1.00  0.00     0.034 A 
BRANCH  46  60
ATOM     60  C   UNL     1       3.874  -1.581  18.492  1.00  0.00     0.023 A 
ATOM     61  C   UNL     1       4.236  -1.744  19.852  1.00  0.00     0.012 A 
ATOM     62  C   UNL     1       3.796  -0.249  18.024  1.00  0.00     0.148 A 
ATOM     63  C   UNL     1       4.359  -0.657  20.725  1.00  0.00     0.002 A 
ATOM     64  C   UNL     1       3.965   0.833  18.884  1.00  0.00     0.091 A 
ATOM     65  F   UNL     1       3.481   0.013  16.759  1.00  0.00    -0.205 F 
ATOM     66  C   UNL     1       4.205   0.634  20.243  1.00  0.00     0.022 A 
BRANCH  64  67
ATOM     67  S   UNL     1       3.811   2.534  18.311  1.00  0.00     0.127 S 
ATOM     68  O   UNL     1       2.583   2.952  18.981  1.00  0.00    -0.237 OA
ATOM     69  O   UNL     1       5.040   3.132  18.832  1.00  0.00    -0.237 OA
ATOM     70  O   UNL     1       3.747   2.465  16.857  1.00  0.00    -0.744 OA
ENDBRANCH  64  67
ENDBRANCH  46  60
BRANCH  47  71
ATOM     71  C   UNL     1      -4.467  -0.202  17.834  1.00  0.00     0.023 A 
ATOM     72  C   UNL     1      -5.071   0.166  19.055  1.00  0.00     0.012 A 
ATOM     73  C   UNL     1      -4.559   0.701  16.753  1.00  0.00     0.148 A 
ATOM     74  C   UNL     1      -5.711   1.404  19.204  1.00  0.00     0.002 A 
ATOM     75  C   UNL     1      -5.199   1.929  16.904  1.00  0.00     0.091 A 
ATOM     76  F   UNL     1      -3.935   0.397  15.607  1.00  0.00    -0.205 F 
ATOM     77  C   UNL     1      -5.766   2.290  18.133  1.00  0.00     0.022 A 
BRANCH  75  78
ATOM     78  S   UNL     1      -5.276   3.137  15.575  1.00  0.00     0.127 S 
ATOM     79  O   UNL     1      -6.700   3.472  15.557  1.00  0.00    -0.237 OA
ATOM     80  O   UNL     1      -4.404   4.194  16.080  1.00  0.00    -0.237 OA
ATOM     81  O   UNL     1      -4.804   2.443  14.384  1.00  0.00    -0.744 OA
ENDBRANCH  75  78
ENDBRANCH  47  71
BRANCH  59  82
ATOM     82  C   UNL     1      -1.555  -5.423  19.620  1.00  0.00     0.023 A 
ATOM     83  C   UNL     1      -2.455  -5.690  18.567  1.00  0.00     0.012 A 
ATOM     84  C   UNL     1      -1.381  -6.386  20.625  1.00  0.00     0.148 A 
ATOM     85  C   UNL     1      -3.175  -6.889  18.530  1.00  0.00     0.002 A 
ATOM     86  C   UNL     1      -2.059  -7.594  20.560  1.00  0.00     0.091 A 
ATOM     87  F   UNL     1      -0.521  -6.112  21.619  1.00  0.00    -0.205 F 
ATOM     88  C   UNL     1      -2.966  -7.848  19.519  1.00  0.00     0.022 A 
BRANCH  86  89
ATOM     89  S   UNL     1      -1.728  -8.909  21.732  1.00  0.00     0.127 S 
ATOM     90  O   UNL     1      -2.915  -8.865  22.582  1.00  0.00    -0.237 OA
ATOM     91  O   UNL     1      -1.635 -10.086  20.867  1.00  0.00    -0.237 OA
ATOM     92  O   UNL     1      -0.474  -8.555  22.387  1.00  0.00    -0.744 OA
ENDBRANCH  86  89
ENDBRANCH  59  82
ENDBRANCH  33  34
ENDBRANCH  25  28
ENDBRANCH  23  24
ENDBRANCH  22  23
ENDBRANCH   1  22
TORSDOF 18
