REMARK SMILES O=C(Cc1ccc(F)cc1F)Nc1sccc1C(=O)NCCCNC(=O)c1ccc(-c2c3nc(c(-c4cccc(S(=O)(=O)[O-])c4F)c4ccc([nH]4)c(-c4cccc(S(=O)(=O)[O-])c4F)c4nc(c(-c5cccc(S(=O)(=O)[O-])c5F)c5ccc2[nH]5)C=C4)C=C3)cc1
REMARK SMILES IDX 22 1 21 2 20 3 18 4 19 5 17 7 13 8 14 9 15 10 16 11 12 12
REMARK SMILES IDX 1 13 2 14 3 16 4 17 5 18 10 19 6 20 9 21 11 22 7 23 8 24
REMARK SMILES IDX 23 25 24 26 25 27 26 29 27 30 28 31 89 32 29 33 88 34 30 35
REMARK SMILES IDX 31 36 32 37 82 38 33 39 87 40 81 41 83 42 34 43 86 44 80 45
REMARK SMILES IDX 79 46 35 48 67 49 47 50 66 51 48 52 51 53 65 54 84 55 49 56
REMARK SMILES IDX 50 57 64 59 85 60 52 61 36 62 37 63 45 64 38 65 40 66 46 67
REMARK SMILES IDX 39 68 41 69 42 70 43 71 44 72 68 73 69 74 77 75 70 76 72 77
REMARK SMILES IDX 78 78 71 79 73 80 74 81 75 82 76 83 53 84 54 85 62 86 55 87
REMARK SMILES IDX 57 88 63 89 56 90 58 91 59 92 60 93 61 94
REMARK H PARENT 20 6 12 15 24 28 83 47 51 58
REMARK Flexibility Score: inf
ROOT
ATOM      1  C   UNL     1       3.478   3.123   1.234  1.00  0.00     0.042 C 
ENDROOT
BRANCH   1   2
ATOM      2  C   UNL     1       2.663   2.236   0.317  1.00  0.00     0.118 C 
BRANCH   2   3
ATOM      3  N   UNL     1       1.296   2.639   0.083  1.00  0.00    -0.352 N 
ATOM      4  C   UNL     1       0.460   2.280  -0.950  1.00  0.00     0.254 C 
ATOM      5  O   UNL     1      -0.700   2.701  -0.915  1.00  0.00    -0.269 OA
ATOM      6  H   UNL     1       0.912   3.253   0.750  1.00  0.00     0.163 HD
BRANCH   4   7
ATOM      7  C   UNL     1       0.978   1.598  -2.138  1.00  0.00     0.074 A 
ATOM      8  C   UNL     1       1.825   0.506  -2.254  1.00  0.00     0.108 A 
ATOM      9  S   UNL     1       2.369   0.257  -3.856  1.00  0.00    -0.126 S 
ATOM     10  C   UNL     1       1.311   1.442  -4.471  1.00  0.00     0.068 A 
ATOM     11  C   UNL     1       0.629   2.076  -3.460  1.00  0.00     0.028 A 
BRANCH   8  12
ATOM     12  N   UNL     1       2.389  -0.412  -1.393  1.00  0.00    -0.317 N 
ATOM     13  O   UNL     1       0.659  -0.562   0.121  1.00  0.00    -0.274 OA
ATOM     14  C   UNL     1       1.827  -0.790  -0.194  1.00  0.00     0.229 C 
ATOM     15  H   UNL     1       3.246  -0.823  -1.651  1.00  0.00     0.170 HD
BRANCH  14  16
ATOM     16  C   UNL     1       2.795  -1.379   0.826  1.00  0.00     0.139 C 
BRANCH  16  17
ATOM     17  C   UNL     1       3.738  -2.455   0.363  1.00  0.00    -0.003 A 
ATOM     18  C   UNL     1       3.460  -3.802   0.622  1.00  0.00     0.010 A 
ATOM     19  C   UNL     1       4.955  -2.121  -0.246  1.00  0.00     0.129 A 
ATOM     20  C   UNL     1       4.398  -4.781   0.293  1.00  0.00     0.040 A 
ATOM     21  C   UNL     1       5.892  -3.089  -0.581  1.00  0.00     0.078 A 
ATOM     22  F   UNL     1       5.222  -0.836  -0.520  1.00  0.00    -0.207 F 
ATOM     23  C   UNL     1       5.604  -4.416  -0.300  1.00  0.00     0.126 A 
ATOM     24  F   UNL     1       6.500  -5.364  -0.600  1.00  0.00    -0.207 F 
ENDBRANCH  16  17
ENDBRANCH  14  16
ENDBRANCH   8  12
ENDBRANCH   4   7
ENDBRANCH   2   3
ENDBRANCH   1   2
BRANCH   1  25
ATOM     25  C   UNL     1       2.966   3.192   2.668  1.00  0.00     0.118 C 
BRANCH  25  26
ATOM     26  N   UNL     1       2.913   1.903   3.361  1.00  0.00    -0.352 N 
ATOM     27  C   UNL     1       3.696   1.340   4.346  1.00  0.00     0.251 C 
ATOM     28  H   UNL     1       2.174   1.325   3.065  1.00  0.00     0.163 HD
ATOM     29  O   UNL     1       3.493   0.169   4.663  1.00  0.00    -0.269 OA
BRANCH  27  30
ATOM     30  C   UNL     1       4.794   2.095   4.996  1.00  0.00     0.039 A 
ATOM     31  C   UNL     1       5.964   1.424   5.373  1.00  0.00     0.014 A 
ATOM     32  C   UNL     1       4.686   3.458   5.250  1.00  0.00     0.014 A 
ATOM     33  C   UNL     1       7.053   2.143   5.886  1.00  0.00     0.010 A 
ATOM     34  C   UNL     1       5.808   4.188   5.623  1.00  0.00     0.010 A 
ATOM     35  C   UNL     1       7.008   3.544   5.952  1.00  0.00    -0.014 A 
BRANCH  35  36
ATOM     36  C   UNL     1       8.178   4.373   6.355  1.00  0.00     0.031 A 
ATOM     37  C   UNL     1       8.041   5.378   7.473  1.00  0.00     0.074 A 
ATOM     38  C   UNL     1       9.313   4.335   5.627  1.00  0.00     0.049 A 
ATOM     39  N   UNL     1       8.867   6.321   7.845  1.00  0.00    -0.248 NA
ATOM     40  C   UNL     1       6.782   5.354   8.238  1.00  0.00     0.031 C 
ATOM     41  C   UNL     1       9.550   3.480   4.462  1.00  0.00     0.029 A 
ATOM     42  N   UNL     1      10.473   5.062   5.740  1.00  0.00    -0.354 N 
ATOM     43  C   UNL     1       8.200   7.044   8.828  1.00  0.00     0.074 A 
ATOM     44  C   UNL     1       6.887   6.455   8.967  1.00  0.00     0.031 C 
ATOM     45  C   UNL     1      10.780   3.716   3.981  1.00  0.00     0.029 A 
ATOM     46  C   UNL     1      11.409   4.766   4.776  1.00  0.00     0.049 A 
ATOM     47  H   UNL     1      10.622   5.733   6.446  1.00  0.00     0.167 HD
ATOM     48  C   UNL     1       8.648   8.079   9.579  1.00  0.00     0.034 A 
ATOM     49  C   UNL     1      12.634   5.281   4.554  1.00  0.00     0.034 A 
ATOM     50  C   UNL     1       9.988   8.594   9.513  1.00  0.00     0.049 A 
ATOM     51  C   UNL     1      13.151   6.356   5.470  1.00  0.00     0.074 A 
ATOM     52  C   UNL     1      10.580   9.560  10.306  1.00  0.00     0.029 A 
ATOM     53  N   UNL     1      10.952   8.169   8.612  1.00  0.00    -0.354 N 
ATOM     54  N   UNL     1      12.555   6.929   6.487  1.00  0.00    -0.248 NA
ATOM     55  C   UNL     1      14.522   6.831   5.232  1.00  0.00     0.031 C 
ATOM     56  C   UNL     1      11.906   9.716   9.886  1.00  0.00     0.029 A 
ATOM     57  C   UNL     1      12.139   8.843   8.835  1.00  0.00     0.049 A 
ATOM     58  H   UNL     1      10.812   7.487   7.915  1.00  0.00     0.167 HD
ATOM     59  C   UNL     1      13.488   7.802   7.034  1.00  0.00     0.074 A 
ATOM     60  C   UNL     1      14.696   7.671   6.244  1.00  0.00     0.031 C 
ATOM     61  C   UNL     1      13.352   8.649   8.084  1.00  0.00     0.034 A 
BRANCH  48  62
ATOM     62  C   UNL     1       7.700   8.661  10.597  1.00  0.00     0.023 A 
ATOM     63  C   UNL     1       7.362   7.907  11.739  1.00  0.00     0.012 A 
ATOM     64  C   UNL     1       7.165   9.955  10.443  1.00  0.00     0.148 A 
ATOM     65  C   UNL     1       6.468   8.406  12.685  1.00  0.00     0.002 A 
ATOM     66  C   UNL     1       6.310  10.465  11.415  1.00  0.00     0.091 A 
ATOM     67  F   UNL     1       7.475  10.653   9.342  1.00  0.00    -0.205 F 
ATOM     68  C   UNL     1       5.950   9.688  12.528  1.00  0.00     0.022 A 
BRANCH  66  69
ATOM     69  S   UNL     1       5.657  12.138  11.338  1.00  0.00     0.127 S 
ATOM     70  O   UNL     1       4.299  11.904  10.852  1.00  0.00    -0.237 OA
ATOM     71  O   UNL     1       5.738  12.571  12.734  1.00  0.00    -0.237 OA
ATOM     72  O   UNL     1       6.538  12.862  10.432  1.00  0.00    -0.744 OA
ENDBRANCH  66  69
ENDBRANCH  48  62
BRANCH  49  73
ATOM     73  C   UNL     1      13.497   4.704   3.483  1.00  0.00     0.023 A 
ATOM     74  C   UNL     1      14.594   3.902   3.856  1.00  0.00     0.012 A 
ATOM     75  C   UNL     1      13.218   4.894   2.116  1.00  0.00     0.148 A 
ATOM     76  C   UNL     1      15.413   3.320   2.888  1.00  0.00     0.002 A 
ATOM     77  C   UNL     1      14.009   4.270   1.157  1.00  0.00     0.091 A 
ATOM     78  F   UNL     1      12.175   5.667   1.782  1.00  0.00    -0.205 F 
ATOM     79  C   UNL     1      15.115   3.495   1.540  1.00  0.00     0.022 A 
BRANCH  77  80
ATOM     80  S   UNL     1      13.628   4.331  -0.598  1.00  0.00     0.127 S 
ATOM     81  O   UNL     1      14.693   5.190  -1.107  1.00  0.00    -0.237 OA
ATOM     82  O   UNL     1      13.736   2.922  -0.981  1.00  0.00    -0.237 OA
ATOM     83  O   UNL     1      12.279   4.873  -0.688  1.00  0.00    -0.744 OA
ENDBRANCH  77  80
ENDBRANCH  49  73
BRANCH  61  84
ATOM     84  C   UNL     1      14.547   9.476   8.474  1.00  0.00     0.023 A 
ATOM     85  C   UNL     1      14.914  10.585   7.688  1.00  0.00     0.012 A 
ATOM     86  C   UNL     1      15.251   9.205   9.664  1.00  0.00     0.148 A 
ATOM     87  C   UNL     1      15.980  11.400   8.068  1.00  0.00     0.002 A 
ATOM     88  C   UNL     1      16.284  10.047  10.059  1.00  0.00     0.091 A 
ATOM     89  F   UNL     1      14.900   8.131  10.386  1.00  0.00    -0.205 F 
ATOM     90  C   UNL     1      16.655  11.139   9.258  1.00  0.00     0.022 A 
BRANCH  88  91
ATOM     91  S   UNL     1      17.143   9.836  11.623  1.00  0.00     0.127 S 
ATOM     92  O   UNL     1      18.400   9.225  11.193  1.00  0.00    -0.237 OA
ATOM     93  O   UNL     1      17.267  11.213  12.102  1.00  0.00    -0.237 OA
ATOM     94  O   UNL     1      16.279   8.993  12.439  1.00  0.00    -0.744 OA
ENDBRANCH  88  91
ENDBRANCH  61  84
ENDBRANCH  35  36
ENDBRANCH  27  30
ENDBRANCH  25  26
ENDBRANCH   1  25
TORSDOF 16
