REMARK SMILES C[N@H+]1CC[C@H](C[N@@H+](CC(=O)NCCCNC(=O)c2ccc(-c3c4nc(c(-c5cccc(S(=O)(=O)[O-])c5F)c5ccc([nH]5)c(-c5cccc(S(=O)(=O)[O-])c5F)c5nc(c(-c6cccc(S(=O)(=O)[O-])c6F)c6ccc3[nH]6)C=C5)C=C4)cc2)C2CC2)C1
REMARK SMILES IDX 13 1 12 2 11 3 9 4 10 5 8 7 7 8 6 10 5 11 1 12 2 13 3 14
REMARK SMILES IDX 84 15 4 17 81 18 82 19 83 20 14 21 15 22 16 23 17 25 18 26
REMARK SMILES IDX 19 27 80 28 20 29 79 30 21 31 22 32 23 33 73 34 24 35 78 36
REMARK SMILES IDX 72 37 74 38 25 39 77 40 71 41 70 42 26 44 58 45 38 46 57 47
REMARK SMILES IDX 39 48 42 49 56 50 75 51 40 52 41 53 55 55 76 56 43 57 27 58
REMARK SMILES IDX 28 59 36 60 29 61 31 62 37 63 30 64 32 65 33 66 34 67 35 68
REMARK SMILES IDX 59 69 60 70 68 71 61 72 63 73 69 74 62 75 64 76 65 77 66 78
REMARK SMILES IDX 67 79 44 80 45 81 53 82 46 83 48 84 54 85 47 86 49 87 50 88
REMARK SMILES IDX 51 89 52 90
REMARK H PARENT 11 6 7 9 2 16 15 24 74 43 42 54
REMARK Flexibility Score: inf
ROOT
ATOM      1  C   UNL     1       3.052   0.954  -2.971  1.00  0.00     0.042 C 
ENDROOT
BRANCH   1   2
ATOM      2  C   UNL     1       2.891  -0.297  -3.837  1.00  0.00     0.118 C 
BRANCH   2   3
ATOM      3  N   UNL     1       3.848  -1.344  -3.507  1.00  0.00    -0.351 N 
ATOM      4  C   UNL     1       3.703  -2.548  -2.877  1.00  0.00     0.275 C 
ATOM      5  O   UNL     1       4.716  -3.254  -2.803  1.00  0.00    -0.269 OA
ATOM      6  H   UNL     1       4.770  -1.148  -3.791  1.00  0.00     0.163 HD
BRANCH   4   7
ATOM      7  C   UNL     1       2.357  -3.031  -2.308  1.00  0.00     0.363 C 
BRANCH   7   8
ATOM      8  N   UNL     1       2.137  -2.722  -0.863  1.00  0.00    -0.324 N 
ATOM      9  H   UNL     1       1.292  -3.207  -0.559  1.00  0.00     0.348 HD
BRANCH   8  10
ATOM     10  C   UNL     1       1.931  -1.278  -0.681  1.00  0.00     0.272 C 
BRANCH  10  11
ATOM     11  C   UNL     1       1.139  -0.809   0.549  1.00  0.00     0.105 C 
ATOM     12  C   UNL     1      -2.452  -0.107   0.172  1.00  0.00     0.332 C 
ATOM     13  N   UNL     1      -1.015  -0.083  -0.077  1.00  0.00    -0.337 N 
ATOM     14  C   UNL     1      -0.395   1.089   0.547  1.00  0.00     0.262 C 
ATOM     15  C   UNL     1      -0.330  -1.232   0.534  1.00  0.00     0.271 C 
ATOM     16  H   UNL     1      -0.919  -0.086  -1.093  1.00  0.00     0.347 HD
ATOM     17  C   UNL     1       1.082   0.733   0.561  1.00  0.00     0.076 C 
ENDBRANCH  10  11
ENDBRANCH   8  10
BRANCH   8  18
ATOM     18  C   UNL     1       3.238  -3.235  -0.013  1.00  0.00     0.184 C 
ATOM     19  C   UNL     1       3.024  -3.484   1.455  1.00  0.00     0.071 C 
ATOM     20  C   UNL     1       3.179  -4.641   0.517  1.00  0.00     0.071 C 
ENDBRANCH   8  18
ENDBRANCH   7   8
ENDBRANCH   4   7
ENDBRANCH   2   3
ENDBRANCH   1   2
BRANCH   1  21
ATOM     21  C   UNL     1       4.342   1.736  -3.193  1.00  0.00     0.118 C 
BRANCH  21  22
ATOM     22  N   UNL     1       4.147   2.840  -4.114  1.00  0.00    -0.352 N 
ATOM     23  C   UNL     1       3.950   4.181  -3.880  1.00  0.00     0.251 C 
ATOM     24  H   UNL     1       4.157   2.587  -5.066  1.00  0.00     0.163 HD
ATOM     25  O   UNL     1       3.538   4.875  -4.810  1.00  0.00    -0.269 OA
BRANCH  23  26
ATOM     26  C   UNL     1       4.212   4.815  -2.559  1.00  0.00     0.039 A 
ATOM     27  C   UNL     1       3.414   5.902  -2.176  1.00  0.00     0.014 A 
ATOM     28  C   UNL     1       5.284   4.447  -1.743  1.00  0.00     0.014 A 
ATOM     29  C   UNL     1       3.674   6.593  -0.985  1.00  0.00     0.010 A 
ATOM     30  C   UNL     1       5.493   5.085  -0.514  1.00  0.00     0.010 A 
ATOM     31  C   UNL     1       4.710   6.184  -0.131  1.00  0.00    -0.014 A 
BRANCH  31  32
ATOM     32  C   UNL     1       5.004   6.912   1.137  1.00  0.00     0.031 A 
ATOM     33  C   UNL     1       6.337   7.593   1.340  1.00  0.00     0.074 A 
ATOM     34  C   UNL     1       4.102   6.915   2.139  1.00  0.00     0.049 A 
ATOM     35  N   UNL     1       6.787   8.232   2.391  1.00  0.00    -0.248 NA
ATOM     36  C   UNL     1       7.298   7.526   0.228  1.00  0.00     0.031 C 
ATOM     37  C   UNL     1       2.803   6.242   2.108  1.00  0.00     0.029 A 
ATOM     38  N   UNL     1       4.151   7.483   3.390  1.00  0.00    -0.354 N 
ATOM     39  C   UNL     1       8.091   8.605   2.084  1.00  0.00     0.074 A 
ATOM     40  C   UNL     1       8.371   8.095   0.759  1.00  0.00     0.031 C 
ATOM     41  C   UNL     1       2.179   6.437   3.281  1.00  0.00     0.029 A 
ATOM     42  C   UNL     1       3.040   7.224   4.159  1.00  0.00     0.049 A 
ATOM     43  H   UNL     1       4.911   8.024   3.706  1.00  0.00     0.167 HD
ATOM     44  C   UNL     1       8.969   9.332   2.818  1.00  0.00     0.034 A 
ATOM     45  C   UNL     1       2.746   7.574   5.427  1.00  0.00     0.034 A 
ATOM     46  C   UNL     1       8.675   9.893   4.110  1.00  0.00     0.049 A 
ATOM     47  C   UNL     1       3.717   8.422   6.205  1.00  0.00     0.074 A 
ATOM     48  C   UNL     1       9.464  10.725   4.886  1.00  0.00     0.029 A 
ATOM     49  N   UNL     1       7.503   9.681   4.818  1.00  0.00    -0.354 N 
ATOM     50  N   UNL     1       4.879   8.898   5.831  1.00  0.00    -0.248 NA
ATOM     51  C   UNL     1       3.320   8.811   7.567  1.00  0.00     0.031 C 
ATOM     52  C   UNL     1       8.775  11.002   6.072  1.00  0.00     0.029 A 
ATOM     53  C   UNL     1       7.550  10.358   6.026  1.00  0.00     0.049 A 
ATOM     54  H   UNL     1       6.748   9.131   4.508  1.00  0.00     0.167 HD
ATOM     55  C   UNL     1       5.337   9.668   6.895  1.00  0.00     0.074 A 
ATOM     56  C   UNL     1       4.316   9.613   7.920  1.00  0.00     0.031 C 
ATOM     57  C   UNL     1       6.506  10.344   7.018  1.00  0.00     0.034 A 
BRANCH  44  58
ATOM     58  C   UNL     1      10.320   9.619   2.214  1.00  0.00     0.023 A 
ATOM     59  C   UNL     1      10.422  10.539   1.150  1.00  0.00     0.012 A 
ATOM     60  C   UNL     1      11.491   9.032   2.732  1.00  0.00     0.148 A 
ATOM     61  C   UNL     1      11.661  10.843   0.588  1.00  0.00     0.002 A 
ATOM     62  C   UNL     1      12.728   9.372   2.194  1.00  0.00     0.091 A 
ATOM     63  F   UNL     1      11.375   8.145   3.731  1.00  0.00    -0.205 F 
ATOM     64  C   UNL     1      12.814  10.268   1.116  1.00  0.00     0.022 A 
BRANCH  62  65
ATOM     65  S   UNL     1      14.276   8.744   2.857  1.00  0.00     0.127 S 
ATOM     66  O   UNL     1      14.662   7.773   1.834  1.00  0.00    -0.237 OA
ATOM     67  O   UNL     1      15.107   9.948   2.897  1.00  0.00    -0.237 OA
ATOM     68  O   UNL     1      13.955   8.188   4.163  1.00  0.00    -0.744 OA
ENDBRANCH  62  65
ENDBRANCH  44  58
BRANCH  45  69
ATOM     69  C   UNL     1       1.434   7.181   6.017  1.00  0.00     0.023 A 
ATOM     70  C   UNL     1       0.455   8.167   6.242  1.00  0.00     0.012 A 
ATOM     71  C   UNL     1       1.138   5.837   6.319  1.00  0.00     0.148 A 
ATOM     72  C   UNL     1      -0.787   7.828   6.781  1.00  0.00     0.002 A 
ATOM     73  C   UNL     1      -0.121   5.498   6.801  1.00  0.00     0.091 A 
ATOM     74  F   UNL     1       2.088   4.915   6.114  1.00  0.00    -0.205 F 
ATOM     75  C   UNL     1      -1.079   6.494   7.049  1.00  0.00     0.022 A 
BRANCH  73  76
ATOM     76  S   UNL     1      -0.631   3.792   7.039  1.00  0.00     0.127 S 
ATOM     77  O   UNL     1      -0.641   3.681   8.494  1.00  0.00    -0.237 OA
ATOM     78  O   UNL     1      -1.952   3.779   6.409  1.00  0.00    -0.237 OA
ATOM     79  O   UNL     1       0.367   2.986   6.345  1.00  0.00    -0.744 OA
ENDBRANCH  73  76
ENDBRANCH  45  69
BRANCH  57  80
ATOM     80  C   UNL     1       6.744  11.108   8.295  1.00  0.00     0.023 A 
ATOM     81  C   UNL     1       7.044  10.409   9.480  1.00  0.00     0.012 A 
ATOM     82  C   UNL     1       6.747  12.517   8.304  1.00  0.00     0.148 A 
ATOM     83  C   UNL     1       7.314  11.098  10.662  1.00  0.00     0.002 A 
ATOM     84  C   UNL     1       7.062  13.198   9.475  1.00  0.00     0.091 A 
ATOM     85  F   UNL     1       6.440  13.166   7.171  1.00  0.00    -0.205 F 
ATOM     86  C   UNL     1       7.336  12.491  10.656  1.00  0.00     0.022 A 
BRANCH  84  87
ATOM     87  S   UNL     1       7.203  14.989   9.537  1.00  0.00     0.127 S 
ATOM     88  O   UNL     1       5.978  15.360  10.242  1.00  0.00    -0.237 OA
ATOM     89  O   UNL     1       8.432  15.179  10.309  1.00  0.00    -0.237 OA
ATOM     90  O   UNL     1       7.289  15.431   8.151  1.00  0.00    -0.744 OA
ENDBRANCH  84  87
ENDBRANCH  57  80
ENDBRANCH  31  32
ENDBRANCH  23  26
ENDBRANCH  21  22
ENDBRANCH   1  21
TORSDOF 17
