REMARK SMILES O=C(NCCCNC(=O)[C@H]1CC=CC[C@@H]1C(=O)Nc1ccccc1C(=O)NCc1ccco1)c1ccc(-c2c3nc(c(-c4cccc(S(=O)(=O)[O-])c4F)c4ccc([nH]4)c(-c4cccc(S(=O)(=O)[O-])c4F)c4nc(c(-c5cccc(S(=O)(=O)[O-])c5F)c5ccc2[nH]5)C=C4)C=C3)cc1
REMARK SMILES IDX 6 1 5 2 4 3 3 4 1 5 2 6 34 8 35 9 96 10 36 11 95 12 37 13
REMARK SMILES IDX 38 14 39 15 89 16 40 17 94 18 88 19 90 20 41 21 93 22 87 23
REMARK SMILES IDX 86 24 42 26 74 27 54 28 73 29 55 30 58 31 72 32 91 33 56 34
REMARK SMILES IDX 57 35 71 37 92 38 59 39 43 40 44 41 52 42 45 43 47 44 53 45
REMARK SMILES IDX 46 46 48 47 49 48 50 49 51 50 75 51 76 52 84 53 77 54 79 55
REMARK SMILES IDX 85 56 78 57 80 58 81 59 82 60 83 61 60 62 61 63 69 64 62 65
REMARK SMILES IDX 64 66 70 67 63 68 65 69 66 70 67 71 68 72 7 73 8 74 9 76
REMARK SMILES IDX 10 77 11 78 15 79 12 80 14 81 13 82 16 83 17 84 18 85 19 87
REMARK SMILES IDX 20 88 24 89 21 90 23 91 22 92 25 93 26 94 27 95 28 97 29 98
REMARK SMILES IDX 30 99 33 100 31 101 32 102
REMARK H PARENT 3 7 90 25 58 36 7 75 18 86 27 96
REMARK Flexibility Score: inf
ROOT
ATOM      1  C   UNL     1       3.967  -3.300  -2.031  1.00  0.00     0.117 C 
ENDROOT
BRANCH   1   2
ATOM      2  C   UNL     1       4.707  -2.234  -1.217  1.00  0.00     0.042 C 
BRANCH   2   3
ATOM      3  C   UNL     1       4.360  -0.775  -1.488  1.00  0.00     0.118 C 
BRANCH   3   4
ATOM      4  N   UNL     1       2.971  -0.436  -1.234  1.00  0.00    -0.352 N 
ATOM      5  O   UNL     1       1.109   0.052  -0.089  1.00  0.00    -0.269 OA
ATOM      6  C   UNL     1       2.334   0.013  -0.102  1.00  0.00     0.251 C 
ATOM      7  H   UNL     1       2.380  -0.548  -2.012  1.00  0.00     0.163 HD
BRANCH   6   8
ATOM      8  C   UNL     1       3.101   0.414   1.099  1.00  0.00     0.039 A 
ATOM      9  C   UNL     1       4.258   1.187   1.000  1.00  0.00     0.014 A 
ATOM     10  C   UNL     1       2.613   0.061   2.362  1.00  0.00     0.014 A 
ATOM     11  C   UNL     1       5.014   1.457   2.137  1.00  0.00     0.010 A 
ATOM     12  C   UNL     1       3.321   0.422   3.513  1.00  0.00     0.010 A 
ATOM     13  C   UNL     1       4.552   1.088   3.410  1.00  0.00    -0.014 A 
BRANCH  13  14
ATOM     14  C   UNL     1       5.344   1.461   4.613  1.00  0.00     0.031 A 
ATOM     15  C   UNL     1       5.913   0.412   5.530  1.00  0.00     0.074 A 
ATOM     16  C   UNL     1       5.560   2.767   4.871  1.00  0.00     0.049 A 
ATOM     17  N   UNL     1       6.670   0.567   6.587  1.00  0.00    -0.248 NA
ATOM     18  C   UNL     1       5.586  -0.991   5.233  1.00  0.00     0.031 C 
ATOM     19  C   UNL     1       5.024   3.880   4.083  1.00  0.00     0.029 A 
ATOM     20  N   UNL     1       6.287   3.382   5.858  1.00  0.00    -0.354 N 
ATOM     21  C   UNL     1       6.875  -0.707   7.104  1.00  0.00     0.074 A 
ATOM     22  C   UNL     1       6.152  -1.625   6.251  1.00  0.00     0.031 C 
ATOM     23  C   UNL     1       5.471   5.037   4.592  1.00  0.00     0.029 A 
ATOM     24  C   UNL     1       6.277   4.755   5.774  1.00  0.00     0.049 A 
ATOM     25  H   UNL     1       6.770   2.888   6.560  1.00  0.00     0.167 HD
ATOM     26  C   UNL     1       7.609  -1.079   8.182  1.00  0.00     0.034 A 
ATOM     27  C   UNL     1       6.841   5.688   6.565  1.00  0.00     0.034 A 
ATOM     28  C   UNL     1       8.349  -0.164   9.011  1.00  0.00     0.049 A 
ATOM     29  C   UNL     1       7.657   5.243   7.745  1.00  0.00     0.074 A 
ATOM     30  C   UNL     1       9.179  -0.451  10.081  1.00  0.00     0.029 A 
ATOM     31  N   UNL     1       8.335   1.217   8.878  1.00  0.00    -0.354 N 
ATOM     32  N   UNL     1       7.951   4.027   8.134  1.00  0.00    -0.248 NA
ATOM     33  C   UNL     1       8.243   6.301   8.579  1.00  0.00     0.031 C 
ATOM     34  C   UNL     1       9.639   0.757  10.616  1.00  0.00     0.029 A 
ATOM     35  C   UNL     1       9.128   1.796   9.856  1.00  0.00     0.049 A 
ATOM     36  H   UNL     1       7.836   1.712   8.190  1.00  0.00     0.167 HD
ATOM     37  C   UNL     1       8.784   4.171   9.236  1.00  0.00     0.074 A 
ATOM     38  C   UNL     1       8.966   5.595   9.437  1.00  0.00     0.031 C 
ATOM     39  C   UNL     1       9.338   3.213  10.019  1.00  0.00     0.034 A 
BRANCH  26  40
ATOM     40  C   UNL     1       7.667  -2.549   8.520  1.00  0.00     0.023 A 
ATOM     41  C   UNL     1       8.388  -3.433   7.690  1.00  0.00     0.012 A 
ATOM     42  C   UNL     1       7.057  -3.046   9.689  1.00  0.00     0.148 A 
ATOM     43  C   UNL     1       8.468  -4.792   7.997  1.00  0.00     0.002 A 
ATOM     44  C   UNL     1       7.180  -4.393  10.013  1.00  0.00     0.091 A 
ATOM     45  F   UNL     1       6.360  -2.197  10.457  1.00  0.00    -0.205 F 
ATOM     46  C   UNL     1       7.873  -5.269   9.162  1.00  0.00     0.022 A 
BRANCH  44  47
ATOM     47  S   UNL     1       6.520  -5.087  11.533  1.00  0.00     0.127 S 
ATOM     48  O   UNL     1       5.391  -5.870  11.033  1.00  0.00    -0.237 OA
ATOM     49  O   UNL     1       7.646  -5.886  12.021  1.00  0.00    -0.237 OA
ATOM     50  O   UNL     1       6.173  -3.952  12.375  1.00  0.00    -0.744 OA
ENDBRANCH  44  47
ENDBRANCH  26  40
BRANCH  27  51
ATOM     51  C   UNL     1       6.693   7.133   6.233  1.00  0.00     0.023 A 
ATOM     52  C   UNL     1       7.818   7.865   5.807  1.00  0.00     0.012 A 
ATOM     53  C   UNL     1       5.442   7.776   6.306  1.00  0.00     0.148 A 
ATOM     54  C   UNL     1       7.706   9.219   5.489  1.00  0.00     0.002 A 
ATOM     55  C   UNL     1       5.326   9.108   5.930  1.00  0.00     0.091 A 
ATOM     56  F   UNL     1       4.386   7.064   6.725  1.00  0.00    -0.205 F 
ATOM     57  C   UNL     1       6.460   9.837   5.539  1.00  0.00     0.022 A 
BRANCH  55  58
ATOM     58  S   UNL     1       3.741   9.947   5.834  1.00  0.00     0.127 S 
ATOM     59  O   UNL     1       3.838  10.895   6.941  1.00  0.00    -0.237 OA
ATOM     60  O   UNL     1       3.799  10.546   4.501  1.00  0.00    -0.237 OA
ATOM     61  O   UNL     1       2.734   8.904   5.981  1.00  0.00    -0.744 OA
ENDBRANCH  55  58
ENDBRANCH  27  51
BRANCH  39  62
ATOM     62  C   UNL     1      10.233   3.667  11.143  1.00  0.00     0.023 A 
ATOM     63  C   UNL     1       9.681   4.306  12.271  1.00  0.00     0.012 A 
ATOM     64  C   UNL     1      11.619   3.416  11.100  1.00  0.00     0.148 A 
ATOM     65  C   UNL     1      10.500   4.723  13.321  1.00  0.00     0.002 A 
ATOM     66  C   UNL     1      12.420   3.785  12.173  1.00  0.00     0.091 A 
ATOM     67  F   UNL     1      12.129   2.826  10.009  1.00  0.00    -0.205 F 
ATOM     68  C   UNL     1      11.866   4.452  13.277  1.00  0.00     0.022 A 
BRANCH  66  69
ATOM     69  S   UNL     1      14.171   3.389  12.246  1.00  0.00     0.127 S 
ATOM     70  O   UNL     1      14.782   4.699  12.029  1.00  0.00    -0.237 OA
ATOM     71  O   UNL     1      14.314   2.867  13.605  1.00  0.00    -0.237 OA
ATOM     72  O   UNL     1      14.404   2.408  11.195  1.00  0.00    -0.744 OA
ENDBRANCH  66  69
ENDBRANCH  39  62
ENDBRANCH  13  14
ENDBRANCH   6   8
ENDBRANCH   3   4
ENDBRANCH   2   3
ENDBRANCH   1   2
BRANCH   1  73
ATOM     73  N   UNL     1       3.395  -2.880  -3.296  1.00  0.00    -0.356 N 
ATOM     74  C   UNL     1       3.694  -3.239  -4.573  1.00  0.00     0.224 C 
ATOM     75  H   UNL     1       2.666  -2.223  -3.217  1.00  0.00     0.163 HD
ATOM     76  O   UNL     1       2.765  -3.166  -5.383  1.00  0.00    -0.275 OA
BRANCH  74  77
ATOM     77  C   UNL     1       5.104  -3.701  -4.984  1.00  0.00     0.095 C 
ATOM     78  C   UNL     1       5.154  -3.832  -6.523  1.00  0.00     0.041 C 
ATOM     79  C   UNL     1       6.180  -2.704  -4.519  1.00  0.00     0.095 C 
ATOM     80  C   UNL     1       5.217  -2.494  -7.212  1.00  0.00    -0.030 C 
ATOM     81  C   UNL     1       5.977  -1.330  -5.140  1.00  0.00     0.041 C 
ATOM     82  C   UNL     1       5.552  -1.363  -6.573  1.00  0.00    -0.030 C 
BRANCH  79  83
ATOM     83  C   UNL     1       7.566  -3.346  -4.417  1.00  0.00     0.228 C 
ATOM     84  O   UNL     1       7.873  -3.860  -3.327  1.00  0.00    -0.274 OA
ATOM     85  N   UNL     1       8.474  -3.570  -5.397  1.00  0.00    -0.325 N 
ATOM     86  H   UNL     1       9.238  -4.107  -5.085  1.00  0.00     0.169 HD
BRANCH  85  87
ATOM     87  C   UNL     1       8.585  -3.220  -6.749  1.00  0.00     0.054 A 
ATOM     88  C   UNL     1       8.770  -4.341  -7.592  1.00  0.00     0.027 A 
ATOM     89  C   UNL     1       8.537  -1.945  -7.325  1.00  0.00     0.063 A 
ATOM     90  C   UNL     1       8.672  -4.239  -8.979  1.00  0.00     0.002 A 
ATOM     91  C   UNL     1       8.398  -1.872  -8.735  1.00  0.00     0.016 A 
ATOM     92  C   UNL     1       8.428  -3.004  -9.550  1.00  0.00     0.001 A 
BRANCH  89  93
ATOM     93  C   UNL     1       8.646  -0.598  -6.683  1.00  0.00     0.253 C 
ATOM     94  O   UNL     1       8.194   0.382  -7.287  1.00  0.00    -0.269 OA
ATOM     95  N   UNL     1       9.233  -0.313  -5.485  1.00  0.00    -0.345 N 
ATOM     96  H   UNL     1       9.204   0.647  -5.267  1.00  0.00     0.164 HD
BRANCH  95  97
ATOM     97  C   UNL     1       9.887  -1.098  -4.464  1.00  0.00     0.191 C 
BRANCH  97  98
ATOM     98  C   UNL     1      10.957  -0.290  -3.830  1.00  0.00     0.122 A 
ATOM     99  C   UNL     1      11.063   1.026  -3.425  1.00  0.00     0.047 A 
ATOM    100  O   UNL     1      12.112  -0.957  -3.547  1.00  0.00    -0.467 OA
ATOM    101  C   UNL     1      12.369   1.177  -2.900  1.00  0.00     0.042 A 
ATOM    102  C   UNL     1      12.960  -0.061  -2.983  1.00  0.00     0.195 A 
ENDBRANCH  97  98
ENDBRANCH  95  97
ENDBRANCH  89  93
ENDBRANCH  85  87
ENDBRANCH  79  83
ENDBRANCH  74  77
ENDBRANCH   1  73
TORSDOF 18
