REMARK SMILES O=C(Cc1csc(NC(=O)[C@H]2CC(=O)N(C3CC3)C2)n1)NCCCNC(=O)c1ccc(-c2c3nc(c(-c4cccc(S(=O)(=O)[O-])c4F)c4ccc([nH]4)c(-c4cccc(S(=O)(=O)[O-])c4F)c4nc(c(-c5cccc(S(=O)(=O)[O-])c5F)c5ccc2[nH]5)C=C4)C=C3)cc1
REMARK SMILES IDX 22 1 21 2 1 3 2 4 3 6 4 7 5 8 20 9 6 10 7 11 8 12 9 13 10 15
REMARK SMILES IDX 11 16 12 17 19 18 13 19 15 20 14 21 16 22 17 23 18 24 23 25
REMARK SMILES IDX 24 26 25 27 26 28 27 30 28 31 29 32 90 33 30 34 89 35 31 36
REMARK SMILES IDX 32 37 33 38 83 39 34 40 88 41 82 42 84 43 35 44 87 45 81 46
REMARK SMILES IDX 80 47 36 49 68 50 48 51 67 52 49 53 52 54 66 55 85 56 50 57
REMARK SMILES IDX 51 58 65 60 86 61 53 62 37 63 38 64 46 65 39 66 41 67 47 68
REMARK SMILES IDX 40 69 42 70 43 71 44 72 45 73 69 74 70 75 78 76 71 77 73 78
REMARK SMILES IDX 79 79 72 80 74 81 75 82 76 83 77 84 54 85 55 86 63 87 56 88
REMARK SMILES IDX 58 89 64 90 57 91 59 92 60 93 61 94 62 95
REMARK H PARENT 21 5 8 14 25 29 84 48 52 59
REMARK Flexibility Score: inf
ROOT
ATOM      1  C   UNL     1       9.712   7.122   0.572  1.00  0.00     0.117 C 
ENDROOT
BRANCH   1   2
ATOM      2  N   UNL     1       8.370   6.614   0.383  1.00  0.00    -0.356 N 
ATOM      3  O   UNL     1       7.349   8.658   0.137  1.00  0.00    -0.275 OA
ATOM      4  C   UNL     1       7.282   7.431   0.154  1.00  0.00     0.226 C 
ATOM      5  H   UNL     1       8.226   5.641   0.419  1.00  0.00     0.163 HD
BRANCH   4   6
ATOM      6  C   UNL     1       5.955   6.707   0.042  1.00  0.00     0.157 C 
BRANCH   6   7
ATOM      7  C   UNL     1       5.887   5.652  -1.020  1.00  0.00     0.063 A 
ATOM      8  C   UNL     1       4.810   4.814  -1.235  1.00  0.00     0.093 A 
ATOM      9  N   UNL     1       6.948   5.434  -1.892  1.00  0.00    -0.224 NA
ATOM     10  S   UNL     1       5.136   3.771  -2.546  1.00  0.00    -0.105 S 
ATOM     11  C   UNL     1       6.645   4.512  -2.776  1.00  0.00     0.189 A 
BRANCH  11  12
ATOM     12  N   UNL     1       7.533   4.187  -3.766  1.00  0.00    -0.302 N 
ATOM     13  C   UNL     1       7.493   3.399  -4.872  1.00  0.00     0.231 C 
ATOM     14  H   UNL     1       8.406   4.627  -3.649  1.00  0.00     0.172 HD
ATOM     15  O   UNL     1       8.525   3.334  -5.550  1.00  0.00    -0.274 OA
BRANCH  13  16
ATOM     16  C   UNL     1       6.273   2.622  -5.295  1.00  0.00     0.107 C 
ATOM     17  C   UNL     1       6.186   2.359  -6.801  1.00  0.00     0.115 C 
ATOM     18  C   UNL     1       6.306   1.209  -4.740  1.00  0.00     0.133 C 
ATOM     19  C   UNL     1       5.303   1.134  -6.852  1.00  0.00     0.223 C 
ATOM     20  N   UNL     1       5.405   0.499  -5.613  1.00  0.00    -0.339 N 
ATOM     21  O   UNL     1       4.645   0.804  -7.826  1.00  0.00    -0.275 OA
BRANCH  20  22
ATOM     22  C   UNL     1       4.709  -0.663  -5.159  1.00  0.00     0.085 C 
ATOM     23  C   UNL     1       3.827  -1.524  -6.018  1.00  0.00     0.027 C 
ATOM     24  C   UNL     1       5.161  -2.039  -5.565  1.00  0.00     0.027 C 
ENDBRANCH  20  22
ENDBRANCH  13  16
ENDBRANCH  11  12
ENDBRANCH   6   7
ENDBRANCH   4   6
ENDBRANCH   1   2
BRANCH   1  25
ATOM     25  C   UNL     1      10.241   6.861   1.978  1.00  0.00     0.042 C 
BRANCH  25  26
ATOM     26  C   UNL     1      10.320   5.388   2.371  1.00  0.00     0.118 C 
BRANCH  26  27
ATOM     27  N   UNL     1      11.213   4.612   1.523  1.00  0.00    -0.352 N 
ATOM     28  C   UNL     1      12.261   3.786   1.851  1.00  0.00     0.251 C 
ATOM     29  H   UNL     1      11.037   4.691   0.558  1.00  0.00     0.163 HD
ATOM     30  O   UNL     1      12.962   3.332   0.949  1.00  0.00    -0.269 OA
BRANCH  28  31
ATOM     31  C   UNL     1      12.569   3.452   3.262  1.00  0.00     0.039 A 
ATOM     32  C   UNL     1      13.911   3.382   3.650  1.00  0.00     0.014 A 
ATOM     33  C   UNL     1      11.566   3.171   4.193  1.00  0.00     0.014 A 
ATOM     34  C   UNL     1      14.241   3.085   4.976  1.00  0.00     0.010 A 
ATOM     35  C   UNL     1      11.895   2.955   5.532  1.00  0.00     0.010 A 
ATOM     36  C   UNL     1      13.236   2.900   5.939  1.00  0.00    -0.014 A 
BRANCH  36  37
ATOM     37  C   UNL     1      13.584   2.667   7.368  1.00  0.00     0.031 A 
ATOM     38  C   UNL     1      13.194   1.387   8.062  1.00  0.00     0.074 A 
ATOM     39  C   UNL     1      14.210   3.637   8.064  1.00  0.00     0.049 A 
ATOM     40  N   UNL     1      13.425   1.015   9.295  1.00  0.00    -0.248 NA
ATOM     41  C   UNL     1      12.423   0.407   7.279  1.00  0.00     0.031 C 
ATOM     42  C   UNL     1      14.567   4.957   7.540  1.00  0.00     0.029 A 
ATOM     43  N   UNL     1      14.642   3.672   9.367  1.00  0.00    -0.354 N 
ATOM     44  C   UNL     1      12.808  -0.221   9.445  1.00  0.00     0.074 A 
ATOM     45  C   UNL     1      12.158  -0.520   8.188  1.00  0.00     0.031 C 
ATOM     46  C   UNL     1      15.178   5.665   8.503  1.00  0.00     0.029 A 
ATOM     47  C   UNL     1      15.230   4.864   9.723  1.00  0.00     0.049 A 
ATOM     48  H   UNL     1      14.541   2.916   9.989  1.00  0.00     0.167 HD
ATOM     49  C   UNL     1      12.806  -1.049  10.519  1.00  0.00     0.034 A 
ATOM     50  C   UNL     1      15.753   5.271  10.896  1.00  0.00     0.034 A 
ATOM     51  C   UNL     1      13.481  -0.767  11.758  1.00  0.00     0.049 A 
ATOM     52  C   UNL     1      15.775   4.317  12.059  1.00  0.00     0.074 A 
ATOM     53  C   UNL     1      13.609  -1.579  12.872  1.00  0.00     0.029 A 
ATOM     54  N   UNL     1      14.132   0.420  12.055  1.00  0.00    -0.354 N 
ATOM     55  N   UNL     1      15.329   3.086  12.126  1.00  0.00    -0.248 NA
ATOM     56  C   UNL     1      16.410   4.793  13.296  1.00  0.00     0.031 C 
ATOM     57  C   UNL     1      14.310  -0.870  13.853  1.00  0.00     0.029 A 
ATOM     58  C   UNL     1      14.653   0.369  13.337  1.00  0.00     0.049 A 
ATOM     59  H   UNL     1      14.212   1.188  11.444  1.00  0.00     0.167 HD
ATOM     60  C   UNL     1      15.662   2.629  13.396  1.00  0.00     0.074 A 
ATOM     61  C   UNL     1      16.370   3.707  14.055  1.00  0.00     0.031 C 
ATOM     62  C   UNL     1      15.395   1.429  13.970  1.00  0.00     0.034 A 
BRANCH  49  63
ATOM     63  C   UNL     1      12.086  -2.368  10.387  1.00  0.00     0.023 A 
ATOM     64  C   UNL     1      12.618  -3.373   9.553  1.00  0.00     0.012 A 
ATOM     65  C   UNL     1      10.922  -2.638  11.134  1.00  0.00     0.148 A 
ATOM     66  C   UNL     1      11.986  -4.609   9.434  1.00  0.00     0.002 A 
ATOM     67  C   UNL     1      10.324  -3.890  11.047  1.00  0.00     0.091 A 
ATOM     68  F   UNL     1      10.419  -1.667  11.909  1.00  0.00    -0.205 F 
ATOM     69  C   UNL     1      10.846  -4.872  10.189  1.00  0.00     0.022 A 
BRANCH  67  70
ATOM     70  S   UNL     1       8.900  -4.356  12.038  1.00  0.00     0.127 S 
ATOM     71  O   UNL     1       7.850  -4.440  11.024  1.00  0.00    -0.237 OA
ATOM     72  O   UNL     1       9.318  -5.645  12.590  1.00  0.00    -0.237 OA
ATOM     73  O   UNL     1       8.731  -3.298  13.024  1.00  0.00    -0.744 OA
ENDBRANCH  67  70
ENDBRANCH  49  63
BRANCH  50  74
ATOM     74  C   UNL     1      16.359   6.628  11.012  1.00  0.00     0.023 A 
ATOM     75  C   UNL     1      17.754   6.756  11.167  1.00  0.00     0.012 A 
ATOM     76  C   UNL     1      15.566   7.790  10.952  1.00  0.00     0.148 A 
ATOM     77  C   UNL     1      18.343   8.014  11.298  1.00  0.00     0.002 A 
ATOM     78  C   UNL     1      16.166   9.041  11.024  1.00  0.00     0.091 A 
ATOM     79  F   UNL     1      14.241   7.646  10.815  1.00  0.00    -0.205 F 
ATOM     80  C   UNL     1      17.551   9.156  11.216  1.00  0.00     0.022 A 
BRANCH  78  81
ATOM     81  S   UNL     1      15.243  10.565  10.796  1.00  0.00     0.127 S 
ATOM     82  O   UNL     1      15.277  11.139  12.139  1.00  0.00    -0.237 OA
ATOM     83  O   UNL     1      16.059  11.265   9.804  1.00  0.00    -0.237 OA
ATOM     84  O   UNL     1      13.929  10.161  10.315  1.00  0.00    -0.744 OA
ENDBRANCH  78  81
ENDBRANCH  50  74
BRANCH  62  85
ATOM     85  C   UNL     1      15.905   1.196  15.369  1.00  0.00     0.023 A 
ATOM     86  C   UNL     1      15.327   1.883  16.456  1.00  0.00     0.012 A 
ATOM     87  C   UNL     1      16.925   0.255  15.612  1.00  0.00     0.148 A 
ATOM     88  C   UNL     1      15.787   1.670  17.755  1.00  0.00     0.002 A 
ATOM     89  C   UNL     1      17.341   0.008  16.915  1.00  0.00     0.091 A 
ATOM     90  F   UNL     1      17.477  -0.377  14.566  1.00  0.00    -0.205 F 
ATOM     91  C   UNL     1      16.785   0.726  17.986  1.00  0.00     0.022 A 
BRANCH  89  92
ATOM     92  S   UNL     1      18.549  -1.260  17.316  1.00  0.00     0.127 S 
ATOM     93  O   UNL     1      19.722  -0.457  17.655  1.00  0.00    -0.237 OA
ATOM     94  O   UNL     1      17.923  -1.936  18.453  1.00  0.00    -0.237 OA
ATOM     95  O   UNL     1      18.678  -2.082  16.121  1.00  0.00    -0.744 OA
ENDBRANCH  89  92
ENDBRANCH  62  85
ENDBRANCH  36  37
ENDBRANCH  28  31
ENDBRANCH  26  27
ENDBRANCH  25  26
ENDBRANCH   1  25
TORSDOF 17
