REMARK SMILES CC(=O)[C@H]1CC(C)=C(C)C[C@@H]1C(=O)NCCCNC(=O)c1ccc(-c2c3nc(c(-c4cccc(S(=O)(=O)[O-])c4F)c4ccc([nH]4)c(-c4cccc(S(=O)(=O)[O-])c4F)c4nc(c(-c5cccc(S(=O)(=O)[O-])c5F)c5ccc2[nH]5)C=C4)C=C3)cc1
REMARK SMILES IDX 17 1 16 2 15 3 14 4 12 5 13 6 11 8 4 9 5 10 6 11 10 12 7 13
REMARK SMILES IDX 8 14 9 15 2 16 1 17 3 18 18 19 19 20 20 22 21 23 22 24 83 25
REMARK SMILES IDX 23 26 82 27 24 28 25 29 26 30 76 31 27 32 81 33 75 34 77 35
REMARK SMILES IDX 28 36 80 37 74 38 73 39 29 41 61 42 41 43 60 44 42 45 45 46
REMARK SMILES IDX 59 47 78 48 43 49 44 50 58 52 79 53 46 54 30 55 31 56 39 57
REMARK SMILES IDX 32 58 34 59 40 60 33 61 35 62 36 63 37 64 38 65 62 66 63 67
REMARK SMILES IDX 71 68 64 69 66 70 72 71 65 72 67 73 68 74 69 75 70 76 47 77
REMARK SMILES IDX 48 78 56 79 49 80 51 81 57 82 50 83 52 84 53 85 54 86 55 87
REMARK H PARENT 14 7 18 21 77 40 45 51
REMARK Flexibility Score: inf
ROOT
ATOM      1  C   UNL     1       4.644   0.205  -4.009  1.00  0.00     0.118 C 
ENDROOT
BRANCH   1   2
ATOM      2  C   UNL     1       3.753  -0.390  -2.923  1.00  0.00     0.042 C 
BRANCH   2   3
ATOM      3  C   UNL     1       2.542   0.490  -2.622  1.00  0.00     0.117 C 
BRANCH   3   4
ATOM      4  N   UNL     1       1.478   0.260  -3.574  1.00  0.00    -0.356 N 
ATOM      5  C   UNL     1       0.446  -0.608  -3.673  1.00  0.00     0.224 C 
ATOM      6  O   UNL     1      -0.192  -0.479  -4.728  1.00  0.00    -0.275 OA
ATOM      7  H   UNL     1       1.513   0.886  -4.332  1.00  0.00     0.163 HD
BRANCH   5   8
ATOM      8  C   UNL     1      -0.086  -1.530  -2.553  1.00  0.00     0.093 C 
ATOM      9  C   UNL     1       0.840  -2.022  -1.429  1.00  0.00     0.072 C 
ATOM     10  C   UNL     1       1.246  -3.502  -1.395  1.00  0.00     0.043 C 
ATOM     11  C   UNL     1       0.560  -4.448  -2.332  1.00  0.00    -0.074 C 
ATOM     12  C   UNL     1      -0.967  -2.650  -3.166  1.00  0.00     0.045 C 
ATOM     13  C   UNL     1       1.095  -5.859  -2.255  1.00  0.00     0.039 C 
ATOM     14  C   UNL     1      -0.445  -4.063  -3.139  1.00  0.00    -0.074 C 
ATOM     15  C   UNL     1      -1.155  -5.024  -4.059  1.00  0.00     0.039 C 
BRANCH   9  16
ATOM     16  C   UNL     1       0.228  -1.604  -0.088  1.00  0.00     0.134 C 
ATOM     17  C   UNL     1       0.635  -0.255   0.458  1.00  0.00     0.088 C 
ATOM     18  O   UNL     1      -0.606  -2.289   0.504  1.00  0.00    -0.300 OA
ENDBRANCH   9  16
ENDBRANCH   5   8
ENDBRANCH   3   4
ENDBRANCH   2   3
ENDBRANCH   1   2
BRANCH   1  19
ATOM     19  N   UNL     1       5.268   1.446  -3.559  1.00  0.00    -0.352 N 
ATOM     20  C   UNL     1       6.592   1.754  -3.385  1.00  0.00     0.251 C 
ATOM     21  H   UNL     1       4.639   2.174  -3.348  1.00  0.00     0.163 HD
ATOM     22  O   UNL     1       6.895   2.741  -2.720  1.00  0.00    -0.269 OA
BRANCH  20  23
ATOM     23  C   UNL     1       7.641   0.918  -4.002  1.00  0.00     0.039 A 
ATOM     24  C   UNL     1       8.836   0.706  -3.308  1.00  0.00     0.014 A 
ATOM     25  C   UNL     1       7.472   0.395  -5.287  1.00  0.00     0.014 A 
ATOM     26  C   UNL     1       9.845  -0.064  -3.889  1.00  0.00     0.010 A 
ATOM     27  C   UNL     1       8.442  -0.439  -5.828  1.00  0.00     0.010 A 
ATOM     28  C   UNL     1       9.646  -0.659  -5.145  1.00  0.00    -0.014 A 
BRANCH  28  29
ATOM     29  C   UNL     1      10.686  -1.507  -5.775  1.00  0.00     0.031 A 
ATOM     30  C   UNL     1      11.308  -1.089  -7.080  1.00  0.00     0.074 A 
ATOM     31  C   UNL     1      10.997  -2.693  -5.218  1.00  0.00     0.049 A 
ATOM     32  N   UNL     1      12.174  -1.728  -7.822  1.00  0.00    -0.248 NA
ATOM     33  C   UNL     1      10.875   0.202  -7.642  1.00  0.00     0.031 C 
ATOM     34  C   UNL     1      10.399  -3.236  -3.996  1.00  0.00     0.029 A 
ATOM     35  N   UNL     1      11.871  -3.668  -5.622  1.00  0.00    -0.354 N 
ATOM     36  C   UNL     1      12.359  -0.940  -8.952  1.00  0.00     0.074 A 
ATOM     37  C   UNL     1      11.485   0.204  -8.817  1.00  0.00     0.031 C 
ATOM     38  C   UNL     1      10.932  -4.442  -3.744  1.00  0.00     0.029 A 
ATOM     39  C   UNL     1      11.883  -4.771  -4.800  1.00  0.00     0.049 A 
ATOM     40  H   UNL     1      12.437  -3.587  -6.424  1.00  0.00     0.167 HD
ATOM     41  C   UNL     1      13.205  -1.133  -9.992  1.00  0.00     0.034 A 
ATOM     42  C   UNL     1      12.582  -5.919  -4.892  1.00  0.00     0.034 A 
ATOM     43  C   UNL     1      14.104  -2.251 -10.092  1.00  0.00     0.049 A 
ATOM     44  C   UNL     1      13.547  -6.090  -6.033  1.00  0.00     0.074 A 
ATOM     45  C   UNL     1      15.063  -2.502 -11.056  1.00  0.00     0.029 A 
ATOM     46  N   UNL     1      14.152  -3.307  -9.194  1.00  0.00    -0.354 N 
ATOM     47  N   UNL     1      13.820  -5.264  -7.013  1.00  0.00    -0.248 NA
ATOM     48  C   UNL     1      14.327  -7.335  -6.061  1.00  0.00     0.031 C 
ATOM     49  C   UNL     1      15.680  -3.721 -10.750  1.00  0.00     0.029 A 
ATOM     50  C   UNL     1      15.120  -4.216  -9.582  1.00  0.00     0.049 A 
ATOM     51  H   UNL     1      13.581  -3.397  -8.397  1.00  0.00     0.167 HD
ATOM     52  C   UNL     1      14.828  -5.870  -7.754  1.00  0.00     0.074 A 
ATOM     53  C   UNL     1      15.129  -7.126  -7.096  1.00  0.00     0.031 C 
ATOM     54  C   UNL     1      15.440  -5.436  -8.884  1.00  0.00     0.034 A 
BRANCH  41  55
ATOM     55  C   UNL     1      13.236  -0.081 -11.071  1.00  0.00     0.023 A 
ATOM     56  C   UNL     1      13.781   1.188 -10.787  1.00  0.00     0.012 A 
ATOM     57  C   UNL     1      12.762  -0.352 -12.369  1.00  0.00     0.148 A 
ATOM     58  C   UNL     1      13.814   2.184 -11.762  1.00  0.00     0.002 A 
ATOM     59  C   UNL     1      12.840   0.631 -13.350  1.00  0.00     0.091 A 
ATOM     60  F   UNL     1      12.226  -1.556 -12.618  1.00  0.00    -0.205 F 
ATOM     61  C   UNL     1      13.353   1.903 -13.045  1.00  0.00     0.022 A 
BRANCH  59  62
ATOM     62  S   UNL     1      12.345   0.342 -15.052  1.00  0.00     0.127 S 
ATOM     63  O   UNL     1      11.095   1.096 -15.128  1.00  0.00    -0.237 OA
ATOM     64  O   UNL     1      13.457   0.928 -15.802  1.00  0.00    -0.237 OA
ATOM     65  O   UNL     1      12.217  -1.102 -15.191  1.00  0.00    -0.744 OA
ENDBRANCH  59  62
ENDBRANCH  41  55
BRANCH  42  66
ATOM     66  C   UNL     1      12.457  -6.950  -3.824  1.00  0.00     0.023 A 
ATOM     67  C   UNL     1      13.531  -7.152  -2.936  1.00  0.00     0.012 A 
ATOM     68  C   UNL     1      11.274  -7.693  -3.651  1.00  0.00     0.148 A 
ATOM     69  C   UNL     1      13.441  -8.095  -1.912  1.00  0.00     0.002 A 
ATOM     70  C   UNL     1      11.171  -8.593  -2.596  1.00  0.00     0.091 A 
ATOM     71  F   UNL     1      10.265  -7.491  -4.510  1.00  0.00    -0.205 F 
ATOM     72  C   UNL     1      12.259  -8.807  -1.736  1.00  0.00     0.022 A 
BRANCH  70  73
ATOM     73  S   UNL     1       9.643  -9.457  -2.209  1.00  0.00     0.127 S 
ATOM     74  O   UNL     1       9.977 -10.831  -2.571  1.00  0.00    -0.237 OA
ATOM     75  O   UNL     1       9.512  -9.210  -0.773  1.00  0.00    -0.237 OA
ATOM     76  O   UNL     1       8.615  -8.819  -3.022  1.00  0.00    -0.744 OA
ENDBRANCH  70  73
ENDBRANCH  42  66
BRANCH  54  77
ATOM     77  C   UNL     1      16.522  -6.305  -9.466  1.00  0.00     0.023 A 
ATOM     78  C   UNL     1      16.180  -7.503 -10.123  1.00  0.00     0.012 A 
ATOM     79  C   UNL     1      17.869  -5.896  -9.427  1.00  0.00     0.148 A 
ATOM     80  C   UNL     1      17.167  -8.297 -10.705  1.00  0.00     0.002 A 
ATOM     81  C   UNL     1      18.841  -6.667 -10.053  1.00  0.00     0.091 A 
ATOM     82  F   UNL     1      18.175  -4.762  -8.780  1.00  0.00    -0.205 F 
ATOM     83  C   UNL     1      18.494  -7.874 -10.681  1.00  0.00     0.022 A 
BRANCH  81  84
ATOM     84  S   UNL     1      20.558  -6.150 -10.156  1.00  0.00     0.127 S 
ATOM     85  O   UNL     1      21.200  -7.058  -9.207  1.00  0.00    -0.237 OA
ATOM     86  O   UNL     1      20.877  -6.411 -11.561  1.00  0.00    -0.237 OA
ATOM     87  O   UNL     1      20.576  -4.742  -9.785  1.00  0.00    -0.744 OA
ENDBRANCH  81  84
ENDBRANCH  54  77
ENDBRANCH  28  29
ENDBRANCH  20  23
ENDBRANCH   1  19
TORSDOF 14
