REMARK SMILES C[C@@H]([NH2+]C[C@H]1CCC[C@@H]1C(=O)NCCCNC(=O)c1ccc(-c2c3nc(c(-c4cccc(S(=O)(=O)[O-])c4F)c4ccc([nH]4)c(-c4cccc(S(=O)(=O)[O-])c4F)c4nc(c(-c5cccc(S(=O)(=O)[O-])c5F)c5ccc2[nH]5)C=C4)C=C3)cc1)c1cc(F)ccc1O
REMARK SMILES IDX 13 1 12 2 10 3 11 4 9 6 5 7 6 8 7 9 8 10 4 11 3 12 2 15 1 16
REMARK SMILES IDX 82 17 83 18 88 19 84 20 87 21 85 22 86 23 89 24 14 26 15 27
REMARK SMILES IDX 16 28 17 29 18 31 19 32 20 33 81 34 21 35 80 36 22 37 23 38
REMARK SMILES IDX 24 39 74 40 25 41 79 42 73 43 75 44 26 45 78 46 72 47 71 48
REMARK SMILES IDX 27 50 59 51 39 52 58 53 40 54 43 55 57 56 76 57 41 58 42 59
REMARK SMILES IDX 56 61 77 62 44 63 28 64 29 65 37 66 30 67 32 68 38 69 31 70
REMARK SMILES IDX 33 71 34 72 35 73 36 74 60 75 61 76 69 77 62 78 64 79 70 80
REMARK SMILES IDX 63 81 65 82 66 83 67 84 68 85 45 86 46 87 54 88 47 89 49 90
REMARK SMILES IDX 55 91 48 92 50 93 51 94 52 95 53 96
REMARK H PARENT 12 5 3 13 3 14 89 25 16 30 75 49 43 60
REMARK Flexibility Score: inf
ROOT
ATOM      1  C   UNL     1       3.476  -0.666   1.925  1.00  0.00     0.117 C 
ENDROOT
BRANCH   1   2
ATOM      2  N   UNL     1       2.113  -0.525   1.462  1.00  0.00    -0.356 N 
ATOM      3  C   UNL     1       0.951  -0.285   2.114  1.00  0.00     0.223 C 
ATOM      4  O   UNL     1      -0.050  -0.118   1.403  1.00  0.00    -0.275 OA
ATOM      5  H   UNL     1       2.011  -0.621   0.488  1.00  0.00     0.163 HD
BRANCH   3   6
ATOM      6  C   UNL     1       0.806  -0.146   3.632  1.00  0.00     0.087 C 
ATOM      7  C   UNL     1       0.890   1.315   4.097  1.00  0.00     0.057 C 
ATOM      8  C   UNL     1       2.373   1.440   4.489  1.00  0.00     0.010 C 
ATOM      9  C   UNL     1       2.690   0.106   5.173  1.00  0.00     0.001 C 
ATOM     10  C   UNL     1       1.748  -0.921   4.542  1.00  0.00     0.014 C 
BRANCH   7  11
ATOM     11  C   UNL     1       0.064   1.718   5.343  1.00  0.00     0.265 C 
BRANCH  11  12
ATOM     12  N   UNL     1      -1.350   1.387   5.484  1.00  0.00    -0.340 N 
ATOM     13  H   UNL     1      -1.742   2.034   6.168  1.00  0.00     0.346 HD
ATOM     14  H   UNL     1      -1.713   1.456   4.533  1.00  0.00     0.346 HD
BRANCH  12  15
ATOM     15  C   UNL     1      -1.726   0.025   5.910  1.00  0.00     0.214 C 
ATOM     16  C   UNL     1      -3.216   0.034   6.266  1.00  0.00     0.081 C 
BRANCH  15  17
ATOM     17  C   UNL     1      -0.931  -0.617   7.040  1.00  0.00     0.054 A 
ATOM     18  C   UNL     1      -0.399   0.159   8.087  1.00  0.00     0.053 A 
ATOM     19  C   UNL     1      -0.658  -2.000   7.072  1.00  0.00     0.124 A 
ATOM     20  C   UNL     1       0.483  -0.395   9.015  1.00  0.00     0.123 A 
ATOM     21  C   UNL     1       0.205  -2.554   8.024  1.00  0.00     0.050 A 
ATOM     22  F   UNL     1       1.057   0.397   9.930  1.00  0.00    -0.207 F 
ATOM     23  C   UNL     1       0.803  -1.744   8.982  1.00  0.00     0.043 A 
BRANCH  19  24
ATOM     24  O   UNL     1      -1.152  -2.898   6.167  1.00  0.00    -0.507 OA
ATOM     25  H   UNL     1      -1.737  -2.611   5.494  1.00  0.00     0.293 HD
ENDBRANCH  19  24
ENDBRANCH  15  17
ENDBRANCH  12  15
ENDBRANCH  11  12
ENDBRANCH   7  11
ENDBRANCH   3   6
ENDBRANCH   1   2
BRANCH   1  26
ATOM     26  C   UNL     1       3.940  -2.112   1.998  1.00  0.00     0.042 C 
BRANCH  26  27
ATOM     27  C   UNL     1       4.318  -2.683   0.645  1.00  0.00     0.118 C 
BRANCH  27  28
ATOM     28  N   UNL     1       5.387  -1.918   0.011  1.00  0.00    -0.352 N 
ATOM     29  C   UNL     1       6.697  -2.251  -0.221  1.00  0.00     0.251 C 
ATOM     30  H   UNL     1       5.126  -1.021  -0.298  1.00  0.00     0.163 HD
ATOM     31  O   UNL     1       7.504  -1.368  -0.493  1.00  0.00    -0.269 OA
BRANCH  29  32
ATOM     32  C   UNL     1       7.125  -3.662  -0.154  1.00  0.00     0.039 A 
ATOM     33  C   UNL     1       8.395  -3.969   0.338  1.00  0.00     0.014 A 
ATOM     34  C   UNL     1       6.283  -4.680  -0.610  1.00  0.00     0.014 A 
ATOM     35  C   UNL     1       8.796  -5.303   0.418  1.00  0.00     0.010 A 
ATOM     36  C   UNL     1       6.636  -6.007  -0.420  1.00  0.00     0.010 A 
ATOM     37  C   UNL     1       7.906  -6.333   0.070  1.00  0.00    -0.014 A 
BRANCH  37  38
ATOM     38  C   UNL     1       8.285  -7.759   0.200  1.00  0.00     0.031 A 
ATOM     39  C   UNL     1       8.304  -8.651  -1.012  1.00  0.00     0.074 A 
ATOM     40  C   UNL     1       8.525  -8.265   1.425  1.00  0.00     0.049 A 
ATOM     41  N   UNL     1       8.574  -9.927  -1.090  1.00  0.00    -0.248 NA
ATOM     42  C   UNL     1       7.936  -8.040  -2.302  1.00  0.00     0.031 C 
ATOM     43  C   UNL     1       8.432  -7.517   2.683  1.00  0.00     0.029 A 
ATOM     44  N   UNL     1       8.874  -9.530   1.818  1.00  0.00    -0.354 N 
ATOM     45  C   UNL     1       8.371 -10.277  -2.420  1.00  0.00     0.074 A 
ATOM     46  C   UNL     1       7.911  -9.092  -3.106  1.00  0.00     0.031 C 
ATOM     47  C   UNL     1       8.735  -8.334   3.704  1.00  0.00     0.029 A 
ATOM     48  C   UNL     1       9.015  -9.665   3.179  1.00  0.00     0.049 A 
ATOM     49  H   UNL     1       9.010 -10.273   1.186  1.00  0.00     0.167 HD
ATOM     50  C   UNL     1       8.585 -11.470  -3.024  1.00  0.00     0.034 A 
ATOM     51  C   UNL     1       9.337 -10.743   3.919  1.00  0.00     0.034 A 
ATOM     52  C   UNL     1       9.093 -12.628  -2.342  1.00  0.00     0.049 A 
ATOM     53  C   UNL     1       9.639 -12.037   3.214  1.00  0.00     0.074 A 
ATOM     54  C   UNL     1       9.442 -13.857  -2.873  1.00  0.00     0.029 A 
ATOM     55  N   UNL     1       9.322 -12.702  -0.976  1.00  0.00    -0.354 N 
ATOM     56  N   UNL     1       9.608 -12.304   1.931  1.00  0.00    -0.248 NA
ATOM     57  C   UNL     1      10.060 -13.165   4.054  1.00  0.00     0.031 C 
ATOM     58  C   UNL     1       9.861 -14.681  -1.823  1.00  0.00     0.029 A 
ATOM     59  C   UNL     1       9.800 -13.957  -0.643  1.00  0.00     0.049 A 
ATOM     60  H   UNL     1       9.167 -11.968  -0.338  1.00  0.00     0.167 HD
ATOM     61  C   UNL     1      10.035 -13.620   1.805  1.00  0.00     0.074 A 
ATOM     62  C   UNL     1      10.347 -14.084   3.142  1.00  0.00     0.031 C 
ATOM     63  C   UNL     1      10.145 -14.383   0.689  1.00  0.00     0.034 A 
BRANCH  50  64
ATOM     64  C   UNL     1       8.328 -11.560  -4.507  1.00  0.00     0.023 A 
ATOM     65  C   UNL     1       9.184 -10.889  -5.405  1.00  0.00     0.012 A 
ATOM     66  C   UNL     1       7.276 -12.345  -5.016  1.00  0.00     0.148 A 
ATOM     67  C   UNL     1       8.975 -10.964  -6.781  1.00  0.00     0.002 A 
ATOM     68  C   UNL     1       7.102 -12.455  -6.391  1.00  0.00     0.091 A 
ATOM     69  F   UNL     1       6.457 -12.958  -4.149  1.00  0.00    -0.205 F 
ATOM     70  C   UNL     1       7.942 -11.755  -7.274  1.00  0.00     0.022 A 
BRANCH  68  71
ATOM     71  S   UNL     1       5.851 -13.512  -7.130  1.00  0.00     0.127 S 
ATOM     72  O   UNL     1       4.919 -12.527  -7.677  1.00  0.00    -0.237 OA
ATOM     73  O   UNL     1       6.623 -14.244  -8.134  1.00  0.00    -0.237 OA
ATOM     74  O   UNL     1       5.328 -14.333  -6.047  1.00  0.00    -0.744 OA
ENDBRANCH  68  71
ENDBRANCH  50  64
BRANCH  51  75
ATOM     75  C   UNL     1       9.469 -10.618   5.397  1.00  0.00     0.023 A 
ATOM     76  C   UNL     1      10.747 -10.692   5.986  1.00  0.00     0.012 A 
ATOM     77  C   UNL     1       8.348 -10.387   6.217  1.00  0.00     0.148 A 
ATOM     78  C   UNL     1      10.902 -10.573   7.367  1.00  0.00     0.002 A 
ATOM     79  C   UNL     1       8.517 -10.212   7.586  1.00  0.00     0.091 A 
ATOM     80  F   UNL     1       7.140 -10.327   5.639  1.00  0.00    -0.205 F 
ATOM     81  C   UNL     1       9.790 -10.323   8.165  1.00  0.00     0.022 A 
BRANCH  79  82
ATOM     82  S   UNL     1       7.160  -9.751   8.670  1.00  0.00     0.127 S 
ATOM     83  O   UNL     1       6.947 -10.983   9.423  1.00  0.00    -0.237 OA
ATOM     84  O   UNL     1       7.747  -8.652   9.438  1.00  0.00    -0.237 OA
ATOM     85  O   UNL     1       6.073  -9.350   7.788  1.00  0.00    -0.744 OA
ENDBRANCH  79  82
ENDBRANCH  51  75
BRANCH  63  86
ATOM     86  C   UNL     1      10.647 -15.792   0.863  1.00  0.00     0.023 A 
ATOM     87  C   UNL     1       9.823 -16.759   1.471  1.00  0.00     0.012 A 
ATOM     88  C   UNL     1      11.913 -16.169   0.374  1.00  0.00     0.148 A 
ATOM     89  C   UNL     1      10.267 -18.071   1.628  1.00  0.00     0.002 A 
ATOM     90  C   UNL     1      12.328 -17.490   0.486  1.00  0.00     0.091 A 
ATOM     91  F   UNL     1      12.690 -15.229  -0.185  1.00  0.00    -0.205 F 
ATOM     92  C   UNL     1      11.514 -18.438   1.125  1.00  0.00     0.022 A 
BRANCH  90  93
ATOM     93  S   UNL     1      13.873 -18.071  -0.220  1.00  0.00     0.127 S 
ATOM     94  O   UNL     1      14.707 -18.222   0.971  1.00  0.00    -0.237 OA
ATOM     95  O   UNL     1      13.474 -19.331  -0.849  1.00  0.00    -0.237 OA
ATOM     96  O   UNL     1      14.297 -17.040  -1.157  1.00  0.00    -0.744 OA
ENDBRANCH  90  93
ENDBRANCH  63  86
ENDBRANCH  37  38
ENDBRANCH  29  32
ENDBRANCH  27  28
ENDBRANCH  26  27
ENDBRANCH   1  26
TORSDOF 18
