REMARK SMILES CC1(C)[C@@]2(C(=O)NCCCNC(=O)c3ccc(-c4c5nc(c(-c6cccc(S(=O)(=O)[O-])c6F)c6ccc([nH]6)c(-c6cccc(S(=O)(=O)[O-])c6F)c6nc(c(-c7cccc(S(=O)(=O)[O-])c7F)c7ccc4[nH]7)C=C6)C=C5)cc3)CC[C@]1(C)/C(=N/NC(=O)c1ccc(Cl)cc1)C2
REMARK SMILES IDX 9 1 8 2 7 3 5 4 6 5 4 7 1 8 2 9 3 10 79 11 77 12 93 13 78 14
REMARK SMILES IDX 80 15 81 16 82 17 83 18 84 19 85 21 86 22 87 23 92 24 88 25
REMARK SMILES IDX 91 26 89 27 90 28 10 29 11 30 12 31 13 33 14 34 15 35 76 36
REMARK SMILES IDX 16 37 75 38 17 39 18 40 19 41 69 42 20 43 74 44 68 45 70 46
REMARK SMILES IDX 21 47 73 48 67 49 66 50 22 52 54 53 34 54 53 55 35 56 38 57
REMARK SMILES IDX 52 58 71 59 36 60 37 61 51 63 72 64 39 65 23 66 24 67 32 68
REMARK SMILES IDX 25 69 27 70 33 71 26 72 28 73 29 74 30 75 31 76 55 77 56 78
REMARK SMILES IDX 64 79 57 80 59 81 65 82 58 83 60 84 61 85 62 86 63 87 40 88
REMARK SMILES IDX 41 89 49 90 42 91 44 92 50 93 43 94 45 95 46 96 47 97 48 98
REMARK H PARENT 7 6 83 20 11 32 70 51 38 62
REMARK Flexibility Score: inf
ROOT
ATOM      1  C   UNL     1       5.408   2.289  -3.964  1.00  0.00     0.042 C 
ENDROOT
BRANCH   1   2
ATOM      2  C   UNL     1       4.720   1.468  -2.857  1.00  0.00     0.117 C 
BRANCH   2   3
ATOM      3  N   UNL     1       3.863   2.174  -1.916  1.00  0.00    -0.356 N 
ATOM      4  C   UNL     1       2.784   1.725  -1.201  1.00  0.00     0.227 C 
ATOM      5  O   UNL     1       2.694   2.147  -0.045  1.00  0.00    -0.274 OA
ATOM      6  H   UNL     1       4.094   3.120  -1.771  1.00  0.00     0.163 HD
BRANCH   4   7
ATOM      7  C   UNL     1       1.668   0.874  -1.818  1.00  0.00     0.060 C 
ATOM      8  C   UNL     1       1.050  -0.590   0.258  1.00  0.00     0.013 C 
ATOM      9  C   UNL     1       0.537   0.383  -0.832  1.00  0.00    -0.010 C 
ATOM     10  C   UNL     1      -0.309   1.454  -0.111  1.00  0.00     0.013 C 
ATOM     11  C   UNL     1      -0.261  -0.302  -1.983  1.00  0.00     0.014 C 
ATOM     12  C   UNL     1       2.078  -0.453  -2.529  1.00  0.00     0.019 C 
ATOM     13  C   UNL     1       0.880   1.708  -2.858  1.00  0.00     0.071 C 
ATOM     14  C   UNL     1       0.771  -1.276  -2.580  1.00  0.00     0.014 C 
ATOM     15  C   UNL     1      -1.597  -0.933  -1.647  1.00  0.00     0.018 C 
ATOM     16  C   UNL     1      -0.323   0.838  -3.034  1.00  0.00     0.046 C 
ATOM     17  N   UNL     1      -1.252   0.810  -3.927  1.00  0.00    -0.181 NA
BRANCH  17  18
ATOM     18  N   UNL     1      -1.521   1.581  -5.004  1.00  0.00    -0.243 N 
ATOM     19  C   UNL     1      -1.156   2.767  -5.597  1.00  0.00     0.271 C 
ATOM     20  H   UNL     1      -2.214   1.145  -5.551  1.00  0.00     0.194 HD
ATOM     21  O   UNL     1      -1.802   3.141  -6.576  1.00  0.00    -0.267 OA
BRANCH  19  22
ATOM     22  C   UNL     1      -0.092   3.651  -5.134  1.00  0.00     0.041 A 
ATOM     23  C   UNL     1      -0.434   4.871  -4.542  1.00  0.00     0.015 A 
ATOM     24  C   UNL     1       1.242   3.357  -5.408  1.00  0.00     0.015 A 
ATOM     25  C   UNL     1       0.568   5.705  -4.041  1.00  0.00     0.021 A 
ATOM     26  C   UNL     1       2.239   4.176  -4.877  1.00  0.00     0.021 A 
ATOM     27  C   UNL     1       1.900   5.321  -4.157  1.00  0.00     0.041 A 
ATOM     28  Cl  UNL     1       3.129   6.239  -3.379  1.00  0.00    -0.084 Cl
ENDBRANCH  19  22
ENDBRANCH  17  18
ENDBRANCH   4   7
ENDBRANCH   2   3
ENDBRANCH   1   2
BRANCH   1  29
ATOM     29  C   UNL     1       5.884   3.715  -3.641  1.00  0.00     0.118 C 
BRANCH  29  30
ATOM     30  N   UNL     1       7.321   3.854  -3.826  1.00  0.00    -0.352 N 
ATOM     31  C   UNL     1       8.064   4.530  -4.764  1.00  0.00     0.251 C 
ATOM     32  H   UNL     1       7.860   3.376  -3.155  1.00  0.00     0.163 HD
ATOM     33  O   UNL     1       9.265   4.267  -4.840  1.00  0.00    -0.269 OA
BRANCH  31  34
ATOM     34  C   UNL     1       7.501   5.559  -5.680  1.00  0.00     0.039 A 
ATOM     35  C   UNL     1       7.988   5.601  -6.995  1.00  0.00     0.014 A 
ATOM     36  C   UNL     1       6.650   6.578  -5.243  1.00  0.00     0.014 A 
ATOM     37  C   UNL     1       7.619   6.637  -7.866  1.00  0.00     0.010 A 
ATOM     38  C   UNL     1       6.262   7.604  -6.125  1.00  0.00     0.010 A 
ATOM     39  C   UNL     1       6.749   7.653  -7.443  1.00  0.00    -0.014 A 
BRANCH  39  40
ATOM     40  C   UNL     1       6.327   8.736  -8.382  1.00  0.00     0.031 A 
ATOM     41  C   UNL     1       6.788  10.161  -8.205  1.00  0.00     0.074 A 
ATOM     42  C   UNL     1       5.467   8.453  -9.381  1.00  0.00     0.049 A 
ATOM     43  N   UNL     1       6.480  11.222  -8.910  1.00  0.00    -0.248 NA
ATOM     44  C   UNL     1       7.707  10.431  -7.090  1.00  0.00     0.031 C 
ATOM     45  C   UNL     1       4.899   7.132  -9.649  1.00  0.00     0.029 A 
ATOM     46  N   UNL     1       4.894   9.264 -10.333  1.00  0.00    -0.354 N 
ATOM     47  C   UNL     1       7.134  12.291  -8.307  1.00  0.00     0.074 A 
ATOM     48  C   UNL     1       7.855  11.748  -7.174  1.00  0.00     0.031 C 
ATOM     49  C   UNL     1       4.037   7.227 -10.673  1.00  0.00     0.029 A 
ATOM     50  C   UNL     1       3.970   8.617 -11.120  1.00  0.00     0.049 A 
ATOM     51  H   UNL     1       5.122  10.215 -10.440  1.00  0.00     0.167 HD
ATOM     52  C   UNL     1       7.151  13.598  -8.670  1.00  0.00     0.034 A 
ATOM     53  C   UNL     1       3.139   9.083 -12.075  1.00  0.00     0.034 A 
ATOM     54  C   UNL     1       6.474  14.141  -9.821  1.00  0.00     0.049 A 
ATOM     55  C   UNL     1       3.172  10.537 -12.458  1.00  0.00     0.074 A 
ATOM     56  C   UNL     1       6.546  15.426 -10.334  1.00  0.00     0.029 A 
ATOM     57  N   UNL     1       5.584  13.445 -10.623  1.00  0.00    -0.354 N 
ATOM     58  N   UNL     1       3.941  11.492 -11.997  1.00  0.00    -0.248 NA
ATOM     59  C   UNL     1       2.241  10.973 -13.510  1.00  0.00     0.031 C 
ATOM     60  C   UNL     1       5.676  15.515 -11.428  1.00  0.00     0.029 A 
ATOM     61  C   UNL     1       5.073  14.281 -11.604  1.00  0.00     0.049 A 
ATOM     62  H   UNL     1       5.349  12.496 -10.512  1.00  0.00     0.167 HD
ATOM     63  C   UNL     1       3.597  12.637 -12.708  1.00  0.00     0.074 A 
ATOM     64  C   UNL     1       2.571  12.250 -13.654  1.00  0.00     0.031 C 
ATOM     65  C   UNL     1       4.076  13.897 -12.570  1.00  0.00     0.034 A 
BRANCH  52  66
ATOM     66  C   UNL     1       7.972  14.549  -7.837  1.00  0.00     0.023 A 
ATOM     67  C   UNL     1       9.376  14.539  -7.955  1.00  0.00     0.012 A 
ATOM     68  C   UNL     1       7.356  15.503  -7.001  1.00  0.00     0.148 A 
ATOM     69  C   UNL     1      10.156  15.442  -7.234  1.00  0.00     0.002 A 
ATOM     70  C   UNL     1       8.139  16.422  -6.311  1.00  0.00     0.091 A 
ATOM     71  F   UNL     1       6.020  15.488  -6.887  1.00  0.00    -0.205 F 
ATOM     72  C   UNL     1       9.539  16.388  -6.420  1.00  0.00     0.022 A 
BRANCH  70  73
ATOM     73  S   UNL     1       7.427  17.721  -5.293  1.00  0.00     0.127 S 
ATOM     74  O   UNL     1       7.623  17.184  -3.948  1.00  0.00    -0.237 OA
ATOM     75  O   UNL     1       8.270  18.872  -5.618  1.00  0.00    -0.237 OA
ATOM     76  O   UNL     1       6.042  17.848  -5.727  1.00  0.00    -0.744 OA
ENDBRANCH  70  73
ENDBRANCH  52  66
BRANCH  53  77
ATOM     77  C   UNL     1       2.209   8.139 -12.754  1.00  0.00     0.023 A 
ATOM     78  C   UNL     1       2.449   7.765 -14.089  1.00  0.00     0.012 A 
ATOM     79  C   UNL     1       1.121   7.572 -12.062  1.00  0.00     0.148 A 
ATOM     80  C   UNL     1       1.614   6.848 -14.728  1.00  0.00     0.002 A 
ATOM     81  C   UNL     1       0.329   6.618 -12.686  1.00  0.00     0.091 A 
ATOM     82  F   UNL     1       0.902   7.961 -10.798  1.00  0.00    -0.205 F 
ATOM     83  C   UNL     1       0.564   6.264 -14.024  1.00  0.00     0.022 A 
BRANCH  81  84
ATOM     84  S   UNL     1      -0.959   5.714 -11.822  1.00  0.00     0.127 S 
ATOM     85  O   UNL     1      -2.161   6.223 -12.453  1.00  0.00    -0.237 OA
ATOM     86  O   UNL     1      -0.617   4.328 -12.147  1.00  0.00    -0.237 OA
ATOM     87  O   UNL     1      -0.785   6.058 -10.407  1.00  0.00    -0.744 OA
ENDBRANCH  81  84
ENDBRANCH  53  77
BRANCH  65  88
ATOM     88  C   UNL     1       3.494  14.972 -13.453  1.00  0.00     0.023 A 
ATOM     89  C   UNL     1       2.201  15.463 -13.178  1.00  0.00     0.012 A 
ATOM     90  C   UNL     1       4.242  15.549 -14.498  1.00  0.00     0.148 A 
ATOM     91  C   UNL     1       1.655  16.494 -13.942  1.00  0.00     0.002 A 
ATOM     92  C   UNL     1       3.707  16.604 -15.230  1.00  0.00     0.091 A 
ATOM     93  F   UNL     1       5.462  15.057 -14.757  1.00  0.00    -0.205 F 
ATOM     94  C   UNL     1       2.410  17.072 -14.959  1.00  0.00     0.022 A 
BRANCH  92  95
ATOM     95  S   UNL     1       4.633  17.468 -16.506  1.00  0.00     0.127 S 
ATOM     96  O   UNL     1       3.954  17.022 -17.721  1.00  0.00    -0.237 OA
ATOM     97  O   UNL     1       4.406  18.871 -16.160  1.00  0.00    -0.237 OA
ATOM     98  O   UNL     1       6.015  17.027 -16.366  1.00  0.00    -0.744 OA
ENDBRANCH  92  95
ENDBRANCH  65  88
ENDBRANCH  39  40
ENDBRANCH  31  34
ENDBRANCH  29  30
ENDBRANCH   1  29
TORSDOF 15
