REMARK SMILES C[C@H]1OCC[C@@H]1C(=O)Nc1ccc(Cl)c(C(=O)NCCCNC(=O)c2ccc(-c3c4nc(c(-c5cccc(S(=O)(=O)[O-])c5F)c5ccc([nH]5)c(-c5cccc(S(=O)(=O)[O-])c5F)c5nc(c(-c6cccc(S(=O)(=O)[O-])c6F)c6ccc3[nH]6)C=C5)C=C4)cc2)c1
REMARK SMILES IDX 20 1 19 2 18 3 16 4 17 5 15 7 10 8 11 9 88 10 12 11 13 12
REMARK SMILES IDX 14 13 9 14 7 15 8 16 6 18 1 19 2 20 3 21 4 22 5 23 21 24
REMARK SMILES IDX 22 25 23 26 24 28 25 29 26 30 87 31 27 32 86 33 28 34 29 35
REMARK SMILES IDX 30 36 80 37 31 38 85 39 79 40 81 41 32 42 84 43 78 44 77 45
REMARK SMILES IDX 33 47 65 48 45 49 64 50 46 51 49 52 63 53 82 54 47 55 48 56
REMARK SMILES IDX 62 58 83 59 50 60 34 61 35 62 43 63 36 64 38 65 44 66 37 67
REMARK SMILES IDX 39 68 40 69 41 70 42 71 66 72 67 73 75 74 68 75 70 76 76 77
REMARK SMILES IDX 69 78 71 79 72 80 73 81 74 82 51 83 52 84 60 85 53 86 55 87
REMARK SMILES IDX 61 88 54 89 56 90 57 91 58 92 59 93
REMARK H PARENT 18 6 9 17 22 27 81 46 49 57
REMARK Flexibility Score: inf
ROOT
ATOM      1  C   UNL     1      -2.888   3.848   6.624  1.00  0.00     0.042 C 
ENDROOT
BRANCH   1   2
ATOM      2  C   UNL     1      -1.922   3.586   5.490  1.00  0.00     0.118 C 
BRANCH   2   3
ATOM      3  N   UNL     1      -0.737   2.809   5.825  1.00  0.00    -0.352 N 
ATOM      4  C   UNL     1      -0.120   1.779   5.148  1.00  0.00     0.252 C 
ATOM      5  O   UNL     1       0.943   1.340   5.588  1.00  0.00    -0.269 OA
ATOM      6  H   UNL     1      -0.306   3.060   6.674  1.00  0.00     0.163 HD
BRANCH   4   7
ATOM      7  C   UNL     1      -0.755   1.096   3.992  1.00  0.00     0.060 A 
ATOM      8  C   UNL     1      -1.171  -0.984   2.843  1.00  0.00     0.042 A 
ATOM      9  C   UNL     1      -2.245  -0.403   2.189  1.00  0.00     0.028 A 
ATOM     10  C   UNL     1      -0.542  -0.290   3.873  1.00  0.00     0.041 A 
ATOM     11  C   UNL     1      -2.404   0.973   2.243  1.00  0.00     0.023 A 
ATOM     12  C   UNL     1      -1.522   1.726   3.011  1.00  0.00     0.053 A 
ATOM     13  Cl  UNL     1      -1.257   3.360   2.495  1.00  0.00    -0.083 Cl
BRANCH   8  14
ATOM     14  N   UNL     1      -0.668  -2.216   2.422  1.00  0.00    -0.326 N 
ATOM     15  C   UNL     1      -0.233  -2.564   1.167  1.00  0.00     0.230 C 
ATOM     16  O   UNL     1       0.082  -3.749   0.990  1.00  0.00    -0.274 OA
ATOM     17  H   UNL     1      -0.621  -2.921   3.107  1.00  0.00     0.169 HD
BRANCH  15  18
ATOM     18  C   UNL     1       0.001  -1.566   0.011  1.00  0.00     0.110 C 
ATOM     19  C   UNL     1       2.062  -0.148  -0.455  1.00  0.00     0.039 C 
ATOM     20  C   UNL     1       0.807  -0.327   0.396  1.00  0.00     0.127 C 
ATOM     21  O   UNL     1      -0.036   0.810   0.169  1.00  0.00    -0.378 OA
ATOM     22  C   UNL     1      -1.026   0.458  -0.797  1.00  0.00     0.161 C 
ATOM     23  C   UNL     1      -1.208  -1.047  -0.740  1.00  0.00     0.044 C 
ENDBRANCH  15  18
ENDBRANCH   8  14
ENDBRANCH   4   7
ENDBRANCH   2   3
ENDBRANCH   1   2
BRANCH   1  24
ATOM     24  C   UNL     1      -2.328   4.690   7.751  1.00  0.00     0.118 C 
BRANCH  24  25
ATOM     25  N   UNL     1      -1.951   6.040   7.342  1.00  0.00    -0.352 N 
ATOM     26  C   UNL     1      -2.574   7.253   7.527  1.00  0.00     0.251 C 
ATOM     27  H   UNL     1      -1.102   6.091   6.846  1.00  0.00     0.163 HD
ATOM     28  O   UNL     1      -2.127   8.252   6.963  1.00  0.00    -0.269 OA
BRANCH  26  29
ATOM     29  C   UNL     1      -3.787   7.366   8.367  1.00  0.00     0.039 A 
ATOM     30  C   UNL     1      -4.827   8.211   7.965  1.00  0.00     0.014 A 
ATOM     31  C   UNL     1      -3.906   6.648   9.554  1.00  0.00     0.014 A 
ATOM     32  C   UNL     1      -6.014   8.257   8.704  1.00  0.00     0.010 A 
ATOM     33  C   UNL     1      -5.127   6.591  10.210  1.00  0.00     0.010 A 
ATOM     34  C   UNL     1      -6.193   7.408   9.807  1.00  0.00    -0.014 A 
BRANCH  34  35
ATOM     35  C   UNL     1      -7.457   7.362  10.589  1.00  0.00     0.031 A 
ATOM     36  C   UNL     1      -7.421   7.632  12.072  1.00  0.00     0.074 A 
ATOM     37  C   UNL     1      -8.601   6.954  10.003  1.00  0.00     0.049 A 
ATOM     38  N   UNL     1      -8.363   7.473  12.965  1.00  0.00    -0.248 NA
ATOM     39  C   UNL     1      -6.140   8.097  12.634  1.00  0.00     0.031 C 
ATOM     40  C   UNL     1      -8.752   6.591   8.592  1.00  0.00     0.029 A 
ATOM     41  N   UNL     1      -9.850   6.740  10.533  1.00  0.00    -0.354 N 
ATOM     42  C   UNL     1      -7.774   7.761  14.191  1.00  0.00     0.074 A 
ATOM     43  C   UNL     1      -6.385   8.064  13.935  1.00  0.00     0.031 C 
ATOM     44  C   UNL     1     -10.018   6.202   8.368  1.00  0.00     0.029 A 
ATOM     45  C   UNL     1     -10.759   6.247   9.624  1.00  0.00     0.049 A 
ATOM     46  H   UNL     1     -10.073   6.921  11.474  1.00  0.00     0.167 HD
ATOM     47  C   UNL     1      -8.345   7.805  15.418  1.00  0.00     0.034 A 
ATOM     48  C   UNL     1     -12.040   5.862   9.788  1.00  0.00     0.034 A 
ATOM     49  C   UNL     1      -9.742   7.575  15.657  1.00  0.00     0.049 A 
ATOM     50  C   UNL     1     -12.666   5.975  11.153  1.00  0.00     0.074 A 
ATOM     51  C   UNL     1     -10.440   7.688  16.846  1.00  0.00     0.029 A 
ATOM     52  N   UNL     1     -10.655   7.192  14.688  1.00  0.00    -0.354 N 
ATOM     53  N   UNL     1     -12.127   6.383  12.277  1.00  0.00    -0.248 NA
ATOM     54  C   UNL     1     -14.086   5.608  11.269  1.00  0.00     0.031 C 
ATOM     55  C   UNL     1     -11.775   7.355  16.598  1.00  0.00     0.029 A 
ATOM     56  C   UNL     1     -11.912   7.064  15.250  1.00  0.00     0.049 A 
ATOM     57  H   UNL     1     -10.441   7.034  13.740  1.00  0.00     0.167 HD
ATOM     58  C   UNL     1     -13.150   6.369  13.218  1.00  0.00     0.074 A 
ATOM     59  C   UNL     1     -14.344   5.921  12.531  1.00  0.00     0.031 C 
ATOM     60  C   UNL     1     -13.103   6.688  14.534  1.00  0.00     0.034 A 
BRANCH  47  61
ATOM     61  C   UNL     1      -7.470   8.175  16.588  1.00  0.00     0.023 A 
ATOM     62  C   UNL     1      -6.990   9.496  16.709  1.00  0.00     0.012 A 
ATOM     63  C   UNL     1      -7.170   7.237  17.595  1.00  0.00     0.148 A 
ATOM     64  C   UNL     1      -6.194   9.867  17.791  1.00  0.00     0.002 A 
ATOM     65  C   UNL     1      -6.418   7.627  18.696  1.00  0.00     0.091 A 
ATOM     66  F   UNL     1      -7.618   5.981  17.453  1.00  0.00    -0.205 F 
ATOM     67  C   UNL     1      -5.918   8.937  18.789  1.00  0.00     0.022 A 
BRANCH  65  68
ATOM     68  S   UNL     1      -6.077   6.530  20.077  1.00  0.00     0.127 S 
ATOM     69  O   UNL     1      -4.640   6.302  19.925  1.00  0.00    -0.237 OA
ATOM     70  O   UNL     1      -6.444   7.359  21.225  1.00  0.00    -0.237 OA
ATOM     71  O   UNL     1      -6.918   5.359  19.878  1.00  0.00    -0.744 OA
ENDBRANCH  65  68
ENDBRANCH  47  61
BRANCH  48  72
ATOM     72  C   UNL     1     -12.839   5.397   8.618  1.00  0.00     0.023 A 
ATOM     73  C   UNL     1     -13.883   6.208   8.132  1.00  0.00     0.012 A 
ATOM     74  C   UNL     1     -12.565   4.174   7.975  1.00  0.00     0.148 A 
ATOM     75  C   UNL     1     -14.665   5.794   7.052  1.00  0.00     0.002 A 
ATOM     76  C   UNL     1     -13.312   3.793   6.865  1.00  0.00     0.091 A 
ATOM     77  F   UNL     1     -11.574   3.411   8.456  1.00  0.00    -0.205 F 
ATOM     78  C   UNL     1     -14.374   4.592   6.414  1.00  0.00     0.022 A 
BRANCH  76  79
ATOM     79  S   UNL     1     -12.926   2.327   5.901  1.00  0.00     0.127 S 
ATOM     80  O   UNL     1     -14.035   1.442   6.245  1.00  0.00    -0.237 OA
ATOM     81  O   UNL     1     -12.953   2.847   4.533  1.00  0.00    -0.237 OA
ATOM     82  O   UNL     1     -11.609   1.897   6.351  1.00  0.00    -0.744 OA
ENDBRANCH  76  79
ENDBRANCH  48  72
BRANCH  60  83
ATOM     83  C   UNL     1     -14.386   6.633  15.320  1.00  0.00     0.023 A 
ATOM     84  C   UNL     1     -14.939   5.390  15.682  1.00  0.00     0.012 A 
ATOM     85  C   UNL     1     -14.980   7.821  15.790  1.00  0.00     0.148 A 
ATOM     86  C   UNL     1     -16.080   5.331  16.482  1.00  0.00     0.002 A 
ATOM     87  C   UNL     1     -16.085   7.753  16.628  1.00  0.00     0.091 A 
ATOM     88  F   UNL     1     -14.445   8.993  15.419  1.00  0.00    -0.205 F 
ATOM     89  C   UNL     1     -16.643   6.510  16.965  1.00  0.00     0.022 A 
BRANCH  87  90
ATOM     90  S   UNL     1     -16.814   9.212  17.381  1.00  0.00     0.127 S 
ATOM     91  O   UNL     1     -18.091   9.305  16.675  1.00  0.00    -0.237 OA
ATOM     92  O   UNL     1     -16.921   8.814  18.785  1.00  0.00    -0.237 OA
ATOM     93  O   UNL     1     -15.883  10.304  17.130  1.00  0.00    -0.744 OA
ENDBRANCH  87  90
ENDBRANCH  60  83
ENDBRANCH  34  35
ENDBRANCH  26  29
ENDBRANCH  24  25
ENDBRANCH   1  24
TORSDOF 15
