REMARK SMILES C=CCN1C(=O)/C(=C\c2ccco2)S/C1=[NH+]\c1cccc(C(=O)NCCCNC(=O)c2ccc(-c3c4nc(c(-c5cccc(S(=O)(=O)[O-])c5F)c5ccc([nH]5)c(-c5cccc(S(=O)(=O)[O-])c5F)c5nc(c(-c6cccc(S(=O)(=O)[O-])c6F)c6ccc3[nH]6)C=C5)C=C4)cc2)c1
REMARK SMILES IDX 26 1 25 2 24 3 22 4 23 5 21 7 17 8 18 9 94 10 19 11 20 12
REMARK SMILES IDX 16 13 4 14 5 15 15 16 6 17 7 18 14 19 8 20 3 22 2 23 1 24
REMARK SMILES IDX 9 25 10 26 13 27 11 28 12 29 27 30 28 31 29 32 30 34 31 35
REMARK SMILES IDX 32 36 93 37 33 38 92 39 34 40 35 41 36 42 86 43 37 44 91 45
REMARK SMILES IDX 85 46 87 47 38 48 90 49 84 50 83 51 39 53 71 54 51 55 70 56
REMARK SMILES IDX 52 57 55 58 69 59 88 60 53 61 54 62 68 64 89 65 56 66 40 67
REMARK SMILES IDX 41 68 49 69 42 70 44 71 50 72 43 73 45 74 46 75 47 76 48 77
REMARK SMILES IDX 72 78 73 79 81 80 74 81 76 82 82 83 75 84 77 85 78 86 79 87
REMARK SMILES IDX 80 88 57 89 58 90 66 91 59 92 61 93 67 94 60 95 62 96 63 97
REMARK SMILES IDX 64 98 65 99
REMARK H PARENT 24 6 16 21 28 33 87 52 55 63
REMARK Flexibility Score: inf
ROOT
ATOM      1  C   UNL     1      -6.591  -1.561   3.111  1.00  0.00     0.042 C 
ENDROOT
BRANCH   1   2
ATOM      2  C   UNL     1      -5.842  -2.047   4.352  1.00  0.00     0.118 C 
BRANCH   2   3
ATOM      3  N   UNL     1      -5.868  -3.495   4.455  1.00  0.00    -0.352 N 
ATOM      4  C   UNL     1      -4.961  -4.476   4.139  1.00  0.00     0.251 C 
ATOM      5  O   UNL     1      -5.273  -5.635   4.419  1.00  0.00    -0.269 OA
ATOM      6  H   UNL     1      -6.709  -3.845   4.827  1.00  0.00     0.163 HD
BRANCH   4   7
ATOM      7  C   UNL     1      -3.618  -4.213   3.547  1.00  0.00     0.044 A 
ATOM      8  C   UNL     1      -1.950  -2.788   2.488  1.00  0.00     0.126 A 
ATOM      9  C   UNL     1      -0.998  -3.797   2.620  1.00  0.00     0.052 A 
ATOM     10  C   UNL     1      -3.271  -3.045   2.872  1.00  0.00     0.065 A 
ATOM     11  C   UNL     1      -1.350  -5.022   3.186  1.00  0.00     0.005 A 
ATOM     12  C   UNL     1      -2.647  -5.218   3.670  1.00  0.00     0.014 A 
BRANCH   8  13
ATOM     13  N   UNL     1      -1.621  -1.573   1.876  1.00  0.00    -0.234 N 
ATOM     14  N   UNL     1      -1.532   0.756   1.869  1.00  0.00    -0.182 N 
ATOM     15  C   UNL     1      -1.766   1.901   2.598  1.00  0.00     0.349 C 
ATOM     16  C   UNL     1      -1.714  -0.445   2.503  1.00  0.00     0.324 C 
ATOM     17  O   UNL     1      -1.605   3.043   2.185  1.00  0.00    -0.240 OA
ATOM     18  C   UNL     1      -2.221   1.551   3.975  1.00  0.00     0.113 C 
ATOM     19  S   UNL     1      -2.104  -0.163   4.191  1.00  0.00     0.007 SA
ATOM     20  C   UNL     1      -2.669   2.379   4.931  1.00  0.00     0.071 C 
ATOM     21  H   UNL     1      -1.310  -1.577   0.942  1.00  0.00     0.313 HD
BRANCH  14  22
ATOM     22  C   UNL     1      -1.149   0.848   0.475  1.00  0.00     0.275 C 
BRANCH  22  23
ATOM     23  C   UNL     1       0.351   0.885   0.399  1.00  0.00     0.011 C 
ATOM     24  C   UNL     1       1.100  -0.076  -0.157  1.00  0.00     0.008 C 
ENDBRANCH  22  23
ENDBRANCH  14  22
BRANCH  20  25
ATOM     25  C   UNL     1      -2.860   3.772   4.733  1.00  0.00     0.128 A 
ATOM     26  C   UNL     1      -3.684   4.438   3.830  1.00  0.00     0.050 A 
ATOM     27  O   UNL     1      -2.228   4.728   5.497  1.00  0.00    -0.465 OA
ATOM     28  C   UNL     1      -3.492   5.827   4.007  1.00  0.00     0.042 A 
ATOM     29  C   UNL     1      -2.591   5.950   5.032  1.00  0.00     0.195 A 
ENDBRANCH  20  25
ENDBRANCH   8  13
ENDBRANCH   4   7
ENDBRANCH   2   3
ENDBRANCH   1   2
BRANCH   1  30
ATOM     30  C   UNL     1      -8.108  -1.569   3.290  1.00  0.00     0.118 C 
BRANCH  30  31
ATOM     31  N   UNL     1      -8.529  -0.635   4.328  1.00  0.00    -0.352 N 
ATOM     32  C   UNL     1      -9.325   0.478   4.260  1.00  0.00     0.251 C 
ATOM     33  H   UNL     1      -8.183  -0.838   5.227  1.00  0.00     0.163 HD
ATOM     34  O   UNL     1      -9.307   1.275   5.196  1.00  0.00    -0.269 OA
BRANCH  32  35
ATOM     35  C   UNL     1     -10.201   0.725   3.095  1.00  0.00     0.039 A 
ATOM     36  C   UNL     1     -10.418   2.045   2.691  1.00  0.00     0.014 A 
ATOM     37  C   UNL     1     -10.862  -0.320   2.444  1.00  0.00     0.014 A 
ATOM     38  C   UNL     1     -11.261   2.310   1.611  1.00  0.00     0.010 A 
ATOM     39  C   UNL     1     -11.635  -0.061   1.314  1.00  0.00     0.010 A 
ATOM     40  C   UNL     1     -11.852   1.258   0.892  1.00  0.00    -0.014 A 
BRANCH  40  41
ATOM     41  C   UNL     1     -12.670   1.534  -0.316  1.00  0.00     0.031 A 
ATOM     42  C   UNL     1     -14.126   1.158  -0.371  1.00  0.00     0.074 A 
ATOM     43  C   UNL     1     -12.074   2.082  -1.394  1.00  0.00     0.049 A 
ATOM     44  N   UNL     1     -14.987   1.344  -1.338  1.00  0.00    -0.248 NA
ATOM     45  C   UNL     1     -14.685   0.460   0.799  1.00  0.00     0.031 C 
ATOM     46  C   UNL     1     -10.648   2.404  -1.496  1.00  0.00     0.029 A 
ATOM     47  N   UNL     1     -12.584   2.450  -2.613  1.00  0.00    -0.354 N 
ATOM     48  C   UNL     1     -16.176   0.765  -0.910  1.00  0.00     0.074 A 
ATOM     49  C   UNL     1     -15.917   0.187   0.391  1.00  0.00     0.031 C 
ATOM     50  C   UNL     1     -10.402   2.939  -2.701  1.00  0.00     0.029 A 
ATOM     51  C   UNL     1     -11.641   2.968  -3.470  1.00  0.00     0.049 A 
ATOM     52  H   UNL     1     -13.534   2.352  -2.852  1.00  0.00     0.167 HD
ATOM     53  C   UNL     1     -17.380   0.739  -1.530  1.00  0.00     0.034 A 
ATOM     54  C   UNL     1     -11.759   3.413  -4.736  1.00  0.00     0.034 A 
ATOM     55  C   UNL     1     -17.638   1.340  -2.812  1.00  0.00     0.049 A 
ATOM     56  C   UNL     1     -13.117   3.414  -5.381  1.00  0.00     0.074 A 
ATOM     57  C   UNL     1     -18.842   1.448  -3.486  1.00  0.00     0.029 A 
ATOM     58  N   UNL     1     -16.675   1.922  -3.622  1.00  0.00    -0.354 N 
ATOM     59  N   UNL     1     -14.265   3.016  -4.889  1.00  0.00    -0.248 NA
ATOM     60  C   UNL     1     -13.203   3.965  -6.740  1.00  0.00     0.031 C 
ATOM     61  C   UNL     1     -18.600   2.062  -4.719  1.00  0.00     0.029 A 
ATOM     62  C   UNL     1     -17.253   2.375  -4.797  1.00  0.00     0.049 A 
ATOM     63  H   UNL     1     -15.720   2.001  -3.396  1.00  0.00     0.167 HD
ATOM     64  C   UNL     1     -15.214   3.293  -5.866  1.00  0.00     0.074 A 
ATOM     65  C   UNL     1     -14.509   3.927  -6.962  1.00  0.00     0.031 C 
ATOM     66  C   UNL     1     -16.545   3.033  -5.865  1.00  0.00     0.034 A 
BRANCH  53  67
ATOM     67  C   UNL     1     -18.527   0.072  -0.812  1.00  0.00     0.023 A 
ATOM     68  C   UNL     1     -19.079   0.676   0.337  1.00  0.00     0.012 A 
ATOM     69  C   UNL     1     -19.104  -1.113  -1.312  1.00  0.00     0.148 A 
ATOM     70  C   UNL     1     -20.161   0.095   0.997  1.00  0.00     0.002 A 
ATOM     71  C   UNL     1     -20.212  -1.660  -0.676  1.00  0.00     0.091 A 
ATOM     72  F   UNL     1     -18.555  -1.684  -2.393  1.00  0.00    -0.205 F 
ATOM     73  C   UNL     1     -20.734  -1.066   0.485  1.00  0.00     0.022 A 
BRANCH  71  74
ATOM     74  S   UNL     1     -21.076  -3.106  -1.302  1.00  0.00     0.127 S 
ATOM     75  O   UNL     1     -20.772  -4.099  -0.272  1.00  0.00    -0.237 OA
ATOM     76  O   UNL     1     -22.466  -2.649  -1.317  1.00  0.00    -0.237 OA
ATOM     77  O   UNL     1     -20.509  -3.378  -2.615  1.00  0.00    -0.744 OA
ENDBRANCH  71  74
ENDBRANCH  53  67
BRANCH  54  78
ATOM     78  C   UNL     1     -10.567   3.945  -5.454  1.00  0.00     0.023 A 
ATOM     79  C   UNL     1     -10.487   5.319  -5.751  1.00  0.00     0.012 A 
ATOM     80  C   UNL     1      -9.502   3.100  -5.822  1.00  0.00     0.148 A 
ATOM     81  C   UNL     1      -9.388   5.836  -6.437  1.00  0.00     0.002 A 
ATOM     82  C   UNL     1      -8.383   3.631  -6.450  1.00  0.00     0.091 A 
ATOM     83  F   UNL     1      -9.601   1.793  -5.538  1.00  0.00    -0.205 F 
ATOM     84  C   UNL     1      -8.332   4.994  -6.778  1.00  0.00     0.022 A 
BRANCH  82  85
ATOM     85  S   UNL     1      -6.920   2.649  -6.798  1.00  0.00     0.127 S 
ATOM     86  O   UNL     1      -6.960   2.557  -8.255  1.00  0.00    -0.237 OA
ATOM     87  O   UNL     1      -5.854   3.495  -6.260  1.00  0.00    -0.237 OA
ATOM     88  O   UNL     1      -7.108   1.395  -6.079  1.00  0.00    -0.744 OA
ENDBRANCH  82  85
ENDBRANCH  54  78
BRANCH  66  89
ATOM     89  C   UNL     1     -17.331   3.458  -7.080  1.00  0.00     0.023 A 
ATOM     90  C   UNL     1     -17.141   2.795  -8.309  1.00  0.00     0.012 A 
ATOM     91  C   UNL     1     -18.281   4.494  -6.994  1.00  0.00     0.148 A 
ATOM     92  C   UNL     1     -17.845   3.192  -9.445  1.00  0.00     0.002 A 
ATOM     93  C   UNL     1     -19.020   4.846  -8.117  1.00  0.00     0.091 A 
ATOM     94  F   UNL     1     -18.437   5.126  -5.822  1.00  0.00    -0.205 F 
ATOM     95  C   UNL     1     -18.791   4.209  -9.347  1.00  0.00     0.022 A 
BRANCH  93  96
ATOM     96  S   UNL     1     -20.327   6.076  -8.060  1.00  0.00     0.127 S 
ATOM     97  O   UNL     1     -19.707   7.202  -8.756  1.00  0.00    -0.237 OA
ATOM     98  O   UNL     1     -21.404   5.419  -8.802  1.00  0.00    -0.237 OA
ATOM     99  O   UNL     1     -20.613   6.293  -6.648  1.00  0.00    -0.744 OA
ENDBRANCH  93  96
ENDBRANCH  66  89
ENDBRANCH  40  41
ENDBRANCH  32  35
ENDBRANCH  30  31
ENDBRANCH   1  30
TORSDOF 17
