REMARK SMILES O=C(NCCCNC(=O)c1ccccc1NC(=S)NC(=O)c1ccc2ccccc2c1)c1ccc(-c2c3nc(c(-c4cccc(S(=O)(=O)[O-])c4F)c4ccc([nH]4)c(-c4cccc(S(=O)(=O)[O-])c4F)c4nc(c(-c5cccc(S(=O)(=O)[O-])c5F)c5ccc2[nH]5)C=C4)C=C3)cc1
REMARK SMILES IDX 5 1 4 2 3 3 1 4 2 5 32 7 33 8 94 9 34 10 93 11 35 12 36 13
REMARK SMILES IDX 37 14 87 15 38 16 92 17 86 18 88 19 39 20 91 21 85 22 84 23
REMARK SMILES IDX 40 25 72 26 52 27 71 28 53 29 56 30 70 31 89 32 54 33 55 34
REMARK SMILES IDX 69 36 90 37 57 38 41 39 42 40 50 41 43 42 45 43 51 44 44 45
REMARK SMILES IDX 46 46 47 47 48 48 49 49 73 50 74 51 82 52 75 53 77 54 83 55
REMARK SMILES IDX 76 56 78 57 79 58 80 59 81 60 58 61 59 62 67 63 60 64 62 65
REMARK SMILES IDX 68 66 61 67 63 68 64 69 65 70 66 71 6 72 7 73 8 74 9 76
REMARK SMILES IDX 10 77 11 78 15 79 12 80 14 81 13 82 16 83 17 85 18 86 19 87
REMARK SMILES IDX 20 88 21 90 22 91 23 92 31 93 24 94 30 95 25 96 29 97 26 98
REMARK SMILES IDX 28 99 27 100
REMARK H PARENT 3 6 88 24 56 35 7 75 16 84 19 89
REMARK Flexibility Score: inf
ROOT
ATOM      1  C   UNL     1       4.943  -1.518  -1.631  1.00  0.00     0.042 C 
ENDROOT
BRANCH   1   2
ATOM      2  C   UNL     1       4.524  -0.187  -1.045  1.00  0.00     0.118 C 
BRANCH   2   3
ATOM      3  N   UNL     1       3.074  -0.032  -0.984  1.00  0.00    -0.352 N 
ATOM      4  O   UNL     1       1.060   0.143   0.020  1.00  0.00    -0.269 OA
ATOM      5  C   UNL     1       2.279   0.214   0.109  1.00  0.00     0.251 C 
ATOM      6  H   UNL     1       2.601  -0.114  -1.843  1.00  0.00     0.163 HD
BRANCH   5   7
ATOM      7  C   UNL     1       2.939   0.524   1.389  1.00  0.00     0.039 A 
ATOM      8  C   UNL     1       4.044   1.376   1.400  1.00  0.00     0.014 A 
ATOM      9  C   UNL     1       2.514  -0.104   2.559  1.00  0.00     0.014 A 
ATOM     10  C   UNL     1       4.855   1.421   2.517  1.00  0.00     0.010 A 
ATOM     11  C   UNL     1       3.247   0.077   3.733  1.00  0.00     0.010 A 
ATOM     12  C   UNL     1       4.446   0.809   3.711  1.00  0.00    -0.014 A 
BRANCH  12  13
ATOM     13  C   UNL     1       5.250   1.045   4.934  1.00  0.00     0.031 A 
ATOM     14  C   UNL     1       5.866  -0.086   5.707  1.00  0.00     0.074 A 
ATOM     15  C   UNL     1       5.434   2.321   5.328  1.00  0.00     0.049 A 
ATOM     16  N   UNL     1       6.610  -0.029   6.780  1.00  0.00    -0.248 NA
ATOM     17  C   UNL     1       5.613  -1.453   5.226  1.00  0.00     0.031 C 
ATOM     18  C   UNL     1       4.859   3.498   4.666  1.00  0.00     0.029 A 
ATOM     19  N   UNL     1       6.154   2.849   6.366  1.00  0.00    -0.354 N 
ATOM     20  C   UNL     1       6.878  -1.345   7.133  1.00  0.00     0.074 A 
ATOM     21  C   UNL     1       6.210  -2.183   6.159  1.00  0.00     0.031 C 
ATOM     22  C   UNL     1       5.283   4.606   5.284  1.00  0.00     0.029 A 
ATOM     23  C   UNL     1       6.079   4.219   6.439  1.00  0.00     0.049 A 
ATOM     24  H   UNL     1       6.674   2.301   6.997  1.00  0.00     0.167 HD
ATOM     25  C   UNL     1       7.616  -1.809   8.170  1.00  0.00     0.034 A 
ATOM     26  C   UNL     1       6.560   5.076   7.357  1.00  0.00     0.034 A 
ATOM     27  C   UNL     1       8.277  -0.963   9.130  1.00  0.00     0.049 A 
ATOM     28  C   UNL     1       7.348   4.527   8.507  1.00  0.00     0.074 A 
ATOM     29  C   UNL     1       9.090  -1.335  10.187  1.00  0.00     0.029 A 
ATOM     30  N   UNL     1       8.179   0.420   9.172  1.00  0.00    -0.354 N 
ATOM     31  N   UNL     1       7.677   3.285   8.762  1.00  0.00    -0.248 NA
ATOM     32  C   UNL     1       7.853   5.501   9.482  1.00  0.00     0.031 C 
ATOM     33  C   UNL     1       9.434  -0.184  10.901  1.00  0.00     0.029 A 
ATOM     34  C   UNL     1       8.897   0.914  10.249  1.00  0.00     0.049 A 
ATOM     35  H   UNL     1       7.674   0.970   8.531  1.00  0.00     0.167 HD
ATOM     36  C   UNL     1       8.461   3.330   9.907  1.00  0.00     0.074 A 
ATOM     37  C   UNL     1       8.574   4.726  10.279  1.00  0.00     0.031 C 
ATOM     38  C   UNL     1       9.030   2.308  10.591  1.00  0.00     0.034 A 
BRANCH  25  39
ATOM     39  C   UNL     1       7.746  -3.304   8.331  1.00  0.00     0.023 A 
ATOM     40  C   UNL     1       8.492  -4.056   7.400  1.00  0.00     0.012 A 
ATOM     41  C   UNL     1       7.176  -3.955   9.443  1.00  0.00     0.148 A 
ATOM     42  C   UNL     1       8.634  -5.436   7.551  1.00  0.00     0.002 A 
ATOM     43  C   UNL     1       7.364  -5.321   9.615  1.00  0.00     0.091 A 
ATOM     44  F   UNL     1       6.458  -3.228  10.311  1.00  0.00    -0.205 F 
ATOM     45  C   UNL     1       8.079  -6.066   8.662  1.00  0.00     0.022 A 
BRANCH  43  46
ATOM     46  S   UNL     1       6.762  -6.212  11.054  1.00  0.00     0.127 S 
ATOM     47  O   UNL     1       5.743  -7.076  10.459  1.00  0.00    -0.237 OA
ATOM     48  O   UNL     1       7.966  -6.910  11.506  1.00  0.00    -0.237 OA
ATOM     49  O   UNL     1       6.260  -5.201  11.974  1.00  0.00    -0.744 OA
ENDBRANCH  43  46
ENDBRANCH  25  39
BRANCH  26  50
ATOM     50  C   UNL     1       6.306   6.535   7.217  1.00  0.00     0.023 A 
ATOM     51  C   UNL     1       7.378   7.410   6.964  1.00  0.00     0.012 A 
ATOM     52  C   UNL     1       5.000   7.055   7.317  1.00  0.00     0.148 A 
ATOM     53  C   UNL     1       7.161   8.784   6.855  1.00  0.00     0.002 A 
ATOM     54  C   UNL     1       4.782   8.415   7.145  1.00  0.00     0.091 A 
ATOM     55  F   UNL     1       3.994   6.202   7.558  1.00  0.00    -0.205 F 
ATOM     56  C   UNL     1       5.863   9.284   6.936  1.00  0.00     0.022 A 
BRANCH  54  57
ATOM     57  S   UNL     1       3.136   9.129   7.105  1.00  0.00     0.127 S 
ATOM     58  O   UNL     1       3.141   9.954   8.310  1.00  0.00    -0.237 OA
ATOM     59  O   UNL     1       3.166   9.874   5.846  1.00  0.00    -0.237 OA
ATOM     60  O   UNL     1       2.214   8.002   7.117  1.00  0.00    -0.744 OA
ENDBRANCH  54  57
ENDBRANCH  26  50
BRANCH  38  61
ATOM     61  C   UNL     1       9.885   2.664  11.779  1.00  0.00     0.023 A 
ATOM     62  C   UNL     1       9.302   3.189  12.950  1.00  0.00     0.012 A 
ATOM     63  C   UNL     1      11.274   2.434  11.743  1.00  0.00     0.148 A 
ATOM     64  C   UNL     1      10.095   3.524  14.047  1.00  0.00     0.002 A 
ATOM     65  C   UNL     1      12.049   2.711  12.861  1.00  0.00     0.091 A 
ATOM     66  F   UNL     1      11.813   1.951  10.614  1.00  0.00    -0.205 F 
ATOM     67  C   UNL     1      11.464   3.273  14.007  1.00  0.00     0.022 A 
BRANCH  65  68
ATOM     68  S   UNL     1      13.801   2.330  12.937  1.00  0.00     0.127 S 
ATOM     69  O   UNL     1      14.395   3.666  12.968  1.00  0.00    -0.237 OA
ATOM     70  O   UNL     1      13.899   1.588  14.193  1.00  0.00    -0.237 OA
ATOM     71  O   UNL     1      14.098   1.547  11.744  1.00  0.00    -0.744 OA
ENDBRANCH  65  68
ENDBRANCH  38  61
ENDBRANCH  12  13
ENDBRANCH   5   7
ENDBRANCH   2   3
ENDBRANCH   1   2
BRANCH   1  72
ATOM     72  C   UNL     1       4.292  -1.785  -2.967  1.00  0.00     0.118 C 
BRANCH  72  73
ATOM     73  N   UNL     1       4.290  -0.615  -3.824  1.00  0.00    -0.352 N 
ATOM     74  C   UNL     1       4.329  -0.514  -5.185  1.00  0.00     0.253 C 
ATOM     75  H   UNL     1       4.254   0.246  -3.347  1.00  0.00     0.163 HD
ATOM     76  O   UNL     1       4.411   0.535  -5.750  1.00  0.00    -0.269 OA
BRANCH  74  77
ATOM     77  C   UNL     1       4.662  -1.716  -5.907  1.00  0.00     0.063 A 
ATOM     78  C   UNL     1       6.024  -1.585  -6.104  1.00  0.00     0.016 A 
ATOM     79  C   UNL     1       3.996  -2.972  -6.023  1.00  0.00     0.053 A 
ATOM     80  C   UNL     1       6.630  -2.735  -6.312  1.00  0.00     0.001 A 
ATOM     81  C   UNL     1       4.542  -3.938  -6.779  1.00  0.00     0.027 A 
ATOM     82  C   UNL     1       5.878  -3.804  -6.716  1.00  0.00     0.002 A 
BRANCH  79  83
ATOM     83  N   UNL     1       2.987  -3.415  -5.179  1.00  0.00    -0.332 N 
ATOM     84  H   UNL     1       2.336  -2.728  -4.908  1.00  0.00     0.169 HD
BRANCH  83  85
ATOM     85  C   UNL     1       2.762  -4.664  -4.669  1.00  0.00     0.177 C 
ATOM     86  S   UNL     1       1.239  -4.879  -3.978  1.00  0.00    -0.040 S 
BRANCH  85  87
ATOM     87  N   UNL     1       3.708  -5.791  -4.669  1.00  0.00    -0.299 N 
ATOM     88  C   UNL     1       4.976  -6.703  -4.855  1.00  0.00     0.257 C 
ATOM     89  H   UNL     1       3.123  -6.458  -4.242  1.00  0.00     0.172 HD
ATOM     90  O   UNL     1       4.693  -7.908  -4.742  1.00  0.00    -0.269 OA
BRANCH  88  91
ATOM     91  C   UNL     1       6.514  -6.353  -5.233  1.00  0.00     0.040 A 
ATOM     92  C   UNL     1       7.019  -6.527  -6.563  1.00  0.00     0.014 A 
ATOM     93  C   UNL     1       7.375  -5.560  -4.397  1.00  0.00     0.022 A 
ATOM     94  C   UNL     1       8.129  -5.648  -7.052  1.00  0.00     0.009 A 
ATOM     95  C   UNL     1       8.541  -4.714  -4.850  1.00  0.00    -0.018 A 
ATOM     96  C   UNL     1       8.870  -4.684  -6.233  1.00  0.00    -0.018 A 
ATOM     97  C   UNL     1       9.145  -3.664  -4.039  1.00  0.00     0.009 A 
ATOM     98  C   UNL     1       9.630  -3.491  -6.722  1.00  0.00     0.009 A 
ATOM     99  C   UNL     1       9.920  -2.571  -4.530  1.00  0.00     0.001 A 
ATOM    100  C   UNL     1      10.134  -2.456  -5.890  1.00  0.00     0.001 A 
ENDBRANCH  88  91
ENDBRANCH  85  87
ENDBRANCH  83  85
ENDBRANCH  79  83
ENDBRANCH  74  77
ENDBRANCH  72  73
ENDBRANCH   1  72
TORSDOF 17
