REMARK SMILES Cn1c(COc2ccc(C(=O)NCCCNC(=O)c3ccc(-c4c5nc(c(-c6cccc(S(=O)(=O)[O-])c6F)c6ccc([nH]6)c(-c6cccc(S(=O)(=O)[O-])c6F)c6nc(c(-c7cccc(S(=O)(=O)[O-])c7F)c7ccc4[nH]7)C=C6)C=C5)cc3)cc2)nc2ccccc21
REMARK SMILES IDX 14 1 13 2 12 3 10 4 11 5 9 7 6 8 7 9 83 10 8 11 82 12 5 13
REMARK SMILES IDX 4 14 3 15 1 16 2 17 90 18 84 19 85 20 89 21 86 22 88 23
REMARK SMILES IDX 87 24 15 25 16 26 17 27 18 29 19 30 20 31 81 32 21 33 80 34
REMARK SMILES IDX 22 35 23 36 24 37 74 38 25 39 79 40 73 41 75 42 26 43 78 44
REMARK SMILES IDX 72 45 71 46 27 48 59 49 39 50 58 51 40 52 43 53 57 54 76 55
REMARK SMILES IDX 41 56 42 57 56 59 77 60 44 61 28 62 29 63 37 64 30 65 32 66
REMARK SMILES IDX 38 67 31 68 33 69 34 70 35 71 36 72 60 73 61 74 69 75 62 76
REMARK SMILES IDX 64 77 70 78 63 79 65 80 66 81 67 82 68 83 45 84 46 85 54 86
REMARK SMILES IDX 47 87 49 88 55 89 48 90 50 91 51 92 52 93 53 94
REMARK H PARENT 12 6 16 28 75 47 43 58
REMARK Flexibility Score: inf
ROOT
ATOM      1  C   UNL     1       0.492   1.265  -5.686  1.00  0.00     0.042 C 
ENDROOT
BRANCH   1   2
ATOM      2  C   UNL     1      -0.954   1.695  -5.446  1.00  0.00     0.118 C 
BRANCH   2   3
ATOM      3  N   UNL     1      -1.881   1.042  -6.358  1.00  0.00    -0.352 N 
ATOM      4  C   UNL     1      -2.818   0.062  -6.137  1.00  0.00     0.251 C 
ATOM      5  O   UNL     1      -3.620  -0.203  -7.030  1.00  0.00    -0.269 OA
ATOM      6  H   UNL     1      -1.828   1.356  -7.290  1.00  0.00     0.163 HD
BRANCH   4   7
ATOM      7  C   UNL     1      -2.928  -0.637  -4.831  1.00  0.00     0.040 A 
ATOM      8  C   UNL     1      -3.249  -1.859  -2.340  1.00  0.00     0.120 A 
ATOM      9  C   UNL     1      -4.371  -1.575  -3.112  1.00  0.00     0.047 A 
ATOM     10  C   UNL     1      -1.973  -1.643  -2.852  1.00  0.00     0.047 A 
ATOM     11  C   UNL     1      -4.209  -0.962  -4.359  1.00  0.00     0.017 A 
ATOM     12  C   UNL     1      -1.811  -1.031  -4.093  1.00  0.00     0.017 A 
BRANCH   8  13
ATOM     13  O   UNL     1      -3.394  -2.438  -1.108  1.00  0.00    -0.486 OA
BRANCH  13  14
ATOM     14  C   UNL     1      -3.379  -1.464  -0.040  1.00  0.00     0.304 C 
BRANCH  14  15
ATOM     15  C   UNL     1      -1.986  -0.954   0.190  1.00  0.00     0.147 A 
ATOM     16  C   UNL     1      -2.457   1.534   0.027  1.00  0.00     0.151 C 
ATOM     17  N   UNL     1      -1.610   0.373   0.149  1.00  0.00    -0.328 N 
ATOM     18  C   UNL     1      -0.233   0.433   0.160  1.00  0.00     0.068 A 
ATOM     19  N   UNL     1      -0.924  -1.721   0.373  1.00  0.00    -0.229 NA
ATOM     20  C   UNL     1       0.165  -0.893   0.289  1.00  0.00     0.089 A 
ATOM     21  C   UNL     1       0.682   1.488   0.046  1.00  0.00     0.028 A 
ATOM     22  C   UNL     1       1.530  -1.210   0.281  1.00  0.00     0.030 A 
ATOM     23  C   UNL     1       2.041   1.153   0.032  1.00  0.00     0.002 A 
ATOM     24  C   UNL     1       2.461  -0.173   0.141  1.00  0.00     0.002 A 
ENDBRANCH  14  15
ENDBRANCH  13  14
ENDBRANCH   8  13
ENDBRANCH   4   7
ENDBRANCH   2   3
ENDBRANCH   1   2
BRANCH   1  25
ATOM     25  C   UNL     1       1.110   1.847  -6.955  1.00  0.00     0.118 C 
BRANCH  25  26
ATOM     26  N   UNL     1       1.320   3.285  -6.857  1.00  0.00    -0.352 N 
ATOM     27  C   UNL     1       2.474   4.019  -6.976  1.00  0.00     0.251 C 
ATOM     28  H   UNL     1       0.508   3.813  -6.678  1.00  0.00     0.163 HD
ATOM     29  O   UNL     1       2.466   5.204  -6.648  1.00  0.00    -0.269 OA
BRANCH  27  30
ATOM     30  C   UNL     1       3.723   3.401  -7.481  1.00  0.00     0.039 A 
ATOM     31  C   UNL     1       4.937   3.753  -6.882  1.00  0.00     0.014 A 
ATOM     32  C   UNL     1       3.713   2.516  -8.562  1.00  0.00     0.014 A 
ATOM     33  C   UNL     1       6.128   3.174  -7.327  1.00  0.00     0.010 A 
ATOM     34  C   UNL     1       4.892   1.887  -8.959  1.00  0.00     0.010 A 
ATOM     35  C   UNL     1       6.113   2.212  -8.350  1.00  0.00    -0.014 A 
BRANCH  35  36
ATOM     36  C   UNL     1       7.357   1.519  -8.777  1.00  0.00     0.031 A 
ATOM     37  C   UNL     1       7.876   1.674 -10.181  1.00  0.00     0.074 A 
ATOM     38  C   UNL     1       7.972   0.678  -7.921  1.00  0.00     0.049 A 
ATOM     39  N   UNL     1       8.901   1.093 -10.750  1.00  0.00    -0.248 NA
ATOM     40  C   UNL     1       7.133   2.582 -11.072  1.00  0.00     0.031 C 
ATOM     41  C   UNL     1       7.522   0.381  -6.559  1.00  0.00     0.029 A 
ATOM     42  N   UNL     1       9.088  -0.106  -8.080  1.00  0.00    -0.354 N 
ATOM     43  C   UNL     1       8.910   1.539 -12.067  1.00  0.00     0.074 A 
ATOM     44  C   UNL     1       7.768   2.414 -12.223  1.00  0.00     0.031 C 
ATOM     45  C   UNL     1       8.347  -0.526  -6.011  1.00  0.00     0.029 A 
ATOM     46  C   UNL     1       9.365  -0.897  -6.988  1.00  0.00     0.049 A 
ATOM     47  H   UNL     1       9.637  -0.104  -8.897  1.00  0.00     0.167 HD
ATOM     48  C   UNL     1       9.804   1.270 -13.049  1.00  0.00     0.034 A 
ATOM     49  C   UNL     1      10.322  -1.827  -6.799  1.00  0.00     0.034 A 
ATOM     50  C   UNL     1      10.959   0.428 -12.880  1.00  0.00     0.049 A 
ATOM     51  C   UNL     1      11.321  -2.081  -7.894  1.00  0.00     0.074 A 
ATOM     52  C   UNL     1      11.964   0.155 -13.791  1.00  0.00     0.029 A 
ATOM     53  N   UNL     1      11.261  -0.281 -11.728  1.00  0.00    -0.354 N 
ATOM     54  N   UNL     1      11.403  -1.528  -9.080  1.00  0.00    -0.248 NA
ATOM     55  C   UNL     1      12.383  -3.058  -7.613  1.00  0.00     0.031 C 
ATOM     56  C   UNL     1      12.865  -0.734 -13.196  1.00  0.00     0.029 A 
ATOM     57  C   UNL     1      12.433  -0.995 -11.906  1.00  0.00     0.049 A 
ATOM     58  H   UNL     1      10.721  -0.277 -10.905  1.00  0.00     0.167 HD
ATOM     59  C   UNL     1      12.539  -2.065  -9.674  1.00  0.00     0.074 A 
ATOM     60  C   UNL     1      13.130  -2.967  -8.706  1.00  0.00     0.031 C 
ATOM     61  C   UNL     1      13.039  -1.847 -10.915  1.00  0.00     0.034 A 
BRANCH  48  62
ATOM     62  C   UNL     1       9.607   1.945 -14.383  1.00  0.00     0.023 A 
ATOM     63  C   UNL     1       9.853   3.328 -14.499  1.00  0.00     0.012 A 
ATOM     64  C   UNL     1       9.251   1.208 -15.529  1.00  0.00     0.148 A 
ATOM     65  C   UNL     1       9.718   3.975 -15.727  1.00  0.00     0.002 A 
ATOM     66  C   UNL     1       9.160   1.852 -16.759  1.00  0.00     0.091 A 
ATOM     67  F   UNL     1       9.004  -0.103 -15.397  1.00  0.00    -0.205 F 
ATOM     68  C   UNL     1       9.382   3.235 -16.857  1.00  0.00     0.022 A 
BRANCH  66  69
ATOM     69  S   UNL     1       8.811   0.979 -18.290  1.00  0.00     0.127 S 
ATOM     70  O   UNL     1       7.470   1.468 -18.608  1.00  0.00    -0.237 OA
ATOM     71  O   UNL     1       9.866   1.476 -19.174  1.00  0.00    -0.237 OA
ATOM     72  O   UNL     1       8.899  -0.440 -17.975  1.00  0.00    -0.744 OA
ENDBRANCH  66  69
ENDBRANCH  48  62
BRANCH  49  73
ATOM     73  C   UNL     1      10.410  -2.551  -5.499  1.00  0.00     0.023 A 
ATOM     74  C   UNL     1      11.489  -2.294  -4.632  1.00  0.00     0.012 A 
ATOM     75  C   UNL     1       9.420  -3.474  -5.108  1.00  0.00     0.148 A 
ATOM     76  C   UNL     1      11.601  -2.968  -3.415  1.00  0.00     0.002 A 
ATOM     77  C   UNL     1       9.507  -4.098  -3.869  1.00  0.00     0.091 A 
ATOM     78  F   UNL     1       8.408  -3.717  -5.952  1.00  0.00    -0.205 F 
ATOM     79  C   UNL     1      10.606  -3.861  -3.029  1.00  0.00     0.022 A 
BRANCH  77  80
ATOM     80  S   UNL     1       8.199  -5.153  -3.234  1.00  0.00     0.127 S 
ATOM     81  O   UNL     1       8.798  -6.478  -3.356  1.00  0.00    -0.237 OA
ATOM     82  O   UNL     1       8.055  -4.664  -1.862  1.00  0.00    -0.237 OA
ATOM     83  O   UNL     1       7.044  -4.894  -4.084  1.00  0.00    -0.744 OA
ENDBRANCH  77  80
ENDBRANCH  49  73
BRANCH  61  84
ATOM     84  C   UNL     1      14.307  -2.567 -11.293  1.00  0.00     0.023 A 
ATOM     85  C   UNL     1      14.274  -3.952 -11.553  1.00  0.00     0.012 A 
ATOM     86  C   UNL     1      15.514  -1.860 -11.461  1.00  0.00     0.148 A 
ATOM     87  C   UNL     1      15.430  -4.628 -11.942  1.00  0.00     0.002 A 
ATOM     88  C   UNL     1      16.650  -2.531 -11.896  1.00  0.00     0.091 A 
ATOM     89  F   UNL     1      15.529  -0.547 -11.191  1.00  0.00    -0.205 F 
ATOM     90  C   UNL     1      16.613  -3.916 -12.125  1.00  0.00     0.022 A 
BRANCH  88  91
ATOM     91  S   UNL     1      18.194  -1.683 -12.249  1.00  0.00     0.127 S 
ATOM     92  O   UNL     1      19.034  -2.115 -11.133  1.00  0.00    -0.237 OA
ATOM     93  O   UNL     1      18.568  -2.246 -13.547  1.00  0.00    -0.237 OA
ATOM     94  O   UNL     1      17.874  -0.262 -12.277  1.00  0.00    -0.744 OA
ENDBRANCH  88  91
ENDBRANCH  61  84
ENDBRANCH  35  36
ENDBRANCH  27  30
ENDBRANCH  25  26
ENDBRANCH   1  25
TORSDOF 16
