REMARK SMILES COc1cccc([C@H]2SC[C@@H](C(=O)NCCCNC(=O)c3ccc(-c4c5nc(c(-c6cccc(S(=O)(=O)[O-])c6F)c6ccc([nH]6)c(-c6cccc(S(=O)(=O)[O-])c6F)c6nc(c(-c7cccc(S(=O)(=O)[O-])c7F)c7ccc4[nH]7)C=C6)C=C5)cc3)N2C(C)=O)c1
REMARK SMILES IDX 16 1 15 2 14 3 12 4 13 5 11 7 8 8 9 9 84 10 10 11 7 12 3 13
REMARK SMILES IDX 4 14 88 15 5 16 6 17 2 18 1 19 85 20 86 21 87 22 17 23 18 24
REMARK SMILES IDX 19 25 20 27 21 28 22 29 83 30 23 31 82 32 24 33 25 34 26 35
REMARK SMILES IDX 76 36 27 37 81 38 75 39 77 40 28 41 80 42 74 43 73 44 29 46
REMARK SMILES IDX 61 47 41 48 60 49 42 50 45 51 59 52 78 53 43 54 44 55 58 57
REMARK SMILES IDX 79 58 46 59 30 60 31 61 39 62 32 63 34 64 40 65 33 66 35 67
REMARK SMILES IDX 36 68 37 69 38 70 62 71 63 72 71 73 64 74 66 75 72 76 65 77
REMARK SMILES IDX 67 78 68 79 69 80 70 81 47 82 48 83 56 84 49 85 51 86 57 87
REMARK SMILES IDX 50 88 52 89 53 90 54 91 55 92
REMARK H PARENT 14 6 18 26 77 45 45 56
REMARK Flexibility Score: inf
ROOT
ATOM      1  C   UNL     1       1.584  -2.334   2.736  1.00  0.00     0.042 C 
ENDROOT
BRANCH   1   2
ATOM      2  C   UNL     1       2.420  -1.459   1.820  1.00  0.00     0.117 C 
BRANCH   2   3
ATOM      3  N   UNL     1       3.643  -0.967   2.404  1.00  0.00    -0.354 N 
ATOM      4  C   UNL     1       4.919  -1.141   1.961  1.00  0.00     0.243 C 
ATOM      5  O   UNL     1       5.729  -0.251   2.245  1.00  0.00    -0.273 OA
ATOM      6  H   UNL     1       3.543  -0.439   3.229  1.00  0.00     0.163 HD
BRANCH   4   7
ATOM      7  C   UNL     1       5.363  -2.313   1.045  1.00  0.00     0.185 C 
ATOM      8  C   UNL     1       4.295  -4.242  -0.118  1.00  0.00     0.175 C 
ATOM      9  S   UNL     1       5.339  -3.385  -1.357  1.00  0.00    -0.129 SA
ATOM     10  N   UNL     1       4.679  -3.615   1.163  1.00  0.00    -0.314 N 
ATOM     11  C   UNL     1       5.352  -1.848  -0.406  1.00  0.00     0.107 C 
BRANCH   8  12
ATOM     12  C   UNL     1       2.794  -4.170  -0.404  1.00  0.00    -0.012 A 
ATOM     13  C   UNL     1       0.821  -2.945  -1.182  1.00  0.00     0.119 A 
ATOM     14  C   UNL     1      -0.013  -3.885  -0.587  1.00  0.00     0.046 A 
ATOM     15  C   UNL     1       2.202  -3.138  -1.160  1.00  0.00     0.053 A 
ATOM     16  C   UNL     1       0.539  -4.979   0.079  1.00  0.00     0.004 A 
ATOM     17  C   UNL     1       1.929  -5.111   0.185  1.00  0.00     0.007 A 
BRANCH  13  18
ATOM     18  O   UNL     1       0.233  -1.884  -1.812  1.00  0.00    -0.497 OA
ATOM     19  C   UNL     1       0.797  -0.604  -1.528  1.00  0.00     0.278 C 
ENDBRANCH  13  18
ENDBRANCH   8  12
BRANCH  10  20
ATOM     20  C   UNL     1       4.812  -4.442   2.268  1.00  0.00     0.221 C 
ATOM     21  C   UNL     1       5.543  -3.935   3.493  1.00  0.00     0.114 C 
ATOM     22  O   UNL     1       4.389  -5.599   2.269  1.00  0.00    -0.275 OA
ENDBRANCH  10  20
ENDBRANCH   4   7
ENDBRANCH   2   3
ENDBRANCH   1   2
BRANCH   1  23
ATOM     23  C   UNL     1       0.186  -1.797   3.035  1.00  0.00     0.118 C 
BRANCH  23  24
ATOM     24  N   UNL     1      -0.580  -1.330   1.882  1.00  0.00    -0.352 N 
ATOM     25  C   UNL     1      -1.876  -1.550   1.477  1.00  0.00     0.251 C 
ATOM     26  H   UNL     1      -0.069  -0.745   1.277  1.00  0.00     0.163 HD
ATOM     27  O   UNL     1      -2.274  -1.008   0.448  1.00  0.00    -0.269 OA
BRANCH  25  28
ATOM     28  C   UNL     1      -2.790  -2.427   2.239  1.00  0.00     0.039 A 
ATOM     29  C   UNL     1      -3.764  -3.168   1.557  1.00  0.00     0.014 A 
ATOM     30  C   UNL     1      -2.722  -2.498   3.627  1.00  0.00     0.014 A 
ATOM     31  C   UNL     1      -4.631  -4.005   2.267  1.00  0.00     0.010 A 
ATOM     32  C   UNL     1      -3.473  -3.436   4.312  1.00  0.00     0.010 A 
ATOM     33  C   UNL     1      -4.477  -4.156   3.652  1.00  0.00    -0.014 A 
BRANCH  33  34
ATOM     34  C   UNL     1      -5.402  -4.958   4.487  1.00  0.00     0.031 A 
ATOM     35  C   UNL     1      -6.152  -4.269   5.602  1.00  0.00     0.074 A 
ATOM     36  C   UNL     1      -5.466  -6.294   4.342  1.00  0.00     0.049 A 
ATOM     37  N   UNL     1      -6.865  -4.784   6.567  1.00  0.00    -0.248 NA
ATOM     38  C   UNL     1      -6.025  -2.800   5.675  1.00  0.00     0.031 C 
ATOM     39  C   UNL     1      -4.734  -7.078   3.346  1.00  0.00     0.029 A 
ATOM     40  N   UNL     1      -6.162  -7.232   5.060  1.00  0.00    -0.354 N 
ATOM     41  C   UNL     1      -7.202  -3.718   7.395  1.00  0.00     0.074 A 
ATOM     42  C   UNL     1      -6.566  -2.541   6.854  1.00  0.00     0.031 C 
ATOM     43  C   UNL     1      -5.034  -8.378   3.504  1.00  0.00     0.029 A 
ATOM     44  C   UNL     1      -5.948  -8.521   4.632  1.00  0.00     0.049 A 
ATOM     45  H   UNL     1      -6.757  -7.005   5.810  1.00  0.00     0.167 HD
ATOM     46  C   UNL     1      -8.002  -3.709   8.488  1.00  0.00     0.034 A 
ATOM     47  C   UNL     1      -6.441  -9.683   5.103  1.00  0.00     0.034 A 
ATOM     48  C   UNL     1      -8.691  -4.875   8.965  1.00  0.00     0.049 A 
ATOM     49  C   UNL     1      -7.386  -9.644   6.275  1.00  0.00     0.074 A 
ATOM     50  C   UNL     1      -9.613  -4.975   9.990  1.00  0.00     0.029 A 
ATOM     51  N   UNL     1      -8.534  -6.149   8.439  1.00  0.00    -0.354 N 
ATOM     52  N   UNL     1      -7.804  -8.611   6.966  1.00  0.00    -0.248 NA
ATOM     53  C   UNL     1      -7.957 -10.927   6.705  1.00  0.00     0.031 C 
ATOM     54  C   UNL     1      -9.993  -6.317  10.101  1.00  0.00     0.029 A 
ATOM     55  C   UNL     1      -9.337  -7.045   9.119  1.00  0.00     0.049 A 
ATOM     56  H   UNL     1      -7.937  -6.381   7.691  1.00  0.00     0.167 HD
ATOM     57  C   UNL     1      -8.728  -9.111   7.878  1.00  0.00     0.074 A 
ATOM     58  C   UNL     1      -8.811 -10.539   7.642  1.00  0.00     0.031 C 
ATOM     59  C   UNL     1      -9.440  -8.453   8.827  1.00  0.00     0.034 A 
BRANCH  46  60
ATOM     60  C   UNL     1      -8.201  -2.392   9.197  1.00  0.00     0.023 A 
ATOM     61  C   UNL     1      -8.874  -1.334   8.547  1.00  0.00     0.012 A 
ATOM     62  C   UNL     1      -7.720  -2.195  10.506  1.00  0.00     0.148 A 
ATOM     63  C   UNL     1      -9.005  -0.087   9.158  1.00  0.00     0.002 A 
ATOM     64  C   UNL     1      -7.907  -0.967  11.132  1.00  0.00     0.091 A 
ATOM     65  F   UNL     1      -7.064  -3.198  11.106  1.00  0.00    -0.205 F 
ATOM     66  C   UNL     1      -8.529   0.093  10.453  1.00  0.00     0.022 A 
BRANCH  64  67
ATOM     67  S   UNL     1      -7.410  -0.664  12.831  1.00  0.00     0.127 S 
ATOM     68  O   UNL     1      -6.242   0.198  12.648  1.00  0.00    -0.237 OA
ATOM     69  O   UNL     1      -8.586   0.015  13.379  1.00  0.00    -0.237 OA
ATOM     70  O   UNL     1      -7.142  -1.972  13.409  1.00  0.00    -0.744 OA
ENDBRANCH  64  67
ENDBRANCH  46  60
BRANCH  47  71
ATOM     71  C   UNL     1      -6.144 -10.959   4.394  1.00  0.00     0.023 A 
ATOM     72  C   UNL     1      -7.171 -11.579   3.653  1.00  0.00     0.012 A 
ATOM     73  C   UNL     1      -4.862 -11.540   4.407  1.00  0.00     0.148 A 
ATOM     74  C   UNL     1      -6.936 -12.769   2.965  1.00  0.00     0.002 A 
ATOM     75  C   UNL     1      -4.621 -12.700   3.677  1.00  0.00     0.091 A 
ATOM     76  F   UNL     1      -3.899 -10.935   5.117  1.00  0.00    -0.205 F 
ATOM     77  C   UNL     1      -5.661 -13.324   2.969  1.00  0.00     0.022 A 
BRANCH  75  78
ATOM     78  S   UNL     1      -2.986 -13.428   3.523  1.00  0.00     0.127 S 
ATOM     79  O   UNL     1      -3.161 -14.703   4.216  1.00  0.00    -0.237 OA
ATOM     80  O   UNL     1      -2.841 -13.531   2.071  1.00  0.00    -0.237 OA
ATOM     81  O   UNL     1      -2.073 -12.489   4.157  1.00  0.00    -0.744 OA
ENDBRANCH  75  78
ENDBRANCH  47  71
BRANCH  59  82
ATOM     82  C   UNL     1     -10.422  -9.255   9.639  1.00  0.00     0.023 A 
ATOM     83  C   UNL     1      -9.963 -10.171  10.605  1.00  0.00     0.012 A 
ATOM     84  C   UNL     1     -11.807  -9.044   9.487  1.00  0.00     0.148 A 
ATOM     85  C   UNL     1     -10.869 -10.895  11.379  1.00  0.00     0.002 A 
ATOM     86  C   UNL     1     -12.701  -9.726  10.300  1.00  0.00     0.091 A 
ATOM     87  F   UNL     1     -12.224  -8.181   8.548  1.00  0.00    -0.205 F 
ATOM     88  C   UNL     1     -12.235 -10.664  11.236  1.00  0.00     0.022 A 
BRANCH  86  89
ATOM     89  S   UNL     1     -14.468  -9.409  10.258  1.00  0.00     0.127 S 
ATOM     90  O   UNL     1     -14.970 -10.604   9.583  1.00  0.00    -0.237 OA
ATOM     91  O   UNL     1     -14.802  -9.326  11.681  1.00  0.00    -0.237 OA
ATOM     92  O   UNL     1     -14.633  -8.160   9.527  1.00  0.00    -0.744 OA
ENDBRANCH  86  89
ENDBRANCH  59  82
ENDBRANCH  33  34
ENDBRANCH  25  28
ENDBRANCH  23  24
ENDBRANCH   1  23
TORSDOF 16
