REMARK SMILES O=C(NCCCNC(=O)[C@@H]1[NH2+]CC[C@H]1c1ccc2c(c1)OCCCO2)c1ccc(-c2c3nc(c(-c4cccc(S(=O)(=O)[O-])c4F)c4ccc([nH]4)c(-c4cccc(S(=O)(=O)[O-])c4F)c4nc(c(-c5cccc(S(=O)(=O)[O-])c5F)c5ccc2[nH]5)C=C4)C=C3)cc1
REMARK SMILES IDX 5 1 4 2 3 3 1 4 2 5 26 7 27 8 88 9 28 10 87 11 29 12 30 13
REMARK SMILES IDX 31 14 81 15 32 16 86 17 80 18 82 19 33 20 85 21 79 22 78 23
REMARK SMILES IDX 34 25 66 26 46 27 65 28 47 29 50 30 64 31 83 32 48 33 49 34
REMARK SMILES IDX 63 36 84 37 51 38 35 39 36 40 44 41 37 42 39 43 45 44 38 45
REMARK SMILES IDX 40 46 41 47 42 48 43 49 67 50 68 51 76 52 69 53 71 54 77 55
REMARK SMILES IDX 70 56 72 57 73 58 74 59 75 60 52 61 53 62 61 63 54 64 56 65
REMARK SMILES IDX 62 66 55 67 57 68 58 69 59 70 60 71 6 72 7 73 8 74 9 76
REMARK SMILES IDX 10 77 11 78 14 79 12 80 13 83 15 84 16 85 20 86 17 87 19 88
REMARK SMILES IDX 18 89 21 90 22 91 23 92 25 94 24 95
REMARK H PARENT 3 6 82 24 50 35 7 75 11 81 11 82
REMARK Flexibility Score: 80.00
ROOT
ATOM      1  C   UNL     1       6.114  -4.165   0.612  1.00  0.00     0.042 C 
ENDROOT
BRANCH   1   2
ATOM      2  C   UNL     1       7.292  -4.113   1.580  1.00  0.00     0.118 C 
BRANCH   2   3
ATOM      3  N   UNL     1       7.647  -2.752   1.948  1.00  0.00    -0.352 N 
ATOM      4  O   UNL     1       7.718  -0.874   3.159  1.00  0.00    -0.269 OA
ATOM      5  C   UNL     1       7.576  -2.096   3.150  1.00  0.00     0.251 C 
ATOM      6  H   UNL     1       8.000  -2.208   1.208  1.00  0.00     0.163 HD
BRANCH   5   7
ATOM      7  C   UNL     1       7.348  -2.818   4.425  1.00  0.00     0.039 A 
ATOM      8  C   UNL     1       6.651  -2.160   5.444  1.00  0.00     0.014 A 
ATOM      9  C   UNL     1       7.901  -4.077   4.673  1.00  0.00     0.014 A 
ATOM     10  C   UNL     1       6.517  -2.756   6.701  1.00  0.00     0.010 A 
ATOM     11  C   UNL     1       7.687  -4.711   5.897  1.00  0.00     0.010 A 
ATOM     12  C   UNL     1       7.040  -4.036   6.941  1.00  0.00    -0.014 A 
BRANCH  12  13
ATOM     13  C   UNL     1       7.011  -4.627   8.304  1.00  0.00     0.031 A 
ATOM     14  C   UNL     1       8.305  -4.882   9.037  1.00  0.00     0.074 A 
ATOM     15  C   UNL     1       5.838  -4.948   8.883  1.00  0.00     0.049 A 
ATOM     16  N   UNL     1       8.487  -5.370  10.237  1.00  0.00    -0.248 NA
ATOM     17  C   UNL     1       9.559  -4.569   8.328  1.00  0.00     0.031 C 
ATOM     18  C   UNL     1       4.521  -4.803   8.262  1.00  0.00     0.029 A 
ATOM     19  N   UNL     1       5.565  -5.461  10.127  1.00  0.00    -0.354 N 
ATOM     20  C   UNL     1       9.863  -5.467  10.402  1.00  0.00     0.074 A 
ATOM     21  C   UNL     1      10.474  -5.016   9.174  1.00  0.00     0.031 C 
ATOM     22  C   UNL     1       3.578  -5.183   9.139  1.00  0.00     0.029 A 
ATOM     23  C   UNL     1       4.222  -5.617  10.377  1.00  0.00     0.049 A 
ATOM     24  H   UNL     1       6.265  -5.694  10.779  1.00  0.00     0.167 HD
ATOM     25  C   UNL     1      10.562  -5.857  11.492  1.00  0.00     0.034 A 
ATOM     26  C   UNL     1       3.580  -6.044  11.483  1.00  0.00     0.034 A 
ATOM     27  C   UNL     1       9.962  -6.210  12.746  1.00  0.00     0.049 A 
ATOM     28  C   UNL     1       4.375  -6.423  12.702  1.00  0.00     0.074 A 
ATOM     29  C   UNL     1      10.591  -6.497  13.943  1.00  0.00     0.029 A 
ATOM     30  N   UNL     1       8.600  -6.318  12.966  1.00  0.00    -0.354 N 
ATOM     31  N   UNL     1       5.672  -6.373  12.883  1.00  0.00    -0.248 NA
ATOM     32  C   UNL     1       3.624  -6.896  13.875  1.00  0.00     0.031 C 
ATOM     33  C   UNL     1       9.606  -6.793  14.888  1.00  0.00     0.029 A 
ATOM     34  C   UNL     1       8.367  -6.682  14.278  1.00  0.00     0.049 A 
ATOM     35  H   UNL     1       7.902  -6.159  12.290  1.00  0.00     0.167 HD
ATOM     36  C   UNL     1       5.892  -6.784  14.192  1.00  0.00     0.074 A 
ATOM     37  C   UNL     1       4.594  -7.074  14.765  1.00  0.00     0.031 C 
ATOM     38  C   UNL     1       7.067  -6.919  14.851  1.00  0.00     0.034 A 
BRANCH  25  39
ATOM     39  C   UNL     1      12.062  -5.852  11.411  1.00  0.00     0.023 A 
ATOM     40  C   UNL     1      12.754  -4.628  11.495  1.00  0.00     0.012 A 
ATOM     41  C   UNL     1      12.785  -7.058  11.339  1.00  0.00     0.148 A 
ATOM     42  C   UNL     1      14.147  -4.601  11.491  1.00  0.00     0.002 A 
ATOM     43  C   UNL     1      14.174  -7.025  11.368  1.00  0.00     0.091 A 
ATOM     44  F   UNL     1      12.102  -8.207  11.245  1.00  0.00    -0.205 F 
ATOM     45  C   UNL     1      14.856  -5.798  11.438  1.00  0.00     0.022 A 
BRANCH  43  46
ATOM     46  S   UNL     1      15.182  -8.512  11.361  1.00  0.00     0.127 S 
ATOM     47  O   UNL     1      15.854  -8.405  10.066  1.00  0.00    -0.237 OA
ATOM     48  O   UNL     1      16.051  -8.298  12.518  1.00  0.00    -0.237 OA
ATOM     49  O   UNL     1      14.257  -9.629  11.488  1.00  0.00    -0.744 OA
ENDBRANCH  43  46
ENDBRANCH  25  39
BRANCH  26  50
ATOM     50  C   UNL     1       2.092  -6.030  11.508  1.00  0.00     0.023 A 
ATOM     51  C   UNL     1       1.435  -4.990  12.193  1.00  0.00     0.012 A 
ATOM     52  C   UNL     1       1.333  -6.978  10.796  1.00  0.00     0.148 A 
ATOM     53  C   UNL     1       0.043  -4.895  12.171  1.00  0.00     0.002 A 
ATOM     54  C   UNL     1      -0.051  -6.857  10.750  1.00  0.00     0.091 A 
ATOM     55  F   UNL     1       1.985  -7.954  10.150  1.00  0.00    -0.205 F 
ATOM     56  C   UNL     1      -0.698  -5.822  11.443  1.00  0.00     0.022 A 
BRANCH  54  57
ATOM     57  S   UNL     1      -1.090  -7.944   9.765  1.00  0.00     0.127 S 
ATOM     58  O   UNL     1      -1.948  -8.543  10.787  1.00  0.00    -0.237 OA
ATOM     59  O   UNL     1      -1.762  -6.989   8.882  1.00  0.00    -0.237 OA
ATOM     60  O   UNL     1      -0.185  -8.863   9.096  1.00  0.00    -0.744 OA
ENDBRANCH  54  57
ENDBRANCH  26  50
BRANCH  38  61
ATOM     61  C   UNL     1       7.049  -7.398  16.275  1.00  0.00     0.023 A 
ATOM     62  C   UNL     1       6.965  -8.780  16.528  1.00  0.00     0.012 A 
ATOM     63  C   UNL     1       7.321  -6.508  17.333  1.00  0.00     0.148 A 
ATOM     64  C   UNL     1       7.164  -9.273  17.817  1.00  0.00     0.002 A 
ATOM     65  C   UNL     1       7.551  -7.010  18.608  1.00  0.00     0.091 A 
ATOM     66  F   UNL     1       7.399  -5.198  17.058  1.00  0.00    -0.205 F 
ATOM     67  C   UNL     1       7.471  -8.392  18.852  1.00  0.00     0.022 A 
BRANCH  65  68
ATOM     68  S   UNL     1       8.041  -5.969  19.988  1.00  0.00     0.127 S 
ATOM     69  O   UNL     1       6.942  -6.184  20.929  1.00  0.00    -0.237 OA
ATOM     70  O   UNL     1       9.314  -6.570  20.388  1.00  0.00    -0.237 OA
ATOM     71  O   UNL     1       8.141  -4.615  19.460  1.00  0.00    -0.744 OA
ENDBRANCH  65  68
ENDBRANCH  38  61
ENDBRANCH  12  13
ENDBRANCH   5   7
ENDBRANCH   2   3
ENDBRANCH   1   2
BRANCH   1  72
ATOM     72  C   UNL     1       6.378  -3.485  -0.729  1.00  0.00     0.118 C 
BRANCH  72  73
ATOM     73  N   UNL     1       7.449  -4.124  -1.470  1.00  0.00    -0.351 N 
ATOM     74  C   UNL     1       7.358  -5.033  -2.486  1.00  0.00     0.278 C 
ATOM     75  H   UNL     1       8.362  -3.868  -1.206  1.00  0.00     0.163 HD
ATOM     76  O   UNL     1       8.412  -5.468  -2.957  1.00  0.00    -0.268 OA
BRANCH  74  77
ATOM     77  C   UNL     1       5.971  -5.403  -3.065  1.00  0.00     0.280 C 
ATOM     78  N   UNL     1       5.086  -5.989  -2.022  1.00  0.00    -0.335 N 
ATOM     79  C   UNL     1       6.072  -6.510  -4.129  1.00  0.00     0.093 C 
ATOM     80  C   UNL     1       5.370  -7.431  -1.996  1.00  0.00     0.262 C 
ATOM     81  H   UNL     1       4.107  -5.827  -2.259  1.00  0.00     0.346 HD
ATOM     82  H   UNL     1       5.258  -5.564  -1.111  1.00  0.00     0.346 HD
ATOM     83  C   UNL     1       6.168  -7.762  -3.251  1.00  0.00     0.076 C 
BRANCH  79  84
ATOM     84  C   UNL     1       4.912  -6.450  -5.119  1.00  0.00    -0.034 A 
ATOM     85  C   UNL     1       3.875  -7.394  -5.160  1.00  0.00     0.008 A 
ATOM     86  C   UNL     1       4.877  -5.387  -6.040  1.00  0.00     0.054 A 
ATOM     87  C   UNL     1       2.847  -7.288  -6.101  1.00  0.00     0.051 A 
ATOM     88  C   UNL     1       3.860  -5.292  -6.991  1.00  0.00     0.161 A 
ATOM     89  C   UNL     1       2.851  -6.252  -7.029  1.00  0.00     0.161 A 
BRANCH  88  90
ATOM     90  O   UNL     1       3.859  -4.181  -7.791  1.00  0.00    -0.490 OA
BRANCH  90  91
ATOM     91  C   UNL     1       4.006  -4.516  -9.170  1.00  0.00     0.233 C 
BRANCH  91  92
ATOM     92  C   UNL     1       2.693  -4.955  -9.803  1.00  0.00     0.083 CG0
ATOM     93  G   UNL     1       2.236  -6.298  -9.254  1.00  0.00     0.000 G0
ENDBRANCH  91  92
ENDBRANCH  90  91
ENDBRANCH  88  90
BRANCH  89  94
ATOM     94  O   UNL     1       1.797  -6.196  -7.899  1.00  0.00    -0.490 OA
BRANCH  94  95
ATOM     95  C   UNL     1       2.236  -6.298  -9.254  1.00  0.00     0.233 CG0
ATOM     96  G   UNL     1       2.693  -4.955  -9.803  1.00  0.00     0.000 G0
ENDBRANCH  94  95
ENDBRANCH  89  94
ENDBRANCH  79  84
ENDBRANCH  74  77
ENDBRANCH  72  73
ENDBRANCH   1  72
TORSDOF 14
