REMARK SMILES CC[C@@H](C)c1ccccc1NC(=O)[C@@H]1[C@@H](C(=O)NCCCNC(=O)c2ccc(-c3c4nc(c(-c5cccc(S(=O)(=O)[O-])c5F)c5ccc([nH]5)c(-c5cccc(S(=O)(=O)[O-])c5F)c5nc(c(-c6cccc(S(=O)(=O)[O-])c6F)c6ccc3[nH]6)C=C5)C=C4)cc2)[C@@H]2C=C[C@H]1C2
REMARK SMILES IDX 19 1 18 2 16 3 17 4 15 6 14 7 91 8 88 9 90 10 92 11 89 12
REMARK SMILES IDX 12 13 11 14 13 16 10 17 5 18 6 19 7 20 9 21 8 22 3 23 4 24
REMARK SMILES IDX 2 25 1 26 20 27 21 28 22 29 23 30 24 32 25 33 26 34 87 35
REMARK SMILES IDX 27 36 86 37 28 38 29 39 30 40 80 41 31 42 85 43 79 44 81 45
REMARK SMILES IDX 32 46 84 47 78 48 77 49 33 51 65 52 45 53 64 54 46 55 49 56
REMARK SMILES IDX 63 57 82 58 47 59 48 60 62 62 83 63 50 64 34 65 35 66 43 67
REMARK SMILES IDX 36 68 38 69 44 70 37 71 39 72 40 73 41 74 42 75 66 76 67 77
REMARK SMILES IDX 75 78 68 79 70 80 76 81 69 82 71 83 72 84 73 85 74 86 51 87
REMARK SMILES IDX 52 88 60 89 53 90 55 91 61 92 54 93 56 94 57 95 58 96 59 97
REMARK H PARENT 18 5 11 15 22 31 81 50 49 61
REMARK Flexibility Score: inf
ROOT
ATOM      1  C   UNL     1       2.020  -9.340  -2.657  1.00  0.00     0.117 C 
ENDROOT
BRANCH   1   2
ATOM      2  N   UNL     1       1.613  -9.556  -4.030  1.00  0.00    -0.356 N 
ATOM      3  C   UNL     1       1.768  -8.766  -5.125  1.00  0.00     0.224 C 
ATOM      4  O   UNL     1       1.412  -9.238  -6.207  1.00  0.00    -0.275 OA
ATOM      5  H   UNL     1       1.151 -10.410  -4.197  1.00  0.00     0.163 HD
BRANCH   3   6
ATOM      6  C   UNL     1       2.366  -7.369  -4.997  1.00  0.00     0.098 C 
ATOM      7  C   UNL     1       1.298  -6.265  -4.583  1.00  0.00     0.099 C 
ATOM      8  C   UNL     1       1.356  -5.320  -5.821  1.00  0.00     0.025 C 
ATOM      9  C   UNL     1       2.842  -6.872  -6.393  1.00  0.00     0.025 C 
ATOM     10  C   UNL     1       2.698  -4.637  -5.870  1.00  0.00    -0.027 C 
ATOM     11  C   UNL     1       1.550  -6.304  -6.974  1.00  0.00     0.017 C 
ATOM     12  C   UNL     1       3.597  -5.573  -6.203  1.00  0.00    -0.027 C 
BRANCH   7  13
ATOM     13  C   UNL     1       1.656  -5.627  -3.231  1.00  0.00     0.228 C 
ATOM     14  N   UNL     1       1.153  -4.454  -2.752  1.00  0.00    -0.326 N 
ATOM     15  H   UNL     1       1.539  -4.204  -1.881  1.00  0.00     0.169 HD
ATOM     16  O   UNL     1       2.461  -6.188  -2.475  1.00  0.00    -0.274 OA
BRANCH  14  17
ATOM     17  C   UNL     1       0.210  -3.521  -3.216  1.00  0.00     0.044 A 
ATOM     18  C   UNL     1       0.280  -2.177  -2.771  1.00  0.00    -0.022 A 
ATOM     19  C   UNL     1      -0.342  -1.207  -3.587  1.00  0.00     0.006 A 
ATOM     20  C   UNL     1      -1.157  -1.562  -4.660  1.00  0.00     0.000 A 
ATOM     21  C   UNL     1      -0.761  -3.872  -4.152  1.00  0.00     0.026 A 
ATOM     22  C   UNL     1      -1.431  -2.898  -4.889  1.00  0.00     0.002 A 
BRANCH  18  23
ATOM     23  C   UNL     1       0.963  -1.757  -1.448  1.00  0.00     0.018 C 
ATOM     24  C   UNL     1       0.399  -2.574  -0.266  1.00  0.00     0.013 C 
BRANCH  23  25
ATOM     25  C   UNL     1       0.807  -0.239  -1.123  1.00  0.00     0.005 C 
ATOM     26  C   UNL     1       1.355   0.224   0.222  1.00  0.00     0.004 C 
ENDBRANCH  23  25
ENDBRANCH  18  23
ENDBRANCH  14  17
ENDBRANCH   7  13
ENDBRANCH   3   6
ENDBRANCH   1   2
BRANCH   1  27
ATOM     27  C   UNL     1       0.837  -9.031  -1.747  1.00  0.00     0.042 C 
BRANCH  27  28
ATOM     28  C   UNL     1      -0.185 -10.162  -1.637  1.00  0.00     0.118 C 
BRANCH  28  29
ATOM     29  N   UNL     1       0.390 -11.401  -1.131  1.00  0.00    -0.352 N 
ATOM     30  C   UNL     1       0.011 -12.203  -0.086  1.00  0.00     0.251 C 
ATOM     31  H   UNL     1       1.184 -11.715  -1.622  1.00  0.00     0.163 HD
ATOM     32  O   UNL     1       0.755 -13.119   0.259  1.00  0.00    -0.269 OA
BRANCH  30  33
ATOM     33  C   UNL     1      -1.264 -11.983   0.634  1.00  0.00     0.039 A 
ATOM     34  C   UNL     1      -1.290 -12.188   2.017  1.00  0.00     0.014 A 
ATOM     35  C   UNL     1      -2.442 -11.640  -0.036  1.00  0.00     0.014 A 
ATOM     36  C   UNL     1      -2.479 -12.011   2.729  1.00  0.00     0.010 A 
ATOM     37  C   UNL     1      -3.610 -11.390   0.684  1.00  0.00     0.010 A 
ATOM     38  C   UNL     1      -3.646 -11.588   2.072  1.00  0.00    -0.014 A 
BRANCH  38  39
ATOM     39  C   UNL     1      -4.900 -11.347   2.833  1.00  0.00     0.031 A 
ATOM     40  C   UNL     1      -6.127 -12.183   2.582  1.00  0.00     0.074 A 
ATOM     41  C   UNL     1      -4.949 -10.336   3.723  1.00  0.00     0.049 A 
ATOM     42  N   UNL     1      -7.296 -12.127   3.167  1.00  0.00    -0.248 NA
ATOM     43  C   UNL     1      -6.040 -13.198   1.519  1.00  0.00     0.031 C 
ATOM     44  C   UNL     1      -3.857  -9.399   3.998  1.00  0.00     0.029 A 
ATOM     45  N   UNL     1      -5.960  -9.917   4.551  1.00  0.00    -0.354 N 
ATOM     46  C   UNL     1      -8.089 -13.074   2.529  1.00  0.00     0.074 A 
ATOM     47  C   UNL     1      -7.280 -13.663   1.484  1.00  0.00     0.031 C 
ATOM     48  C   UNL     1      -4.250  -8.529   4.941  1.00  0.00     0.029 A 
ATOM     49  C   UNL     1      -5.626  -8.830   5.324  1.00  0.00     0.049 A 
ATOM     50  H   UNL     1      -6.842 -10.354   4.588  1.00  0.00     0.167 HD
ATOM     51  C   UNL     1      -9.362 -13.446   2.808  1.00  0.00     0.034 A 
ATOM     52  C   UNL     1      -6.342  -8.157   6.246  1.00  0.00     0.034 A 
ATOM     53  C   UNL     1     -10.151 -12.886   3.873  1.00  0.00     0.049 A 
ATOM     54  C   UNL     1      -7.732  -8.627   6.577  1.00  0.00     0.074 A 
ATOM     55  C   UNL     1     -11.421 -13.246   4.286  1.00  0.00     0.029 A 
ATOM     56  N   UNL     1      -9.745 -11.845   4.695  1.00  0.00    -0.354 N 
ATOM     57  N   UNL     1      -8.406  -9.632   6.072  1.00  0.00    -0.248 NA
ATOM     58  C   UNL     1      -8.443  -7.900   7.639  1.00  0.00     0.031 C 
ATOM     59  C   UNL     1     -11.791 -12.412   5.347  1.00  0.00     0.029 A 
ATOM     60  C   UNL     1     -10.740 -11.549   5.612  1.00  0.00     0.049 A 
ATOM     61  H   UNL     1      -8.877 -11.385   4.635  1.00  0.00     0.167 HD
ATOM     62  C   UNL     1      -9.602  -9.683   6.780  1.00  0.00     0.074 A 
ATOM     63  C   UNL     1      -9.549  -8.621   7.764  1.00  0.00     0.031 C 
ATOM     64  C   UNL     1     -10.653 -10.525   6.622  1.00  0.00     0.034 A 
BRANCH  51  65
ATOM     65  C   UNL     1      -9.962 -14.556   1.981  1.00  0.00     0.023 A 
ATOM     66  C   UNL     1      -9.491 -15.875   2.146  1.00  0.00     0.012 A 
ATOM     67  C   UNL     1     -11.021 -14.310   1.084  1.00  0.00     0.148 A 
ATOM     68  C   UNL     1     -10.033 -16.924   1.404  1.00  0.00     0.002 A 
ATOM     69  C   UNL     1     -11.588 -15.368   0.382  1.00  0.00     0.091 A 
ATOM     70  F   UNL     1     -11.444 -13.048   0.923  1.00  0.00    -0.205 F 
ATOM     71  C   UNL     1     -11.087 -16.672   0.531  1.00  0.00     0.022 A 
BRANCH  69  72
ATOM     72  S   UNL     1     -13.002 -15.158  -0.706  1.00  0.00     0.127 S 
ATOM     73  O   UNL     1     -12.384 -15.306  -2.025  1.00  0.00    -0.237 OA
ATOM     74  O   UNL     1     -13.864 -16.275  -0.311  1.00  0.00    -0.237 OA
ATOM     75  O   UNL     1     -13.543 -13.843  -0.411  1.00  0.00    -0.744 OA
ENDBRANCH  69  72
ENDBRANCH  51  65
BRANCH  52  76
ATOM     76  C   UNL     1      -5.717  -7.027   6.991  1.00  0.00     0.023 A 
ATOM     77  C   UNL     1      -5.395  -7.194   8.352  1.00  0.00     0.012 A 
ATOM     78  C   UNL     1      -5.408  -5.809   6.356  1.00  0.00     0.148 A 
ATOM     79  C   UNL     1      -4.807  -6.156   9.076  1.00  0.00     0.002 A 
ATOM     80  C   UNL     1      -4.772  -4.799   7.069  1.00  0.00     0.091 A 
ATOM     81  F   UNL     1      -5.731  -5.667   5.063  1.00  0.00    -0.205 F 
ATOM     82  C   UNL     1      -4.486  -4.964   8.433  1.00  0.00     0.022 A 
BRANCH  80  83
ATOM     83  S   UNL     1      -4.203  -3.284   6.290  1.00  0.00     0.127 S 
ATOM     84  O   UNL     1      -5.134  -2.299   6.837  1.00  0.00    -0.237 OA
ATOM     85  O   UNL     1      -2.832  -3.181   6.794  1.00  0.00    -0.237 OA
ATOM     86  O   UNL     1      -4.298  -3.518   4.857  1.00  0.00    -0.744 OA
ENDBRANCH  80  83
ENDBRANCH  52  76
BRANCH  64  87
ATOM     87  C   UNL     1     -11.822 -10.363   7.559  1.00  0.00     0.023 A 
ATOM     88  C   UNL     1     -12.676  -9.250   7.432  1.00  0.00     0.012 A 
ATOM     89  C   UNL     1     -12.104 -11.343   8.531  1.00  0.00     0.148 A 
ATOM     90  C   UNL     1     -13.770  -9.094   8.284  1.00  0.00     0.002 A 
ATOM     91  C   UNL     1     -13.225 -11.207   9.343  1.00  0.00     0.091 A 
ATOM     92  F   UNL     1     -11.269 -12.386   8.652  1.00  0.00    -0.205 F 
ATOM     93  C   UNL     1     -14.050 -10.077   9.230  1.00  0.00     0.022 A 
BRANCH  91  94
ATOM     94  S   UNL     1     -13.712 -12.473  10.520  1.00  0.00     0.127 S 
ATOM     95  O   UNL     1     -13.277 -11.886  11.787  1.00  0.00    -0.237 OA
ATOM     96  O   UNL     1     -15.163 -12.527  10.340  1.00  0.00    -0.237 OA
ATOM     97  O   UNL     1     -13.011 -13.684  10.114  1.00  0.00    -0.744 OA
ENDBRANCH  91  94
ENDBRANCH  64  87
ENDBRANCH  38  39
ENDBRANCH  30  33
ENDBRANCH  28  29
ENDBRANCH  27  28
ENDBRANCH   1  27
TORSDOF 17
