REMARK SMILES CSCC[NH2+]CC(C)(C)C(=O)NCCCNC(=O)c1ccc(-c2c3nc(c(-c4cccc(S(=O)(=O)[O-])c4F)c4ccc([nH]4)c(-c4cccc(S(=O)(=O)[O-])c4F)c4nc(c(-c5cccc(S(=O)(=O)[O-])c5F)c5ccc2[nH]5)C=C4)C=C3)cc1
REMARK SMILES IDX 13 1 12 2 10 3 11 4 7 6 8 7 9 8 6 9 5 10 4 13 3 14 2 15 1 16
REMARK SMILES IDX 14 17 15 18 16 19 17 20 18 22 19 23 20 24 81 25 21 26 80 27
REMARK SMILES IDX 22 28 23 29 24 30 74 31 25 32 79 33 73 34 75 35 26 36 78 37
REMARK SMILES IDX 72 38 71 39 27 41 59 42 39 43 58 44 40 45 43 46 57 47 76 48
REMARK SMILES IDX 41 49 42 50 56 52 77 53 44 54 28 55 29 56 37 57 30 58 32 59
REMARK SMILES IDX 38 60 31 61 33 62 34 63 35 64 36 65 60 66 61 67 69 68 62 69
REMARK SMILES IDX 64 70 70 71 63 72 65 73 66 74 67 75 68 76 45 77 46 78 54 79
REMARK SMILES IDX 47 80 49 81 55 82 48 83 50 84 51 85 52 86 53 87
REMARK H PARENT 12 5 5 11 5 12 16 21 75 40 43 51
REMARK Flexibility Score: inf
ROOT
ATOM      1  C   UNL     1      -4.021  -2.834  -2.491  1.00  0.00     0.117 C 
ENDROOT
BRANCH   1   2
ATOM      2  N   UNL     1      -2.946  -3.593  -1.883  1.00  0.00    -0.355 N 
ATOM      3  C   UNL     1      -1.636  -3.730  -2.198  1.00  0.00     0.231 C 
ATOM      4  O   UNL     1      -1.103  -4.760  -1.771  1.00  0.00    -0.274 OA
ATOM      5  H   UNL     1      -3.221  -4.107  -1.089  1.00  0.00     0.163 HD
BRANCH   3   6
ATOM      6  C   UNL     1      -0.858  -2.698  -3.037  1.00  0.00     0.092 C 
ATOM      7  C   UNL     1      -1.185  -1.235  -2.687  1.00  0.00     0.027 C 
ATOM      8  C   UNL     1      -1.176  -2.966  -4.520  1.00  0.00     0.027 C 
BRANCH   6   9
ATOM      9  C   UNL     1       0.681  -2.933  -2.824  1.00  0.00     0.276 C 
BRANCH   9  10
ATOM     10  N   UNL     1       1.305  -2.373  -1.604  1.00  0.00    -0.345 N 
ATOM     11  H   UNL     1       2.319  -2.429  -1.703  1.00  0.00     0.346 HD
ATOM     12  H   UNL     1       0.983  -1.410  -1.513  1.00  0.00     0.346 HD
BRANCH  10  13
ATOM     13  C   UNL     1       0.916  -3.082  -0.380  1.00  0.00     0.271 C 
BRANCH  13  14
ATOM     14  C   UNL     1       1.575  -2.519   0.888  1.00  0.00     0.130 C 
BRANCH  14  15
ATOM     15  S   UNL     1       0.736  -1.047   1.592  1.00  0.00    -0.160 SA
ATOM     16  C   UNL     1       1.334   0.245   0.481  1.00  0.00     0.085 C 
ENDBRANCH  14  15
ENDBRANCH  13  14
ENDBRANCH  10  13
ENDBRANCH   9  10
ENDBRANCH   6   9
ENDBRANCH   3   6
ENDBRANCH   1   2
BRANCH   1  17
ATOM     17  C   UNL     1      -4.936  -3.741  -3.303  1.00  0.00     0.042 C 
BRANCH  17  18
ATOM     18  C   UNL     1      -5.623  -4.819  -2.474  1.00  0.00     0.118 C 
BRANCH  18  19
ATOM     19  N   UNL     1      -6.566  -4.267  -1.507  1.00  0.00    -0.352 N 
ATOM     20  C   UNL     1      -7.920  -4.483  -1.408  1.00  0.00     0.251 C 
ATOM     21  H   UNL     1      -6.181  -3.658  -0.835  1.00  0.00     0.163 HD
ATOM     22  O   UNL     1      -8.607  -3.803  -0.652  1.00  0.00    -0.269 OA
BRANCH  20  23
ATOM     23  C   UNL     1      -8.539  -5.532  -2.242  1.00  0.00     0.039 A 
ATOM     24  C   UNL     1      -9.666  -5.227  -3.009  1.00  0.00     0.014 A 
ATOM     25  C   UNL     1      -7.962  -6.803  -2.300  1.00  0.00     0.014 A 
ATOM     26  C   UNL     1     -10.172  -6.179  -3.897  1.00  0.00     0.010 A 
ATOM     27  C   UNL     1      -8.414  -7.715  -3.243  1.00  0.00     0.010 A 
ATOM     28  C   UNL     1      -9.525  -7.416  -4.047  1.00  0.00    -0.014 A 
BRANCH  28  29
ATOM     29  C   UNL     1      -9.973  -8.437  -5.026  1.00  0.00     0.031 A 
ATOM     30  C   UNL     1     -10.390  -9.794  -4.530  1.00  0.00     0.074 A 
ATOM     31  C   UNL     1      -9.851  -8.204  -6.347  1.00  0.00     0.049 A 
ATOM     32  N   UNL     1     -10.605 -10.891  -5.205  1.00  0.00    -0.248 NA
ATOM     33  C   UNL     1     -10.537  -9.944  -3.072  1.00  0.00     0.031 C 
ATOM     34  C   UNL     1      -9.382  -6.954  -6.947  1.00  0.00     0.029 A 
ATOM     35  N   UNL     1     -10.059  -9.032  -7.422  1.00  0.00    -0.354 N 
ATOM     36  C   UNL     1     -10.845 -11.875  -4.255  1.00  0.00     0.074 A 
ATOM     37  C   UNL     1     -10.727 -11.250  -2.956  1.00  0.00     0.031 C 
ATOM     38  C   UNL     1      -9.316  -7.105  -8.280  1.00  0.00     0.029 A 
ATOM     39  C   UNL     1      -9.703  -8.469  -8.626  1.00  0.00     0.049 A 
ATOM     40  H   UNL     1     -10.429  -9.941  -7.340  1.00  0.00     0.167 HD
ATOM     41  C   UNL     1     -11.161 -13.178  -4.445  1.00  0.00     0.034 A 
ATOM     42  C   UNL     1      -9.667  -8.999  -9.865  1.00  0.00     0.034 A 
ATOM     43  C   UNL     1     -11.347 -13.773  -5.739  1.00  0.00     0.049 A 
ATOM     44  C   UNL     1     -10.103 -10.425 -10.063  1.00  0.00     0.074 A 
ATOM     45  C   UNL     1     -11.774 -15.052  -6.045  1.00  0.00     0.029 A 
ATOM     46  N   UNL     1     -11.120 -13.126  -6.944  1.00  0.00    -0.354 N 
ATOM     47  N   UNL     1     -10.475 -11.303  -9.163  1.00  0.00    -0.248 NA
ATOM     48  C   UNL     1     -10.151 -10.926 -11.444  1.00  0.00     0.031 C 
ATOM     49  C   UNL     1     -11.799 -15.181  -7.438  1.00  0.00     0.029 A 
ATOM     50  C   UNL     1     -11.400 -13.976  -7.998  1.00  0.00     0.049 A 
ATOM     51  H   UNL     1     -10.805 -12.198  -7.036  1.00  0.00     0.167 HD
ATOM     52  C   UNL     1     -10.836 -12.445  -9.868  1.00  0.00     0.074 A 
ATOM     53  C   UNL     1     -10.647 -12.145 -11.272  1.00  0.00     0.031 C 
ATOM     54  C   UNL     1     -11.272 -13.638  -9.393  1.00  0.00     0.034 A 
BRANCH  41  55
ATOM     55  C   UNL     1     -11.383 -14.024  -3.220  1.00  0.00     0.023 A 
ATOM     56  C   UNL     1     -12.529 -13.811  -2.426  1.00  0.00     0.012 A 
ATOM     57  C   UNL     1     -10.475 -15.038  -2.861  1.00  0.00     0.148 A 
ATOM     58  C   UNL     1     -12.744 -14.560  -1.271  1.00  0.00     0.002 A 
ATOM     59  C   UNL     1     -10.720 -15.812  -1.731  1.00  0.00     0.091 A 
ATOM     60  F   UNL     1      -9.375 -15.212  -3.608  1.00  0.00    -0.205 F 
ATOM     61  C   UNL     1     -11.845 -15.566  -0.928  1.00  0.00     0.022 A 
BRANCH  59  62
ATOM     62  S   UNL     1      -9.655 -17.182  -1.265  1.00  0.00     0.127 S 
ATOM     63  O   UNL     1      -8.828 -16.574  -0.225  1.00  0.00    -0.237 OA
ATOM     64  O   UNL     1     -10.614 -18.175  -0.778  1.00  0.00    -0.237 OA
ATOM     65  O   UNL     1      -8.960 -17.569  -2.485  1.00  0.00    -0.744 OA
ENDBRANCH  59  62
ENDBRANCH  41  55
BRANCH  42  66
ATOM     66  C   UNL     1      -9.265  -8.141 -11.014  1.00  0.00     0.023 A 
ATOM     67  C   UNL     1     -10.251  -7.690 -11.913  1.00  0.00     0.012 A 
ATOM     68  C   UNL     1      -7.935  -7.705 -11.177  1.00  0.00     0.148 A 
ATOM     69  C   UNL     1      -9.918  -6.834 -12.963  1.00  0.00     0.002 A 
ATOM     70  C   UNL     1      -7.619  -6.811 -12.194  1.00  0.00     0.091 A 
ATOM     71  F   UNL     1      -7.011  -8.151 -10.314  1.00  0.00    -0.205 F 
ATOM     72  C   UNL     1      -8.606  -6.385 -13.096  1.00  0.00     0.022 A 
BRANCH  70  73
ATOM     73  S   UNL     1      -5.991  -6.069 -12.360  1.00  0.00     0.127 S 
ATOM     74  O   UNL     1      -5.518  -6.663 -13.608  1.00  0.00    -0.237 OA
ATOM     75  O   UNL     1      -6.316  -4.644 -12.440  1.00  0.00    -0.237 OA
ATOM     76  O   UNL     1      -5.258  -6.451 -11.161  1.00  0.00    -0.744 OA
ENDBRANCH  70  73
ENDBRANCH  42  66
BRANCH  54  77
ATOM     77  C   UNL     1     -11.626 -14.709 -10.389  1.00  0.00     0.023 A 
ATOM     78  C   UNL     1     -10.602 -15.434 -11.027  1.00  0.00     0.012 A 
ATOM     79  C   UNL     1     -12.970 -15.078 -10.593  1.00  0.00     0.148 A 
ATOM     80  C   UNL     1     -10.912 -16.504 -11.866  1.00  0.00     0.002 A 
ATOM     81  C   UNL     1     -13.270 -16.172 -11.395  1.00  0.00     0.091 A 
ATOM     82  F   UNL     1     -13.928 -14.360  -9.987  1.00  0.00    -0.205 F 
ATOM     83  C   UNL     1     -12.243 -16.882 -12.038  1.00  0.00     0.022 A 
BRANCH  81  84
ATOM     84  S   UNL     1     -14.945 -16.789 -11.597  1.00  0.00     0.127 S 
ATOM     85  O   UNL     1     -15.236 -16.413 -12.980  1.00  0.00    -0.237 OA
ATOM     86  O   UNL     1     -14.775 -18.225 -11.377  1.00  0.00    -0.237 OA
ATOM     87  O   UNL     1     -15.747 -16.114 -10.586  1.00  0.00    -0.744 OA
ENDBRANCH  81  84
ENDBRANCH  54  77
ENDBRANCH  28  29
ENDBRANCH  20  23
ENDBRANCH  18  19
ENDBRANCH  17  18
ENDBRANCH   1  17
TORSDOF 18
