REMARK SMILES CCC1(C(=O)NCCCNC(=O)c2ccc(-c3c4nc(c(-c5cccc(S(=O)(=O)[O-])c5F)c5ccc([nH]5)c(-c5cccc(S(=O)(=O)[O-])c5F)c5nc(c(-c6cccc(S(=O)(=O)[O-])c6F)c6ccc3[nH]6)C=C5)C=C4)cc2)CCN(c2ncnc3c2CCCC3)CC1
REMARK SMILES IDX 9 1 8 2 7 3 6 4 4 5 5 6 3 8 76 9 90 10 77 11 89 12 78 13
REMARK SMILES IDX 2 14 1 15 79 16 80 17 84 18 81 19 83 20 85 21 82 22 88 23
REMARK SMILES IDX 86 24 87 25 10 26 11 27 12 29 13 30 14 31 75 32 15 33 74 34
REMARK SMILES IDX 16 35 17 36 18 37 68 38 19 39 73 40 67 41 69 42 20 43 72 44
REMARK SMILES IDX 66 45 65 46 21 48 53 49 33 50 52 51 34 52 37 53 51 54 70 55
REMARK SMILES IDX 35 56 36 57 50 59 71 60 38 61 22 62 23 63 31 64 24 65 26 66
REMARK SMILES IDX 32 67 25 68 27 69 28 70 29 71 30 72 54 73 55 74 63 75 56 76
REMARK SMILES IDX 58 77 64 78 57 79 59 80 60 81 61 82 62 83 39 84 40 85 48 86
REMARK SMILES IDX 41 87 43 88 49 89 42 90 44 91 45 92 46 93 47 94
REMARK H PARENT 6 7 10 28 69 47 37 58
REMARK Flexibility Score: inf
ROOT
ATOM      1  C   UNL     1       0.802   4.115   6.375  1.00  0.00     0.118 C 
ENDROOT
BRANCH   1   2
ATOM      2  C   UNL     1       1.145   3.955   4.902  1.00  0.00     0.042 C 
BRANCH   2   3
ATOM      3  C   UNL     1       1.965   2.713   4.565  1.00  0.00     0.117 C 
BRANCH   3   4
ATOM      4  N   UNL     1       1.181   1.493   4.598  1.00  0.00    -0.356 N 
ATOM      5  C   UNL     1       0.760   0.644   3.620  1.00  0.00     0.226 C 
ATOM      6  O   UNL     1       0.113  -0.329   4.029  1.00  0.00    -0.274 OA
ATOM      7  H   UNL     1       0.897   1.227   5.503  1.00  0.00     0.163 HD
BRANCH   5   8
ATOM      8  C   UNL     1       1.050   0.845   2.095  1.00  0.00     0.052 C 
ATOM      9  C   UNL     1       0.370   2.170   1.639  1.00  0.00     0.038 C 
ATOM     10  C   UNL     1       2.587   0.789   1.847  1.00  0.00     0.038 C 
ATOM     11  C   UNL     1       1.026   2.897   0.467  1.00  0.00     0.119 C 
ATOM     12  C   UNL     1       3.088   1.600   0.647  1.00  0.00     0.119 C 
ATOM     13  N   UNL     1       2.465   2.912   0.682  1.00  0.00    -0.356 N 
BRANCH   8  14
ATOM     14  C   UNL     1       0.362  -0.369   1.372  1.00  0.00     0.013 C 
ATOM     15  C   UNL     1       0.652  -0.587  -0.104  1.00  0.00     0.005 C 
ENDBRANCH   8  14
BRANCH  13  16
ATOM     16  C   UNL     1       3.156   3.948   0.047  1.00  0.00     0.135 A 
ATOM     17  N   UNL     1       3.765   3.698  -1.124  1.00  0.00    -0.219 NA
ATOM     18  C   UNL     1       3.254   5.193   0.674  1.00  0.00     0.016 A 
ATOM     19  C   UNL     1       4.450   4.715  -1.667  1.00  0.00     0.224 A 
ATOM     20  C   UNL     1       4.011   6.166   0.034  1.00  0.00     0.049 A 
ATOM     21  C   UNL     1       2.582   5.473   1.985  1.00  0.00     0.041 C 
ATOM     22  N   UNL     1       4.624   5.936  -1.143  1.00  0.00    -0.241 NA
ATOM     23  C   UNL     1       4.291   7.497   0.689  1.00  0.00     0.057 C 
ATOM     24  C   UNL     1       3.172   6.649   2.754  1.00  0.00     0.005 C 
ATOM     25  C   UNL     1       3.334   7.842   1.829  1.00  0.00     0.007 C 
ENDBRANCH  13  16
ENDBRANCH   5   8
ENDBRANCH   3   4
ENDBRANCH   2   3
ENDBRANCH   1   2
BRANCH   1  26
ATOM     26  N   UNL     1       1.978   4.390   7.192  1.00  0.00    -0.352 N 
ATOM     27  C   UNL     1       2.381   5.526   7.853  1.00  0.00     0.251 C 
ATOM     28  H   UNL     1       2.592   3.627   7.287  1.00  0.00     0.163 HD
ATOM     29  O   UNL     1       3.526   5.570   8.299  1.00  0.00    -0.269 OA
BRANCH  27  30
ATOM     30  C   UNL     1       1.481   6.692   8.028  1.00  0.00     0.039 A 
ATOM     31  C   UNL     1       2.037   7.978   8.029  1.00  0.00     0.014 A 
ATOM     32  C   UNL     1       0.112   6.542   8.250  1.00  0.00     0.014 A 
ATOM     33  C   UNL     1       1.217   9.099   8.190  1.00  0.00     0.010 A 
ATOM     34  C   UNL     1      -0.717   7.660   8.308  1.00  0.00     0.010 A 
ATOM     35  C   UNL     1      -0.175   8.953   8.294  1.00  0.00    -0.014 A 
BRANCH  35  36
ATOM     36  C   UNL     1      -1.080  10.130   8.387  1.00  0.00     0.031 A 
ATOM     37  C   UNL     1      -1.979  10.313   9.582  1.00  0.00     0.074 A 
ATOM     38  C   UNL     1      -1.169  10.984   7.348  1.00  0.00     0.049 A 
ATOM     39  N   UNL     1      -2.885  11.231   9.801  1.00  0.00    -0.248 NA
ATOM     40  C   UNL     1      -1.869   9.314  10.658  1.00  0.00     0.031 C 
ATOM     41  C   UNL     1      -0.418  10.872   6.096  1.00  0.00     0.029 A 
ATOM     42  N   UNL     1      -1.953  12.096   7.165  1.00  0.00    -0.354 N 
ATOM     43  C   UNL     1      -3.483  10.896  11.011  1.00  0.00     0.074 A 
ATOM     44  C   UNL     1      -2.860   9.671  11.461  1.00  0.00     0.031 C 
ATOM     45  C   UNL     1      -0.776  11.872   5.277  1.00  0.00     0.029 A 
ATOM     46  C   UNL     1      -1.805  12.677   5.927  1.00  0.00     0.049 A 
ATOM     47  H   UNL     1      -2.564  12.444   7.854  1.00  0.00     0.167 HD
ATOM     48  C   UNL     1      -4.441  11.560  11.700  1.00  0.00     0.034 A 
ATOM     49  C   UNL     1      -2.433  13.731   5.370  1.00  0.00     0.034 A 
ATOM     50  C   UNL     1      -5.027  12.802  11.271  1.00  0.00     0.049 A 
ATOM     51  C   UNL     1      -3.458  14.483   6.173  1.00  0.00     0.074 A 
ATOM     52  C   UNL     1      -5.927  13.608  11.946  1.00  0.00     0.029 A 
ATOM     53  N   UNL     1      -4.782  13.413  10.051  1.00  0.00    -0.354 N 
ATOM     54  N   UNL     1      -3.890  14.245   7.387  1.00  0.00    -0.248 NA
ATOM     55  C   UNL     1      -4.056  15.669   5.544  1.00  0.00     0.031 C 
ATOM     56  C   UNL     1      -6.250  14.690  11.120  1.00  0.00     0.029 A 
ATOM     57  C   UNL     1      -5.525  14.577   9.944  1.00  0.00     0.049 A 
ATOM     58  H   UNL     1      -4.169  13.070   9.361  1.00  0.00     0.167 HD
ATOM     59  C   UNL     1      -4.785  15.267   7.682  1.00  0.00     0.074 A 
ATOM     60  C   UNL     1      -4.817  16.138   6.525  1.00  0.00     0.031 C 
ATOM     61  C   UNL     1      -5.519  15.460   8.805  1.00  0.00     0.034 A 
BRANCH  48  62
ATOM     62  C   UNL     1      -4.887  10.974  13.017  1.00  0.00     0.023 A 
ATOM     63  C   UNL     1      -4.004  10.972  14.117  1.00  0.00     0.012 A 
ATOM     64  C   UNL     1      -6.188  10.459  13.179  1.00  0.00     0.148 A 
ATOM     65  C   UNL     1      -4.389  10.423  15.339  1.00  0.00     0.002 A 
ATOM     66  C   UNL     1      -6.582   9.959  14.415  1.00  0.00     0.091 A 
ATOM     67  F   UNL     1      -7.010  10.449  12.120  1.00  0.00    -0.205 F 
ATOM     68  C   UNL     1      -5.680   9.925  15.491  1.00  0.00     0.022 A 
BRANCH  66  69
ATOM     69  S   UNL     1      -8.251   9.373  14.733  1.00  0.00     0.127 S 
ATOM     70  O   UNL     1      -8.050   7.926  14.785  1.00  0.00    -0.237 OA
ATOM     71  O   UNL     1      -8.555   9.992  16.023  1.00  0.00    -0.237 OA
ATOM     72  O   UNL     1      -9.061   9.856  13.624  1.00  0.00    -0.744 OA
ENDBRANCH  66  69
ENDBRANCH  48  62
BRANCH  49  73
ATOM     73  C   UNL     1      -2.055  14.168   3.997  1.00  0.00     0.023 A 
ATOM     74  C   UNL     1      -1.325  15.360   3.825  1.00  0.00     0.012 A 
ATOM     75  C   UNL     1      -2.359  13.379   2.871  1.00  0.00     0.148 A 
ATOM     76  C   UNL     1      -0.925  15.771   2.554  1.00  0.00     0.002 A 
ATOM     77  C   UNL     1      -1.907  13.764   1.614  1.00  0.00     0.091 A 
ATOM     78  F   UNL     1      -3.059  12.252   3.057  1.00  0.00    -0.205 F 
ATOM     79  C   UNL     1      -1.204  14.969   1.451  1.00  0.00     0.022 A 
BRANCH  77  80
ATOM     80  S   UNL     1      -2.095  12.727   0.160  1.00  0.00     0.127 S 
ATOM     81  O   UNL     1      -3.011  13.519  -0.656  1.00  0.00    -0.237 OA
ATOM     82  O   UNL     1      -0.721  12.661  -0.339  1.00  0.00    -0.237 OA
ATOM     83  O   UNL     1      -2.620  11.457   0.645  1.00  0.00    -0.744 OA
ENDBRANCH  77  80
ENDBRANCH  49  73
BRANCH  61  84
ATOM     84  C   UNL     1      -6.405  16.678   8.862  1.00  0.00     0.023 A 
ATOM     85  C   UNL     1      -7.577  16.733   8.083  1.00  0.00     0.012 A 
ATOM     86  C   UNL     1      -6.112  17.736   9.746  1.00  0.00     0.148 A 
ATOM     87  C   UNL     1      -8.428  17.836   8.159  1.00  0.00     0.002 A 
ATOM     88  C   UNL     1      -6.990  18.807   9.854  1.00  0.00     0.091 A 
ATOM     89  F   UNL     1      -4.982  17.674  10.465  1.00  0.00    -0.205 F 
ATOM     90  C   UNL     1      -8.141  18.865   9.052  1.00  0.00     0.022 A 
BRANCH  88  91
ATOM     91  S   UNL     1      -6.754  20.130  11.047  1.00  0.00     0.127 S 
ATOM     92  O   UNL     1      -6.376  21.246  10.183  1.00  0.00    -0.237 OA
ATOM     93  O   UNL     1      -8.084  20.246  11.647  1.00  0.00    -0.237 OA
ATOM     94  O   UNL     1      -5.718  19.667  11.960  1.00  0.00    -0.744 OA
ENDBRANCH  88  91
ENDBRANCH  61  84
ENDBRANCH  35  36
ENDBRANCH  27  30
ENDBRANCH   1  26
TORSDOF 15
