REMARK SMILES CCn1cc(CC(=O)NCCCNC(=O)c2ccc(-c3c4nc(c(-c5cccc(S(=O)(=O)[O-])c5F)c5ccc([nH]5)c(-c5cccc(S(=O)(=O)[O-])c5F)c5nc(c(-c6cccc(S(=O)(=O)[O-])c6F)c6ccc3[nH]6)C=C5)C=C4)cc2)c2ccccc21
REMARK SMILES IDX 11 1 10 2 9 3 7 4 8 5 6 7 5 8 3 9 4 10 84 11 79 12 83 13
REMARK SMILES IDX 80 14 82 15 81 16 2 17 1 18 12 19 13 20 14 21 15 23 16 24
REMARK SMILES IDX 17 25 78 26 18 27 77 28 19 29 20 30 21 31 71 32 22 33 76 34
REMARK SMILES IDX 70 35 72 36 23 37 75 38 69 39 68 40 24 42 56 43 36 44 55 45
REMARK SMILES IDX 37 46 40 47 54 48 73 49 38 50 39 51 53 53 74 54 41 55 25 56
REMARK SMILES IDX 26 57 34 58 27 59 29 60 35 61 28 62 30 63 31 64 32 65 33 66
REMARK SMILES IDX 57 67 58 68 66 69 59 70 61 71 67 72 60 73 62 74 63 75 64 76
REMARK SMILES IDX 65 77 42 78 43 79 51 80 44 81 46 82 52 83 45 84 47 85 48 86
REMARK SMILES IDX 49 87 50 88
REMARK H PARENT 9 6 13 22 72 41 40 52
REMARK Flexibility Score: inf
ROOT
ATOM      1  C   UNL     1      -2.413   1.981   4.082  1.00  0.00     0.042 C 
ENDROOT
BRANCH   1   2
ATOM      2  C   UNL     1      -2.144   3.407   3.590  1.00  0.00     0.117 C 
BRANCH   2   3
ATOM      3  N   UNL     1      -1.348   4.188   4.524  1.00  0.00    -0.356 N 
ATOM      4  C   UNL     1      -0.048   4.597   4.434  1.00  0.00     0.224 C 
ATOM      5  O   UNL     1       0.416   5.266   5.362  1.00  0.00    -0.275 OA
ATOM      6  H   UNL     1      -1.817   4.463   5.345  1.00  0.00     0.163 HD
BRANCH   4   7
ATOM      7  C   UNL     1       0.779   4.287   3.196  1.00  0.00     0.137 C 
BRANCH   7   8
ATOM      8  C   UNL     1       1.046   2.828   3.023  1.00  0.00    -0.013 A 
ATOM      9  N   UNL     1       0.988   0.751   2.199  1.00  0.00    -0.347 N 
ATOM     10  C   UNL     1       0.666   2.059   1.942  1.00  0.00     0.091 A 
ATOM     11  C   UNL     1       1.647   0.659   3.409  1.00  0.00     0.048 A 
ATOM     12  C   UNL     1       1.708   1.953   3.940  1.00  0.00     0.003 A 
ATOM     13  C   UNL     1       2.173  -0.445   4.101  1.00  0.00     0.027 A 
ATOM     14  C   UNL     1       2.322   2.147   5.196  1.00  0.00     0.010 A 
ATOM     15  C   UNL     1       2.773  -0.225   5.345  1.00  0.00     0.002 A 
ATOM     16  C   UNL     1       2.850   1.053   5.887  1.00  0.00     0.001 A 
BRANCH   9  17
ATOM     17  C   UNL     1       0.565  -0.358   1.355  1.00  0.00     0.119 C 
ATOM     18  C   UNL     1       1.063  -0.256  -0.077  1.00  0.00     0.027 C 
ENDBRANCH   9  17
ENDBRANCH   7   8
ENDBRANCH   4   7
ENDBRANCH   2   3
ENDBRANCH   1   2
BRANCH   1  19
ATOM     19  C   UNL     1      -3.232   1.916   5.373  1.00  0.00     0.118 C 
BRANCH  19  20
ATOM     20  N   UNL     1      -4.489   2.634   5.301  1.00  0.00    -0.352 N 
ATOM     21  C   UNL     1      -5.775   2.336   4.949  1.00  0.00     0.251 C 
ATOM     22  H   UNL     1      -4.392   3.575   5.574  1.00  0.00     0.163 HD
ATOM     23  O   UNL     1      -6.585   3.255   5.109  1.00  0.00    -0.269 OA
BRANCH  21  24
ATOM     24  C   UNL     1      -6.253   1.052   4.365  1.00  0.00     0.039 A 
ATOM     25  C   UNL     1      -5.469  -0.072   4.106  1.00  0.00     0.014 A 
ATOM     26  C   UNL     1      -7.615   1.014   4.004  1.00  0.00     0.014 A 
ATOM     27  C   UNL     1      -6.012  -1.169   3.434  1.00  0.00     0.010 A 
ATOM     28  C   UNL     1      -8.163  -0.082   3.344  1.00  0.00     0.010 A 
ATOM     29  C   UNL     1      -7.347  -1.157   3.014  1.00  0.00    -0.014 A 
BRANCH  29  30
ATOM     30  C   UNL     1      -7.846  -2.309   2.264  1.00  0.00     0.031 A 
ATOM     31  C   UNL     1      -7.782  -3.626   2.963  1.00  0.00     0.074 A 
ATOM     32  C   UNL     1      -8.415  -2.219   1.043  1.00  0.00     0.049 A 
ATOM     33  N   UNL     1      -7.077  -4.666   2.646  1.00  0.00    -0.248 NA
ATOM     34  C   UNL     1      -8.536  -3.769   4.216  1.00  0.00     0.031 C 
ATOM     35  C   UNL     1      -8.827  -1.015   0.315  1.00  0.00     0.029 A 
ATOM     36  N   UNL     1      -8.850  -3.228   0.235  1.00  0.00    -0.354 N 
ATOM     37  C   UNL     1      -7.436  -5.662   3.555  1.00  0.00     0.074 A 
ATOM     38  C   UNL     1      -8.245  -5.024   4.563  1.00  0.00     0.031 C 
ATOM     39  C   UNL     1      -9.655  -1.367  -0.695  1.00  0.00     0.029 A 
ATOM     40  C   UNL     1      -9.708  -2.815  -0.778  1.00  0.00     0.049 A 
ATOM     41  H   UNL     1      -8.579  -4.167   0.359  1.00  0.00     0.167 HD
ATOM     42  C   UNL     1      -7.186  -6.984   3.343  1.00  0.00     0.034 A 
ATOM     43  C   UNL     1     -10.453  -3.620  -1.573  1.00  0.00     0.034 A 
ATOM     44  C   UNL     1      -6.246  -7.206   2.283  1.00  0.00     0.049 A 
ATOM     45  C   UNL     1      -9.806  -4.953  -1.562  1.00  0.00     0.074 A 
ATOM     46  C   UNL     1      -4.918  -6.904   2.066  1.00  0.00     0.029 A 
ATOM     47  N   UNL     1      -6.755  -7.562   1.060  1.00  0.00    -0.354 N 
ATOM     48  N   UNL     1      -8.631  -5.197  -2.069  1.00  0.00    -0.248 NA
ATOM     49  C   UNL     1     -10.323  -5.963  -0.655  1.00  0.00     0.031 C 
ATOM     50  C   UNL     1      -4.828  -6.629   0.670  1.00  0.00     0.029 A 
ATOM     51  C   UNL     1      -6.100  -6.809   0.123  1.00  0.00     0.049 A 
ATOM     52  H   UNL     1      -7.457  -8.231   0.888  1.00  0.00     0.167 HD
ATOM     53  C   UNL     1      -8.084  -6.158  -1.232  1.00  0.00     0.074 A 
ATOM     54  C   UNL     1      -9.210  -6.672  -0.458  1.00  0.00     0.031 C 
ATOM     55  C   UNL     1      -6.734  -6.247  -1.049  1.00  0.00     0.034 A 
BRANCH  42  56
ATOM     56  C   UNL     1      -8.007  -8.111   3.908  1.00  0.00     0.023 A 
ATOM     57  C   UNL     1      -7.448  -9.407   3.935  1.00  0.00     0.012 A 
ATOM     58  C   UNL     1      -9.390  -7.995   4.174  1.00  0.00     0.148 A 
ATOM     59  C   UNL     1      -8.230 -10.535   4.209  1.00  0.00     0.002 A 
ATOM     60  C   UNL     1     -10.149  -9.110   4.510  1.00  0.00     0.091 A 
ATOM     61  F   UNL     1      -9.999  -6.819   3.981  1.00  0.00    -0.205 F 
ATOM     62  C   UNL     1      -9.579 -10.386   4.510  1.00  0.00     0.022 A 
BRANCH  60  63
ATOM     63  S   UNL     1     -11.887  -8.963   4.939  1.00  0.00     0.127 S 
ATOM     64  O   UNL     1     -12.529  -9.463   3.721  1.00  0.00    -0.237 OA
ATOM     65  O   UNL     1     -11.986  -9.858   6.097  1.00  0.00    -0.237 OA
ATOM     66  O   UNL     1     -12.090  -7.563   5.249  1.00  0.00    -0.744 OA
ENDBRANCH  60  63
ENDBRANCH  42  56
BRANCH  43  67
ATOM     67  C   UNL     1     -11.817  -3.426  -2.124  1.00  0.00     0.023 A 
ATOM     68  C   UNL     1     -12.280  -4.299  -3.131  1.00  0.00     0.012 A 
ATOM     69  C   UNL     1     -12.766  -2.612  -1.467  1.00  0.00     0.148 A 
ATOM     70  C   UNL     1     -13.644  -4.406  -3.428  1.00  0.00     0.002 A 
ATOM     71  C   UNL     1     -14.121  -2.714  -1.774  1.00  0.00     0.091 A 
ATOM     72  F   UNL     1     -12.360  -1.814  -0.471  1.00  0.00    -0.205 F 
ATOM     73  C   UNL     1     -14.566  -3.624  -2.741  1.00  0.00     0.022 A 
BRANCH  71  74
ATOM     74  S   UNL     1     -15.366  -1.740  -0.917  1.00  0.00     0.127 S 
ATOM     75  O   UNL     1     -16.244  -1.329  -2.014  1.00  0.00    -0.237 OA
ATOM     76  O   UNL     1     -15.944  -2.722  -0.005  1.00  0.00    -0.237 OA
ATOM     77  O   UNL     1     -14.640  -0.639  -0.293  1.00  0.00    -0.744 OA
ENDBRANCH  71  74
ENDBRANCH  43  67
BRANCH  55  78
ATOM     78  C   UNL     1      -5.843  -5.447  -1.965  1.00  0.00     0.023 A 
ATOM     79  C   UNL     1      -5.815  -4.036  -1.923  1.00  0.00     0.012 A 
ATOM     80  C   UNL     1      -4.885  -6.125  -2.735  1.00  0.00     0.148 A 
ATOM     81  C   UNL     1      -4.859  -3.317  -2.645  1.00  0.00     0.002 A 
ATOM     82  C   UNL     1      -3.911  -5.409  -3.420  1.00  0.00     0.091 A 
ATOM     83  F   UNL     1      -4.918  -7.466  -2.746  1.00  0.00    -0.205 F 
ATOM     84  C   UNL     1      -3.898  -4.005  -3.383  1.00  0.00     0.022 A 
BRANCH  82  85
ATOM     85  S   UNL     1      -2.570  -6.220  -4.293  1.00  0.00     0.127 S 
ATOM     86  O   UNL     1      -2.859  -5.879  -5.685  1.00  0.00    -0.237 OA
ATOM     87  O   UNL     1      -1.392  -5.555  -3.733  1.00  0.00    -0.237 OA
ATOM     88  O   UNL     1      -2.670  -7.637  -3.966  1.00  0.00    -0.744 OA
ENDBRANCH  82  85
ENDBRANCH  55  78
ENDBRANCH  29  30
ENDBRANCH  21  24
ENDBRANCH  19  20
ENDBRANCH   1  19
TORSDOF 15
