REMARK SMILES Cc1c(CC(=O)N2CCC(C(=O)NCCCNC(=O)c3ccc(-c4c5nc(c(-c6cccc(S(=O)(=O)[O-])c6F)c6ccc([nH]6)c(-c6cccc(S(=O)(=O)[O-])c6F)c6nc(c(-c7cccc(S(=O)(=O)[O-])c7F)c7ccc4[nH]7)C=C6)C=C5)cc3)(c3ccccc3)CC2)c(=O)oc2c(C)c(O)ccc12
REMARK SMILES IDX 15 1 14 2 13 3 11 4 12 5 10 7 5 8 6 9 7 10 8 11 90 12 9 13
REMARK SMILES IDX 89 14 4 15 3 16 1 17 2 18 101 19 91 20 94 21 100 22 92 23
REMARK SMILES IDX 93 24 95 25 99 26 96 27 97 28 98 29 83 31 84 32 88 33 85 34
REMARK SMILES IDX 87 35 86 36 16 37 17 38 18 39 19 41 20 42 21 43 82 44 22 45
REMARK SMILES IDX 81 46 23 47 24 48 25 49 75 50 26 51 80 52 74 53 76 54 27 55
REMARK SMILES IDX 79 56 73 57 72 58 28 60 60 61 40 62 59 63 41 64 44 65 58 66
REMARK SMILES IDX 77 67 42 68 43 69 57 71 78 72 45 73 29 74 30 75 38 76 31 77
REMARK SMILES IDX 33 78 39 79 32 80 34 81 35 82 36 83 37 84 61 85 62 86 70 87
REMARK SMILES IDX 63 88 65 89 71 90 64 91 66 92 67 93 68 94 69 95 46 96 47 97
REMARK SMILES IDX 55 98 48 99 50 100 56 101 49 102 51 103 52 104 53 105 54 106
REMARK H PARENT 13 6 98 30 17 40 76 59 44 70
REMARK Flexibility Score: inf
ROOT
ATOM      1  C   UNL     1      -2.484   0.047  -3.967  1.00  0.00     0.042 C 
ENDROOT
BRANCH   1   2
ATOM      2  C   UNL     1      -2.831   0.466  -2.542  1.00  0.00     0.117 C 
BRANCH   2   3
ATOM      3  N   UNL     1      -4.268   0.530  -2.304  1.00  0.00    -0.355 N 
ATOM      4  C   UNL     1      -5.111  -0.117  -1.440  1.00  0.00     0.230 C 
ATOM      5  O   UNL     1      -6.234   0.394  -1.381  1.00  0.00    -0.274 OA
ATOM      6  H   UNL     1      -4.730   1.174  -2.887  1.00  0.00     0.163 HD
BRANCH   4   7
ATOM      7  C   UNL     1      -4.645  -1.311  -0.526  1.00  0.00     0.077 C 
ATOM      8  C   UNL     1      -0.543  -2.543  -0.063  1.00  0.00     0.227 C 
ATOM      9  O   UNL     1      -0.066  -3.031  -1.093  1.00  0.00    -0.275 OA
ATOM     10  N   UNL     1      -1.908  -2.287   0.037  1.00  0.00    -0.342 N 
ATOM     11  C   UNL     1      -2.804  -3.129  -0.752  1.00  0.00     0.121 C 
ATOM     12  C   UNL     1      -2.542  -1.450   1.040  1.00  0.00     0.121 C 
ATOM     13  C   UNL     1      -3.952  -2.377  -1.410  1.00  0.00     0.043 C 
ATOM     14  C   UNL     1      -3.709  -0.629   0.510  1.00  0.00     0.043 C 
BRANCH   8  15
ATOM     15  C   UNL     1       0.383  -2.389   1.157  1.00  0.00     0.143 C 
BRANCH  15  16
ATOM     16  C   UNL     1       0.421  -1.061   1.867  1.00  0.00     0.051 A 
ATOM     17  C   UNL     1       1.210   0.236  -0.142  1.00  0.00     0.046 C 
ATOM     18  C   UNL     1       0.723   0.118   1.280  1.00  0.00    -0.029 A 
ATOM     19  C   UNL     1       0.484   1.367   2.033  1.00  0.00     0.021 A 
ATOM     20  C   UNL     1       0.018  -1.139   3.300  1.00  0.00     0.340 A 
ATOM     21  C   UNL     1       0.089   1.294   3.371  1.00  0.00     0.145 A 
ATOM     22  C   UNL     1       0.558   2.640   1.455  1.00  0.00     0.016 A 
ATOM     23  O   UNL     1      -0.262  -2.201   3.846  1.00  0.00    -0.246 OA
ATOM     24  O   UNL     1      -0.051   0.046   4.003  1.00  0.00    -0.422 OA
ATOM     25  C   UNL     1      -0.226   2.427   4.144  1.00  0.00     0.034 A 
ATOM     26  C   UNL     1       0.228   3.785   2.189  1.00  0.00     0.047 A 
ATOM     27  C   UNL     1      -0.648   2.268   5.578  1.00  0.00     0.052 C 
ATOM     28  C   UNL     1      -0.165   3.672   3.521  1.00  0.00     0.122 A 
BRANCH  28  29
ATOM     29  O   UNL     1      -0.506   4.790   4.227  1.00  0.00    -0.508 OA
ATOM     30  H   UNL     1      -0.771   4.716   5.123  1.00  0.00     0.293 HD
ENDBRANCH  28  29
ENDBRANCH  15  16
ENDBRANCH   8  15
BRANCH   7  31
ATOM     31  C   UNL     1      -5.795  -2.051   0.243  1.00  0.00    -0.032 A 
ATOM     32  C   UNL     1      -7.152  -1.952  -0.106  1.00  0.00     0.005 A 
ATOM     33  C   UNL     1      -5.500  -2.928   1.310  1.00  0.00     0.005 A 
ATOM     34  C   UNL     1      -8.152  -2.623   0.613  1.00  0.00     0.000 A 
ATOM     35  C   UNL     1      -6.490  -3.613   2.020  1.00  0.00     0.000 A 
ATOM     36  C   UNL     1      -7.823  -3.449   1.679  1.00  0.00     0.000 A 
ENDBRANCH   7  31
ENDBRANCH   4   7
ENDBRANCH   2   3
ENDBRANCH   1   2
BRANCH   1  37
ATOM     37  C   UNL     1      -3.028   0.978  -5.043  1.00  0.00     0.118 C 
BRANCH  37  38
ATOM     38  N   UNL     1      -2.425   2.303  -4.990  1.00  0.00    -0.352 N 
ATOM     39  C   UNL     1      -1.595   2.915  -5.898  1.00  0.00     0.251 C 
ATOM     40  H   UNL     1      -2.643   2.836  -4.191  1.00  0.00     0.163 HD
ATOM     41  O   UNL     1      -1.011   3.952  -5.592  1.00  0.00    -0.269 OA
BRANCH  39  42
ATOM     42  C   UNL     1      -1.400   2.316  -7.234  1.00  0.00     0.039 A 
ATOM     43  C   UNL     1      -0.104   2.183  -7.741  1.00  0.00     0.014 A 
ATOM     44  C   UNL     1      -2.500   1.896  -7.988  1.00  0.00     0.014 A 
ATOM     45  C   UNL     1       0.093   1.576  -8.983  1.00  0.00     0.010 A 
ATOM     46  C   UNL     1      -2.299   1.236  -9.195  1.00  0.00     0.010 A 
ATOM     47  C   UNL     1      -1.002   1.082  -9.709  1.00  0.00    -0.014 A 
BRANCH  47  48
ATOM     48  C   UNL     1      -0.830   0.433 -11.029  1.00  0.00     0.031 A 
ATOM     49  C   UNL     1      -1.363   1.106 -12.261  1.00  0.00     0.074 A 
ATOM     50  C   UNL     1      -0.285  -0.796 -11.110  1.00  0.00     0.049 A 
ATOM     51  N   UNL     1      -1.395   0.664 -13.490  1.00  0.00    -0.248 NA
ATOM     52  C   UNL     1      -1.959   2.442 -12.086  1.00  0.00     0.031 C 
ATOM     53  C   UNL     1       0.215  -1.575  -9.976  1.00  0.00     0.029 A 
ATOM     54  N   UNL     1      -0.094  -1.618 -12.192  1.00  0.00    -0.354 N 
ATOM     55  C   UNL     1      -2.050   1.643 -14.225  1.00  0.00     0.074 A 
ATOM     56  C   UNL     1      -2.411   2.699 -13.306  1.00  0.00     0.031 C 
ATOM     57  C   UNL     1       0.647  -2.767 -10.421  1.00  0.00     0.029 A 
ATOM     58  C   UNL     1       0.432  -2.845 -11.865  1.00  0.00     0.049 A 
ATOM     59  H   UNL     1      -0.313  -1.355 -13.115  1.00  0.00     0.167 HD
ATOM     60  C   UNL     1      -2.309   1.669 -15.552  1.00  0.00     0.034 A 
ATOM     61  C   UNL     1       0.700  -3.917 -12.636  1.00  0.00     0.034 A 
ATOM     62  C   UNL     1      -1.905   0.645 -16.473  1.00  0.00     0.049 A 
ATOM     63  C   UNL     1       0.440  -3.850 -14.114  1.00  0.00     0.074 A 
ATOM     64  C   UNL     1      -2.034   0.634 -17.850  1.00  0.00     0.029 A 
ATOM     65  N   UNL     1      -1.306  -0.551 -16.113  1.00  0.00    -0.354 N 
ATOM     66  N   UNL     1      -0.059  -2.861 -14.813  1.00  0.00    -0.248 NA
ATOM     67  C   UNL     1       0.804  -5.029 -14.914  1.00  0.00     0.031 C 
ATOM     68  C   UNL     1      -1.531  -0.581 -18.323  1.00  0.00     0.029 A 
ATOM     69  C   UNL     1      -1.069  -1.314 -17.241  1.00  0.00     0.049 A 
ATOM     70  H   UNL     1      -1.083  -0.817 -15.192  1.00  0.00     0.167 HD
ATOM     71  C   UNL     1      -0.046  -3.284 -16.137  1.00  0.00     0.074 A 
ATOM     72  C   UNL     1       0.515  -4.619 -16.144  1.00  0.00     0.031 C 
ATOM     73  C   UNL     1      -0.469  -2.624 -17.242  1.00  0.00     0.034 A 
BRANCH  60  74
ATOM     74  C   UNL     1      -3.026   2.868 -16.105  1.00  0.00     0.023 A 
ATOM     75  C   UNL     1      -2.321   4.073 -16.288  1.00  0.00     0.012 A 
ATOM     76  C   UNL     1      -4.366   2.773 -16.523  1.00  0.00     0.148 A 
ATOM     77  C   UNL     1      -2.945   5.174 -16.871  1.00  0.00     0.002 A 
ATOM     78  C   UNL     1      -4.971   3.864 -17.134  1.00  0.00     0.091 A 
ATOM     79  F   UNL     1      -5.019   1.619 -16.319  1.00  0.00    -0.205 F 
ATOM     80  C   UNL     1      -4.264   5.066 -17.303  1.00  0.00     0.022 A 
BRANCH  78  81
ATOM     81  S   UNL     1      -6.647   3.812 -17.776  1.00  0.00     0.127 S 
ATOM     82  O   UNL     1      -7.327   4.769 -16.904  1.00  0.00    -0.237 OA
ATOM     83  O   UNL     1      -6.460   4.268 -19.154  1.00  0.00    -0.237 OA
ATOM     84  O   UNL     1      -7.089   2.431 -17.643  1.00  0.00    -0.744 OA
ENDBRANCH  78  81
ENDBRANCH  60  74
BRANCH  61  85
ATOM     85  C   UNL     1       1.312  -5.119 -12.007  1.00  0.00     0.023 A 
ATOM     86  C   UNL     1       2.696  -5.336 -12.147  1.00  0.00     0.012 A 
ATOM     87  C   UNL     1       0.553  -5.981 -11.193  1.00  0.00     0.148 A 
ATOM     88  C   UNL     1       3.317  -6.394 -11.483  1.00  0.00     0.002 A 
ATOM     89  C   UNL     1       1.185  -7.011 -10.505  1.00  0.00     0.091 A 
ATOM     90  F   UNL     1      -0.761  -5.745 -11.075  1.00  0.00    -0.205 F 
ATOM     91  C   UNL     1       2.565  -7.223 -10.655  1.00  0.00     0.022 A 
BRANCH  89  92
ATOM     92  S   UNL     1       0.325  -8.071  -9.338  1.00  0.00     0.127 S 
ATOM     93  O   UNL     1       0.542  -9.394  -9.919  1.00  0.00    -0.237 OA
ATOM     94  O   UNL     1       1.064  -7.810  -8.103  1.00  0.00    -0.237 OA
ATOM     95  O   UNL     1      -1.059  -7.616  -9.330  1.00  0.00    -0.744 OA
ENDBRANCH  89  92
ENDBRANCH  61  85
BRANCH  73  96
ATOM     96  C   UNL     1      -0.334  -3.303 -18.576  1.00  0.00     0.023 A 
ATOM     97  C   UNL     1      -1.275  -4.277 -18.957  1.00  0.00     0.012 A 
ATOM     98  C   UNL     1       0.631  -2.864 -19.505  1.00  0.00     0.148 A 
ATOM     99  C   UNL     1      -1.255  -4.809 -20.246  1.00  0.00     0.002 A 
ATOM    100  C   UNL     1       0.622  -3.371 -20.797  1.00  0.00     0.091 A 
ATOM    101  F   UNL     1       1.518  -1.938 -19.112  1.00  0.00    -0.205 F 
ATOM    102  C   UNL     1      -0.318  -4.347 -21.169  1.00  0.00     0.022 A 
BRANCH 100 103
ATOM    103  S   UNL     1       1.734  -2.780 -22.078  1.00  0.00     0.127 S 
ATOM    104  O   UNL     1       2.565  -3.960 -22.317  1.00  0.00    -0.237 OA
ATOM    105  O   UNL     1       0.810  -2.454 -23.164  1.00  0.00    -0.237 OA
ATOM    106  O   UNL     1       2.434  -1.636 -21.510  1.00  0.00    -0.744 OA
ENDBRANCH 100 103
ENDBRANCH  73  96
ENDBRANCH  47  48
ENDBRANCH  39  42
ENDBRANCH  37  38
ENDBRANCH   1  37
TORSDOF 17
