REMARK SMILES CC(C)(O)CCOc1ccc(C(=O)NCCCNC(=O)c2ccc(-c3c4nc(c(-c5cccc(S(=O)(=O)[O-])c5F)c5ccc([nH]5)c(-c5cccc(S(=O)(=O)[O-])c5F)c5nc(c(-c6cccc(S(=O)(=O)[O-])c6F)c6ccc3[nH]6)C=C5)C=C4)cc2)cc1
REMARK SMILES IDX 15 1 14 2 12 3 13 4 11 6 8 7 9 8 85 9 10 10 84 11 7 12 6 13
REMARK SMILES IDX 5 14 2 15 1 16 3 17 4 18 16 20 17 21 18 22 19 23 20 25 21 26
REMARK SMILES IDX 22 27 83 28 23 29 82 30 24 31 25 32 26 33 76 34 27 35 81 36
REMARK SMILES IDX 75 37 77 38 28 39 80 40 74 41 73 42 29 44 61 45 41 46 60 47
REMARK SMILES IDX 42 48 45 49 59 50 78 51 43 52 44 53 58 55 79 56 46 57 30 58
REMARK SMILES IDX 31 59 39 60 32 61 34 62 40 63 33 64 35 65 36 66 37 67 38 68
REMARK SMILES IDX 62 69 63 70 71 71 64 72 66 73 72 74 65 75 67 76 68 77 69 78
REMARK SMILES IDX 70 79 47 80 48 81 56 82 49 83 51 84 57 85 50 86 52 87 53 88
REMARK SMILES IDX 54 89 55 90
REMARK H PARENT 14 5 4 19 18 24 77 43 45 54
REMARK Flexibility Score: inf
ROOT
ATOM      1  C   UNL     1       0.308   1.223   3.592  1.00  0.00     0.118 C 
ENDROOT
BRANCH   1   2
ATOM      2  N   UNL     1       0.244   2.663   3.377  1.00  0.00    -0.352 N 
ATOM      3  C   UNL     1       0.131   3.401   2.220  1.00  0.00     0.251 C 
ATOM      4  O   UNL     1       0.175   4.628   2.279  1.00  0.00    -0.269 OA
ATOM      5  H   UNL     1       0.290   3.201   4.201  1.00  0.00     0.163 HD
BRANCH   3   6
ATOM      6  C   UNL     1       0.013   2.746   0.896  1.00  0.00     0.040 A 
ATOM      7  C   UNL     1       0.175   1.285  -1.480  1.00  0.00     0.119 A 
ATOM      8  C   UNL     1       0.898   2.473  -1.338  1.00  0.00     0.047 A 
ATOM      9  C   UNL     1      -0.794   0.971  -0.531  1.00  0.00     0.047 A 
ATOM     10  C   UNL     1       0.816   3.207  -0.152  1.00  0.00     0.017 A 
ATOM     11  C   UNL     1      -0.865   1.688   0.667  1.00  0.00     0.017 A 
BRANCH   7  12
ATOM     12  O   UNL     1       0.574   0.484  -2.512  1.00  0.00    -0.493 OA
BRANCH  12  13
ATOM     13  C   UNL     1       0.192  -0.896  -2.515  1.00  0.00     0.232 C 
BRANCH  13  14
ATOM     14  C   UNL     1       1.133  -1.877  -1.778  1.00  0.00     0.076 C 
BRANCH  14  15
ATOM     15  C   UNL     1       1.066  -1.953  -0.234  1.00  0.00     0.062 C 
ATOM     16  C   UNL     1       1.972  -0.915   0.437  1.00  0.00     0.042 C 
ATOM     17  C   UNL     1       1.496  -3.339   0.271  1.00  0.00     0.042 C 
BRANCH  15  18
ATOM     18  O   UNL     1      -0.289  -1.797   0.192  1.00  0.00    -0.390 OA
ATOM     19  H   UNL     1      -0.331  -1.845   1.159  1.00  0.00     0.211 HD
ENDBRANCH  15  18
ENDBRANCH  14  15
ENDBRANCH  13  14
ENDBRANCH  12  13
ENDBRANCH   7  12
ENDBRANCH   3   6
ENDBRANCH   1   2
BRANCH   1  20
ATOM     20  C   UNL     1       1.548   0.769   4.358  1.00  0.00     0.042 C 
BRANCH  20  21
ATOM     21  C   UNL     1       1.589   1.167   5.831  1.00  0.00     0.118 C 
BRANCH  21  22
ATOM     22  N   UNL     1       0.547   0.529   6.628  1.00  0.00    -0.352 N 
ATOM     23  C   UNL     1       0.638  -0.237   7.766  1.00  0.00     0.251 C 
ATOM     24  H   UNL     1      -0.369   0.670   6.297  1.00  0.00     0.163 HD
ATOM     25  O   UNL     1      -0.374  -0.803   8.185  1.00  0.00    -0.269 OA
BRANCH  23  26
ATOM     26  C   UNL     1       1.923  -0.409   8.482  1.00  0.00     0.039 A 
ATOM     27  C   UNL     1       2.232  -1.661   9.027  1.00  0.00     0.014 A 
ATOM     28  C   UNL     1       2.813   0.654   8.651  1.00  0.00     0.014 A 
ATOM     29  C   UNL     1       3.456  -1.861   9.675  1.00  0.00     0.010 A 
ATOM     30  C   UNL     1       4.066   0.432   9.220  1.00  0.00     0.010 A 
ATOM     31  C   UNL     1       4.401  -0.825   9.743  1.00  0.00    -0.014 A 
BRANCH  31  32
ATOM     32  C   UNL     1       5.747  -1.038  10.341  1.00  0.00     0.031 A 
ATOM     33  C   UNL     1       6.184  -0.248  11.546  1.00  0.00     0.074 A 
ATOM     34  C   UNL     1       6.614  -1.877   9.741  1.00  0.00     0.049 A 
ATOM     35  N   UNL     1       7.332  -0.265  12.173  1.00  0.00    -0.248 NA
ATOM     36  C   UNL     1       5.213   0.708  12.101  1.00  0.00     0.031 C 
ATOM     37  C   UNL     1       6.341  -2.650   8.528  1.00  0.00     0.029 A 
ATOM     38  N   UNL     1       7.910  -2.204  10.056  1.00  0.00    -0.354 N 
ATOM     39  C   UNL     1       7.239   0.704  13.165  1.00  0.00     0.074 A 
ATOM     40  C   UNL     1       5.933   1.315  13.033  1.00  0.00     0.031 C 
ATOM     41  C   UNL     1       7.425  -3.376   8.214  1.00  0.00     0.029 A 
ATOM     42  C   UNL     1       8.484  -3.093   9.177  1.00  0.00     0.049 A 
ATOM     43  H   UNL     1       8.383  -1.838  10.838  1.00  0.00     0.167 HD
ATOM     44  C   UNL     1       8.144   1.042  14.116  1.00  0.00     0.034 A 
ATOM     45  C   UNL     1       9.723  -3.621   9.147  1.00  0.00     0.034 A 
ATOM     46  C   UNL     1       9.429   0.411  14.261  1.00  0.00     0.049 A 
ATOM     47  C   UNL     1      10.706  -3.245  10.222  1.00  0.00     0.074 A 
ATOM     48  C   UNL     1      10.379   0.609  15.248  1.00  0.00     0.029 A 
ATOM     49  N   UNL     1       9.956  -0.524  13.383  1.00  0.00    -0.354 N 
ATOM     50  N   UNL     1      10.542  -2.447  11.249  1.00  0.00    -0.248 NA
ATOM     51  C   UNL     1      12.036  -3.868  10.152  1.00  0.00     0.031 C 
ATOM     52  C   UNL     1      11.497  -0.175  14.942  1.00  0.00     0.029 A 
ATOM     53  C   UNL     1      11.227  -0.895  13.789  1.00  0.00     0.049 A 
ATOM     54  H   UNL     1       9.494  -0.874  12.587  1.00  0.00     0.167 HD
ATOM     55  C   UNL     1      11.730  -2.502  11.969  1.00  0.00     0.074 A 
ATOM     56  C   UNL     1      12.600  -3.424  11.267  1.00  0.00     0.031 C 
ATOM     57  C   UNL     1      12.071  -1.844  13.105  1.00  0.00     0.034 A 
BRANCH  44  58
ATOM     58  C   UNL     1       7.759   2.130  15.087  1.00  0.00     0.023 A 
ATOM     59  C   UNL     1       6.729   1.905  16.025  1.00  0.00     0.012 A 
ATOM     60  C   UNL     1       8.428   3.370  15.087  1.00  0.00     0.148 A 
ATOM     61  C   UNL     1       6.332   2.913  16.904  1.00  0.00     0.002 A 
ATOM     62  C   UNL     1       8.062   4.351  16.002  1.00  0.00     0.091 A 
ATOM     63  F   UNL     1       9.392   3.579  14.179  1.00  0.00    -0.205 F 
ATOM     64  C   UNL     1       7.004   4.131  16.898  1.00  0.00     0.022 A 
BRANCH  62  65
ATOM     65  S   UNL     1       8.925   5.922  16.129  1.00  0.00     0.127 S 
ATOM     66  O   UNL     1       7.960   6.838  15.523  1.00  0.00    -0.237 OA
ATOM     67  O   UNL     1       9.082   6.072  17.576  1.00  0.00    -0.237 OA
ATOM     68  O   UNL     1      10.174   5.751  15.400  1.00  0.00    -0.744 OA
ENDBRANCH  62  65
ENDBRANCH  44  58
BRANCH  45  69
ATOM     69  C   UNL     1      10.073  -4.630   8.108  1.00  0.00     0.023 A 
ATOM     70  C   UNL     1      10.239  -5.976   8.490  1.00  0.00     0.012 A 
ATOM     71  C   UNL     1      10.194  -4.282   6.749  1.00  0.00     0.148 A 
ATOM     72  C   UNL     1      10.543  -6.953   7.541  1.00  0.00     0.002 A 
ATOM     73  C   UNL     1      10.443  -5.268   5.802  1.00  0.00     0.091 A 
ATOM     74  F   UNL     1      10.034  -2.995   6.409  1.00  0.00    -0.205 F 
ATOM     75  C   UNL     1      10.634  -6.601   6.198  1.00  0.00     0.022 A 
BRANCH  73  76
ATOM     76  S   UNL     1      10.453  -4.937   4.036  1.00  0.00     0.127 S 
ATOM     77  O   UNL     1      11.837  -5.241   3.682  1.00  0.00    -0.237 OA
ATOM     78  O   UNL     1       9.465  -5.901   3.548  1.00  0.00    -0.237 OA
ATOM     79  O   UNL     1      10.059  -3.543   3.891  1.00  0.00    -0.744 OA
ENDBRANCH  73  76
ENDBRANCH  45  69
BRANCH  57  80
ATOM     80  C   UNL     1      13.431  -2.121  13.693  1.00  0.00     0.023 A 
ATOM     81  C   UNL     1      14.591  -1.646  13.049  1.00  0.00     0.012 A 
ATOM     82  C   UNL     1      13.554  -2.797  14.924  1.00  0.00     0.148 A 
ATOM     83  C   UNL     1      15.852  -1.869  13.602  1.00  0.00     0.002 A 
ATOM     84  C   UNL     1      14.808  -2.967  15.496  1.00  0.00     0.091 A 
ATOM     85  F   UNL     1      12.441  -3.258  15.513  1.00  0.00    -0.205 F 
ATOM     86  C   UNL     1      15.959  -2.517  14.830  1.00  0.00     0.022 A 
BRANCH  84  87
ATOM     87  S   UNL     1      15.036  -3.700  17.121  1.00  0.00     0.127 S 
ATOM     88  O   UNL     1      15.653  -4.982  16.785  1.00  0.00    -0.237 OA
ATOM     89  O   UNL     1      15.932  -2.742  17.769  1.00  0.00    -0.237 OA
ATOM     90  O   UNL     1      13.708  -3.784  17.714  1.00  0.00    -0.744 OA
ENDBRANCH  84  87
ENDBRANCH  57  80
ENDBRANCH  31  32
ENDBRANCH  23  26
ENDBRANCH  21  22
ENDBRANCH  20  21
ENDBRANCH   1  20
TORSDOF 18
