REMARK SMILES C=C(C)CN(CC)c1ccc(F)cc1C(=O)NCCCNC(=O)c1ccc(-c2c3nc(c(-c4cccc(S(=O)(=O)[O-])c4F)c4ccc([nH]4)c(-c4cccc(S(=O)(=O)[O-])c4F)c4nc(c(-c5cccc(S(=O)(=O)[O-])c5F)c5ccc2[nH]5)C=C4)C=C3)cc1
REMARK SMILES IDX 19 1 18 2 17 3 15 4 16 5 14 7 8 8 9 9 10 10 13 11 11 12
REMARK SMILES IDX 12 13 5 14 4 15 2 16 1 17 3 18 6 19 7 20 20 21 21 22 22 23
REMARK SMILES IDX 23 25 24 26 25 27 86 28 26 29 85 30 27 31 28 32 29 33 79 34
REMARK SMILES IDX 30 35 84 36 78 37 80 38 31 39 83 40 77 41 76 42 32 44 64 45
REMARK SMILES IDX 44 46 63 47 45 48 48 49 62 50 81 51 46 52 47 53 61 55 82 56
REMARK SMILES IDX 49 57 33 58 34 59 42 60 35 61 37 62 43 63 36 64 38 65 39 66
REMARK SMILES IDX 40 67 41 68 65 69 66 70 74 71 67 72 69 73 75 74 68 75 70 76
REMARK SMILES IDX 71 77 72 78 73 79 50 80 51 81 59 82 52 83 54 84 60 85 53 86
REMARK SMILES IDX 55 87 56 88 57 89 58 90
REMARK H PARENT 17 6 21 24 80 43 48 54
REMARK Flexibility Score: inf
ROOT
ATOM      1  C   UNL     1       1.898  -5.816   1.007  1.00  0.00     0.042 C 
ENDROOT
BRANCH   1   2
ATOM      2  C   UNL     1       1.859  -4.921  -0.209  1.00  0.00     0.118 C 
BRANCH   2   3
ATOM      3  N   UNL     1       2.507  -5.429  -1.385  1.00  0.00    -0.352 N 
ATOM      4  C   UNL     1       2.517  -4.861  -2.632  1.00  0.00     0.253 C 
ATOM      5  O   UNL     1       3.241  -5.369  -3.491  1.00  0.00    -0.269 OA
ATOM      6  H   UNL     1       2.996  -6.278  -1.285  1.00  0.00     0.163 HD
BRANCH   4   7
ATOM      7  C   UNL     1       1.612  -3.741  -3.028  1.00  0.00     0.066 A 
ATOM      8  C   UNL     1       1.439  -2.480  -2.395  1.00  0.00     0.050 A 
ATOM      9  C   UNL     1       0.578  -1.560  -3.036  1.00  0.00     0.030 A 
ATOM     10  C   UNL     1      -0.099  -1.859  -4.220  1.00  0.00     0.041 A 
ATOM     11  C   UNL     1       0.934  -4.024  -4.235  1.00  0.00     0.055 A 
ATOM     12  C   UNL     1       0.088  -3.092  -4.810  1.00  0.00     0.124 A 
ATOM     13  F   UNL     1      -0.539  -3.381  -5.957  1.00  0.00    -0.207 F 
BRANCH   8  14
ATOM     14  N   UNL     1       2.081  -2.060  -1.231  1.00  0.00    -0.367 N 
BRANCH  14  15
ATOM     15  C   UNL     1       1.294  -1.810  -0.003  1.00  0.00     0.146 C 
BRANCH  15  16
ATOM     16  C   UNL     1       0.507  -0.524   0.017  1.00  0.00    -0.061 C 
ATOM     17  C   UNL     1       1.069   0.697   0.008  1.00  0.00     0.009 C 
ATOM     18  C   UNL     1      -0.983  -0.701   0.158  1.00  0.00     0.041 C 
ENDBRANCH  15  16
ENDBRANCH  14  15
BRANCH  14  19
ATOM     19  C   UNL     1       3.422  -1.470  -1.324  1.00  0.00     0.113 C 
ATOM     20  C   UNL     1       4.499  -2.466  -1.725  1.00  0.00     0.027 C 
ENDBRANCH  14  19
ENDBRANCH   8  14
ENDBRANCH   4   7
ENDBRANCH   2   3
ENDBRANCH   1   2
BRANCH   1  21
ATOM     21  C   UNL     1       3.307  -6.162   1.467  1.00  0.00     0.118 C 
BRANCH  21  22
ATOM     22  N   UNL     1       4.146  -5.017   1.824  1.00  0.00    -0.352 N 
ATOM     23  C   UNL     1       4.687  -4.595   3.019  1.00  0.00     0.251 C 
ATOM     24  H   UNL     1       4.368  -4.434   1.061  1.00  0.00     0.163 HD
ATOM     25  O   UNL     1       5.340  -3.553   3.047  1.00  0.00    -0.269 OA
BRANCH  23  26
ATOM     26  C   UNL     1       4.445  -5.343   4.275  1.00  0.00     0.039 A 
ATOM     27  C   UNL     1       4.263  -4.646   5.474  1.00  0.00     0.014 A 
ATOM     28  C   UNL     1       4.353  -6.729   4.278  1.00  0.00     0.014 A 
ATOM     29  C   UNL     1       3.867  -5.335   6.628  1.00  0.00     0.010 A 
ATOM     30  C   UNL     1       3.784  -7.380   5.362  1.00  0.00     0.010 A 
ATOM     31  C   UNL     1       3.553  -6.702   6.564  1.00  0.00    -0.014 A 
BRANCH  31  32
ATOM     32  C   UNL     1       3.007  -7.463   7.723  1.00  0.00     0.031 A 
ATOM     33  C   UNL     1       3.660  -8.759   8.146  1.00  0.00     0.074 A 
ATOM     34  C   UNL     1       1.858  -7.074   8.314  1.00  0.00     0.049 A 
ATOM     35  N   UNL     1       3.242  -9.652   9.004  1.00  0.00    -0.248 NA
ATOM     36  C   UNL     1       4.914  -9.137   7.466  1.00  0.00     0.031 C 
ATOM     37  C   UNL     1       1.058  -5.906   7.935  1.00  0.00     0.029 A 
ATOM     38  N   UNL     1       1.146  -7.634   9.347  1.00  0.00    -0.354 N 
ATOM     39  C   UNL     1       4.129 -10.719   8.904  1.00  0.00     0.074 A 
ATOM     40  C   UNL     1       5.075 -10.389   7.864  1.00  0.00     0.031 C 
ATOM     41  C   UNL     1      -0.009  -5.818   8.744  1.00  0.00     0.029 A 
ATOM     42  C   UNL     1       0.003  -6.941   9.675  1.00  0.00     0.049 A 
ATOM     43  H   UNL     1       1.428  -8.456   9.810  1.00  0.00     0.167 HD
ATOM     44  C   UNL     1       4.192 -11.847   9.648  1.00  0.00     0.034 A 
ATOM     45  C   UNL     1      -0.929  -7.179  10.621  1.00  0.00     0.034 A 
ATOM     46  C   UNL     1       3.347 -12.099  10.779  1.00  0.00     0.049 A 
ATOM     47  C   UNL     1      -0.767  -8.374  11.521  1.00  0.00     0.074 A 
ATOM     48  C   UNL     1       3.435 -13.126  11.701  1.00  0.00     0.029 A 
ATOM     49  N   UNL     1       2.278 -11.304  11.158  1.00  0.00    -0.354 N 
ATOM     50  N   UNL     1       0.176  -9.285  11.516  1.00  0.00    -0.248 NA
ATOM     51  C   UNL     1      -1.777  -8.565  12.573  1.00  0.00     0.031 C 
ATOM     52  C   UNL     1       2.416 -12.952  12.639  1.00  0.00     0.029 A 
ATOM     53  C   UNL     1       1.696 -11.816  12.302  1.00  0.00     0.049 A 
ATOM     54  H   UNL     1       1.978 -10.496  10.683  1.00  0.00     0.167 HD
ATOM     55  C   UNL     1      -0.110 -10.139  12.574  1.00  0.00     0.074 A 
ATOM     56  C   UNL     1      -1.304  -9.628  13.213  1.00  0.00     0.031 C 
ATOM     57  C   UNL     1       0.546 -11.258  12.965  1.00  0.00     0.034 A 
BRANCH  44  58
ATOM     58  C   UNL     1       5.282 -12.841   9.341  1.00  0.00     0.023 A 
ATOM     59  C   UNL     1       6.620 -12.517   9.647  1.00  0.00     0.012 A 
ATOM     60  C   UNL     1       4.980 -14.116   8.824  1.00  0.00     0.148 A 
ATOM     61  C   UNL     1       7.645 -13.429   9.408  1.00  0.00     0.002 A 
ATOM     62  C   UNL     1       6.003 -15.038   8.634  1.00  0.00     0.091 A 
ATOM     63  F   UNL     1       3.705 -14.400   8.523  1.00  0.00    -0.205 F 
ATOM     64  C   UNL     1       7.335 -14.692   8.913  1.00  0.00     0.022 A 
BRANCH  62  65
ATOM     65  S   UNL     1       5.704 -16.722   8.082  1.00  0.00     0.127 S 
ATOM     66  O   UNL     1       6.269 -16.695   6.734  1.00  0.00    -0.237 OA
ATOM     67  O   UNL     1       6.473 -17.503   9.050  1.00  0.00    -0.237 OA
ATOM     68  O   UNL     1       4.262 -16.917   8.151  1.00  0.00    -0.744 OA
ENDBRANCH  62  65
ENDBRANCH  44  58
BRANCH  45  69
ATOM     69  C   UNL     1      -2.033  -6.198  10.829  1.00  0.00     0.023 A 
ATOM     70  C   UNL     1      -1.998  -5.367  11.966  1.00  0.00     0.012 A 
ATOM     71  C   UNL     1      -3.067  -6.029   9.887  1.00  0.00     0.148 A 
ATOM     72  C   UNL     1      -2.981  -4.398  12.171  1.00  0.00     0.002 A 
ATOM     73  C   UNL     1      -4.014  -5.026  10.072  1.00  0.00     0.091 A 
ATOM     74  F   UNL     1      -3.088  -6.835   8.817  1.00  0.00    -0.205 F 
ATOM     75  C   UNL     1      -3.980  -4.219  11.220  1.00  0.00     0.022 A 
BRANCH  73  76
ATOM     76  S   UNL     1      -5.256  -4.630   8.835  1.00  0.00     0.127 S 
ATOM     77  O   UNL     1      -6.482  -5.087   9.483  1.00  0.00    -0.237 OA
ATOM     78  O   UNL     1      -5.121  -3.176   8.726  1.00  0.00    -0.237 OA
ATOM     79  O   UNL     1      -4.863  -5.359   7.636  1.00  0.00    -0.744 OA
ENDBRANCH  73  76
ENDBRANCH  45  69
BRANCH  57  80
ATOM     80  C   UNL     1       0.017 -12.025  14.145  1.00  0.00     0.023 A 
ATOM     81  C   UNL     1      -1.101 -12.863  13.972  1.00  0.00     0.012 A 
ATOM     82  C   UNL     1       0.727 -12.052  15.362  1.00  0.00     0.148 A 
ATOM     83  C   UNL     1      -1.506 -13.719  14.994  1.00  0.00     0.002 A 
ATOM     84  C   UNL     1       0.345 -12.940  16.359  1.00  0.00     0.091 A 
ATOM     85  F   UNL     1       1.784 -11.238  15.502  1.00  0.00    -0.205 F 
ATOM     86  C   UNL     1      -0.774 -13.770  16.179  1.00  0.00     0.022 A 
BRANCH  84  87
ATOM     87  S   UNL     1       1.283 -13.157  17.876  1.00  0.00     0.127 S 
ATOM     88  O   UNL     1       0.341 -12.666  18.881  1.00  0.00    -0.237 OA
ATOM     89  O   UNL     1       1.502 -14.603  17.899  1.00  0.00    -0.237 OA
ATOM     90  O   UNL     1       2.493 -12.360  17.721  1.00  0.00    -0.744 OA
ENDBRANCH  84  87
ENDBRANCH  57  80
ENDBRANCH  31  32
ENDBRANCH  23  26
ENDBRANCH  21  22
ENDBRANCH   1  21
TORSDOF 17
