REMARK SMILES Cc1nc(-c2ccccc2Cl)nc2sc(C(=O)NCCCNC(=O)c3ccc(-c4c5nc(c(-c6cccc(S(=O)(=O)[O-])c6F)c6ccc([nH]6)c(-c6cccc(S(=O)(=O)[O-])c6F)c6nc(c(-c7cccc(S(=O)(=O)[O-])c7F)c7ccc4[nH]7)C=C6)C=C5)cc3)c(N)c12
REMARK SMILES IDX 21 1 20 2 19 3 18 4 16 5 17 6 15 8 1 9 2 10 3 11 90 12 4 13
REMARK SMILES IDX 13 14 88 15 12 16 14 17 5 18 6 19 10 20 7 21 9 22 11 23 8 24
REMARK SMILES IDX 89 25 22 28 23 29 24 31 25 32 26 33 87 34 27 35 86 36 28 37
REMARK SMILES IDX 29 38 30 39 80 40 31 41 85 42 79 43 81 44 32 45 84 46 78 47
REMARK SMILES IDX 77 48 33 50 65 51 45 52 64 53 46 54 49 55 63 56 82 57 47 58
REMARK SMILES IDX 48 59 62 61 83 62 50 63 34 64 35 65 43 66 36 67 38 68 44 69
REMARK SMILES IDX 37 70 39 71 40 72 41 73 42 74 66 75 67 76 75 77 68 78 70 79
REMARK SMILES IDX 76 80 69 81 71 82 72 83 73 84 74 85 51 86 52 87 60 88 53 89
REMARK SMILES IDX 55 90 61 91 54 92 56 93 57 94 58 95 59 96
REMARK H PARENT 18 7 89 26 89 27 22 30 81 49 49 60
REMARK Flexibility Score: inf
ROOT
ATOM      1  C   UNL     1      -1.741   6.279  -6.622  1.00  0.00     0.118 C 
ENDROOT
BRANCH   1   2
ATOM      2  C   UNL     1      -1.325   5.075  -5.808  1.00  0.00     0.042 C 
BRANCH   2   3
ATOM      3  C   UNL     1       0.130   5.171  -5.320  1.00  0.00     0.118 C 
BRANCH   3   4
ATOM      4  N   UNL     1       0.260   5.699  -3.964  1.00  0.00    -0.351 N 
ATOM      5  C   UNL     1       0.372   5.050  -2.745  1.00  0.00     0.263 C 
ATOM      6  O   UNL     1       0.777   5.730  -1.800  1.00  0.00    -0.268 OA
ATOM      7  H   UNL     1       0.269   6.682  -3.907  1.00  0.00     0.163 HD
BRANCH   5   8
ATOM      8  C   UNL     1       0.102   3.625  -2.601  1.00  0.00     0.118 A 
ATOM      9  C   UNL     1       1.105  -0.110   0.003  1.00  0.00     0.067 C 
ATOM     10  C   UNL     1       0.504   0.101  -1.352  1.00  0.00     0.052 A 
ATOM     11  N   UNL     1       0.207  -1.026  -2.078  1.00  0.00    -0.233 NA
ATOM     12  C   UNL     1       0.243   1.364  -1.924  1.00  0.00     0.056 A 
ATOM     13  C   UNL     1      -0.415  -0.892  -3.265  1.00  0.00     0.162 A 
ATOM     14  C   UNL     1      -0.475   1.318  -3.102  1.00  0.00     0.130 A 
ATOM     15  C   UNL     1       0.541   2.745  -1.613  1.00  0.00     0.067 A 
ATOM     16  N   UNL     1      -0.819   0.248  -3.812  1.00  0.00    -0.217 NA
ATOM     17  S   UNL     1      -1.007   2.819  -3.609  1.00  0.00    -0.108 S 
BRANCH  13  18
ATOM     18  C   UNL     1      -0.699  -2.049  -4.107  1.00  0.00     0.038 A 
ATOM     19  C   UNL     1      -0.073  -2.133  -5.373  1.00  0.00     0.013 A 
ATOM     20  C   UNL     1      -1.727  -2.954  -3.819  1.00  0.00     0.052 A 
ATOM     21  C   UNL     1      -0.484  -3.063  -6.328  1.00  0.00     0.001 A 
ATOM     22  C   UNL     1      -2.140  -3.886  -4.779  1.00  0.00     0.021 A 
ATOM     23  Cl  UNL     1      -2.597  -2.913  -2.324  1.00  0.00    -0.084 Cl
ATOM     24  C   UNL     1      -1.529  -3.933  -6.034  1.00  0.00     0.002 A 
ENDBRANCH  13  18
BRANCH  15  25
ATOM     25  N   UNL     1       1.242   3.167  -0.537  1.00  0.00    -0.397 N 
ATOM     26  H   UNL     1       1.401   4.128  -0.399  1.00  0.00     0.156 HD
ATOM     27  H   UNL     1       1.594   2.512   0.108  1.00  0.00     0.156 HD
ENDBRANCH  15  25
ENDBRANCH   5   8
ENDBRANCH   3   4
ENDBRANCH   2   3
ENDBRANCH   1   2
BRANCH   1  28
ATOM     28  N   UNL     1      -1.100   6.314  -7.941  1.00  0.00    -0.352 N 
ATOM     29  C   UNL     1      -1.248   7.267  -8.938  1.00  0.00     0.251 C 
ATOM     30  H   UNL     1      -0.489   5.569  -8.144  1.00  0.00     0.163 HD
ATOM     31  O   UNL     1      -0.921   7.035 -10.086  1.00  0.00    -0.269 OA
BRANCH  29  32
ATOM     32  C   UNL     1      -1.814   8.574  -8.558  1.00  0.00     0.039 A 
ATOM     33  C   UNL     1      -2.739   9.249  -9.361  1.00  0.00     0.014 A 
ATOM     34  C   UNL     1      -1.431   9.086  -7.326  1.00  0.00     0.014 A 
ATOM     35  C   UNL     1      -3.327  10.412  -8.867  1.00  0.00     0.010 A 
ATOM     36  C   UNL     1      -2.174  10.074  -6.754  1.00  0.00     0.010 A 
ATOM     37  C   UNL     1      -3.041  10.806  -7.555  1.00  0.00    -0.014 A 
BRANCH  37  38
ATOM     38  C   UNL     1      -3.644  11.973  -6.933  1.00  0.00     0.031 A 
ATOM     39  C   UNL     1      -5.112  11.893  -6.714  1.00  0.00     0.074 A 
ATOM     40  C   UNL     1      -2.859  12.888  -6.319  1.00  0.00     0.049 A 
ATOM     41  N   UNL     1      -6.028  12.669  -7.190  1.00  0.00    -0.248 NA
ATOM     42  C   UNL     1      -5.640  10.739  -5.967  1.00  0.00     0.031 C 
ATOM     43  C   UNL     1      -1.394  12.858  -6.155  1.00  0.00     0.029 A 
ATOM     44  N   UNL     1      -3.219  13.935  -5.536  1.00  0.00    -0.354 N 
ATOM     45  C   UNL     1      -7.225  12.232  -6.623  1.00  0.00     0.074 A 
ATOM     46  C   UNL     1      -6.956  10.935  -6.063  1.00  0.00     0.031 C 
ATOM     47  C   UNL     1      -1.041  13.647  -5.118  1.00  0.00     0.029 A 
ATOM     48  C   UNL     1      -2.213  14.375  -4.677  1.00  0.00     0.049 A 
ATOM     49  H   UNL     1      -4.112  14.348  -5.571  1.00  0.00     0.167 HD
ATOM     50  C   UNL     1      -8.282  13.074  -6.445  1.00  0.00     0.034 A 
ATOM     51  C   UNL     1      -2.363  15.230  -3.638  1.00  0.00     0.034 A 
ATOM     52  C   UNL     1      -8.099  14.304  -7.175  1.00  0.00     0.049 A 
ATOM     53  C   UNL     1      -3.634  15.956  -3.862  1.00  0.00     0.074 A 
ATOM     54  C   UNL     1      -7.935  14.635  -8.505  1.00  0.00     0.029 A 
ATOM     55  N   UNL     1      -7.658  15.391  -6.459  1.00  0.00    -0.354 N 
ATOM     56  N   UNL     1      -3.833  16.772  -4.858  1.00  0.00    -0.248 NA
ATOM     57  C   UNL     1      -4.832  15.437  -3.225  1.00  0.00     0.031 C 
ATOM     58  C   UNL     1      -6.969  15.686  -8.504  1.00  0.00     0.029 A 
ATOM     59  C   UNL     1      -6.649  15.980  -7.177  1.00  0.00     0.049 A 
ATOM     60  H   UNL     1      -8.005  15.693  -5.589  1.00  0.00     0.167 HD
ATOM     61  C   UNL     1      -5.134  16.505  -5.267  1.00  0.00     0.074 A 
ATOM     62  C   UNL     1      -5.734  15.770  -4.153  1.00  0.00     0.031 C 
ATOM     63  C   UNL     1      -5.504  16.636  -6.576  1.00  0.00     0.034 A 
BRANCH  50  64
ATOM     64  C   UNL     1      -9.336  12.945  -5.369  1.00  0.00     0.023 A 
ATOM     65  C   UNL     1     -10.467  13.789  -5.462  1.00  0.00     0.012 A 
ATOM     66  C   UNL     1      -9.180  12.224  -4.162  1.00  0.00     0.148 A 
ATOM     67  C   UNL     1     -11.371  13.931  -4.403  1.00  0.00     0.002 A 
ATOM     68  C   UNL     1     -10.130  12.298  -3.148  1.00  0.00     0.091 A 
ATOM     69  F   UNL     1      -8.044  11.563  -3.919  1.00  0.00    -0.205 F 
ATOM     70  C   UNL     1     -11.212  13.174  -3.250  1.00  0.00     0.022 A 
BRANCH  68  71
ATOM     71  S   UNL     1     -10.012  11.282  -1.670  1.00  0.00     0.127 S 
ATOM     72  O   UNL     1      -9.591  12.261  -0.672  1.00  0.00    -0.237 OA
ATOM     73  O   UNL     1     -11.387  10.802  -1.524  1.00  0.00    -0.237 OA
ATOM     74  O   UNL     1      -9.050  10.237  -1.995  1.00  0.00    -0.744 OA
ENDBRANCH  68  71
ENDBRANCH  50  64
BRANCH  51  75
ATOM     75  C   UNL     1      -1.664  15.275  -2.333  1.00  0.00     0.023 A 
ATOM     76  C   UNL     1      -1.727  16.454  -1.563  1.00  0.00     0.012 A 
ATOM     77  C   UNL     1      -1.217  14.091  -1.707  1.00  0.00     0.148 A 
ATOM     78  C   UNL     1      -1.412  16.442  -0.199  1.00  0.00     0.002 A 
ATOM     79  C   UNL     1      -0.907  14.084  -0.350  1.00  0.00     0.091 A 
ATOM     80  F   UNL     1      -1.194  12.954  -2.415  1.00  0.00    -0.205 F 
ATOM     81  C   UNL     1      -1.018  15.255   0.411  1.00  0.00     0.022 A 
BRANCH  79  82
ATOM     82  S   UNL     1      -0.443  12.579   0.518  1.00  0.00     0.127 S 
ATOM     83  O   UNL     1       0.720  13.019   1.289  1.00  0.00    -0.237 OA
ATOM     84  O   UNL     1      -1.639  12.311   1.310  1.00  0.00    -0.237 OA
ATOM     85  O   UNL     1      -0.139  11.604  -0.522  1.00  0.00    -0.744 OA
ENDBRANCH  79  82
ENDBRANCH  51  75
BRANCH  63  86
ATOM     86  C   UNL     1      -4.517  17.278  -7.532  1.00  0.00     0.023 A 
ATOM     87  C   UNL     1      -3.243  16.724  -7.787  1.00  0.00     0.012 A 
ATOM     88  C   UNL     1      -4.939  18.365  -8.314  1.00  0.00     0.148 A 
ATOM     89  C   UNL     1      -2.403  17.252  -8.771  1.00  0.00     0.002 A 
ATOM     90  C   UNL     1      -4.121  18.859  -9.326  1.00  0.00     0.091 A 
ATOM     91  F   UNL     1      -6.151  18.888  -8.073  1.00  0.00    -0.205 F 
ATOM     92  C   UNL     1      -2.847  18.314  -9.551  1.00  0.00     0.022 A 
BRANCH  90  93
ATOM     93  S   UNL     1      -4.692  20.137 -10.449  1.00  0.00     0.127 S 
ATOM     94  O   UNL     1      -4.035  21.328  -9.917  1.00  0.00    -0.237 OA
ATOM     95  O   UNL     1      -4.177  19.679 -11.741  1.00  0.00    -0.237 OA
ATOM     96  O   UNL     1      -6.147  20.122 -10.356  1.00  0.00    -0.744 OA
ENDBRANCH  90  93
ENDBRANCH  63  86
ENDBRANCH  37  38
ENDBRANCH  29  32
ENDBRANCH   1  28
TORSDOF 15
