REMARK SMILES Cc1cc(C(=O)N2CCO[C@H](C)C2)sc1/C=C/C(=O)NCCCNC(=O)c1ccc(-c2c3nc(c(-c4cccc(S(=O)(=O)[O-])c4F)c4ccc([nH]4)c(-c4cccc(S(=O)(=O)[O-])c4F)c4nc(c(-c5cccc(S(=O)(=O)[O-])c5F)c5ccc2[nH]5)C=C4)C=C3)cc1
REMARK SMILES IDX 22 1 21 2 20 3 18 4 19 5 17 7 16 8 15 9 1 10 2 11 3 12 4 13
REMARK SMILES IDX 14 14 5 15 6 16 7 17 8 18 13 19 9 20 11 21 10 22 12 23 23 24
REMARK SMILES IDX 24 25 25 26 26 28 27 29 28 30 89 31 29 32 88 33 30 34 31 35
REMARK SMILES IDX 32 36 82 37 33 38 87 39 81 40 83 41 34 42 86 43 80 44 79 45
REMARK SMILES IDX 35 47 67 48 47 49 66 50 48 51 51 52 65 53 84 54 49 55 50 56
REMARK SMILES IDX 64 58 85 59 52 60 36 61 37 62 45 63 38 64 40 65 46 66 39 67
REMARK SMILES IDX 41 68 42 69 43 70 44 71 68 72 69 73 77 74 70 75 72 76 78 77
REMARK SMILES IDX 71 78 73 79 74 80 75 81 76 82 53 83 54 84 62 85 55 86 57 87
REMARK SMILES IDX 63 88 56 89 58 90 59 91 60 92 61 93
REMARK H PARENT 20 6 24 27 83 46 51 57
REMARK Flexibility Score: inf
ROOT
ATOM      1  C   UNL     1       3.159  -4.641   0.688  1.00  0.00     0.042 C 
ENDROOT
BRANCH   1   2
ATOM      2  C   UNL     1       2.220  -4.684  -0.513  1.00  0.00     0.118 C 
BRANCH   2   3
ATOM      3  N   UNL     1       0.940  -5.282  -0.172  1.00  0.00    -0.352 N 
ATOM      4  C   UNL     1      -0.286  -4.709  -0.043  1.00  0.00     0.244 C 
ATOM      5  O   UNL     1      -1.280  -5.411   0.118  1.00  0.00    -0.270 OA
ATOM      6  H   UNL     1       0.965  -6.252  -0.009  1.00  0.00     0.163 HD
BRANCH   4   7
ATOM      7  C   UNL     1      -0.445  -3.251  -0.207  1.00  0.00     0.072 C 
ATOM      8  C   UNL     1       0.286  -2.341   0.454  1.00  0.00     0.025 C 
BRANCH   8   9
ATOM      9  C   UNL     1       0.108  -0.937   0.269  1.00  0.00     0.031 A 
ATOM     10  C   UNL     1       2.554  -0.130   0.259  1.00  0.00     0.046 C 
ATOM     11  C   UNL     1       1.070   0.066   0.222  1.00  0.00    -0.032 A 
ATOM     12  C   UNL     1       0.466   1.365   0.088  1.00  0.00     0.029 A 
ATOM     13  C   UNL     1      -0.912   1.329  -0.004  1.00  0.00     0.093 A 
ATOM     14  S   UNL     1      -1.463  -0.279   0.069  1.00  0.00    -0.130 S 
BRANCH  13  15
ATOM     15  C   UNL     1      -1.787   2.449  -0.339  1.00  0.00     0.264 C 
ATOM     16  O   UNL     1      -1.336   3.442  -0.916  1.00  0.00    -0.268 OA
BRANCH  15  17
ATOM     17  N   UNL     1      -3.158   2.362  -0.111  1.00  0.00    -0.333 N 
ATOM     18  C   UNL     1      -4.070   3.019  -1.039  1.00  0.00     0.148 C 
ATOM     19  C   UNL     1      -3.837   1.690   1.002  1.00  0.00     0.151 C 
ATOM     20  C   UNL     1      -5.090   1.989  -1.538  1.00  0.00     0.182 C 
ATOM     21  C   UNL     1      -4.917   0.725   0.469  1.00  0.00     0.134 C 
ATOM     22  O   UNL     1      -5.811   1.409  -0.437  1.00  0.00    -0.375 OA
ATOM     23  C   UNL     1      -5.759   0.158   1.603  1.00  0.00     0.040 C 
ENDBRANCH  15  17
ENDBRANCH  13  15
ENDBRANCH   8   9
ENDBRANCH   4   7
ENDBRANCH   2   3
ENDBRANCH   1   2
BRANCH   1  24
ATOM     24  C   UNL     1       3.726  -6.007   1.063  1.00  0.00     0.118 C 
BRANCH  24  25
ATOM     25  N   UNL     1       4.635  -6.517   0.046  1.00  0.00    -0.352 N 
ATOM     26  C   UNL     1       5.955  -6.879   0.142  1.00  0.00     0.251 C 
ATOM     27  H   UNL     1       4.241  -6.618  -0.851  1.00  0.00     0.163 HD
ATOM     28  O   UNL     1       6.600  -7.068  -0.886  1.00  0.00    -0.269 OA
BRANCH  26  29
ATOM     29  C   UNL     1       6.604  -7.039   1.463  1.00  0.00     0.039 A 
ATOM     30  C   UNL     1       7.924  -6.604   1.620  1.00  0.00     0.014 A 
ATOM     31  C   UNL     1       5.944  -7.659   2.527  1.00  0.00     0.014 A 
ATOM     32  C   UNL     1       8.564  -6.750   2.853  1.00  0.00     0.010 A 
ATOM     33  C   UNL     1       6.558  -7.741   3.775  1.00  0.00     0.010 A 
ATOM     34  C   UNL     1       7.878  -7.299   3.948  1.00  0.00    -0.014 A 
BRANCH  34  35
ATOM     35  C   UNL     1       8.521  -7.415   5.282  1.00  0.00     0.031 A 
ATOM     36  C   UNL     1       8.759  -8.769   5.896  1.00  0.00     0.074 A 
ATOM     37  C   UNL     1       8.812  -6.298   5.977  1.00  0.00     0.049 A 
ATOM     38  N   UNL     1       9.249  -9.065   7.072  1.00  0.00    -0.248 NA
ATOM     39  C   UNL     1       8.370  -9.943   5.097  1.00  0.00     0.031 C 
ATOM     40  C   UNL     1       8.554  -4.930   5.524  1.00  0.00     0.029 A 
ATOM     41  N   UNL     1       9.359  -6.137   7.225  1.00  0.00    -0.354 N 
ATOM     42  C   UNL     1       9.194 -10.450   7.170  1.00  0.00     0.074 A 
ATOM     43  C   UNL     1       8.594 -10.935   5.946  1.00  0.00     0.031 C 
ATOM     44  C   UNL     1       8.941  -4.070   6.479  1.00  0.00     0.029 A 
ATOM     45  C   UNL     1       9.451  -4.823   7.621  1.00  0.00     0.049 A 
ATOM     46  H   UNL     1       9.658  -6.890   7.784  1.00  0.00     0.167 HD
ATOM     47  C   UNL     1       9.630 -11.250   8.173  1.00  0.00     0.034 A 
ATOM     48  C   UNL     1       9.892  -4.284   8.775  1.00  0.00     0.034 A 
ATOM     49  C   UNL     1      10.273 -10.767   9.366  1.00  0.00     0.049 A 
ATOM     50  C   UNL     1      10.425  -5.192   9.848  1.00  0.00     0.074 A 
ATOM     51  C   UNL     1      10.831 -11.498  10.399  1.00  0.00     0.029 A 
ATOM     52  N   UNL     1      10.443  -9.429   9.686  1.00  0.00    -0.354 N 
ATOM     53  N   UNL     1      10.511  -6.501   9.853  1.00  0.00    -0.248 NA
ATOM     54  C   UNL     1      10.959  -4.551  11.058  1.00  0.00     0.031 C 
ATOM     55  C   UNL     1      11.328 -10.601  11.351  1.00  0.00     0.029 A 
ATOM     56  C   UNL     1      11.095  -9.311  10.902  1.00  0.00     0.049 A 
ATOM     57  H   UNL     1      10.144  -8.673   9.130  1.00  0.00     0.167 HD
ATOM     58  C   UNL     1      11.138  -6.837  11.048  1.00  0.00     0.074 A 
ATOM     59  C   UNL     1      11.430  -5.593  11.730  1.00  0.00     0.031 C 
ATOM     60  C   UNL     1      11.429  -8.065  11.543  1.00  0.00     0.034 A 
BRANCH  47  61
ATOM     61  C   UNL     1       9.487 -12.739   7.994  1.00  0.00     0.023 A 
ATOM     62  C   UNL     1      10.317 -13.407   7.069  1.00  0.00     0.012 A 
ATOM     63  C   UNL     1       8.581 -13.485   8.772  1.00  0.00     0.148 A 
ATOM     64  C   UNL     1      10.223 -14.787   6.896  1.00  0.00     0.002 A 
ATOM     65  C   UNL     1       8.523 -14.867   8.624  1.00  0.00     0.091 A 
ATOM     66  F   UNL     1       7.785 -12.832   9.630  1.00  0.00    -0.205 F 
ATOM     67  C   UNL     1       9.335 -15.517   7.680  1.00  0.00     0.022 A 
BRANCH  65  68
ATOM     68  S   UNL     1       7.466 -15.906   9.640  1.00  0.00     0.127 S 
ATOM     69  O   UNL     1       6.424 -16.287   8.688  1.00  0.00    -0.237 OA
ATOM     70  O   UNL     1       8.371 -16.991  10.019  1.00  0.00    -0.237 OA
ATOM     71  O   UNL     1       7.028 -15.068  10.748  1.00  0.00    -0.744 OA
ENDBRANCH  65  68
ENDBRANCH  47  61
BRANCH  48  72
ATOM     72  C   UNL     1       9.917  -2.803   8.937  1.00  0.00     0.023 A 
ATOM     73  C   UNL     1      11.155  -2.131   8.931  1.00  0.00     0.012 A 
ATOM     74  C   UNL     1       8.730  -2.055   9.049  1.00  0.00     0.148 A 
ATOM     75  C   UNL     1      11.211  -0.743   9.063  1.00  0.00     0.002 A 
ATOM     76  C   UNL     1       8.790  -0.668   9.124  1.00  0.00     0.091 A 
ATOM     77  F   UNL     1       7.562  -2.714   9.064  1.00  0.00    -0.205 F 
ATOM     78  C   UNL     1      10.030  -0.011   9.148  1.00  0.00     0.022 A 
BRANCH  76  79
ATOM     79  S   UNL     1       7.317   0.360   9.096  1.00  0.00     0.127 S 
ATOM     80  O   UNL     1       7.247   0.822  10.479  1.00  0.00    -0.237 OA
ATOM     81  O   UNL     1       7.682   1.387   8.119  1.00  0.00    -0.237 OA
ATOM     82  O   UNL     1       6.237  -0.517   8.663  1.00  0.00    -0.744 OA
ENDBRANCH  76  79
ENDBRANCH  48  72
BRANCH  60  83
ATOM     83  C   UNL     1      12.125  -8.133  12.877  1.00  0.00     0.023 A 
ATOM     84  C   UNL     1      11.405  -7.849  14.054  1.00  0.00     0.012 A 
ATOM     85  C   UNL     1      13.467  -8.551  12.969  1.00  0.00     0.148 A 
ATOM     86  C   UNL     1      12.019  -7.950  15.301  1.00  0.00     0.002 A 
ATOM     87  C   UNL     1      14.059  -8.694  14.219  1.00  0.00     0.091 A 
ATOM     88  F   UNL     1      14.141  -8.796  11.836  1.00  0.00    -0.205 F 
ATOM     89  C   UNL     1      13.340  -8.384  15.385  1.00  0.00     0.022 A 
BRANCH  87  90
ATOM     90  S   UNL     1      15.725  -9.335  14.423  1.00  0.00     0.127 S 
ATOM     91  O   UNL     1      16.475  -8.121  14.739  1.00  0.00    -0.237 OA
ATOM     92  O   UNL     1      15.567 -10.264  15.542  1.00  0.00    -0.237 OA
ATOM     93  O   UNL     1      16.064  -9.971  13.157  1.00  0.00    -0.744 OA
ENDBRANCH  87  90
ENDBRANCH  60  83
ENDBRANCH  34  35
ENDBRANCH  26  29
ENDBRANCH  24  25
ENDBRANCH   1  24
TORSDOF 16
