REMARK SMILES CC(C)(C[NH+]1CCC(C(N)=S)CC1)C(=O)NCCCNC(=O)c1ccc(-c2c3nc(c(-c4cccc(S(=O)(=O)[O-])c4F)c4ccc([nH]4)c(-c4cccc(S(=O)(=O)[O-])c4F)c4nc(c(-c5cccc(S(=O)(=O)[O-])c5F)c5ccc2[nH]5)C=C4)C=C3)cc1
REMARK SMILES IDX 17 1 16 2 14 3 15 4 2 6 1 7 3 8 4 9 5 10 6 11 13 12 7 14
REMARK SMILES IDX 12 15 8 16 9 17 11 18 10 19 18 22 19 23 20 24 21 25 22 27
REMARK SMILES IDX 23 28 24 29 85 30 25 31 84 32 26 33 27 34 28 35 78 36 29 37
REMARK SMILES IDX 83 38 77 39 79 40 30 41 82 42 76 43 75 44 31 46 63 47 43 48
REMARK SMILES IDX 62 49 44 50 47 51 61 52 80 53 45 54 46 55 60 57 81 58 48 59
REMARK SMILES IDX 32 60 33 61 41 62 34 63 36 64 42 65 35 66 37 67 38 68 39 69
REMARK SMILES IDX 40 70 64 71 65 72 73 73 66 74 68 75 74 76 67 77 69 78 70 79
REMARK SMILES IDX 71 80 72 81 49 82 50 83 58 84 51 85 53 86 59 87 52 88 54 89
REMARK SMILES IDX 55 90 56 91 57 92
REMARK H PARENT 16 5 5 13 10 20 10 21 20 26 79 45 47 56
REMARK Flexibility Score: inf
ROOT
ATOM      1  C   UNL     1      -0.215  -3.493   2.795  1.00  0.00     0.117 C 
ENDROOT
BRANCH   1   2
ATOM      2  N   UNL     1       0.759  -3.376   1.722  1.00  0.00    -0.355 N 
ATOM      3  C   UNL     1       1.225  -2.329   0.993  1.00  0.00     0.231 C 
ATOM      4  O   UNL     1       2.172  -2.595   0.242  1.00  0.00    -0.274 OA
ATOM      5  H   UNL     1       1.167  -4.236   1.471  1.00  0.00     0.163 HD
BRANCH   3   6
ATOM      6  C   UNL     1       0.646  -0.902   1.067  1.00  0.00     0.092 C 
ATOM      7  C   UNL     1       1.467   0.010   0.125  1.00  0.00     0.027 C 
ATOM      8  C   UNL     1       0.892  -0.323   2.480  1.00  0.00     0.027 C 
BRANCH   6   9
ATOM      9  C   UNL     1      -0.875  -0.842   0.710  1.00  0.00     0.278 C 
BRANCH   9  10
ATOM     10  N   UNL     1      -1.399  -1.149  -0.636  1.00  0.00    -0.334 N 
ATOM     11  C   UNL     1      -1.256  -0.069  -1.614  1.00  0.00     0.262 C 
ATOM     12  C   UNL     1      -1.052  -2.474  -1.150  1.00  0.00     0.262 C 
ATOM     13  H   UNL     1      -2.405  -1.207  -0.479  1.00  0.00     0.348 HD
ATOM     14  C   UNL     1      -1.969  -0.373  -2.936  1.00  0.00     0.072 C 
ATOM     15  C   UNL     1      -1.782  -2.804  -2.455  1.00  0.00     0.072 C 
ATOM     16  C   UNL     1      -1.495  -1.717  -3.491  1.00  0.00     0.058 C 
BRANCH  16  17
ATOM     17  C   UNL     1      -2.052  -2.052  -4.867  1.00  0.00     0.076 C 
ATOM     18  S   UNL     1      -3.664  -2.074  -5.284  1.00  0.00    -0.066 S 
BRANCH  17  19
ATOM     19  N   UNL     1      -1.118  -2.373  -5.814  1.00  0.00    -0.393 N 
ATOM     20  H   UNL     1      -0.161  -2.364  -5.584  1.00  0.00     0.157 HD
ATOM     21  H   UNL     1      -1.403  -2.611  -6.726  1.00  0.00     0.157 HD
ENDBRANCH  17  19
ENDBRANCH  16  17
ENDBRANCH   9  10
ENDBRANCH   6   9
ENDBRANCH   3   6
ENDBRANCH   1   2
BRANCH   1  22
ATOM     22  C   UNL     1      -1.431  -4.338   2.437  1.00  0.00     0.042 C 
BRANCH  22  23
ATOM     23  C   UNL     1      -1.112  -5.755   1.981  1.00  0.00     0.118 C 
BRANCH  23  24
ATOM     24  N   UNL     1      -0.456  -6.542   3.017  1.00  0.00    -0.352 N 
ATOM     25  C   UNL     1      -0.915  -7.617   3.740  1.00  0.00     0.251 C 
ATOM     26  H   UNL     1       0.462  -6.258   3.234  1.00  0.00     0.163 HD
ATOM     27  O   UNL     1      -0.279  -7.997   4.719  1.00  0.00    -0.269 OA
BRANCH  25  28
ATOM     28  C   UNL     1      -2.168  -8.306   3.357  1.00  0.00     0.039 A 
ATOM     29  C   UNL     1      -3.049  -8.720   4.360  1.00  0.00     0.014 A 
ATOM     30  C   UNL     1      -2.463  -8.576   2.019  1.00  0.00     0.014 A 
ATOM     31  C   UNL     1      -4.253  -9.343   4.016  1.00  0.00     0.010 A 
ATOM     32  C   UNL     1      -3.698  -9.117   1.674  1.00  0.00     0.010 A 
ATOM     33  C   UNL     1      -4.604  -9.516   2.668  1.00  0.00    -0.014 A 
BRANCH  33  34
ATOM     34  C   UNL     1      -5.904 -10.119   2.270  1.00  0.00     0.031 A 
ATOM     35  C   UNL     1      -5.930 -11.399   1.475  1.00  0.00     0.074 A 
ATOM     36  C   UNL     1      -7.054  -9.472   2.545  1.00  0.00     0.049 A 
ATOM     37  N   UNL     1      -6.952 -12.027   0.955  1.00  0.00    -0.248 NA
ATOM     38  C   UNL     1      -4.633 -12.045   1.207  1.00  0.00     0.031 C 
ATOM     39  C   UNL     1      -7.160  -8.193   3.251  1.00  0.00     0.029 A 
ATOM     40  N   UNL     1      -8.355  -9.787   2.238  1.00  0.00    -0.354 N 
ATOM     41  C   UNL     1      -6.423 -13.119   0.275  1.00  0.00     0.074 A 
ATOM     42  C   UNL     1      -4.986 -13.046   0.413  1.00  0.00     0.031 C 
ATOM     43  C   UNL     1      -8.452  -7.837   3.328  1.00  0.00     0.029 A 
ATOM     44  C   UNL     1      -9.265  -8.839   2.648  1.00  0.00     0.049 A 
ATOM     45  H   UNL     1      -8.612 -10.613   1.769  1.00  0.00     0.167 HD
ATOM     46  C   UNL     1      -7.074 -14.113  -0.375  1.00  0.00     0.034 A 
ATOM     47  C   UNL     1     -10.602  -8.782   2.486  1.00  0.00     0.034 A 
ATOM     48  C   UNL     1      -8.505 -14.207  -0.475  1.00  0.00     0.049 A 
ATOM     49  C   UNL     1     -11.299  -9.909   1.771  1.00  0.00     0.074 A 
ATOM     50  C   UNL     1      -9.263 -15.206  -1.061  1.00  0.00     0.029 A 
ATOM     51  N   UNL     1      -9.396 -13.271   0.026  1.00  0.00    -0.354 N 
ATOM     52  N   UNL     1     -10.790 -11.001   1.254  1.00  0.00    -0.248 NA
ATOM     53  C   UNL     1     -12.761  -9.813   1.648  1.00  0.00     0.031 C 
ATOM     54  C   UNL     1     -10.613 -14.866  -0.926  1.00  0.00     0.029 A 
ATOM     55  C   UNL     1     -10.695 -13.668  -0.234  1.00  0.00     0.049 A 
ATOM     56  H   UNL     1      -9.141 -12.445   0.498  1.00  0.00     0.167 HD
ATOM     57  C   UNL     1     -11.870 -11.742   0.789  1.00  0.00     0.074 A 
ATOM     58  C   UNL     1     -13.063 -10.982   1.101  1.00  0.00     0.031 C 
ATOM     59  C   UNL     1     -11.875 -12.936   0.147  1.00  0.00     0.034 A 
BRANCH  46  60
ATOM     60  C   UNL     1      -6.243 -15.221  -0.972  1.00  0.00     0.023 A 
ATOM     61  C   UNL     1      -5.608 -16.144  -0.115  1.00  0.00     0.012 A 
ATOM     62  C   UNL     1      -6.142 -15.392  -2.366  1.00  0.00     0.148 A 
ATOM     63  C   UNL     1      -4.856 -17.197  -0.634  1.00  0.00     0.002 A 
ATOM     64  C   UNL     1      -5.428 -16.471  -2.877  1.00  0.00     0.091 A 
ATOM     65  F   UNL     1      -6.738 -14.496  -3.166  1.00  0.00    -0.205 F 
ATOM     66  C   UNL     1      -4.776 -17.366  -2.013  1.00  0.00     0.022 A 
BRANCH  64  67
ATOM     67  S   UNL     1      -5.326 -16.826  -4.635  1.00  0.00     0.127 S 
ATOM     68  O   UNL     1      -3.919 -16.538  -4.912  1.00  0.00    -0.237 OA
ATOM     69  O   UNL     1      -5.679 -18.245  -4.683  1.00  0.00    -0.237 OA
ATOM     70  O   UNL     1      -6.283 -15.939  -5.282  1.00  0.00    -0.744 OA
ENDBRANCH  64  67
ENDBRANCH  46  60
BRANCH  47  71
ATOM     71  C   UNL     1     -11.385  -7.653   3.067  1.00  0.00     0.023 A 
ATOM     72  C   UNL     1     -12.260  -7.906   4.143  1.00  0.00     0.012 A 
ATOM     73  C   UNL     1     -11.276  -6.341   2.568  1.00  0.00     0.148 A 
ATOM     74  C   UNL     1     -13.044  -6.885   4.681  1.00  0.00     0.002 A 
ATOM     75  C   UNL     1     -12.019  -5.317   3.145  1.00  0.00     0.091 A 
ATOM     76  F   UNL     1     -10.450  -6.120   1.536  1.00  0.00    -0.205 F 
ATOM     77  C   UNL     1     -12.917  -5.590   4.188  1.00  0.00     0.022 A 
BRANCH  75  78
ATOM     78  S   UNL     1     -11.823  -3.598   2.660  1.00  0.00     0.127 S 
ATOM     79  O   UNL     1     -13.043  -3.362   1.894  1.00  0.00    -0.237 OA
ATOM     80  O   UNL     1     -11.767  -2.920   3.956  1.00  0.00    -0.237 OA
ATOM     81  O   UNL     1     -10.577  -3.547   1.907  1.00  0.00    -0.744 OA
ENDBRANCH  75  78
ENDBRANCH  47  71
BRANCH  59  82
ATOM     82  C   UNL     1     -13.210 -13.533  -0.213  1.00  0.00     0.023 A 
ATOM     83  C   UNL     1     -13.970 -12.977  -1.261  1.00  0.00     0.012 A 
ATOM     84  C   UNL     1     -13.674 -14.692   0.440  1.00  0.00     0.148 A 
ATOM     85  C   UNL     1     -15.186 -13.548  -1.633  1.00  0.00     0.002 A 
ATOM     86  C   UNL     1     -14.862 -15.284   0.031  1.00  0.00     0.091 A 
ATOM     87  F   UNL     1     -12.945 -15.194   1.448  1.00  0.00    -0.205 F 
ATOM     88  C   UNL     1     -15.626 -14.707  -0.996  1.00  0.00     0.022 A 
BRANCH  86  89
ATOM     89  S   UNL     1     -15.457 -16.831   0.725  1.00  0.00     0.127 S 
ATOM     90  O   UNL     1     -16.603 -16.381   1.515  1.00  0.00    -0.237 OA
ATOM     91  O   UNL     1     -15.805 -17.595  -0.473  1.00  0.00    -0.237 OA
ATOM     92  O   UNL     1     -14.348 -17.381   1.491  1.00  0.00    -0.744 OA
ENDBRANCH  86  89
ENDBRANCH  59  82
ENDBRANCH  33  34
ENDBRANCH  25  28
ENDBRANCH  23  24
ENDBRANCH  22  23
ENDBRANCH   1  22
TORSDOF 17
