REMARK SMILES COc1cccc(N2/C(=[NH+]/C(=O)CCC(=O)NCCCNC(=O)c3ccc(-c4c5nc(c(-c6cccc(S(=O)(=O)[O-])c6F)c6ccc([nH]6)c(-c6cccc(S(=O)(=O)[O-])c6F)c6nc(c(-c7cccc(S(=O)(=O)[O-])c7F)c7ccc4[nH]7)C=C6)C=C5)cc3)S[C@@H]3CS(=O)(=O)C[C@H]32)c1
REMARK SMILES IDX 18 1 17 2 15 3 16 4 14 6 13 7 11 8 8 9 9 10 94 11 10 12
REMARK SMILES IDX 87 13 88 14 93 15 89 17 90 18 12 19 91 20 92 21 7 22 3 23
REMARK SMILES IDX 4 24 95 25 5 26 6 27 2 28 1 29 19 30 20 31 21 32 22 33 23 35
REMARK SMILES IDX 24 36 25 37 86 38 26 39 85 40 27 41 28 42 29 43 79 44 30 45
REMARK SMILES IDX 84 46 78 47 80 48 31 49 83 50 77 51 76 52 32 54 64 55 44 56
REMARK SMILES IDX 63 57 45 58 48 59 62 60 81 61 46 62 47 63 61 65 82 66 49 67
REMARK SMILES IDX 33 68 34 69 42 70 35 71 37 72 43 73 36 74 38 75 39 76 40 77
REMARK SMILES IDX 41 78 65 79 66 80 74 81 67 82 69 83 75 84 68 85 70 86 71 87
REMARK SMILES IDX 72 88 73 89 50 90 51 91 59 92 52 93 54 94 60 95 53 96 55 97
REMARK SMILES IDX 56 98 57 99 58 100
REMARK H PARENT 17 5 10 16 21 34 80 53 48 64
REMARK Flexibility Score: inf
ROOT
ATOM      1  C   UNL     1       5.786  -1.066  -0.391  1.00  0.00     0.117 C 
ENDROOT
BRANCH   1   2
ATOM      2  N   UNL     1       4.734  -1.264   0.611  1.00  0.00    -0.356 N 
ATOM      3  C   UNL     1       4.718  -1.744   1.889  1.00  0.00     0.220 C 
ATOM      4  O   UNL     1       3.694  -1.550   2.551  1.00  0.00    -0.275 OA
ATOM      5  H   UNL     1       3.844  -0.990   0.292  1.00  0.00     0.163 HD
BRANCH   3   6
ATOM      6  C   UNL     1       5.881  -2.486   2.509  1.00  0.00     0.112 C 
BRANCH   6   7
ATOM      7  C   UNL     1       5.517  -3.956   2.724  1.00  0.00     0.138 C 
BRANCH   7   8
ATOM      8  C   UNL     1       5.822  -4.633   1.428  1.00  0.00     0.308 C 
ATOM      9  N   UNL     1       3.905  -5.482  -1.499  1.00  0.00    -0.216 N 
ATOM     10  C   UNL     1       4.777  -5.573  -0.394  1.00  0.00     0.319 C 
ATOM     11  C   UNL     1       4.855  -5.372  -2.660  1.00  0.00     0.212 C 
ATOM     12  N   UNL     1       4.717  -4.804   0.641  1.00  0.00    -0.204 N 
ATOM     13  S   UNL     1       6.147  -6.652  -0.760  1.00  0.00    -0.029 SA
ATOM     14  C   UNL     1       5.834  -6.561  -2.503  1.00  0.00     0.120 C 
ATOM     15  C   UNL     1       4.585  -5.508  -4.117  1.00  0.00     0.188 C 
ATOM     16  H   UNL     1       3.877  -4.341   0.864  1.00  0.00     0.316 HD
ATOM     17  C   UNL     1       7.006  -6.279  -3.428  1.00  0.00     0.156 C 
ATOM     18  S   UNL     1       6.161  -5.784  -4.911  1.00  0.00     0.155 S 
ATOM     19  O   UNL     1       6.998  -4.705   1.067  1.00  0.00    -0.247 OA
ATOM     20  O   UNL     1       6.030  -6.920  -5.809  1.00  0.00    -0.229 OA
ATOM     21  O   UNL     1       6.685  -4.516  -5.359  1.00  0.00    -0.229 OA
BRANCH   9  22
ATOM     22  C   UNL     1       2.573  -5.121  -1.213  1.00  0.00     0.132 A 
ATOM     23  C   UNL     1       0.675  -3.524  -0.736  1.00  0.00     0.123 A 
ATOM     24  C   UNL     1      -0.108  -4.538  -0.239  1.00  0.00     0.047 A 
ATOM     25  C   UNL     1       1.943  -3.854  -1.270  1.00  0.00     0.098 A 
ATOM     26  C   UNL     1       0.412  -5.829  -0.222  1.00  0.00     0.008 A 
ATOM     27  C   UNL     1       1.732  -6.100  -0.659  1.00  0.00     0.052 A 
BRANCH  23  28
ATOM     28  O   UNL     1       0.080  -2.292  -0.847  1.00  0.00    -0.497 OA
ATOM     29  C   UNL     1       0.894  -1.148  -0.593  1.00  0.00     0.278 C 
ENDBRANCH  23  28
ENDBRANCH   9  22
ENDBRANCH   7   8
ENDBRANCH   6   7
ENDBRANCH   3   6
ENDBRANCH   1   2
BRANCH   1  30
ATOM     30  C   UNL     1       5.659  -1.859  -1.734  1.00  0.00     0.042 C 
BRANCH  30  31
ATOM     31  C   UNL     1       4.233  -1.887  -2.349  1.00  0.00     0.118 C 
BRANCH  31  32
ATOM     32  N   UNL     1       3.961  -2.536  -3.714  1.00  0.00    -0.352 N 
ATOM     33  C   UNL     1       2.687  -2.649  -4.403  1.00  0.00     0.251 C 
ATOM     34  H   UNL     1       4.741  -2.920  -4.176  1.00  0.00     0.163 HD
ATOM     35  O   UNL     1       2.143  -1.631  -4.823  1.00  0.00    -0.269 OA
BRANCH  33  36
ATOM     36  C   UNL     1       2.091  -4.053  -4.817  1.00  0.00     0.039 A 
ATOM     37  C   UNL     1       2.459  -4.778  -5.972  1.00  0.00     0.014 A 
ATOM     38  C   UNL     1       1.191  -4.731  -4.001  1.00  0.00     0.014 A 
ATOM     39  C   UNL     1       2.202  -6.202  -6.100  1.00  0.00     0.010 A 
ATOM     40  C   UNL     1       0.996  -6.143  -4.074  1.00  0.00     0.010 A 
ATOM     41  C   UNL     1       1.562  -6.939  -5.084  1.00  0.00    -0.014 A 
BRANCH  41  42
ATOM     42  C   UNL     1       1.250  -8.439  -5.100  1.00  0.00     0.031 A 
ATOM     43  C   UNL     1      -0.180  -8.822  -5.420  1.00  0.00     0.074 A 
ATOM     44  C   UNL     1       2.066  -9.464  -4.720  1.00  0.00     0.049 A 
ATOM     45  N   UNL     1      -0.785  -9.980  -5.339  1.00  0.00    -0.248 NA
ATOM     46  C   UNL     1      -1.046  -7.718  -5.858  1.00  0.00     0.031 C 
ATOM     47  C   UNL     1       3.476  -9.367  -4.358  1.00  0.00     0.029 A 
ATOM     48  N   UNL     1       1.803 -10.823  -4.539  1.00  0.00    -0.354 N 
ATOM     49  C   UNL     1      -2.112  -9.734  -5.671  1.00  0.00     0.074 A 
ATOM     50  C   UNL     1      -2.225  -8.311  -5.910  1.00  0.00     0.031 C 
ATOM     51  C   UNL     1       3.939 -10.574  -3.967  1.00  0.00     0.029 A 
ATOM     52  C   UNL     1       2.866 -11.566  -4.042  1.00  0.00     0.049 A 
ATOM     53  H   UNL     1       0.929 -11.225  -4.748  1.00  0.00     0.167 HD
ATOM     54  C   UNL     1      -3.153 -10.590  -5.799  1.00  0.00     0.034 A 
ATOM     55  C   UNL     1       2.983 -12.875  -3.691  1.00  0.00     0.034 A 
ATOM     56  C   UNL     1      -3.097 -12.008  -5.595  1.00  0.00     0.049 A 
ATOM     57  C   UNL     1       1.798 -13.822  -3.827  1.00  0.00     0.074 A 
ATOM     58  C   UNL     1      -4.112 -12.935  -5.758  1.00  0.00     0.029 A 
ATOM     59  N   UNL     1      -1.982 -12.706  -5.172  1.00  0.00    -0.354 N 
ATOM     60  N   UNL     1       0.593 -13.578  -4.278  1.00  0.00    -0.248 NA
ATOM     61  C   UNL     1       1.998 -15.235  -3.438  1.00  0.00     0.031 C 
ATOM     62  C   UNL     1      -3.620 -14.193  -5.401  1.00  0.00     0.029 A 
ATOM     63  C   UNL     1      -2.284 -14.053  -5.067  1.00  0.00     0.049 A 
ATOM     64  H   UNL     1      -1.104 -12.306  -4.975  1.00  0.00     0.167 HD
ATOM     65  C   UNL     1      -0.075 -14.804  -4.288  1.00  0.00     0.074 A 
ATOM     66  C   UNL     1       0.850 -15.797  -3.796  1.00  0.00     0.031 C 
ATOM     67  C   UNL     1      -1.347 -15.071  -4.671  1.00  0.00     0.034 A 
BRANCH  54  68
ATOM     68  C   UNL     1      -4.468  -9.986  -6.209  1.00  0.00     0.023 A 
ATOM     69  C   UNL     1      -4.623  -9.476  -7.515  1.00  0.00     0.012 A 
ATOM     70  C   UNL     1      -5.539  -9.914  -5.300  1.00  0.00     0.148 A 
ATOM     71  C   UNL     1      -5.804  -8.840  -7.888  1.00  0.00     0.002 A 
ATOM     72  C   UNL     1      -6.734  -9.332  -5.700  1.00  0.00     0.091 A 
ATOM     73  F   UNL     1      -5.362 -10.392  -4.060  1.00  0.00    -0.205 F 
ATOM     74  C   UNL     1      -6.860  -8.775  -6.984  1.00  0.00     0.022 A 
BRANCH  72  75
ATOM     75  S   UNL     1      -8.182  -9.277  -4.643  1.00  0.00     0.127 S 
ATOM     76  O   UNL     1      -8.288  -7.846  -4.363  1.00  0.00    -0.237 OA
ATOM     77  O   UNL     1      -9.222  -9.806  -5.525  1.00  0.00    -0.237 OA
ATOM     78  O   UNL     1      -7.874 -10.116  -3.493  1.00  0.00    -0.744 OA
ENDBRANCH  72  75
ENDBRANCH  54  68
BRANCH  55  79
ATOM     79  C   UNL     1       4.286 -13.457  -3.200  1.00  0.00     0.023 A 
ATOM     80  C   UNL     1       4.952 -14.429  -3.983  1.00  0.00     0.012 A 
ATOM     81  C   UNL     1       4.813 -13.147  -1.930  1.00  0.00     0.148 A 
ATOM     82  C   UNL     1       6.074 -15.109  -3.496  1.00  0.00     0.002 A 
ATOM     83  C   UNL     1       5.964 -13.790  -1.472  1.00  0.00     0.091 A 
ATOM     84  F   UNL     1       4.165 -12.245  -1.181  1.00  0.00    -0.205 F 
ATOM     85  C   UNL     1       6.583 -14.786  -2.244  1.00  0.00     0.022 A 
BRANCH  83  86
ATOM     86  S   UNL     1       6.758 -13.384   0.090  1.00  0.00     0.127 S 
ATOM     87  O   UNL     1       6.625 -14.635   0.832  1.00  0.00    -0.237 OA
ATOM     88  O   UNL     1       8.119 -13.068  -0.344  1.00  0.00    -0.237 OA
ATOM     89  O   UNL     1       6.013 -12.254   0.626  1.00  0.00    -0.744 OA
ENDBRANCH  83  86
ENDBRANCH  55  79
BRANCH  67  90
ATOM     90  C   UNL     1      -1.840 -16.499  -4.693  1.00  0.00     0.023 A 
ATOM     91  C   UNL     1      -2.144 -17.175  -3.496  1.00  0.00     0.012 A 
ATOM     92  C   UNL     1      -2.155 -17.110  -5.926  1.00  0.00     0.148 A 
ATOM     93  C   UNL     1      -2.745 -18.436  -3.526  1.00  0.00     0.002 A 
ATOM     94  C   UNL     1      -2.801 -18.341  -5.948  1.00  0.00     0.091 A 
ATOM     95  F   UNL     1      -1.844 -16.459  -7.056  1.00  0.00    -0.205 F 
ATOM     96  C   UNL     1      -3.089 -19.010  -4.749  1.00  0.00     0.022 A 
BRANCH  94  97
ATOM     97  S   UNL     1      -3.382 -19.102  -7.470  1.00  0.00     0.127 S 
ATOM     98  O   UNL     1      -2.510 -20.271  -7.571  1.00  0.00    -0.237 OA
ATOM     99  O   UNL     1      -4.776 -19.407  -7.151  1.00  0.00    -0.237 OA
ATOM    100  O   UNL     1      -3.203 -18.104  -8.516  1.00  0.00    -0.744 OA
ENDBRANCH  94  97
ENDBRANCH  67  90
ENDBRANCH  41  42
ENDBRANCH  33  36
ENDBRANCH  31  32
ENDBRANCH  30  31
ENDBRANCH   1  30
TORSDOF 17
