REMARK SMILES C[C@H](C(=O)NCCCNC(=O)c1ccc(-c2c3nc(c(-c4cccc(S(=O)(=O)[O-])c4F)c4ccc([nH]4)c(-c4cccc(S(=O)(=O)[O-])c4F)c4nc(c(-c5cccc(S(=O)(=O)[O-])c5F)c5ccc2[nH]5)C=C4)C=C3)cc1)c1cccc(C(=O)c2ccccc2)c1
REMARK SMILES IDX 7 1 6 2 5 3 3 4 4 5 2 7 1 8 75 9 76 10 88 11 77 12 79 13
REMARK SMILES IDX 78 14 80 15 81 16 82 17 83 18 87 19 84 20 86 21 85 22 8 23
REMARK SMILES IDX 9 24 10 25 11 27 12 28 13 29 74 30 14 31 73 32 15 33 16 34
REMARK SMILES IDX 17 35 67 36 18 37 72 38 66 39 68 40 19 41 71 42 65 43 64 44
REMARK SMILES IDX 20 46 52 47 32 48 51 49 33 50 36 51 50 52 69 53 34 54 35 55
REMARK SMILES IDX 49 57 70 58 37 59 21 60 22 61 30 62 23 63 25 64 31 65 24 66
REMARK SMILES IDX 26 67 27 68 28 69 29 70 53 71 54 72 62 73 55 74 57 75 63 76
REMARK SMILES IDX 56 77 58 78 59 79 60 80 61 81 38 82 39 83 47 84 40 85 42 86
REMARK SMILES IDX 48 87 41 88 43 89 44 90 45 91 46 92
REMARK H PARENT 5 6 9 26 68 45 36 56
REMARK Flexibility Score: inf
ROOT
ATOM      1  C   UNL     1       0.693   2.530   2.666  1.00  0.00     0.042 C 
ENDROOT
BRANCH   1   2
ATOM      2  C   UNL     1      -0.057   1.792   1.575  1.00  0.00     0.117 C 
BRANCH   2   3
ATOM      3  N   UNL     1       0.795   1.380   0.471  1.00  0.00    -0.356 N 
ATOM      4  C   UNL     1       0.927   0.168  -0.138  1.00  0.00     0.227 C 
ATOM      5  O   UNL     1       1.587   0.131  -1.181  1.00  0.00    -0.274 OA
ATOM      6  H   UNL     1       1.369   2.091   0.105  1.00  0.00     0.163 HD
BRANCH   4   7
ATOM      7  C   UNL     1       0.325  -1.108   0.446  1.00  0.00     0.105 C 
ATOM      8  C   UNL     1       0.918  -1.399   1.833  1.00  0.00     0.023 C 
BRANCH   7   9
ATOM      9  C   UNL     1      -1.196  -1.243   0.400  1.00  0.00    -0.035 A 
ATOM     10  C   UNL     1      -2.062  -0.193   0.067  1.00  0.00     0.004 A 
ATOM     11  C   UNL     1      -1.771  -2.489   0.715  1.00  0.00     0.016 A 
ATOM     12  C   UNL     1      -3.445  -0.331   0.187  1.00  0.00     0.001 A 
ATOM     13  C   UNL     1      -3.162  -2.653   0.796  1.00  0.00     0.023 A 
ATOM     14  C   UNL     1      -3.992  -1.552   0.567  1.00  0.00     0.012 A 
BRANCH  13  15
ATOM     15  C   UNL     1      -3.813  -3.971   1.055  1.00  0.00     0.193 C 
ATOM     16  O   UNL     1      -5.036  -4.063   1.123  1.00  0.00    -0.289 OA
BRANCH  15  17
ATOM     17  C   UNL     1      -3.025  -5.216   1.118  1.00  0.00     0.022 A 
ATOM     18  C   UNL     1      -3.254  -6.185   0.136  1.00  0.00     0.012 A 
ATOM     19  C   UNL     1      -2.085  -5.435   2.129  1.00  0.00     0.012 A 
ATOM     20  C   UNL     1      -2.508  -7.362   0.141  1.00  0.00     0.001 A 
ATOM     21  C   UNL     1      -1.336  -6.612   2.123  1.00  0.00     0.001 A 
ATOM     22  C   UNL     1      -1.544  -7.570   1.129  1.00  0.00     0.000 A 
ENDBRANCH  15  17
ENDBRANCH  13  15
ENDBRANCH   7   9
ENDBRANCH   4   7
ENDBRANCH   2   3
ENDBRANCH   1   2
BRANCH   1  23
ATOM     23  C   UNL     1       1.396   3.793   2.188  1.00  0.00     0.118 C 
BRANCH  23  24
ATOM     24  N   UNL     1       0.492   4.773   1.596  1.00  0.00    -0.352 N 
ATOM     25  C   UNL     1       0.190   6.055   1.993  1.00  0.00     0.251 C 
ATOM     26  H   UNL     1       0.024   4.469   0.785  1.00  0.00     0.163 HD
ATOM     27  O   UNL     1      -0.716   6.667   1.433  1.00  0.00    -0.269 OA
BRANCH  25  28
ATOM     28  C   UNL     1       0.933   6.680   3.106  1.00  0.00     0.039 A 
ATOM     29  C   UNL     1       0.230   7.397   4.078  1.00  0.00     0.014 A 
ATOM     30  C   UNL     1       2.318   6.538   3.206  1.00  0.00     0.014 A 
ATOM     31  C   UNL     1       0.908   7.893   5.195  1.00  0.00     0.010 A 
ATOM     32  C   UNL     1       2.969   6.934   4.367  1.00  0.00     0.010 A 
ATOM     33  C   UNL     1       2.275   7.623   5.372  1.00  0.00    -0.014 A 
BRANCH  33  34
ATOM     34  C   UNL     1       3.003   8.040   6.598  1.00  0.00     0.031 A 
ATOM     35  C   UNL     1       4.197   8.952   6.492  1.00  0.00     0.074 A 
ATOM     36  C   UNL     1       2.664   7.509   7.790  1.00  0.00     0.049 A 
ATOM     37  N   UNL     1       5.017   9.349   7.429  1.00  0.00    -0.248 NA
ATOM     38  C   UNL     1       4.537   9.454   5.149  1.00  0.00     0.031 C 
ATOM     39  C   UNL     1       1.588   6.539   8.012  1.00  0.00     0.029 A 
ATOM     40  N   UNL     1       3.209   7.686   9.037  1.00  0.00    -0.354 N 
ATOM     41  C   UNL     1       5.992  10.102   6.786  1.00  0.00     0.074 A 
ATOM     42  C   UNL     1       5.685  10.074   5.373  1.00  0.00     0.031 C 
ATOM     43  C   UNL     1       1.547   6.216   9.314  1.00  0.00     0.029 A 
ATOM     44  C   UNL     1       2.610   6.928  10.016  1.00  0.00     0.049 A 
ATOM     45  H   UNL     1       3.959   8.299   9.214  1.00  0.00     0.167 HD
ATOM     46  C   UNL     1       7.029  10.787   7.323  1.00  0.00     0.034 A 
ATOM     47  C   UNL     1       2.888   6.815  11.329  1.00  0.00     0.034 A 
ATOM     48  C   UNL     1       7.292  10.867   8.733  1.00  0.00     0.049 A 
ATOM     49  C   UNL     1       4.003   7.639  11.913  1.00  0.00     0.074 A 
ATOM     50  C   UNL     1       8.249  11.621   9.388  1.00  0.00     0.029 A 
ATOM     51  N   UNL     1       6.595  10.170   9.707  1.00  0.00    -0.354 N 
ATOM     52  N   UNL     1       4.809   8.479  11.310  1.00  0.00    -0.248 NA
ATOM     53  C   UNL     1       4.225   7.528  13.362  1.00  0.00     0.031 C 
ATOM     54  C   UNL     1       8.141  11.366  10.760  1.00  0.00     0.029 A 
ATOM     55  C   UNL     1       7.104  10.469  10.959  1.00  0.00     0.049 A 
ATOM     56  H   UNL     1       5.848   9.552   9.534  1.00  0.00     0.167 HD
ATOM     57  C   UNL     1       5.610   9.022  12.308  1.00  0.00     0.074 A 
ATOM     58  C   UNL     1       5.176   8.431  13.558  1.00  0.00     0.031 C 
ATOM     59  C   UNL     1       6.624   9.915  12.199  1.00  0.00     0.034 A 
BRANCH  46  60
ATOM     60  C   UNL     1       7.918  11.560   6.383  1.00  0.00     0.023 A 
ATOM     61  C   UNL     1       7.420  12.721   5.755  1.00  0.00     0.012 A 
ATOM     62  C   UNL     1       9.251  11.170   6.155  1.00  0.00     0.148 A 
ATOM     63  C   UNL     1       8.222  13.459   4.886  1.00  0.00     0.002 A 
ATOM     64  C   UNL     1      10.059  11.937   5.323  1.00  0.00     0.091 A 
ATOM     65  F   UNL     1       9.701  10.051   6.741  1.00  0.00    -0.205 F 
ATOM     66  C   UNL     1       9.543  13.074   4.678  1.00  0.00     0.022 A 
BRANCH  64  67
ATOM     67  S   UNL     1      11.796  11.569   5.053  1.00  0.00     0.127 S 
ATOM     68  O   UNL     1      11.780  11.056   3.684  1.00  0.00    -0.237 OA
ATOM     69  O   UNL     1      12.418  12.885   5.204  1.00  0.00    -0.237 OA
ATOM     70  O   UNL     1      12.165  10.604   6.080  1.00  0.00    -0.744 OA
ENDBRANCH  64  67
ENDBRANCH  46  60
BRANCH  47  71
ATOM     71  C   UNL     1       2.042   5.945  12.196  1.00  0.00     0.023 A 
ATOM     72  C   UNL     1       1.166   6.543  13.123  1.00  0.00     0.012 A 
ATOM     73  C   UNL     1       2.069   4.542  12.084  1.00  0.00     0.148 A 
ATOM     74  C   UNL     1       0.355   5.759  13.945  1.00  0.00     0.002 A 
ATOM     75  C   UNL     1       1.220   3.768  12.867  1.00  0.00     0.091 A 
ATOM     76  F   UNL     1       2.917   3.991  11.203  1.00  0.00    -0.205 F 
ATOM     77  C   UNL     1       0.374   4.374  13.810  1.00  0.00     0.022 A 
BRANCH  75  78
ATOM     78  S   UNL     1       1.081   1.988  12.667  1.00  0.00     0.127 S 
ATOM     79  O   UNL     1       1.732   1.499  13.879  1.00  0.00    -0.237 OA
ATOM     80  O   UNL     1      -0.370   1.800  12.627  1.00  0.00    -0.237 OA
ATOM     81  O   UNL     1       1.758   1.681  11.414  1.00  0.00    -0.744 OA
ENDBRANCH  75  78
ENDBRANCH  47  71
BRANCH  59  82
ATOM     82  C   UNL     1       7.323  10.337  13.464  1.00  0.00     0.023 A 
ATOM     83  C   UNL     1       8.199   9.443  14.110  1.00  0.00     0.012 A 
ATOM     84  C   UNL     1       7.173  11.645  13.967  1.00  0.00     0.148 A 
ATOM     85  C   UNL     1       8.894   9.834  15.253  1.00  0.00     0.002 A 
ATOM     86  C   UNL     1       7.905  12.043  15.079  1.00  0.00     0.091 A 
ATOM     87  F   UNL     1       6.319  12.474  13.349  1.00  0.00    -0.205 F 
ATOM     88  C   UNL     1       8.757  11.136  15.730  1.00  0.00     0.022 A 
BRANCH  86  89
ATOM     89  S   UNL     1       7.864  13.726  15.704  1.00  0.00     0.127 S 
ATOM     90  O   UNL     1       7.068  13.574  16.920  1.00  0.00    -0.237 OA
ATOM     91  O   UNL     1       9.282  14.008  15.934  1.00  0.00    -0.237 OA
ATOM     92  O   UNL     1       7.254  14.528  14.652  1.00  0.00    -0.744 OA
ENDBRANCH  86  89
ENDBRANCH  59  82
ENDBRANCH  33  34
ENDBRANCH  25  28
ENDBRANCH  23  24
ENDBRANCH   1  23
TORSDOF 16
