REMARK SMILES CC(C)C[C@H](NC(=O)CNC(=O)[C@@H]([NH3+])C(C)C)C(=O)NCCCNC(=O)c1ccc(-c2c3nc(c(-c4cccc(S(=O)(=O)[O-])c4F)c4ccc([nH]4)c(-c4cccc(S(=O)(=O)[O-])c4F)c4nc(c(-c5cccc(S(=O)(=O)[O-])c5F)c5ccc2[nH]5)C=C4)C=C3)cc1
REMARK SMILES IDX 21 1 20 2 18 3 19 4 5 6 4 7 2 8 1 9 3 10 6 11 7 12 8 14 9 15
REMARK SMILES IDX 10 16 11 17 12 19 13 20 14 21 15 25 16 26 17 27 22 28 23 29
REMARK SMILES IDX 24 30 25 31 26 33 27 34 28 35 89 36 29 37 88 38 30 39 31 40
REMARK SMILES IDX 32 41 82 42 33 43 87 44 81 45 83 46 34 47 86 48 80 49 79 50
REMARK SMILES IDX 35 52 67 53 47 54 66 55 48 56 51 57 65 58 84 59 49 60 50 61
REMARK SMILES IDX 64 63 85 64 52 65 36 66 37 67 45 68 38 69 40 70 46 71 39 72
REMARK SMILES IDX 41 73 42 74 43 75 44 76 68 77 69 78 77 79 70 80 72 81 78 82
REMARK SMILES IDX 71 83 73 84 74 85 75 86 76 87 53 88 54 89 62 90 55 91 57 92
REMARK SMILES IDX 63 93 56 94 58 95 59 96 60 97 61 98
REMARK H PARENT 20 5 6 13 10 18 14 22 14 23 14 24 24 32 83 51 51 62
REMARK Flexibility Score: inf
ROOT
ATOM      1  C   UNL     1      -3.325   3.279   1.841  1.00  0.00     0.117 C 
ENDROOT
BRANCH   1   2
ATOM      2  N   UNL     1      -3.880   1.986   1.472  1.00  0.00    -0.354 N 
ATOM      3  C   UNL     1      -3.276   0.771   1.358  1.00  0.00     0.242 C 
ATOM      4  O   UNL     1      -3.985  -0.210   1.127  1.00  0.00    -0.273 OA
ATOM      5  H   UNL     1      -4.844   1.990   1.274  1.00  0.00     0.163 HD
BRANCH   3   6
ATOM      6  C   UNL     1      -1.778   0.625   1.657  1.00  0.00     0.171 C 
BRANCH   6   7
ATOM      7  C   UNL     1      -1.508   0.930   3.146  1.00  0.00     0.038 C 
BRANCH   7   8
ATOM      8  C   UNL     1      -2.500   0.390   4.198  1.00  0.00    -0.015 C 
ATOM      9  C   UNL     1      -2.589  -1.135   4.219  1.00  0.00     0.007 C 
ATOM     10  C   UNL     1      -2.066   0.888   5.582  1.00  0.00     0.007 C 
ENDBRANCH   7   8
ENDBRANCH   6   7
BRANCH   6  11
ATOM     11  N   UNL     1      -1.014   1.484   0.741  1.00  0.00    -0.343 N 
ATOM     12  C   UNL     1       0.287   1.479   0.348  1.00  0.00     0.240 C 
ATOM     13  H   UNL     1      -1.548   2.203   0.334  1.00  0.00     0.164 HD
ATOM     14  O   UNL     1       0.630   2.346  -0.460  1.00  0.00    -0.273 OA
BRANCH  12  15
ATOM     15  C   UNL     1       1.292   0.432   0.830  1.00  0.00     0.216 C 
BRANCH  15  16
ATOM     16  N   UNL     1       1.606   0.550   2.244  1.00  0.00    -0.342 N 
ATOM     17  C   UNL     1       1.629  -0.392   3.227  1.00  0.00     0.278 C 
ATOM     18  H   UNL     1       1.840   1.459   2.539  1.00  0.00     0.164 HD
ATOM     19  O   UNL     1       1.887  -0.011   4.375  1.00  0.00    -0.268 OA
BRANCH  17  20
ATOM     20  C   UNL     1       1.364  -1.894   2.955  1.00  0.00     0.273 C 
BRANCH  20  21
ATOM     21  N   UNL     1       0.169  -2.092   2.116  1.00  0.00    -0.347 N 
ATOM     22  H   UNL     1       0.316  -1.654   1.206  1.00  0.00     0.345 HD
ATOM     23  H   UNL     1      -0.640  -1.667   2.571  1.00  0.00     0.345 HD
ATOM     24  H   UNL     1       0.003  -3.090   1.990  1.00  0.00     0.345 HD
ENDBRANCH  20  21
BRANCH  20  25
ATOM     25  C   UNL     1       2.622  -2.579   2.389  1.00  0.00     0.051 C 
ATOM     26  C   UNL     1       3.730  -2.575   3.451  1.00  0.00     0.014 C 
ATOM     27  C   UNL     1       2.350  -4.026   1.961  1.00  0.00     0.014 C 
ENDBRANCH  20  25
ENDBRANCH  17  20
ENDBRANCH  15  16
ENDBRANCH  12  15
ENDBRANCH   6  11
ENDBRANCH   3   6
ENDBRANCH   1   2
BRANCH   1  28
ATOM     28  C   UNL     1      -3.685   4.340   0.822  1.00  0.00     0.042 C 
BRANCH  28  29
ATOM     29  C   UNL     1      -5.183   4.554   0.712  1.00  0.00     0.118 C 
BRANCH  29  30
ATOM     30  N   UNL     1      -5.771   5.012   1.967  1.00  0.00    -0.352 N 
ATOM     31  C   UNL     1      -6.333   6.234   2.260  1.00  0.00     0.251 C 
ATOM     32  H   UNL     1      -5.763   4.359   2.704  1.00  0.00     0.163 HD
ATOM     33  O   UNL     1      -6.583   6.547   3.413  1.00  0.00    -0.269 OA
BRANCH  31  34
ATOM     34  C   UNL     1      -6.605   7.159   1.143  1.00  0.00     0.039 A 
ATOM     35  C   UNL     1      -6.158   8.478   1.219  1.00  0.00     0.014 A 
ATOM     36  C   UNL     1      -7.222   6.676  -0.012  1.00  0.00     0.014 A 
ATOM     37  C   UNL     1      -6.255   9.293   0.090  1.00  0.00     0.010 A 
ATOM     38  C   UNL     1      -7.210   7.449  -1.162  1.00  0.00     0.010 A 
ATOM     39  C   UNL     1      -6.735   8.768  -1.122  1.00  0.00    -0.014 A 
BRANCH  39  40
ATOM     40  C   UNL     1      -6.752   9.568  -2.370  1.00  0.00     0.031 A 
ATOM     41  C   UNL     1      -8.056   9.809  -3.081  1.00  0.00     0.074 A 
ATOM     42  C   UNL     1      -5.591   9.971  -2.922  1.00  0.00     0.049 A 
ATOM     43  N   UNL     1      -8.272  10.386  -4.233  1.00  0.00    -0.248 NA
ATOM     44  C   UNL     1      -9.276   9.296  -2.431  1.00  0.00     0.031 C 
ATOM     45  C   UNL     1      -4.255   9.715  -2.376  1.00  0.00     0.029 A 
ATOM     46  N   UNL     1      -5.344  10.656  -4.086  1.00  0.00    -0.354 N 
ATOM     47  C   UNL     1      -9.637  10.266  -4.466  1.00  0.00     0.074 A 
ATOM     48  C   UNL     1     -10.194   9.523  -3.358  1.00  0.00     0.031 C 
ATOM     49  C   UNL     1      -3.334  10.242  -3.197  1.00  0.00     0.029 A 
ATOM     50  C   UNL     1      -4.006  10.842  -4.344  1.00  0.00     0.049 A 
ATOM     51  H   UNL     1      -6.058  10.983  -4.679  1.00  0.00     0.167 HD
ATOM     52  C   UNL     1     -10.369  10.762  -5.490  1.00  0.00     0.034 A 
ATOM     53  C   UNL     1      -3.392  11.423  -5.393  1.00  0.00     0.034 A 
ATOM     54  C   UNL     1      -9.818  11.552  -6.556  1.00  0.00     0.049 A 
ATOM     55  C   UNL     1      -4.232  12.010  -6.495  1.00  0.00     0.074 A 
ATOM     56  C   UNL     1     -10.485  12.193  -7.583  1.00  0.00     0.029 A 
ATOM     57  N   UNL     1      -8.467  11.804  -6.735  1.00  0.00    -0.354 N 
ATOM     58  N   UNL     1      -5.538  12.037  -6.610  1.00  0.00    -0.248 NA
ATOM     59  C   UNL     1      -3.518  12.674  -7.594  1.00  0.00     0.031 C 
ATOM     60  C   UNL     1      -9.534  12.816  -8.397  1.00  0.00     0.029 A 
ATOM     61  C   UNL     1      -8.277  12.581  -7.863  1.00  0.00     0.049 A 
ATOM     62  H   UNL     1      -7.749  11.477  -6.146  1.00  0.00     0.167 HD
ATOM     63  C   UNL     1      -5.803  12.745  -7.776  1.00  0.00     0.074 A 
ATOM     64  C   UNL     1      -4.522  13.151  -8.317  1.00  0.00     0.031 C 
ATOM     65  C   UNL     1      -6.997  13.019  -8.358  1.00  0.00     0.034 A 
BRANCH  52  66
ATOM     66  C   UNL     1     -11.854  10.517  -5.470  1.00  0.00     0.023 A 
ATOM     67  C   UNL     1     -12.655  11.180  -4.517  1.00  0.00     0.012 A 
ATOM     68  C   UNL     1     -12.464   9.672  -6.417  1.00  0.00     0.148 A 
ATOM     69  C   UNL     1     -14.034  10.979  -4.483  1.00  0.00     0.002 A 
ATOM     70  C   UNL     1     -13.845   9.512  -6.406  1.00  0.00     0.091 A 
ATOM     71  F   UNL     1     -11.684   9.031  -7.299  1.00  0.00    -0.205 F 
ATOM     72  C   UNL     1     -14.629  10.155  -5.433  1.00  0.00     0.022 A 
BRANCH  70  73
ATOM     73  S   UNL     1     -14.716   8.535  -7.635  1.00  0.00     0.127 S 
ATOM     74  O   UNL     1     -15.149   7.384  -6.844  1.00  0.00    -0.237 OA
ATOM     75  O   UNL     1     -15.796   9.438  -8.037  1.00  0.00    -0.237 OA
ATOM     76  O   UNL     1     -13.746   8.246  -8.681  1.00  0.00    -0.744 OA
ENDBRANCH  70  73
ENDBRANCH  52  66
BRANCH  53  77
ATOM     77  C   UNL     1      -1.906  11.537  -5.420  1.00  0.00     0.023 A 
ATOM     78  C   UNL     1      -1.308  12.802  -5.258  1.00  0.00     0.012 A 
ATOM     79  C   UNL     1      -1.083  10.405  -5.576  1.00  0.00     0.148 A 
ATOM     80  C   UNL     1       0.079  12.944  -5.283  1.00  0.00     0.002 A 
ATOM     81  C   UNL     1       0.300  10.545  -5.547  1.00  0.00     0.091 A 
ATOM     82  F   UNL     1      -1.670   9.211  -5.740  1.00  0.00    -0.205 F 
ATOM     83  C   UNL     1       0.883  11.815  -5.417  1.00  0.00     0.022 A 
BRANCH  81  84
ATOM     84  S   UNL     1       1.413   9.136  -5.584  1.00  0.00     0.127 S 
ATOM     85  O   UNL     1       2.005   9.257  -6.913  1.00  0.00    -0.237 OA
ATOM     86  O   UNL     1       2.319   9.438  -4.475  1.00  0.00    -0.237 OA
ATOM     87  O   UNL     1       0.570   7.967  -5.369  1.00  0.00    -0.744 OA
ENDBRANCH  81  84
ENDBRANCH  53  77
BRANCH  65  88
ATOM     88  C   UNL     1      -6.984  13.817  -9.635  1.00  0.00     0.023 A 
ATOM     89  C   UNL     1      -6.550  13.212 -10.831  1.00  0.00     0.012 A 
ATOM     90  C   UNL     1      -7.479  15.135  -9.664  1.00  0.00     0.148 A 
ATOM     91  C   UNL     1      -6.581  13.918 -12.032  1.00  0.00     0.002 A 
ATOM     92  C   UNL     1      -7.554  15.816 -10.873  1.00  0.00     0.091 A 
ATOM     93  F   UNL     1      -7.871  15.697  -8.511  1.00  0.00    -0.205 F 
ATOM     94  C   UNL     1      -7.094  15.213 -12.055  1.00  0.00     0.022 A 
BRANCH  92  95
ATOM     95  S   UNL     1      -8.289  17.448 -11.015  1.00  0.00     0.127 S 
ATOM     96  O   UNL     1      -7.114  18.284 -11.257  1.00  0.00    -0.237 OA
ATOM     97  O   UNL     1      -9.173  17.290 -12.171  1.00  0.00    -0.237 OA
ATOM     98  O   UNL     1      -8.979  17.690  -9.756  1.00  0.00    -0.744 OA
ENDBRANCH  92  95
ENDBRANCH  65  88
ENDBRANCH  39  40
ENDBRANCH  31  34
ENDBRANCH  29  30
ENDBRANCH  28  29
ENDBRANCH   1  28
TORSDOF 21
