REMARK SMILES Cc1cc(C)n2nc(SCC(=O)N3CCC(C(=O)NCCCNC(=O)c4ccc(-c5c6nc(c(-c7cccc(S(=O)(=O)[O-])c7F)c7ccc([nH]7)c(-c7cccc(S(=O)(=O)[O-])c7F)c7nc(c(-c8cccc(S(=O)(=O)[O-])c8F)c8ccc5[nH]8)C=C7)C=C6)cc4)CC3)nc2n1
REMARK SMILES IDX 21 1 20 2 19 3 17 4 18 5 16 7 11 8 12 9 13 10 14 11 90 12
REMARK SMILES IDX 15 13 89 14 10 15 9 16 8 17 1 18 2 19 3 20 93 21 4 22 92 23
REMARK SMILES IDX 5 24 6 25 91 26 7 27 22 28 23 29 24 30 25 32 26 33 27 34
REMARK SMILES IDX 88 35 28 36 87 37 29 38 30 39 31 40 81 41 32 42 86 43 80 44
REMARK SMILES IDX 82 45 33 46 85 47 79 48 78 49 34 51 66 52 46 53 65 54 47 55
REMARK SMILES IDX 50 56 64 57 83 58 48 59 49 60 63 62 84 63 51 64 35 65 36 66
REMARK SMILES IDX 44 67 37 68 39 69 45 70 38 71 40 72 41 73 42 74 43 75 67 76
REMARK SMILES IDX 68 77 76 78 69 79 71 80 77 81 70 82 72 83 73 84 74 85 75 86
REMARK SMILES IDX 52 87 53 88 61 89 54 90 56 91 62 92 55 93 57 94 58 95 59 96
REMARK SMILES IDX 60 97
REMARK H PARENT 19 6 23 31 82 50 50 61
REMARK Flexibility Score: inf
ROOT
ATOM      1  C   UNL     1       3.744  -5.989  -3.733  1.00  0.00     0.042 C 
ENDROOT
BRANCH   1   2
ATOM      2  C   UNL     1       2.862  -5.048  -4.553  1.00  0.00     0.117 C 
BRANCH   2   3
ATOM      3  N   UNL     1       3.319  -4.855  -5.925  1.00  0.00    -0.356 N 
ATOM      4  C   UNL     1       2.751  -5.220  -7.110  1.00  0.00     0.223 C 
ATOM      5  O   UNL     1       3.268  -4.820  -8.154  1.00  0.00    -0.275 OA
ATOM      6  H   UNL     1       4.179  -4.384  -6.010  1.00  0.00     0.163 HD
BRANCH   4   7
ATOM      7  C   UNL     1       1.487  -6.066  -7.159  1.00  0.00     0.082 C 
ATOM      8  C   UNL     1      -0.705  -7.256  -4.101  1.00  0.00     0.233 C 
ATOM      9  O   UNL     1       0.178  -7.717  -3.369  1.00  0.00    -0.274 OA
ATOM     10  N   UNL     1      -0.531  -7.218  -5.482  1.00  0.00    -0.342 N 
ATOM     11  C   UNL     1       0.422  -8.129  -6.099  1.00  0.00     0.120 C 
ATOM     12  C   UNL     1      -0.936  -6.124  -6.353  1.00  0.00     0.120 C 
ATOM     13  C   UNL     1       1.709  -7.425  -6.481  1.00  0.00     0.035 C 
ATOM     14  C   UNL     1       0.271  -5.250  -6.683  1.00  0.00     0.035 C 
BRANCH   8  15
ATOM     15  C   UNL     1      -2.101  -7.025  -3.538  1.00  0.00     0.178 C 
BRANCH  15  16
ATOM     16  S   UNL     1      -2.772  -5.366  -3.568  1.00  0.00    -0.074 SA
BRANCH  16  17
ATOM     17  C   UNL     1      -1.665  -4.427  -2.621  1.00  0.00     0.211 A 
ATOM     18  C   UNL     1       0.883   0.032  -0.045  1.00  0.00     0.067 C 
ATOM     19  C   UNL     1       0.491  -1.342  -0.526  1.00  0.00     0.043 A 
ATOM     20  C   UNL     1       1.239  -2.501   0.061  1.00  0.00     0.047 A 
ATOM     21  N   UNL     1      -0.481  -1.438  -1.383  1.00  0.00    -0.216 NA
ATOM     22  C   UNL     1       0.859  -3.727  -0.342  1.00  0.00     0.045 A 
ATOM     23  C   UNL     1      -0.821  -2.697  -1.778  1.00  0.00     0.253 A 
ATOM     24  C   UNL     1       1.495  -4.983   0.167  1.00  0.00     0.067 C 
ATOM     25  N   UNL     1      -0.180  -3.837  -1.273  1.00  0.00    -0.200 N 
ATOM     26  N   UNL     1      -1.749  -3.070  -2.627  1.00  0.00    -0.183 NA
ATOM     27  N   UNL     1      -0.740  -4.946  -1.819  1.00  0.00    -0.138 NA
ENDBRANCH  16  17
ENDBRANCH  15  16
ENDBRANCH   8  15
ENDBRANCH   4   7
ENDBRANCH   2   3
ENDBRANCH   1   2
BRANCH   1  28
ATOM     28  C   UNL     1       5.063  -5.354  -3.355  1.00  0.00     0.118 C 
BRANCH  28  29
ATOM     29  N   UNL     1       4.913  -4.255  -2.395  1.00  0.00    -0.352 N 
ATOM     30  C   UNL     1       5.923  -3.559  -1.749  1.00  0.00     0.251 C 
ATOM     31  H   UNL     1       3.991  -3.980  -2.187  1.00  0.00     0.163 HD
ATOM     32  O   UNL     1       5.693  -2.883  -0.764  1.00  0.00    -0.269 OA
BRANCH  30  33
ATOM     33  C   UNL     1       7.281  -3.665  -2.318  1.00  0.00     0.039 A 
ATOM     34  C   UNL     1       8.408  -3.883  -1.524  1.00  0.00     0.014 A 
ATOM     35  C   UNL     1       7.375  -3.631  -3.706  1.00  0.00     0.014 A 
ATOM     36  C   UNL     1       9.622  -4.142  -2.157  1.00  0.00     0.010 A 
ATOM     37  C   UNL     1       8.503  -4.102  -4.313  1.00  0.00     0.010 A 
ATOM     38  C   UNL     1       9.652  -4.268  -3.556  1.00  0.00    -0.014 A 
BRANCH  38  39
ATOM     39  C   UNL     1      10.858  -4.657  -4.268  1.00  0.00     0.031 A 
ATOM     40  C   UNL     1      11.460  -5.932  -3.807  1.00  0.00     0.074 A 
ATOM     41  C   UNL     1      11.267  -4.023  -5.389  1.00  0.00     0.049 A 
ATOM     42  N   UNL     1      12.554  -6.076  -3.137  1.00  0.00    -0.248 NA
ATOM     43  C   UNL     1      10.685  -7.173  -3.954  1.00  0.00     0.031 C 
ATOM     44  C   UNL     1      10.596  -2.946  -6.134  1.00  0.00     0.029 A 
ATOM     45  N   UNL     1      12.329  -4.309  -6.184  1.00  0.00    -0.354 N 
ATOM     46  C   UNL     1      12.736  -7.450  -3.004  1.00  0.00     0.074 A 
ATOM     47  C   UNL     1      11.465  -8.048  -3.314  1.00  0.00     0.031 C 
ATOM     48  C   UNL     1      11.122  -2.856  -7.375  1.00  0.00     0.029 A 
ATOM     49  C   UNL     1      12.282  -3.721  -7.444  1.00  0.00     0.049 A 
ATOM     50  H   UNL     1      13.072  -4.885  -5.894  1.00  0.00     0.167 HD
ATOM     51  C   UNL     1      13.987  -7.981  -2.906  1.00  0.00     0.034 A 
ATOM     52  C   UNL     1      13.131  -3.950  -8.475  1.00  0.00     0.034 A 
ATOM     53  C   UNL     1      14.962  -6.952  -2.623  1.00  0.00     0.049 A 
ATOM     54  C   UNL     1      14.375  -4.491  -7.882  1.00  0.00     0.074 A 
ATOM     55  C   UNL     1      15.135  -6.027  -1.613  1.00  0.00     0.029 A 
ATOM     56  N   UNL     1      15.712  -6.496  -3.683  1.00  0.00    -0.354 N 
ATOM     57  N   UNL     1      15.146  -3.800  -7.088  1.00  0.00    -0.248 NA
ATOM     58  C   UNL     1      14.508  -5.935  -7.787  1.00  0.00     0.031 C 
ATOM     59  C   UNL     1      15.563  -4.839  -2.277  1.00  0.00     0.029 A 
ATOM     60  C   UNL     1      15.706  -5.126  -3.637  1.00  0.00     0.049 A 
ATOM     61  H   UNL     1      16.169  -7.053  -4.353  1.00  0.00     0.167 HD
ATOM     62  C   UNL     1      15.501  -4.696  -6.088  1.00  0.00     0.074 A 
ATOM     63  C   UNL     1      15.169  -6.016  -6.629  1.00  0.00     0.031 C 
ATOM     64  C   UNL     1      15.748  -4.275  -4.810  1.00  0.00     0.034 A 
BRANCH  51  65
ATOM     65  C   UNL     1      14.411  -9.341  -3.420  1.00  0.00     0.023 A 
ATOM     66  C   UNL     1      15.741  -9.741  -3.150  1.00  0.00     0.012 A 
ATOM     67  C   UNL     1      13.693 -10.121  -4.355  1.00  0.00     0.148 A 
ATOM     68  C   UNL     1      16.345 -10.808  -3.825  1.00  0.00     0.002 A 
ATOM     69  C   UNL     1      14.271 -11.230  -4.966  1.00  0.00     0.091 A 
ATOM     70  F   UNL     1      12.486  -9.736  -4.770  1.00  0.00    -0.205 F 
ATOM     71  C   UNL     1      15.608 -11.556  -4.731  1.00  0.00     0.022 A 
BRANCH  69  72
ATOM     72  S   UNL     1      13.347 -12.269  -6.107  1.00  0.00     0.127 S 
ATOM     73  O   UNL     1      13.945 -11.902  -7.387  1.00  0.00    -0.237 OA
ATOM     74  O   UNL     1      13.682 -13.610  -5.626  1.00  0.00    -0.237 OA
ATOM     75  O   UNL     1      11.948 -11.904  -5.924  1.00  0.00    -0.744 OA
ENDBRANCH  69  72
ENDBRANCH  51  65
BRANCH  52  76
ATOM     76  C   UNL     1      12.871  -3.966  -9.932  1.00  0.00     0.023 A 
ATOM     77  C   UNL     1      13.939  -3.812 -10.838  1.00  0.00     0.012 A 
ATOM     78  C   UNL     1      11.630  -4.420 -10.435  1.00  0.00     0.148 A 
ATOM     79  C   UNL     1      13.788  -4.132 -12.194  1.00  0.00     0.002 A 
ATOM     80  C   UNL     1      11.486  -4.741 -11.782  1.00  0.00     0.091 A 
ATOM     81  F   UNL     1      10.624  -4.619  -9.574  1.00  0.00    -0.205 F 
ATOM     82  C   UNL     1      12.567  -4.607 -12.663  1.00  0.00     0.022 A 
BRANCH  80  83
ATOM     83  S   UNL     1       9.960  -5.412 -12.459  1.00  0.00     0.127 S 
ATOM     84  O   UNL     1       9.694  -4.493 -13.566  1.00  0.00    -0.237 OA
ATOM     85  O   UNL     1      10.374  -6.753 -12.863  1.00  0.00    -0.237 OA
ATOM     86  O   UNL     1       8.986  -5.355 -11.377  1.00  0.00    -0.744 OA
ENDBRANCH  80  83
ENDBRANCH  52  76
BRANCH  64  87
ATOM     87  C   UNL     1      15.806  -2.785  -4.541  1.00  0.00     0.023 A 
ATOM     88  C   UNL     1      14.684  -1.946  -4.713  1.00  0.00     0.012 A 
ATOM     89  C   UNL     1      16.939  -2.264  -3.893  1.00  0.00     0.148 A 
ATOM     90  C   UNL     1      14.691  -0.624  -4.259  1.00  0.00     0.002 A 
ATOM     91  C   UNL     1      16.926  -0.965  -3.397  1.00  0.00     0.091 A 
ATOM     92  F   UNL     1      17.999  -3.071  -3.729  1.00  0.00    -0.205 F 
ATOM     93  C   UNL     1      15.808  -0.138  -3.585  1.00  0.00     0.022 A 
BRANCH  91  94
ATOM     94  S   UNL     1      18.269  -0.323  -2.394  1.00  0.00     0.127 S 
ATOM     95  O   UNL     1      18.876   0.659  -3.289  1.00  0.00    -0.237 OA
ATOM     96  O   UNL     1      17.558   0.249  -1.250  1.00  0.00    -0.237 OA
ATOM     97  O   UNL     1      19.108  -1.468  -2.062  1.00  0.00    -0.744 OA
ENDBRANCH  91  94
ENDBRANCH  64  87
ENDBRANCH  38  39
ENDBRANCH  30  33
ENDBRANCH  28  29
ENDBRANCH   1  28
TORSDOF 16
