REMARK SMILES COc1ccc([C@@H]2C(C#N)=C(N)N3C(=O)[C@H](CC(=O)NCCCNC(=O)c4ccc(-c5c6nc(c(-c7cccc(S(=O)(=O)[O-])c7F)c7ccc([nH]7)c(-c7cccc(S(=O)(=O)[O-])c7F)c7nc(c(-c8cccc(S(=O)(=O)[O-])c8F)c8ccc5[nH]8)C=C7)C=C6)cc4)SC3=C2C#N)cc1
REMARK SMILES IDX 22 1 21 2 20 3 18 4 19 5 17 7 16 8 7 9 8 10 92 11 11 12
REMARK SMILES IDX 91 13 13 14 90 15 14 16 15 17 6 18 3 19 4 20 96 21 5 22
REMARK SMILES IDX 95 23 2 24 1 25 9 26 10 27 93 28 94 29 12 30 23 33 24 34
REMARK SMILES IDX 25 35 26 37 27 38 28 39 89 40 29 41 88 42 30 43 31 44 32 45
REMARK SMILES IDX 82 46 33 47 87 48 81 49 83 50 34 51 86 52 80 53 79 54 35 56
REMARK SMILES IDX 67 57 47 58 66 59 48 60 51 61 65 62 84 63 49 64 50 65 64 67
REMARK SMILES IDX 85 68 52 69 36 70 37 71 45 72 38 73 40 74 46 75 39 76 41 77
REMARK SMILES IDX 42 78 43 79 44 80 68 81 69 82 77 83 70 84 72 85 78 86 71 87
REMARK SMILES IDX 73 88 74 89 75 90 76 91 53 92 54 93 62 94 55 95 57 96 63 97
REMARK SMILES IDX 56 98 58 99 59 100 60 101 61 102
REMARK H PARENT 20 6 12 31 12 32 24 36 83 55 51 66
REMARK Flexibility Score: inf
ROOT
ATOM      1  C   UNL     1       7.012   9.989  -4.935  1.00  0.00     0.042 C 
ENDROOT
BRANCH   1   2
ATOM      2  C   UNL     1       7.484  10.231  -3.502  1.00  0.00     0.117 C 
BRANCH   2   3
ATOM      3  N   UNL     1       7.021  11.496  -2.947  1.00  0.00    -0.356 N 
ATOM      4  C   UNL     1       6.261  11.762  -1.852  1.00  0.00     0.221 C 
ATOM      5  O   UNL     1       6.006  12.937  -1.580  1.00  0.00    -0.275 OA
ATOM      6  H   UNL     1       7.306  12.292  -3.451  1.00  0.00     0.163 HD
BRANCH   4   7
ATOM      7  C   UNL     1       5.730  10.646  -0.989  1.00  0.00     0.125 C 
BRANCH   7   8
ATOM      8  C   UNL     1       4.277  10.377  -1.348  1.00  0.00     0.152 C 
ATOM      9  C   UNL     1       1.996   6.073  -1.929  1.00  0.00     0.107 C 
ATOM     10  C   UNL     1       3.079   6.021  -2.990  1.00  0.00     0.083 C 
ATOM     11  C   UNL     1       2.360   7.064  -0.846  1.00  0.00     0.073 C 
ATOM     12  C   UNL     1       3.868   7.113  -3.200  1.00  0.00     0.126 C 
ATOM     13  C   UNL     1       3.191   8.066  -1.104  1.00  0.00     0.099 C 
ATOM     14  N   UNL     1       3.772   8.221  -2.331  1.00  0.00    -0.258 N 
ATOM     15  S   UNL     1       3.518   9.376  -0.031  1.00  0.00    -0.093 SA
ATOM     16  C   UNL     1       4.160   9.523  -2.602  1.00  0.00     0.247 C 
ATOM     17  O   UNL     1       4.341   9.981  -3.726  1.00  0.00    -0.273 OA
BRANCH   9  18
ATOM     18  C   UNL     1       1.562   4.694  -1.451  1.00  0.00    -0.034 A 
ATOM     19  C   UNL     1       0.759   2.058  -0.848  1.00  0.00     0.118 A 
ATOM     20  C   UNL     1      -0.104   2.920  -1.520  1.00  0.00     0.047 A 
ATOM     21  C   UNL     1       2.025   2.514  -0.474  1.00  0.00     0.047 A 
ATOM     22  C   UNL     1       0.287   4.226  -1.815  1.00  0.00     0.008 A 
ATOM     23  C   UNL     1       2.425   3.825  -0.769  1.00  0.00     0.008 A 
BRANCH  19  24
ATOM     24  O   UNL     1       0.262   0.800  -0.649  1.00  0.00    -0.497 OA
ATOM     25  C   UNL     1       0.989  -0.045   0.227  1.00  0.00     0.278 C 
ENDBRANCH  19  24
ENDBRANCH   9  18
BRANCH  10  26
ATOM     26  C   UNL     1       3.099   4.810  -3.908  1.00  0.00     0.100 C 
ATOM     27  N   UNL     1       3.115   3.804  -4.669  1.00  0.00    -0.193 NA
ENDBRANCH  10  26
BRANCH  11  28
ATOM     28  C   UNL     1       1.679   6.968   0.509  1.00  0.00     0.098 C 
ATOM     29  N   UNL     1       1.113   6.889   1.634  1.00  0.00    -0.193 NA
ENDBRANCH  11  28
BRANCH  12  30
ATOM     30  N   UNL     1       4.772   7.160  -4.230  1.00  0.00    -0.384 N 
ATOM     31  H   UNL     1       4.855   6.398  -4.848  1.00  0.00     0.158 HD
ATOM     32  H   UNL     1       5.339   7.956  -4.352  1.00  0.00     0.158 HD
ENDBRANCH  12  30
ENDBRANCH   7   8
ENDBRANCH   4   7
ENDBRANCH   2   3
ENDBRANCH   1   2
BRANCH   1  33
ATOM     33  C   UNL     1       7.539  10.981  -5.953  1.00  0.00     0.118 C 
BRANCH  33  34
ATOM     34  N   UNL     1       8.646  10.414  -6.692  1.00  0.00    -0.352 N 
ATOM     35  C   UNL     1       8.649   9.541  -7.754  1.00  0.00     0.251 C 
ATOM     36  H   UNL     1       9.537  10.697  -6.386  1.00  0.00     0.163 HD
ATOM     37  O   UNL     1       9.688   8.921  -7.978  1.00  0.00    -0.269 OA
BRANCH  35  38
ATOM     38  C   UNL     1       7.458   9.313  -8.620  1.00  0.00     0.039 A 
ATOM     39  C   UNL     1       7.330   8.069  -9.252  1.00  0.00     0.014 A 
ATOM     40  C   UNL     1       6.537  10.316  -8.930  1.00  0.00     0.014 A 
ATOM     41  C   UNL     1       6.305   7.839 -10.181  1.00  0.00     0.010 A 
ATOM     42  C   UNL     1       5.456  10.055  -9.778  1.00  0.00     0.010 A 
ATOM     43  C   UNL     1       5.351   8.831 -10.452  1.00  0.00    -0.014 A 
BRANCH  43  44
ATOM     44  C   UNL     1       4.283   8.634 -11.475  1.00  0.00     0.031 A 
ATOM     45  C   UNL     1       4.194   9.556 -12.672  1.00  0.00     0.074 A 
ATOM     46  C   UNL     1       3.341   7.685 -11.301  1.00  0.00     0.049 A 
ATOM     47  N   UNL     1       3.293   9.593 -13.621  1.00  0.00    -0.248 NA
ATOM     48  C   UNL     1       5.232  10.593 -12.802  1.00  0.00     0.031 C 
ATOM     49  C   UNL     1       3.251   6.783 -10.151  1.00  0.00     0.029 A 
ATOM     50  N   UNL     1       2.258   7.343 -12.074  1.00  0.00    -0.354 N 
ATOM     51  C   UNL     1       3.615  10.690 -14.415  1.00  0.00     0.074 A 
ATOM     52  C   UNL     1       4.786  11.303 -13.829  1.00  0.00     0.031 C 
ATOM     53  C   UNL     1       2.169   6.000 -10.289  1.00  0.00     0.029 A 
ATOM     54  C   UNL     1       1.474   6.355 -11.523  1.00  0.00     0.049 A 
ATOM     55  H   UNL     1       2.060   7.766 -12.941  1.00  0.00     0.167 HD
ATOM     56  C   UNL     1       3.014  11.132 -15.545  1.00  0.00     0.034 A 
ATOM     57  C   UNL     1       0.324   5.800 -11.956  1.00  0.00     0.034 A 
ATOM     58  C   UNL     1       1.917  10.463 -16.190  1.00  0.00     0.049 A 
ATOM     59  C   UNL     1      -0.256   6.238 -13.275  1.00  0.00     0.074 A 
ATOM     60  C   UNL     1       1.337  10.750 -17.414  1.00  0.00     0.029 A 
ATOM     61  N   UNL     1       1.238   9.375 -15.670  1.00  0.00    -0.354 N 
ATOM     62  N   UNL     1       0.181   7.153 -14.105  1.00  0.00    -0.248 NA
ATOM     63  C   UNL     1      -1.465   5.539 -13.738  1.00  0.00     0.031 C 
ATOM     64  C   UNL     1       0.298   9.840 -17.629  1.00  0.00     0.029 A 
ATOM     65  C   UNL     1       0.239   8.982 -16.543  1.00  0.00     0.049 A 
ATOM     66  H   UNL     1       1.436   8.945 -14.806  1.00  0.00     0.167 HD
ATOM     67  C   UNL     1      -0.677   7.118 -15.199  1.00  0.00     0.074 A 
ATOM     68  C   UNL     1      -1.645   6.074 -14.938  1.00  0.00     0.031 C 
ATOM     69  C   UNL     1      -0.676   7.896 -16.308  1.00  0.00     0.034 A 
BRANCH  56  70
ATOM     70  C   UNL     1       3.569  12.363 -16.214  1.00  0.00     0.023 A 
ATOM     71  C   UNL     1       4.780  12.279 -16.930  1.00  0.00     0.012 A 
ATOM     72  C   UNL     1       2.844  13.572 -16.219  1.00  0.00     0.148 A 
ATOM     73  C   UNL     1       5.275  13.384 -17.620  1.00  0.00     0.002 A 
ATOM     74  C   UNL     1       3.324  14.658 -16.942  1.00  0.00     0.091 A 
ATOM     75  F   UNL     1       1.703  13.636 -15.518  1.00  0.00    -0.205 F 
ATOM     76  C   UNL     1       4.542  14.568 -17.636  1.00  0.00     0.022 A 
BRANCH  74  77
ATOM     77  S   UNL     1       2.418  16.203 -17.092  1.00  0.00     0.127 S 
ATOM     78  O   UNL     1       3.251  17.109 -16.301  1.00  0.00    -0.237 OA
ATOM     79  O   UNL     1       2.456  16.444 -18.535  1.00  0.00    -0.237 OA
ATOM     80  O   UNL     1       1.091  15.945 -16.553  1.00  0.00    -0.744 OA
ENDBRANCH  74  77
ENDBRANCH  56  70
BRANCH  57  81
ATOM     81  C   UNL     1      -0.323   4.717 -11.162  1.00  0.00     0.023 A 
ATOM     82  C   UNL     1      -0.299   3.396 -11.647  1.00  0.00     0.012 A 
ATOM     83  C   UNL     1      -0.942   4.982  -9.925  1.00  0.00     0.148 A 
ATOM     84  C   UNL     1      -0.908   2.364 -10.931  1.00  0.00     0.002 A 
ATOM     85  C   UNL     1      -1.502   3.941  -9.192  1.00  0.00     0.091 A 
ATOM     86  F   UNL     1      -0.976   6.247  -9.483  1.00  0.00    -0.205 F 
ATOM     87  C   UNL     1      -1.500   2.633  -9.700  1.00  0.00     0.022 A 
BRANCH  85  88
ATOM     88  S   UNL     1      -2.170   4.215  -7.545  1.00  0.00     0.127 S 
ATOM     89  O   UNL     1      -3.578   4.471  -7.828  1.00  0.00    -0.237 OA
ATOM     90  O   UNL     1      -1.901   2.942  -6.875  1.00  0.00    -0.237 OA
ATOM     91  O   UNL     1      -1.405   5.336  -7.011  1.00  0.00    -0.744 OA
ENDBRANCH  85  88
ENDBRANCH  57  81
BRANCH  69  92
ATOM     92  C   UNL     1      -1.733   7.642 -17.349  1.00  0.00     0.023 A 
ATOM     93  C   UNL     1      -3.059   8.049 -17.107  1.00  0.00     0.012 A 
ATOM     94  C   UNL     1      -1.397   7.086 -18.600  1.00  0.00     0.148 A 
ATOM     95  C   UNL     1      -4.041   7.883 -18.083  1.00  0.00     0.002 A 
ATOM     96  C   UNL     1      -2.371   6.965 -19.584  1.00  0.00     0.091 A 
ATOM     97  F   UNL     1      -0.133   6.687 -18.805  1.00  0.00    -0.205 F 
ATOM     98  C   UNL     1      -3.695   7.354 -19.324  1.00  0.00     0.022 A 
BRANCH  96  99
ATOM     99  S   UNL     1      -1.990   6.383 -21.241  1.00  0.00     0.127 S 
ATOM    100  O   UNL     1      -2.500   5.014 -21.201  1.00  0.00    -0.237 OA
ATOM    101  O   UNL     1      -2.764   7.298 -22.081  1.00  0.00    -0.237 OA
ATOM    102  O   UNL     1      -0.546   6.513 -21.385  1.00  0.00    -0.744 OA
ENDBRANCH  96  99
ENDBRANCH  69  92
ENDBRANCH  43  44
ENDBRANCH  35  38
ENDBRANCH  33  34
ENDBRANCH   1  33
TORSDOF 19
