REMARK SMILES COc1cccc(-c2nn(-c3cc4c(cc3C(N)=O)OCO4)cc2C(=O)NCCCNC(=O)c2ccc(-c3c4nc(c(-c5cccc(S(=O)(=O)[O-])c5F)c5ccc([nH]5)c(-c5cccc(S(=O)(=O)[O-])c5F)c5nc(c(-c6cccc(S(=O)(=O)[O-])c6F)c6ccc3[nH]6)C=C5)C=C4)cc2)c1
REMARK SMILES IDX 29 1 28 2 27 3 25 4 26 5 24 7 8 8 9 9 10 10 23 11 7 12 3 13
REMARK SMILES IDX 4 14 97 15 5 16 6 17 2 18 1 19 11 20 12 21 16 22 13 23 15 24
REMARK SMILES IDX 14 25 22 26 20 27 21 28 17 29 18 30 19 31 30 34 31 35 32 36
REMARK SMILES IDX 33 38 34 39 35 40 96 41 36 42 95 43 37 44 38 45 39 46 89 47
REMARK SMILES IDX 40 48 94 49 88 50 90 51 41 52 93 53 87 54 86 55 42 57 74 58
REMARK SMILES IDX 54 59 73 60 55 61 58 62 72 63 91 64 56 65 57 66 71 68 92 69
REMARK SMILES IDX 59 70 43 71 44 72 52 73 45 74 47 75 53 76 46 77 48 78 49 79
REMARK SMILES IDX 50 80 51 81 75 82 76 83 84 84 77 85 79 86 85 87 78 88 80 89
REMARK SMILES IDX 81 90 82 91 83 92 60 93 61 94 69 95 62 96 64 97 70 98 63 99
REMARK SMILES IDX 65 100 66 101 67 102 68 103
REMARK H PARENT 27 6 18 32 18 33 31 37 90 56 58 67
REMARK Flexibility Score: inf
ROOT
ATOM      1  C   UNL     1       6.462  -1.815   7.929  1.00  0.00     0.042 C 
ENDROOT
BRANCH   1   2
ATOM      2  C   UNL     1       5.804  -2.370   6.662  1.00  0.00     0.118 C 
BRANCH   2   3
ATOM      3  N   UNL     1       4.399  -2.019   6.555  1.00  0.00    -0.352 N 
ATOM      4  C   UNL     1       3.759  -1.017   5.871  1.00  0.00     0.255 C 
ATOM      5  O   UNL     1       2.528  -1.116   5.797  1.00  0.00    -0.269 OA
ATOM      6  H   UNL     1       3.797  -2.607   7.066  1.00  0.00     0.163 HD
BRANCH   4   7
ATOM      7  C   UNL     1       4.487   0.058   5.219  1.00  0.00     0.086 A 
ATOM      8  C   UNL     1       4.005   1.035   4.278  1.00  0.00     0.106 A 
ATOM      9  N   UNL     1       5.018   1.774   3.768  1.00  0.00    -0.167 NA
ATOM     10  N   UNL     1       6.119   1.178   4.271  1.00  0.00    -0.239 N 
ATOM     11  C   UNL     1       5.813   0.404   5.358  1.00  0.00     0.129 A 
BRANCH   8  12
ATOM     12  C   UNL     1       2.615   1.246   3.866  1.00  0.00     0.007 A 
ATOM     13  C   UNL     1       0.890   1.203   2.161  1.00  0.00     0.119 A 
ATOM     14  C   UNL     1      -0.077   1.482   3.129  1.00  0.00     0.046 A 
ATOM     15  C   UNL     1       2.238   1.102   2.524  1.00  0.00     0.056 A 
ATOM     16  C   UNL     1       0.293   1.640   4.463  1.00  0.00     0.005 A 
ATOM     17  C   UNL     1       1.635   1.532   4.828  1.00  0.00     0.011 A 
BRANCH  13  18
ATOM     18  O   UNL     1       0.435   1.101   0.872  1.00  0.00    -0.497 OA
ATOM     19  C   UNL     1       0.980  -0.001   0.155  1.00  0.00     0.278 C 
ENDBRANCH  13  18
ENDBRANCH   8  12
BRANCH  10  20
ATOM     20  C   UNL     1       7.438   1.444   3.833  1.00  0.00     0.081 A 
ATOM     21  C   UNL     1       7.821   2.786   3.666  1.00  0.00     0.079 A 
ATOM     22  C   UNL     1       8.385   0.383   3.684  1.00  0.00     0.069 A 
ATOM     23  C   UNL     1       9.158   3.031   3.433  1.00  0.00     0.167 A 
ATOM     24  C   UNL     1       9.746   0.696   3.562  1.00  0.00     0.066 A 
ATOM     25  C   UNL     1      10.091   2.018   3.416  1.00  0.00     0.166 A 
ATOM     26  O   UNL     1       9.732   4.244   3.205  1.00  0.00    -0.454 OA
ATOM     27  O   UNL     1      11.352   2.469   3.177  1.00  0.00    -0.454 OA
ATOM     28  C   UNL     1      11.067   3.840   2.836  1.00  0.00     0.468 C 
BRANCH  22  29
ATOM     29  C   UNL     1       7.949  -1.035   3.426  1.00  0.00     0.251 C 
ATOM     30  N   UNL     1       8.877  -1.936   2.974  1.00  0.00    -0.366 N 
ATOM     31  O   UNL     1       6.793  -1.415   3.505  1.00  0.00    -0.269 OA
ATOM     32  H   UNL     1       9.822  -1.672   2.894  1.00  0.00     0.159 HD
ATOM     33  H   UNL     1       8.599  -2.849   2.729  1.00  0.00     0.159 HD
ENDBRANCH  22  29
ENDBRANCH  10  20
ENDBRANCH   4   7
ENDBRANCH   2   3
ENDBRANCH   1   2
BRANCH   1  34
ATOM     34  C   UNL     1       6.173  -2.704   9.122  1.00  0.00     0.118 C 
BRANCH  34  35
ATOM     35  N   UNL     1       6.835  -4.017   9.014  1.00  0.00    -0.352 N 
ATOM     36  C   UNL     1       6.795  -5.097   9.879  1.00  0.00     0.251 C 
ATOM     37  H   UNL     1       7.388  -4.144   8.208  1.00  0.00     0.163 HD
ATOM     38  O   UNL     1       7.637  -5.986   9.810  1.00  0.00    -0.269 OA
BRANCH  36  39
ATOM     39  C   UNL     1       5.709  -5.163  10.871  1.00  0.00     0.039 A 
ATOM     40  C   UNL     1       5.861  -5.703  12.152  1.00  0.00     0.014 A 
ATOM     41  C   UNL     1       4.499  -4.613  10.482  1.00  0.00     0.014 A 
ATOM     42  C   UNL     1       4.774  -5.646  13.023  1.00  0.00     0.010 A 
ATOM     43  C   UNL     1       3.603  -4.242  11.428  1.00  0.00     0.010 A 
ATOM     44  C   UNL     1       3.645  -4.914  12.632  1.00  0.00    -0.014 A 
BRANCH  44  45
ATOM     45  C   UNL     1       2.463  -4.743  13.452  1.00  0.00     0.031 A 
ATOM     46  C   UNL     1       2.716  -3.923  14.657  1.00  0.00     0.074 A 
ATOM     47  C   UNL     1       1.228  -5.012  12.966  1.00  0.00     0.049 A 
ATOM     48  N   UNL     1       2.829  -4.336  15.875  1.00  0.00    -0.248 NA
ATOM     49  C   UNL     1       3.127  -2.522  14.462  1.00  0.00     0.031 C 
ATOM     50  C   UNL     1       0.842  -5.432  11.608  1.00  0.00     0.029 A 
ATOM     51  N   UNL     1       0.023  -4.800  13.549  1.00  0.00    -0.354 N 
ATOM     52  C   UNL     1       3.040  -3.182  16.626  1.00  0.00     0.074 A 
ATOM     53  C   UNL     1       3.519  -2.200  15.695  1.00  0.00     0.031 C 
ATOM     54  C   UNL     1      -0.474  -5.184  11.414  1.00  0.00     0.029 A 
ATOM     55  C   UNL     1      -1.053  -4.737  12.666  1.00  0.00     0.049 A 
ATOM     56  H   UNL     1      -0.084  -4.698  14.523  1.00  0.00     0.167 HD
ATOM     57  C   UNL     1       2.483  -3.043  17.863  1.00  0.00     0.034 A 
ATOM     58  C   UNL     1      -2.299  -4.275  12.951  1.00  0.00     0.034 A 
ATOM     59  C   UNL     1       1.951  -4.310  18.320  1.00  0.00     0.049 A 
ATOM     60  C   UNL     1      -2.421  -4.272  14.432  1.00  0.00     0.074 A 
ATOM     61  C   UNL     1       2.467  -5.578  18.510  1.00  0.00     0.029 A 
ATOM     62  N   UNL     1       0.586  -4.471  18.234  1.00  0.00    -0.354 N 
ATOM     63  N   UNL     1      -2.402  -5.357  15.157  1.00  0.00    -0.248 NA
ATOM     64  C   UNL     1      -2.060  -3.045  15.127  1.00  0.00     0.031 C 
ATOM     65  C   UNL     1       1.451  -6.460  18.033  1.00  0.00     0.029 A 
ATOM     66  C   UNL     1       0.343  -5.692  17.668  1.00  0.00     0.049 A 
ATOM     67  H   UNL     1      -0.093  -3.821  18.527  1.00  0.00     0.167 HD
ATOM     68  C   UNL     1      -1.590  -5.034  16.238  1.00  0.00     0.074 A 
ATOM     69  C   UNL     1      -1.484  -3.573  16.212  1.00  0.00     0.031 C 
ATOM     70  C   UNL     1      -0.820  -5.979  16.856  1.00  0.00     0.034 A 
BRANCH  57  71
ATOM     71  C   UNL     1       2.011  -1.739  18.488  1.00  0.00     0.023 A 
ATOM     72  C   UNL     1       1.450  -1.840  19.784  1.00  0.00     0.012 A 
ATOM     73  C   UNL     1       1.822  -0.508  17.817  1.00  0.00     0.148 A 
ATOM     74  C   UNL     1       0.646  -0.832  20.325  1.00  0.00     0.002 A 
ATOM     75  C   UNL     1       1.071   0.517  18.383  1.00  0.00     0.091 A 
ATOM     76  F   UNL     1       2.275  -0.329  16.579  1.00  0.00    -0.205 F 
ATOM     77  C   UNL     1       0.447   0.344  19.619  1.00  0.00     0.022 A 
BRANCH  75  78
ATOM     78  S   UNL     1       0.809   2.082  17.533  1.00  0.00     0.127 S 
ATOM     79  O   UNL     1      -0.608   1.994  17.194  1.00  0.00    -0.237 OA
ATOM     80  O   UNL     1       1.139   3.046  18.583  1.00  0.00    -0.237 OA
ATOM     81  O   UNL     1       1.734   2.085  16.406  1.00  0.00    -0.744 OA
ENDBRANCH  75  78
ENDBRANCH  57  71
BRANCH  58  82
ATOM     82  C   UNL     1      -3.274  -3.552  12.091  1.00  0.00     0.023 A 
ATOM     83  C   UNL     1      -4.625  -3.454  12.491  1.00  0.00     0.012 A 
ATOM     84  C   UNL     1      -2.838  -2.715  11.039  1.00  0.00     0.148 A 
ATOM     85  C   UNL     1      -5.497  -2.534  11.890  1.00  0.00     0.002 A 
ATOM     86  C   UNL     1      -3.710  -1.805  10.443  1.00  0.00     0.091 A 
ATOM     87  F   UNL     1      -1.546  -2.742  10.689  1.00  0.00    -0.205 F 
ATOM     88  C   UNL     1      -5.038  -1.703  10.874  1.00  0.00     0.022 A 
BRANCH  86  89
ATOM     89  S   UNL     1      -3.176  -0.674   9.150  1.00  0.00     0.127 S 
ATOM     90  O   UNL     1      -4.231  -0.837   8.150  1.00  0.00    -0.237 OA
ATOM     91  O   UNL     1      -3.186   0.609   9.848  1.00  0.00    -0.237 OA
ATOM     92  O   UNL     1      -1.867  -1.154   8.727  1.00  0.00    -0.744 OA
ENDBRANCH  86  89
ENDBRANCH  58  82
BRANCH  70  93
ATOM     93  C   UNL     1      -1.027  -7.429  16.495  1.00  0.00     0.023 A 
ATOM     94  C   UNL     1      -0.755  -7.944  15.209  1.00  0.00     0.012 A 
ATOM     95  C   UNL     1      -1.300  -8.327  17.540  1.00  0.00     0.148 A 
ATOM     96  C   UNL     1      -0.763  -9.323  14.972  1.00  0.00     0.002 A 
ATOM     97  C   UNL     1      -1.260  -9.696  17.312  1.00  0.00     0.091 A 
ATOM     98  F   UNL     1      -1.552  -7.821  18.756  1.00  0.00    -0.205 F 
ATOM     99  C   UNL     1      -1.001 -10.200  16.028  1.00  0.00     0.022 A 
BRANCH  97 100
ATOM    100  S   UNL     1      -1.425 -10.871  18.657  1.00  0.00     0.127 S 
ATOM    101  O   UNL     1      -2.760 -11.417  18.421  1.00  0.00    -0.237 OA
ATOM    102  O   UNL     1      -0.327 -11.803  18.396  1.00  0.00    -0.237 OA
ATOM    103  O   UNL     1      -1.272 -10.101  19.886  1.00  0.00    -0.744 OA
ENDBRANCH  97 100
ENDBRANCH  70  93
ENDBRANCH  44  45
ENDBRANCH  36  39
ENDBRANCH  34  35
ENDBRANCH   1  34
TORSDOF 17
