REMARK SMILES O=C(NCCCNC(=O)[C@@H]1C[N@@H+](CCOc2ccc(F)cc2)C[C@H]1C1CC1)c1ccc(-c2c3nc(c(-c4cccc(S(=O)(=O)[O-])c4F)c4ccc([nH]4)c(-c4cccc(S(=O)(=O)[O-])c4F)c4nc(c(-c5cccc(S(=O)(=O)[O-])c5F)c5ccc2[nH]5)C=C4)C=C3)cc1
REMARK SMILES IDX 5 1 4 2 3 3 1 4 2 5 28 7 29 8 90 9 30 10 89 11 31 12 32 13
REMARK SMILES IDX 33 14 83 15 34 16 88 17 82 18 84 19 35 20 87 21 81 22 80 23
REMARK SMILES IDX 36 25 68 26 48 27 67 28 49 29 52 30 66 31 85 32 50 33 51 34
REMARK SMILES IDX 65 36 86 37 53 38 37 39 38 40 46 41 39 42 41 43 47 44 40 45
REMARK SMILES IDX 42 46 43 47 44 48 45 49 69 50 70 51 78 52 71 53 73 54 79 55
REMARK SMILES IDX 72 56 74 57 75 58 76 59 77 60 54 61 55 62 63 63 56 64 58 65
REMARK SMILES IDX 64 66 57 67 59 68 60 69 61 70 62 71 6 72 7 73 8 74 9 76
REMARK SMILES IDX 10 77 11 78 24 79 12 80 23 81 25 83 26 84 27 85 13 86 14 87
REMARK SMILES IDX 15 88 16 89 17 90 22 91 18 92 21 93 19 94 20 95
REMARK H PARENT 3 6 84 24 52 35 7 75 12 82
REMARK Flexibility Score: inf
ROOT
ATOM      1  C   UNL     1       4.667   2.336   0.043  1.00  0.00     0.042 C 
ENDROOT
BRANCH   1   2
ATOM      2  C   UNL     1       4.090   1.364   1.058  1.00  0.00     0.118 C 
BRANCH   2   3
ATOM      3  N   UNL     1       2.718   0.974   0.753  1.00  0.00    -0.352 N 
ATOM      4  O   UNL     1       0.979  -0.184  -0.044  1.00  0.00    -0.269 OA
ATOM      5  C   UNL     1       2.170  -0.190   0.264  1.00  0.00     0.251 C 
ATOM      6  H   UNL     1       2.055   1.680   0.932  1.00  0.00     0.163 HD
BRANCH   5   7
ATOM      7  C   UNL     1       2.972  -1.426   0.076  1.00  0.00     0.039 A 
ATOM      8  C   UNL     1       4.050  -1.734   0.900  1.00  0.00     0.014 A 
ATOM      9  C   UNL     1       2.596  -2.346  -0.912  1.00  0.00     0.014 A 
ATOM     10  C   UNL     1       4.864  -2.822   0.622  1.00  0.00     0.010 A 
ATOM     11  C   UNL     1       3.320  -3.534  -1.085  1.00  0.00     0.010 A 
ATOM     12  C   UNL     1       4.477  -3.773  -0.332  1.00  0.00    -0.014 A 
BRANCH  12  13
ATOM     13  C   UNL     1       5.226  -5.057  -0.404  1.00  0.00     0.031 A 
ATOM     14  C   UNL     1       5.878  -5.525  -1.673  1.00  0.00     0.074 A 
ATOM     15  C   UNL     1       5.319  -5.803   0.718  1.00  0.00     0.049 A 
ATOM     16  N   UNL     1       6.568  -6.617  -1.881  1.00  0.00    -0.248 NA
ATOM     17  C   UNL     1       5.733  -4.674  -2.864  1.00  0.00     0.031 C 
ATOM     18  C   UNL     1       4.692  -5.470   2.002  1.00  0.00     0.029 A 
ATOM     19  N   UNL     1       5.976  -6.979   0.974  1.00  0.00    -0.354 N 
ATOM     20  C   UNL     1       6.901  -6.610  -3.230  1.00  0.00     0.074 A 
ATOM     21  C   UNL     1       6.333  -5.405  -3.796  1.00  0.00     0.031 C 
ATOM     22  C   UNL     1       5.041  -6.381   2.918  1.00  0.00     0.029 A 
ATOM     23  C   UNL     1       5.836  -7.415   2.272  1.00  0.00     0.049 A 
ATOM     24  H   UNL     1       6.498  -7.465   0.295  1.00  0.00     0.167 HD
ATOM     25  C   UNL     1       7.622  -7.521  -3.926  1.00  0.00     0.034 A 
ATOM     26  C   UNL     1       6.268  -8.536   2.880  1.00  0.00     0.034 A 
ATOM     27  C   UNL     1       8.208  -8.700  -3.344  1.00  0.00     0.049 A 
ATOM     28  C   UNL     1       7.068  -9.523   2.085  1.00  0.00     0.074 A 
ATOM     29  C   UNL     1       9.004  -9.652  -3.957  1.00  0.00     0.029 A 
ATOM     30  N   UNL     1       8.057  -9.098  -2.024  1.00  0.00    -0.354 N 
ATOM     31  N   UNL     1       7.454  -9.447   0.835  1.00  0.00    -0.248 NA
ATOM     32  C   UNL     1       7.508 -10.739   2.780  1.00  0.00     0.031 C 
ATOM     33  C   UNL     1       9.302 -10.643  -3.018  1.00  0.00     0.029 A 
ATOM     34  C   UNL     1       8.730 -10.289  -1.807  1.00  0.00     0.049 A 
ATOM     35  H   UNL     1       7.545  -8.606  -1.341  1.00  0.00     0.167 HD
ATOM     36  C   UNL     1       8.199 -10.593   0.597  1.00  0.00     0.074 A 
ATOM     37  C   UNL     1       8.230 -11.336   1.841  1.00  0.00     0.031 C 
ATOM     38  C   UNL     1       8.789 -10.998  -0.554  1.00  0.00     0.034 A 
BRANCH  25  39
ATOM     39  C   UNL     1       7.853  -7.275  -5.396  1.00  0.00     0.023 A 
ATOM     40  C   UNL     1       8.739  -6.259  -5.806  1.00  0.00     0.012 A 
ATOM     41  C   UNL     1       7.271  -8.116  -6.368  1.00  0.00     0.148 A 
ATOM     42  C   UNL     1       9.025  -6.067  -7.157  1.00  0.00     0.002 A 
ATOM     43  C   UNL     1       7.598  -7.949  -7.709  1.00  0.00     0.091 A 
ATOM     44  F   UNL     1       6.417  -9.066  -5.962  1.00  0.00    -0.205 F 
ATOM     45  C   UNL     1       8.466  -6.919  -8.106  1.00  0.00     0.022 A 
BRANCH  43  46
ATOM     46  S   UNL     1       7.002  -9.048  -8.999  1.00  0.00     0.127 S 
ATOM     47  O   UNL     1       6.108  -8.166  -9.748  1.00  0.00    -0.237 OA
ATOM     48  O   UNL     1       8.239  -9.398  -9.698  1.00  0.00    -0.237 OA
ATOM     49  O   UNL     1       6.353 -10.158  -8.316  1.00  0.00    -0.744 OA
ENDBRANCH  43  46
ENDBRANCH  25  39
BRANCH  26  50
ATOM     50  C   UNL     1       5.968  -8.746   4.324  1.00  0.00     0.023 A 
ATOM     51  C   UNL     1       7.011  -8.669   5.267  1.00  0.00     0.012 A 
ATOM     52  C   UNL     1       4.644  -8.922   4.775  1.00  0.00     0.148 A 
ATOM     53  C   UNL     1       6.740  -8.773   6.632  1.00  0.00     0.002 A 
ATOM     54  C   UNL     1       4.375  -8.958   6.136  1.00  0.00     0.091 A 
ATOM     55  F   UNL     1       3.669  -9.001   3.858  1.00  0.00    -0.205 F 
ATOM     56  C   UNL     1       5.423  -8.901   7.067  1.00  0.00     0.022 A 
BRANCH  54  57
ATOM     57  S   UNL     1       2.703  -8.959   6.793  1.00  0.00     0.127 S 
ATOM     58  O   UNL     1       2.628 -10.271   7.423  1.00  0.00    -0.237 OA
ATOM     59  O   UNL     1       2.744  -7.827   7.717  1.00  0.00    -0.237 OA
ATOM     60  O   UNL     1       1.827  -8.762   5.641  1.00  0.00    -0.744 OA
ENDBRANCH  54  57
ENDBRANCH  26  50
BRANCH  38  61
ATOM     61  C   UNL     1       9.549 -12.298  -0.532  1.00  0.00     0.023 A 
ATOM     62  C   UNL     1       8.850 -13.519  -0.477  1.00  0.00     0.012 A 
ATOM     63  C   UNL     1      10.951 -12.307  -0.677  1.00  0.00     0.148 A 
ATOM     64  C   UNL     1       9.536 -14.730  -0.546  1.00  0.00     0.002 A 
ATOM     65  C   UNL     1      11.622 -13.516  -0.800  1.00  0.00     0.091 A 
ATOM     66  F   UNL     1      11.597 -11.132  -0.708  1.00  0.00    -0.205 F 
ATOM     67  C   UNL     1      10.918 -14.729  -0.724  1.00  0.00     0.022 A 
BRANCH  65  68
ATOM     68  S   UNL     1      13.383 -13.613  -1.139  1.00  0.00     0.127 S 
ATOM     69  O   UNL     1      13.896 -14.171   0.111  1.00  0.00    -0.237 OA
ATOM     70  O   UNL     1      13.428 -14.527  -2.280  1.00  0.00    -0.237 OA
ATOM     71  O   UNL     1      13.813 -12.252  -1.433  1.00  0.00    -0.744 OA
ENDBRANCH  65  68
ENDBRANCH  38  61
ENDBRANCH  12  13
ENDBRANCH   5   7
ENDBRANCH   2   3
ENDBRANCH   1   2
BRANCH   1  72
ATOM     72  C   UNL     1       4.140   3.751   0.243  1.00  0.00     0.117 C 
BRANCH  72  73
ATOM     73  N   UNL     1       5.042   4.667   0.990  1.00  0.00    -0.356 N 
ATOM     74  C   UNL     1       5.892   5.719   0.732  1.00  0.00     0.229 C 
ATOM     75  H   UNL     1       5.027   4.461   1.952  1.00  0.00     0.163 HD
ATOM     76  O   UNL     1       6.171   6.428   1.707  1.00  0.00    -0.275 OA
BRANCH  74  77
ATOM     77  C   UNL     1       6.649   5.940  -0.586  1.00  0.00     0.142 C 
ATOM     78  C   UNL     1       7.051   7.387  -1.007  1.00  0.00     0.276 C 
ATOM     79  C   UNL     1       5.873   5.449  -1.767  1.00  0.00     0.065 C 
ATOM     80  N   UNL     1       6.578   7.617  -2.403  1.00  0.00    -0.331 N 
ATOM     81  C   UNL     1       5.454   6.729  -2.463  1.00  0.00     0.267 C 
ATOM     82  H   UNL     1       6.406   8.614  -2.534  1.00  0.00     0.348 HD
BRANCH  79  83
ATOM     83  C   UNL     1       6.522   4.291  -2.468  1.00  0.00    -0.001 C 
ATOM     84  C   UNL     1       8.009   4.055  -2.665  1.00  0.00     0.004 C 
ATOM     85  C   UNL     1       7.256   3.207  -1.697  1.00  0.00     0.004 C 
ENDBRANCH  79  83
BRANCH  80  86
ATOM     86  C   UNL     1       7.496   7.460  -3.560  1.00  0.00     0.304 C 
BRANCH  86  87
ATOM     87  C   UNL     1       7.273   6.461  -4.788  1.00  0.00     0.290 C 
BRANCH  87  88
ATOM     88  O   UNL     1       6.080   6.622  -5.596  1.00  0.00    -0.488 OA
BRANCH  88  89
ATOM     89  C   UNL     1       5.128   5.621  -5.525  1.00  0.00     0.119 A 
ATOM     90  C   UNL     1       3.822   6.070  -5.272  1.00  0.00     0.049 A 
ATOM     91  C   UNL     1       5.377   4.246  -5.546  1.00  0.00     0.049 A 
ATOM     92  C   UNL     1       2.852   5.191  -4.785  1.00  0.00     0.043 A 
ATOM     93  C   UNL     1       4.376   3.351  -5.119  1.00  0.00     0.043 A 
ATOM     94  C   UNL     1       3.149   3.840  -4.680  1.00  0.00     0.123 A 
ATOM     95  F   UNL     1       2.267   3.013  -4.104  1.00  0.00    -0.207 F 
ENDBRANCH  88  89
ENDBRANCH  87  88
ENDBRANCH  86  87
ENDBRANCH  80  86
ENDBRANCH  74  77
ENDBRANCH  72  73
ENDBRANCH   1  72
TORSDOF 18
