REMARK SMILES C[C@H]1CC[C@@H]([C@@H](Cc2ccccc2)C(=O)NCCCNC(=O)c2ccc(-c3c4nc(c(-c5cccc(S(=O)(=O)[O-])c5F)c5ccc([nH]5)c(-c5cccc(S(=O)(=O)[O-])c5F)c5nc(c(-c6cccc(S(=O)(=O)[O-])c6F)c6ccc3[nH]6)C=C5)C=C4)cc2)C[C@@H]1C
REMARK SMILES IDX 18 1 17 2 16 3 14 4 15 5 6 7 5 8 1 9 2 10 3 11 87 12 4 13
REMARK SMILES IDX 86 14 88 15 7 16 8 17 9 18 13 19 10 20 12 21 11 22 19 23
REMARK SMILES IDX 20 24 21 25 22 27 23 28 24 29 85 30 25 31 84 32 26 33 27 34
REMARK SMILES IDX 28 35 78 36 29 37 83 38 77 39 79 40 30 41 82 42 76 43 75 44
REMARK SMILES IDX 31 46 63 47 43 48 62 49 44 50 47 51 61 52 80 53 45 54 46 55
REMARK SMILES IDX 60 57 81 58 48 59 32 60 33 61 41 62 34 63 36 64 42 65 35 66
REMARK SMILES IDX 37 67 38 68 39 69 40 70 64 71 65 72 73 73 66 74 68 75 74 76
REMARK SMILES IDX 67 77 69 78 70 79 71 80 72 81 49 82 50 83 58 84 51 85 53 86
REMARK SMILES IDX 59 87 52 88 54 89 55 90 56 91 57 92
REMARK H PARENT 16 6 20 26 79 45 47 56
REMARK Flexibility Score: inf
ROOT
ATOM      1  C   UNL     1       4.814  -0.829  -3.404  1.00  0.00     0.042 C 
ENDROOT
BRANCH   1   2
ATOM      2  C   UNL     1       4.348   0.387  -4.180  1.00  0.00     0.117 C 
BRANCH   2   3
ATOM      3  N   UNL     1       2.973   0.343  -4.629  1.00  0.00    -0.356 N 
ATOM      4  C   UNL     1       1.993   1.279  -4.547  1.00  0.00     0.223 C 
ATOM      5  O   UNL     1       0.982   1.072  -5.229  1.00  0.00    -0.275 OA
ATOM      6  H   UNL     1       2.706  -0.499  -5.062  1.00  0.00     0.163 HD
BRANCH   4   7
ATOM      7  C   UNL     1       2.069   2.545  -3.682  1.00  0.00     0.086 C 
BRANCH   7   8
ATOM      8  C   UNL     1       2.219   2.434  -2.121  1.00  0.00     0.002 C 
ATOM      9  C   UNL     1      -0.958  -0.509  -1.392  1.00  0.00     0.008 C 
ATOM     10  C   UNL     1       0.148   0.488  -1.020  1.00  0.00    -0.011 C 
ATOM     11  C   UNL     1       1.466   0.035  -1.651  1.00  0.00     0.004 C 
ATOM     12  C   UNL     1      -0.236   1.941  -1.409  1.00  0.00    -0.011 C 
ATOM     13  C   UNL     1       2.551   1.086  -1.477  1.00  0.00     0.005 C 
ATOM     14  C   UNL     1       0.953   2.929  -1.377  1.00  0.00     0.008 C 
ATOM     15  C   UNL     1      -1.336   2.458  -0.470  1.00  0.00     0.008 C 
ENDBRANCH   7   8
BRANCH   7  16
ATOM     16  C   UNL     1       2.875   3.699  -4.362  1.00  0.00     0.049 C 
BRANCH  16  17
ATOM     17  C   UNL     1       4.360   3.522  -4.582  1.00  0.00    -0.047 A 
ATOM     18  C   UNL     1       4.846   3.065  -5.819  1.00  0.00     0.004 A 
ATOM     19  C   UNL     1       5.273   3.719  -3.535  1.00  0.00     0.004 A 
ATOM     20  C   UNL     1       6.190   2.706  -5.968  1.00  0.00     0.000 A 
ATOM     21  C   UNL     1       6.613   3.349  -3.683  1.00  0.00     0.000 A 
ATOM     22  C   UNL     1       7.065   2.819  -4.889  1.00  0.00     0.000 A 
ENDBRANCH  16  17
ENDBRANCH   7  16
ENDBRANCH   4   7
ENDBRANCH   2   3
ENDBRANCH   1   2
BRANCH   1  23
ATOM     23  C   UNL     1       4.948  -2.060  -4.272  1.00  0.00     0.118 C 
BRANCH  23  24
ATOM     24  N   UNL     1       6.063  -1.964  -5.207  1.00  0.00    -0.352 N 
ATOM     25  C   UNL     1       7.361  -2.414  -5.110  1.00  0.00     0.251 C 
ATOM     26  H   UNL     1       5.853  -1.500  -6.050  1.00  0.00     0.163 HD
ATOM     27  O   UNL     1       8.197  -2.017  -5.916  1.00  0.00    -0.269 OA
BRANCH  25  28
ATOM     28  C   UNL     1       7.754  -3.348  -4.030  1.00  0.00     0.039 A 
ATOM     29  C   UNL     1       9.021  -3.241  -3.449  1.00  0.00     0.014 A 
ATOM     30  C   UNL     1       6.880  -4.340  -3.592  1.00  0.00     0.014 A 
ATOM     31  C   UNL     1       9.369  -4.080  -2.386  1.00  0.00     0.010 A 
ATOM     32  C   UNL     1       7.162  -5.055  -2.439  1.00  0.00     0.010 A 
ATOM     33  C   UNL     1       8.425  -4.967  -1.843  1.00  0.00    -0.014 A 
BRANCH  33  34
ATOM     34  C   UNL     1       8.733  -5.849  -0.687  1.00  0.00     0.031 A 
ATOM     35  C   UNL     1       8.556  -7.343  -0.817  1.00  0.00     0.074 A 
ATOM     36  C   UNL     1       9.067  -5.309   0.502  1.00  0.00     0.049 A 
ATOM     37  N   UNL     1       8.668  -8.271   0.098  1.00  0.00    -0.248 NA
ATOM     38  C   UNL     1       8.154  -7.861  -2.138  1.00  0.00     0.031 C 
ATOM     39  C   UNL     1       9.177  -3.875   0.783  1.00  0.00     0.029 A 
ATOM     40  N   UNL     1       9.350  -5.903   1.706  1.00  0.00    -0.354 N 
ATOM     41  C   UNL     1       8.299  -9.461  -0.520  1.00  0.00     0.074 A 
ATOM     42  C   UNL     1       7.907  -9.134  -1.871  1.00  0.00     0.031 C 
ATOM     43  C   UNL     1       9.522  -3.702   2.069  1.00  0.00     0.029 A 
ATOM     44  C   UNL     1       9.619  -5.006   2.715  1.00  0.00     0.049 A 
ATOM     45  H   UNL     1       9.360  -6.878   1.837  1.00  0.00     0.167 HD
ATOM     46  C   UNL     1       8.321 -10.720  -0.026  1.00  0.00     0.034 A 
ATOM     47  C   UNL     1       9.904  -5.213   4.016  1.00  0.00     0.034 A 
ATOM     48  C   UNL     1       8.780 -11.048   1.295  1.00  0.00     0.049 A 
ATOM     49  C   UNL     1       9.988  -6.626   4.524  1.00  0.00     0.074 A 
ATOM     50  C   UNL     1       8.948 -12.298   1.862  1.00  0.00     0.029 A 
ATOM     51  N   UNL     1       9.145 -10.118   2.256  1.00  0.00    -0.354 N 
ATOM     52  N   UNL     1       9.789  -7.750   3.878  1.00  0.00    -0.248 NA
ATOM     53  C   UNL     1      10.373  -6.804   5.932  1.00  0.00     0.031 C 
ATOM     54  C   UNL     1       9.388 -12.122   3.177  1.00  0.00     0.029 A 
ATOM     55  C   UNL     1       9.529 -10.764   3.416  1.00  0.00     0.049 A 
ATOM     56  H   UNL     1       9.132  -9.142   2.130  1.00  0.00     0.167 HD
ATOM     57  C   UNL     1      10.059  -8.766   4.786  1.00  0.00     0.074 A 
ATOM     58  C   UNL     1      10.457  -8.124   6.023  1.00  0.00     0.031 C 
ATOM     59  C   UNL     1       9.973 -10.109   4.619  1.00  0.00     0.034 A 
BRANCH  46  60
ATOM     60  C   UNL     1       7.893 -11.842  -0.937  1.00  0.00     0.023 A 
ATOM     61  C   UNL     1       8.697 -12.192  -2.043  1.00  0.00     0.012 A 
ATOM     62  C   UNL     1       6.724 -12.583  -0.674  1.00  0.00     0.148 A 
ATOM     63  C   UNL     1       8.323 -13.230  -2.895  1.00  0.00     0.002 A 
ATOM     64  C   UNL     1       6.385 -13.650  -1.498  1.00  0.00     0.091 A 
ATOM     65  F   UNL     1       5.960 -12.224   0.368  1.00  0.00    -0.205 F 
ATOM     66  C   UNL     1       7.175 -13.965  -2.617  1.00  0.00     0.022 A 
BRANCH  64  67
ATOM     67  S   UNL     1       4.974 -14.713  -1.179  1.00  0.00     0.127 S 
ATOM     68  O   UNL     1       4.084 -14.363  -2.285  1.00  0.00    -0.237 OA
ATOM     69  O   UNL     1       5.568 -16.047  -1.273  1.00  0.00    -0.237 OA
ATOM     70  O   UNL     1       4.490 -14.354   0.147  1.00  0.00    -0.744 OA
ENDBRANCH  64  67
ENDBRANCH  46  60
BRANCH  47  71
ATOM     71  C   UNL     1      10.201  -4.056   4.908  1.00  0.00     0.023 A 
ATOM     72  C   UNL     1      11.516  -3.862   5.375  1.00  0.00     0.012 A 
ATOM     73  C   UNL     1       9.201  -3.134   5.273  1.00  0.00     0.148 A 
ATOM     74  C   UNL     1      11.822  -2.793   6.218  1.00  0.00     0.002 A 
ATOM     75  C   UNL     1       9.524  -2.039   6.066  1.00  0.00     0.091 A 
ATOM     76  F   UNL     1       7.955  -3.339   4.824  1.00  0.00    -0.205 F 
ATOM     77  C   UNL     1      10.830  -1.877   6.555  1.00  0.00     0.022 A 
BRANCH  75  78
ATOM     78  S   UNL     1       8.344  -0.738   6.441  1.00  0.00     0.127 S 
ATOM     79  O   UNL     1       8.115  -0.944   7.868  1.00  0.00    -0.237 OA
ATOM     80  O   UNL     1       9.107   0.466   6.105  1.00  0.00    -0.237 OA
ATOM     81  O   UNL     1       7.200  -0.983   5.574  1.00  0.00    -0.744 OA
ENDBRANCH  75  78
ENDBRANCH  47  71
BRANCH  59  82
ATOM     82  C   UNL     1      10.357 -10.984   5.782  1.00  0.00     0.023 A 
ATOM     83  C   UNL     1       9.514 -11.069   6.907  1.00  0.00     0.012 A 
ATOM     84  C   UNL     1      11.515 -11.784   5.720  1.00  0.00     0.148 A 
ATOM     85  C   UNL     1       9.837 -11.913   7.970  1.00  0.00     0.002 A 
ATOM     86  C   UNL     1      11.802 -12.661   6.758  1.00  0.00     0.091 A 
ATOM     87  F   UNL     1      12.311 -11.675   4.647  1.00  0.00    -0.205 F 
ATOM     88  C   UNL     1      10.972 -12.717   7.889  1.00  0.00     0.022 A 
BRANCH  86  89
ATOM     89  S   UNL     1      13.183 -13.807   6.695  1.00  0.00     0.127 S 
ATOM     90  O   UNL     1      14.092 -13.231   7.685  1.00  0.00    -0.237 OA
ATOM     91  O   UNL     1      12.558 -15.067   7.100  1.00  0.00    -0.237 OA
ATOM     92  O   UNL     1      13.662 -13.785   5.320  1.00  0.00    -0.744 OA
ENDBRANCH  86  89
ENDBRANCH  59  82
ENDBRANCH  33  34
ENDBRANCH  25  28
ENDBRANCH  23  24
ENDBRANCH   1  23
TORSDOF 16
