REMARK SMILES CC[NH2+][C@]1(C(=O)NCCCNC(=O)c2ccc(-c3c4nc(c(-c5cccc(S(=O)(=O)[O-])c5F)c5ccc([nH]5)c(-c5cccc(S(=O)(=O)[O-])c5F)c5nc(c(-c6cccc(S(=O)(=O)[O-])c6F)c6ccc3[nH]6)C=C5)C=C4)cc2)CC[C@H](OCC)C1
REMARK SMILES IDX 9 1 8 2 7 3 5 4 6 5 4 7 77 8 83 9 78 10 79 11 3 12 2 15 1 16
REMARK SMILES IDX 80 17 81 18 82 19 10 20 11 21 12 22 13 24 14 25 15 26 76 27
REMARK SMILES IDX 16 28 75 29 17 30 18 31 19 32 69 33 20 34 74 35 68 36 70 37
REMARK SMILES IDX 21 38 73 39 67 40 66 41 22 43 54 44 34 45 53 46 35 47 38 48
REMARK SMILES IDX 52 49 71 50 36 51 37 52 51 54 72 55 39 56 23 57 24 58 32 59
REMARK SMILES IDX 25 60 27 61 33 62 26 63 28 64 29 65 30 66 31 67 55 68 56 69
REMARK SMILES IDX 64 70 57 71 59 72 65 73 58 74 60 75 61 76 62 77 63 78 40 79
REMARK SMILES IDX 41 80 49 81 42 82 44 83 50 84 43 85 45 86 46 87 47 88 48 89
REMARK H PARENT 7 6 3 13 3 14 11 23 70 42 38 53
REMARK Flexibility Score: inf
ROOT
ATOM      1  C   UNL     1       3.051   4.596  -2.294  1.00  0.00     0.042 C 
ENDROOT
BRANCH   1   2
ATOM      2  C   UNL     1       1.650   3.986  -2.321  1.00  0.00     0.118 C 
BRANCH   2   3
ATOM      3  N   UNL     1       1.544   2.818  -1.471  1.00  0.00    -0.351 N 
ATOM      4  C   UNL     1       1.149   2.599  -0.189  1.00  0.00     0.281 C 
ATOM      5  O   UNL     1       1.133   1.394   0.096  1.00  0.00    -0.268 OA
ATOM      6  H   UNL     1       1.821   1.991  -1.927  1.00  0.00     0.163 HD
BRANCH   4   7
ATOM      7  C   UNL     1       0.605   3.711   0.784  1.00  0.00     0.178 C 
ATOM      8  C   UNL     1       1.329   5.069   0.721  1.00  0.00     0.082 C 
ATOM      9  C   UNL     1      -0.843   4.081   0.397  1.00  0.00     0.111 C 
ATOM     10  C   UNL     1       0.316   6.092   1.206  1.00  0.00     0.039 C 
ATOM     11  C   UNL     1      -1.028   5.577   0.696  1.00  0.00     0.125 C 
BRANCH   7  12
ATOM     12  N   UNL     1       0.708   3.337   2.231  1.00  0.00    -0.334 N 
ATOM     13  H   UNL     1       1.690   3.417   2.495  1.00  0.00     0.347 HD
ATOM     14  H   UNL     1       0.067   3.974   2.703  1.00  0.00     0.347 HD
BRANCH  12  15
ATOM     15  C   UNL     1       0.259   2.009   2.633  1.00  0.00     0.257 C 
ATOM     16  C   UNL     1       0.202   1.935   4.155  1.00  0.00     0.071 C 
ENDBRANCH  12  15
ENDBRANCH   7  12
BRANCH  11  17
ATOM     17  O   UNL     1      -1.998   5.808   1.712  1.00  0.00    -0.378 OA
BRANCH  17  18
ATOM     18  C   UNL     1      -3.354   5.748   1.283  1.00  0.00     0.157 C 
ATOM     19  C   UNL     1      -3.751   6.988   0.500  1.00  0.00     0.035 C 
ENDBRANCH  17  18
ENDBRANCH  11  17
ENDBRANCH   4   7
ENDBRANCH   2   3
ENDBRANCH   1   2
BRANCH   1  20
ATOM     20  C   UNL     1       4.142   3.670  -2.815  1.00  0.00     0.118 C 
BRANCH  20  21
ATOM     21  N   UNL     1       4.034   3.435  -4.247  1.00  0.00    -0.352 N 
ATOM     22  C   UNL     1       4.848   3.849  -5.272  1.00  0.00     0.251 C 
ATOM     23  H   UNL     1       3.258   2.896  -4.523  1.00  0.00     0.163 HD
ATOM     24  O   UNL     1       4.458   3.735  -6.431  1.00  0.00    -0.269 OA
BRANCH  22  25
ATOM     25  C   UNL     1       6.178   4.440  -4.993  1.00  0.00     0.039 A 
ATOM     26  C   UNL     1       6.608   5.529  -5.757  1.00  0.00     0.014 A 
ATOM     27  C   UNL     1       7.018   3.903  -4.014  1.00  0.00     0.014 A 
ATOM     28  C   UNL     1       7.855   6.109  -5.503  1.00  0.00     0.010 A 
ATOM     29  C   UNL     1       8.218   4.536  -3.702  1.00  0.00     0.010 A 
ATOM     30  C   UNL     1       8.659   5.633  -4.455  1.00  0.00    -0.014 A 
BRANCH  30  31
ATOM     31  C   UNL     1       9.969   6.258  -4.137  1.00  0.00     0.031 A 
ATOM     32  C   UNL     1      11.240   5.459  -4.255  1.00  0.00     0.074 A 
ATOM     33  C   UNL     1      10.009   7.518  -3.660  1.00  0.00     0.049 A 
ATOM     34  N   UNL     1      12.467   5.813  -3.975  1.00  0.00    -0.248 NA
ATOM     35  C   UNL     1      11.111   4.067  -4.717  1.00  0.00     0.031 C 
ATOM     36  C   UNL     1       8.842   8.370  -3.424  1.00  0.00     0.029 A 
ATOM     37  N   UNL     1      11.071   8.292  -3.264  1.00  0.00    -0.354 N 
ATOM     38  C   UNL     1      13.247   4.682  -4.186  1.00  0.00     0.074 A 
ATOM     39  C   UNL     1      12.350   3.619  -4.580  1.00  0.00     0.031 C 
ATOM     40  C   UNL     1       9.251   9.552  -2.937  1.00  0.00     0.029 A 
ATOM     41  C   UNL     1      10.704   9.533  -2.798  1.00  0.00     0.049 A 
ATOM     42  H   UNL     1      12.006   7.988  -3.308  1.00  0.00     0.167 HD
ATOM     43  C   UNL     1      14.592   4.546  -4.093  1.00  0.00     0.034 A 
ATOM     44  C   UNL     1      11.454  10.544  -2.315  1.00  0.00     0.034 A 
ATOM     45  C   UNL     1      15.486   5.619  -3.751  1.00  0.00     0.049 A 
ATOM     46  C   UNL     1      12.949  10.386  -2.265  1.00  0.00     0.074 A 
ATOM     47  C   UNL     1      16.869   5.614  -3.728  1.00  0.00     0.029 A 
ATOM     48  N   UNL     1      15.084   6.889  -3.364  1.00  0.00    -0.354 N 
ATOM     49  N   UNL     1      13.683   9.362  -2.628  1.00  0.00    -0.248 NA
ATOM     50  C   UNL     1      13.722  11.535  -1.772  1.00  0.00     0.031 C 
ATOM     51  C   UNL     1      17.303   6.877  -3.307  1.00  0.00     0.029 A 
ATOM     52  C   UNL     1      16.190   7.674  -3.089  1.00  0.00     0.049 A 
ATOM     53  H   UNL     1      14.149   7.188  -3.295  1.00  0.00     0.167 HD
ATOM     54  C   UNL     1      15.004   9.754  -2.442  1.00  0.00     0.074 A 
ATOM     55  C   UNL     1      14.969  11.116  -1.950  1.00  0.00     0.031 C 
ATOM     56  C   UNL     1      16.142   9.045  -2.647  1.00  0.00     0.034 A 
BRANCH  43  57
ATOM     57  C   UNL     1      15.178   3.196  -4.422  1.00  0.00     0.023 A 
ATOM     58  C   UNL     1      15.168   2.740  -5.757  1.00  0.00     0.012 A 
ATOM     59  C   UNL     1      15.763   2.392  -3.425  1.00  0.00     0.148 A 
ATOM     60  C   UNL     1      15.685   1.488  -6.086  1.00  0.00     0.002 A 
ATOM     61  C   UNL     1      16.320   1.165  -3.768  1.00  0.00     0.091 A 
ATOM     62  F   UNL     1      15.746   2.828  -2.157  1.00  0.00    -0.205 F 
ATOM     63  C   UNL     1      16.269   0.705  -5.094  1.00  0.00     0.022 A 
BRANCH  61  64
ATOM     64  S   UNL     1      17.164   0.122  -2.573  1.00  0.00     0.127 S 
ATOM     65  O   UNL     1      16.163  -0.914  -2.325  1.00  0.00    -0.237 OA
ATOM     66  O   UNL     1      18.334  -0.330  -3.327  1.00  0.00    -0.237 OA
ATOM     67  O   UNL     1      17.473   0.986  -1.443  1.00  0.00    -0.744 OA
ENDBRANCH  61  64
ENDBRANCH  43  57
BRANCH  44  68
ATOM     68  C   UNL     1      10.801  11.827  -1.930  1.00  0.00     0.023 A 
ATOM     69  C   UNL     1      10.977  12.957  -2.752  1.00  0.00     0.012 A 
ATOM     70  C   UNL     1       9.967  11.922  -0.799  1.00  0.00     0.148 A 
ATOM     71  C   UNL     1      10.352  14.166  -2.443  1.00  0.00     0.002 A 
ATOM     72  C   UNL     1       9.306  13.114  -0.527  1.00  0.00     0.091 A 
ATOM     73  F   UNL     1       9.819  10.836  -0.028  1.00  0.00    -0.205 F 
ATOM     74  C   UNL     1       9.509  14.241  -1.338  1.00  0.00     0.022 A 
BRANCH  72  75
ATOM     75  S   UNL     1       8.099  13.272   0.795  1.00  0.00     0.127 S 
ATOM     76  O   UNL     1       8.774  14.188   1.709  1.00  0.00    -0.237 OA
ATOM     77  O   UNL     1       6.952  13.840   0.086  1.00  0.00    -0.237 OA
ATOM     78  O   UNL     1       7.886  11.921   1.298  1.00  0.00    -0.744 OA
ENDBRANCH  72  75
ENDBRANCH  44  68
BRANCH  56  79
ATOM     79  C   UNL     1      17.453   9.733  -2.368  1.00  0.00     0.023 A 
ATOM     80  C   UNL     1      17.852   9.964  -1.037  1.00  0.00     0.012 A 
ATOM     81  C   UNL     1      18.323  10.078  -3.421  1.00  0.00     0.148 A 
ATOM     82  C   UNL     1      19.084  10.556  -0.759  1.00  0.00     0.002 A 
ATOM     83  C   UNL     1      19.569  10.623  -3.135  1.00  0.00     0.091 A 
ATOM     84  F   UNL     1      17.917   9.868  -4.682  1.00  0.00    -0.205 F 
ATOM     85  C   UNL     1      19.946  10.874  -1.806  1.00  0.00     0.022 A 
BRANCH  83  86
ATOM     86  S   UNL     1      20.781  10.974  -4.414  1.00  0.00     0.127 S 
ATOM     87  O   UNL     1      20.729  12.433  -4.483  1.00  0.00    -0.237 OA
ATOM     88  O   UNL     1      22.011  10.434  -3.834  1.00  0.00    -0.237 OA
ATOM     89  O   UNL     1      20.320  10.273  -5.605  1.00  0.00    -0.744 OA
ENDBRANCH  83  86
ENDBRANCH  56  79
ENDBRANCH  30  31
ENDBRANCH  22  25
ENDBRANCH  20  21
ENDBRANCH   1  20
TORSDOF 17
