REMARK SMILES C[C@H](CO)CSc1cc(Cl)ccc1C(=O)NCCCNC(=O)c1ccc(-c2c3nc(c(-c4cccc(S(=O)(=O)[O-])c4F)c4ccc([nH]4)c(-c4cccc(S(=O)(=O)[O-])c4F)c4nc(c(-c5cccc(S(=O)(=O)[O-])c5F)c5ccc2[nH]5)C=C4)C=C3)cc1
REMARK SMILES IDX 17 1 16 2 14 3 15 4 13 6 7 7 8 8 9 9 12 10 10 11 11 12 6 13
REMARK SMILES IDX 5 14 2 15 1 16 3 17 4 18 18 20 19 21 20 22 21 23 22 25 23 26
REMARK SMILES IDX 24 27 85 28 25 29 84 30 26 31 27 32 28 33 78 34 29 35 83 36
REMARK SMILES IDX 77 37 79 38 30 39 82 40 76 41 75 42 31 44 63 45 43 46 62 47
REMARK SMILES IDX 44 48 47 49 61 50 80 51 45 52 46 53 60 55 81 56 48 57 32 58
REMARK SMILES IDX 33 59 41 60 34 61 36 62 42 63 35 64 37 65 38 66 39 67 40 68
REMARK SMILES IDX 64 69 65 70 73 71 66 72 68 73 74 74 67 75 69 76 70 77 71 78
REMARK SMILES IDX 72 79 49 80 50 81 58 82 51 83 53 84 59 85 52 86 54 87 55 88
REMARK SMILES IDX 56 89 57 90
REMARK H PARENT 16 5 4 19 20 24 79 43 47 54
REMARK Flexibility Score: inf
ROOT
ATOM      1  C   UNL     1      -0.729   3.574   0.236  1.00  0.00     0.118 C 
ENDROOT
BRANCH   1   2
ATOM      2  N   UNL     1      -0.799   3.688   1.669  1.00  0.00    -0.352 N 
ATOM      3  C   UNL     1      -0.893   2.793   2.696  1.00  0.00     0.252 C 
ATOM      4  O   UNL     1      -0.953   3.323   3.814  1.00  0.00    -0.269 OA
ATOM      5  H   UNL     1      -0.775   4.623   1.979  1.00  0.00     0.163 HD
BRANCH   3   6
ATOM      6  C   UNL     1      -0.839   1.287   2.650  1.00  0.00     0.053 A 
ATOM      7  C   UNL     1      -1.353   0.351   1.720  1.00  0.00     0.021 A 
ATOM      8  C   UNL     1      -1.347  -1.026   2.056  1.00  0.00     0.036 A 
ATOM      9  C   UNL     1      -0.793  -1.492   3.244  1.00  0.00     0.042 A 
ATOM     10  C   UNL     1      -0.257   0.763   3.837  1.00  0.00     0.016 A 
ATOM     11  Cl  UNL     1      -0.821  -3.171   3.606  1.00  0.00    -0.084 Cl
ATOM     12  C   UNL     1      -0.228  -0.601   4.133  1.00  0.00     0.021 A 
BRANCH   7  13
ATOM     13  S   UNL     1      -2.163   0.683   0.170  1.00  0.00    -0.125 SA
BRANCH  13  14
ATOM     14  C   UNL     1      -1.143  -0.203  -1.097  1.00  0.00     0.080 C 
BRANCH  14  15
ATOM     15  C   UNL     1       0.305   0.279  -1.339  1.00  0.00     0.022 C 
ATOM     16  C   UNL     1       0.797  -0.216  -2.708  1.00  0.00     0.011 C 
BRANCH  15  17
ATOM     17  C   UNL     1       1.311  -0.151  -0.265  1.00  0.00     0.160 C 
BRANCH  17  18
ATOM     18  O   UNL     1       1.391  -1.565  -0.148  1.00  0.00    -0.396 OA
ATOM     19  H   UNL     1       0.526  -1.917   0.111  1.00  0.00     0.210 HD
ENDBRANCH  17  18
ENDBRANCH  15  17
ENDBRANCH  14  15
ENDBRANCH  13  14
ENDBRANCH   7  13
ENDBRANCH   3   6
ENDBRANCH   1   2
BRANCH   1  20
ATOM     20  C   UNL     1      -2.100   3.805  -0.398  1.00  0.00     0.042 C 
BRANCH  20  21
ATOM     21  C   UNL     1      -2.369   5.261  -0.733  1.00  0.00     0.118 C 
BRANCH  21  22
ATOM     22  N   UNL     1      -1.663   5.658  -1.944  1.00  0.00    -0.352 N 
ATOM     23  C   UNL     1      -2.166   6.035  -3.166  1.00  0.00     0.251 C 
ATOM     24  H   UNL     1      -0.680   5.655  -1.878  1.00  0.00     0.163 HD
ATOM     25  O   UNL     1      -1.418   6.051  -4.141  1.00  0.00    -0.269 OA
BRANCH  23  26
ATOM     26  C   UNL     1      -3.590   6.419  -3.313  1.00  0.00     0.039 A 
ATOM     27  C   UNL     1      -4.265   6.091  -4.494  1.00  0.00     0.014 A 
ATOM     28  C   UNL     1      -4.250   7.138  -2.315  1.00  0.00     0.014 A 
ATOM     29  C   UNL     1      -5.608   6.447  -4.650  1.00  0.00     0.010 A 
ATOM     30  C   UNL     1      -5.610   7.407  -2.431  1.00  0.00     0.010 A 
ATOM     31  C   UNL     1      -6.299   7.086  -3.609  1.00  0.00    -0.014 A 
BRANCH  31  32
ATOM     32  C   UNL     1      -7.734   7.452  -3.730  1.00  0.00     0.031 A 
ATOM     33  C   UNL     1      -8.152   8.897  -3.646  1.00  0.00     0.074 A 
ATOM     34  C   UNL     1      -8.665   6.482  -3.819  1.00  0.00     0.049 A 
ATOM     35  N   UNL     1      -9.355   9.409  -3.644  1.00  0.00    -0.248 NA
ATOM     36  C   UNL     1      -7.078   9.897  -3.512  1.00  0.00     0.031 C 
ATOM     37  C   UNL     1      -8.390   5.043  -3.826  1.00  0.00     0.029 A 
ATOM     38  N   UNL     1     -10.033   6.558  -3.890  1.00  0.00    -0.354 N 
ATOM     39  C   UNL     1      -9.186  10.778  -3.466  1.00  0.00     0.074 A 
ATOM     40  C   UNL     1      -7.766  11.014  -3.326  1.00  0.00     0.031 C 
ATOM     41  C   UNL     1      -9.551   4.373  -3.902  1.00  0.00     0.029 A 
ATOM     42  C   UNL     1     -10.653   5.330  -3.920  1.00  0.00     0.049 A 
ATOM     43  H   UNL     1     -10.525   7.410  -3.917  1.00  0.00     0.167 HD
ATOM     44  C   UNL     1     -10.123  11.755  -3.453  1.00  0.00     0.034 A 
ATOM     45  C   UNL     1     -11.962   5.012  -3.953  1.00  0.00     0.034 A 
ATOM     46  C   UNL     1     -11.527  11.521  -3.651  1.00  0.00     0.049 A 
ATOM     47  C   UNL     1     -12.979   6.120  -3.997  1.00  0.00     0.074 A 
ATOM     48  C   UNL     1     -12.549  12.449  -3.751  1.00  0.00     0.029 A 
ATOM     49  N   UNL     1     -12.108  10.269  -3.782  1.00  0.00    -0.354 N 
ATOM     50  N   UNL     1     -12.787   7.417  -3.985  1.00  0.00    -0.248 NA
ATOM     51  C   UNL     1     -14.391   5.722  -4.096  1.00  0.00     0.031 C 
ATOM     52  C   UNL     1     -13.751  11.755  -3.927  1.00  0.00     0.029 A 
ATOM     53  C   UNL     1     -13.474  10.398  -3.958  1.00  0.00     0.049 A 
ATOM     54  H   UNL     1     -11.620   9.415  -3.754  1.00  0.00     0.167 HD
ATOM     55  C   UNL     1     -14.047   7.990  -4.112  1.00  0.00     0.074 A 
ATOM     56  C   UNL     1     -14.993   6.898  -4.221  1.00  0.00     0.031 C 
ATOM     57  C   UNL     1     -14.393   9.301  -4.122  1.00  0.00     0.034 A 
BRANCH  44  58
ATOM     58  C   UNL     1      -9.652  13.177  -3.281  1.00  0.00     0.023 A 
ATOM     59  C   UNL     1      -8.953  13.808  -4.332  1.00  0.00     0.012 A 
ATOM     60  C   UNL     1      -9.943  13.906  -2.111  1.00  0.00     0.148 A 
ATOM     61  C   UNL     1      -8.520  15.127  -4.208  1.00  0.00     0.002 A 
ATOM     62  C   UNL     1      -9.547  15.236  -2.014  1.00  0.00     0.091 A 
ATOM     63  F   UNL     1     -10.589  13.285  -1.114  1.00  0.00    -0.205 F 
ATOM     64  C   UNL     1      -8.826  15.843  -3.055  1.00  0.00     0.022 A 
BRANCH  62  65
ATOM     65  S   UNL     1      -9.960  16.269  -0.603  1.00  0.00     0.127 S 
ATOM     66  O   UNL     1      -8.658  16.416   0.046  1.00  0.00    -0.237 OA
ATOM     67  O   UNL     1     -10.459  17.484  -1.247  1.00  0.00    -0.237 OA
ATOM     68  O   UNL     1     -10.958  15.531   0.157  1.00  0.00    -0.744 OA
ENDBRANCH  62  65
ENDBRANCH  44  58
BRANCH  45  69
ATOM     69  C   UNL     1     -12.378   3.583  -4.029  1.00  0.00     0.023 A 
ATOM     70  C   UNL     1     -12.928   3.089  -5.228  1.00  0.00     0.012 A 
ATOM     71  C   UNL     1     -12.203   2.704  -2.942  1.00  0.00     0.148 A 
ATOM     72  C   UNL     1     -13.325   1.755  -5.334  1.00  0.00     0.002 A 
ATOM     73  C   UNL     1     -12.550   1.364  -3.072  1.00  0.00     0.091 A 
ATOM     74  F   UNL     1     -11.689   3.195  -1.805  1.00  0.00    -0.205 F 
ATOM     75  C   UNL     1     -13.127   0.891  -4.261  1.00  0.00     0.022 A 
BRANCH  73  76
ATOM     76  S   UNL     1     -12.206   0.154  -1.789  1.00  0.00     0.127 S 
ATOM     77  O   UNL     1     -13.547  -0.124  -1.275  1.00  0.00    -0.237 OA
ATOM     78  O   UNL     1     -11.606  -0.939  -2.558  1.00  0.00    -0.237 OA
ATOM     79  O   UNL     1     -11.295   0.808  -0.867  1.00  0.00    -0.744 OA
ENDBRANCH  73  76
ENDBRANCH  45  69
BRANCH  57  80
ATOM     80  C   UNL     1     -15.851   9.637  -4.291  1.00  0.00     0.023 A 
ATOM     81  C   UNL     1     -16.746   9.424  -3.224  1.00  0.00     0.012 A 
ATOM     82  C   UNL     1     -16.317  10.237  -5.478  1.00  0.00     0.148 A 
ATOM     83  C   UNL     1     -18.089   9.776  -3.347  1.00  0.00     0.002 A 
ATOM     84  C   UNL     1     -17.646  10.629  -5.575  1.00  0.00     0.091 A 
ATOM     85  F   UNL     1     -15.453  10.413  -6.488  1.00  0.00    -0.205 F 
ATOM     86  C   UNL     1     -18.536  10.389  -4.516  1.00  0.00     0.022 A 
BRANCH  84  87
ATOM     87  S   UNL     1     -18.285  11.512  -7.003  1.00  0.00     0.127 S 
ATOM     88  O   UNL     1     -19.081  10.477  -7.661  1.00  0.00    -0.237 OA
ATOM     89  O   UNL     1     -19.069  12.581  -6.383  1.00  0.00    -0.237 OA
ATOM     90  O   UNL     1     -17.119  11.972  -7.744  1.00  0.00    -0.744 OA
ENDBRANCH  84  87
ENDBRANCH  57  80
ENDBRANCH  31  32
ENDBRANCH  23  26
ENDBRANCH  21  22
ENDBRANCH  20  21
ENDBRANCH   1  20
TORSDOF 18
