REMARK SMILES O=C(NCCCNC(=O)[C@@H](CCCCl)P(=O)(c1ccccc1)c1ccccc1)c1ccc(-c2c3nc(c(-c4cccc(S(=O)(=O)[O-])c4F)c4ccc([nH]4)c(-c4cccc(S(=O)(=O)[O-])c4F)c4nc(c(-c5cccc(S(=O)(=O)[O-])c5F)c5ccc2[nH]5)C=C4)C=C3)cc1
REMARK SMILES IDX 5 1 4 2 3 3 1 4 2 5 29 7 30 8 91 9 31 10 90 11 32 12 33 13
REMARK SMILES IDX 34 14 84 15 35 16 89 17 83 18 85 19 36 20 88 21 82 22 81 23
REMARK SMILES IDX 37 25 69 26 49 27 68 28 50 29 53 30 67 31 86 32 51 33 52 34
REMARK SMILES IDX 66 36 87 37 54 38 38 39 39 40 47 41 40 42 42 43 48 44 41 45
REMARK SMILES IDX 43 46 44 47 45 48 46 49 70 50 71 51 79 52 72 53 74 54 80 55
REMARK SMILES IDX 73 56 75 57 76 58 77 59 78 60 55 61 56 62 64 63 57 64 59 65
REMARK SMILES IDX 65 66 58 67 60 68 61 69 62 70 63 71 6 72 7 73 8 74 9 76
REMARK SMILES IDX 10 77 11 78 12 79 13 80 14 81 15 82 16 83 17 84 18 85 22 86
REMARK SMILES IDX 19 87 21 88 20 89 23 90 24 91 28 92 25 93 27 94 26 95
REMARK H PARENT 3 6 85 24 53 35 7 75
REMARK Flexibility Score: inf
ROOT
ATOM      1  C   UNL     1       4.806   1.581  -1.155  1.00  0.00     0.042 C 
ENDROOT
BRANCH   1   2
ATOM      2  C   UNL     1       4.380   1.252   0.261  1.00  0.00     0.118 C 
BRANCH   2   3
ATOM      3  N   UNL     1       2.938   1.022   0.350  1.00  0.00    -0.352 N 
ATOM      4  O   UNL     1       1.020  -0.156   0.201  1.00  0.00    -0.269 OA
ATOM      5  C   UNL     1       2.235  -0.160   0.383  1.00  0.00     0.251 C 
ATOM      6  H   UNL     1       2.388   1.837   0.391  1.00  0.00     0.163 HD
BRANCH   5   7
ATOM      7  C   UNL     1       2.958  -1.428   0.608  1.00  0.00     0.039 A 
ATOM      8  C   UNL     1       4.026  -1.459   1.500  1.00  0.00     0.014 A 
ATOM      9  C   UNL     1       2.586  -2.588  -0.075  1.00  0.00     0.014 A 
ATOM     10  C   UNL     1       4.866  -2.555   1.529  1.00  0.00     0.010 A 
ATOM     11  C   UNL     1       3.332  -3.759   0.100  1.00  0.00     0.010 A 
ATOM     12  C   UNL     1       4.497  -3.742   0.882  1.00  0.00    -0.014 A 
BRANCH  12  13
ATOM     13  C   UNL     1       5.285  -4.964   1.177  1.00  0.00     0.031 A 
ATOM     14  C   UNL     1       5.966  -5.750   0.096  1.00  0.00     0.074 A 
ATOM     15  C   UNL     1       5.397  -5.335   2.470  1.00  0.00     0.049 A 
ATOM     16  N   UNL     1       6.706  -6.822   0.212  1.00  0.00    -0.248 NA
ATOM     17  C   UNL     1       5.793  -5.291  -1.292  1.00  0.00     0.031 C 
ATOM     18  C   UNL     1       4.737  -4.663   3.598  1.00  0.00     0.029 A 
ATOM     19  N   UNL     1       6.108  -6.342   3.065  1.00  0.00    -0.354 N 
ATOM     20  C   UNL     1       7.046  -7.197  -1.082  1.00  0.00     0.074 A 
ATOM     21  C   UNL     1       6.432  -6.235  -1.972  1.00  0.00     0.031 C 
ATOM     22  C   UNL     1       5.122  -5.234   4.745  1.00  0.00     0.029 A 
ATOM     23  C   UNL     1       5.971  -6.373   4.434  1.00  0.00     0.049 A 
ATOM     24  H   UNL     1       6.664  -6.981   2.563  1.00  0.00     0.167 HD
ATOM     25  C   UNL     1       7.805  -8.245  -1.484  1.00  0.00     0.034 A 
ATOM     26  C   UNL     1       6.442  -7.244   5.344  1.00  0.00     0.034 A 
ATOM     27  C   UNL     1       8.432  -9.176  -0.580  1.00  0.00     0.049 A 
ATOM     28  C   UNL     1       7.289  -8.381   4.864  1.00  0.00     0.074 A 
ATOM     29  C   UNL     1       9.262 -10.240  -0.884  1.00  0.00     0.029 A 
ATOM     30  N   UNL     1       8.291  -9.162   0.800  1.00  0.00    -0.354 N 
ATOM     31  N   UNL     1       7.684  -8.655   3.644  1.00  0.00    -0.248 NA
ATOM     32  C   UNL     1       7.772  -9.319   5.884  1.00  0.00     0.031 C 
ATOM     33  C   UNL     1       9.600 -10.887   0.310  1.00  0.00     0.029 A 
ATOM     34  C   UNL     1       9.008 -10.205   1.361  1.00  0.00     0.049 A 
ATOM     35  H   UNL     1       7.759  -8.506   1.306  1.00  0.00     0.167 HD
ATOM     36  C   UNL     1       8.479  -9.787   3.751  1.00  0.00     0.074 A 
ATOM     37  C   UNL     1       8.538 -10.123   5.160  1.00  0.00     0.031 C 
ATOM     38  C   UNL     1       9.086 -10.498   2.770  1.00  0.00     0.034 A 
BRANCH  25  39
ATOM     39  C   UNL     1       8.025  -8.436  -2.963  1.00  0.00     0.023 A 
ATOM     40  C   UNL     1       8.879  -7.561  -3.663  1.00  0.00     0.012 A 
ATOM     41  C   UNL     1       7.452  -9.531  -3.641  1.00  0.00     0.148 A 
ATOM     42  C   UNL     1       9.140  -7.757  -5.020  1.00  0.00     0.002 A 
ATOM     43  C   UNL     1       7.751  -9.745  -4.982  1.00  0.00     0.091 A 
ATOM     44  F   UNL     1       6.628 -10.342  -2.963  1.00  0.00    -0.205 F 
ATOM     45  C   UNL     1       8.586  -8.854  -5.675  1.00  0.00     0.022 A 
BRANCH  43  46
ATOM     46  S   UNL     1       7.152 -11.171  -5.897  1.00  0.00     0.127 S 
ATOM     47  O   UNL     1       6.227 -10.546  -6.842  1.00  0.00    -0.237 OA
ATOM     48  O   UNL     1       8.382 -11.687  -6.500  1.00  0.00    -0.237 OA
ATOM     49  O   UNL     1       6.538 -12.052  -4.915  1.00  0.00    -0.744 OA
ENDBRANCH  43  46
ENDBRANCH  25  39
BRANCH  26  50
ATOM     50  C   UNL     1       6.122  -7.059   6.786  1.00  0.00     0.023 A 
ATOM     51  C   UNL     1       7.147  -6.731   7.693  1.00  0.00     0.012 A 
ATOM     52  C   UNL     1       4.797  -7.166   7.256  1.00  0.00     0.148 A 
ATOM     53  C   UNL     1       6.863  -6.545   9.046  1.00  0.00     0.002 A 
ATOM     54  C   UNL     1       4.512  -6.913   8.591  1.00  0.00     0.091 A 
ATOM     55  F   UNL     1       3.836  -7.491   6.380  1.00  0.00    -0.205 F 
ATOM     56  C   UNL     1       5.546  -6.622   9.493  1.00  0.00     0.022 A 
BRANCH  54  57
ATOM     57  S   UNL     1       2.828  -6.842   9.211  1.00  0.00     0.127 S 
ATOM     58  O   UNL     1       2.733  -8.092   9.959  1.00  0.00    -0.237 OA
ATOM     59  O   UNL     1       2.858  -5.631  10.032  1.00  0.00    -0.237 OA
ATOM     60  O   UNL     1       1.982  -6.740   8.029  1.00  0.00    -0.744 OA
ENDBRANCH  54  57
ENDBRANCH  26  50
BRANCH  38  61
ATOM     61  C   UNL     1       9.894 -11.693   3.197  1.00  0.00     0.023 A 
ATOM     62  C   UNL     1       9.241 -12.849   3.669  1.00  0.00     0.012 A 
ATOM     63  C   UNL     1      11.298 -11.682   3.094  1.00  0.00     0.148 A 
ATOM     64  C   UNL     1       9.976 -13.962   4.071  1.00  0.00     0.002 A 
ATOM     65  C   UNL     1      12.021 -12.815   3.446  1.00  0.00     0.091 A 
ATOM     66  F   UNL     1      11.900 -10.564   2.664  1.00  0.00    -0.205 F 
ATOM     67  C   UNL     1      11.364 -13.949   3.949  1.00  0.00     0.022 A 
BRANCH  65  68
ATOM     68  S   UNL     1      13.800 -12.922   3.232  1.00  0.00     0.127 S 
ATOM     69  O   UNL     1      14.271 -12.860   4.615  1.00  0.00    -0.237 OA
ATOM     70  O   UNL     1      13.956 -14.229   2.592  1.00  0.00    -0.237 OA
ATOM     71  O   UNL     1      14.173 -11.791   2.394  1.00  0.00    -0.744 OA
ENDBRANCH  65  68
ENDBRANCH  38  61
ENDBRANCH  12  13
ENDBRANCH   5   7
ENDBRANCH   2   3
ENDBRANCH   1   2
BRANCH   1  72
ATOM     72  C   UNL     1       4.488   3.027  -1.457  1.00  0.00     0.117 C 
BRANCH  72  73
ATOM     73  N   UNL     1       5.550   3.919  -1.022  1.00  0.00    -0.355 N 
ATOM     74  C   UNL     1       6.073   4.998  -1.661  1.00  0.00     0.231 C 
ATOM     75  H   UNL     1       5.945   3.713  -0.143  1.00  0.00     0.163 HD
ATOM     76  O   UNL     1       6.909   5.676  -1.058  1.00  0.00    -0.274 OA
BRANCH  74  77
ATOM     77  C   UNL     1       5.683   5.340  -3.092  1.00  0.00     0.148 C 
BRANCH  77  78
ATOM     78  C   UNL     1       6.480   4.540  -4.133  1.00  0.00     0.023 C 
BRANCH  78  79
ATOM     79  C   UNL     1       6.481   3.005  -4.168  1.00  0.00     0.017 C 
BRANCH  79  80
ATOM     80  C   UNL     1       5.374   2.372  -4.995  1.00  0.00     0.109 C 
ATOM     81  Cl  UNL     1       5.562   2.734  -6.725  1.00  0.00    -0.127 Cl
ENDBRANCH  79  80
ENDBRANCH  78  79
ENDBRANCH  77  78
BRANCH  77  82
ATOM     82  P   UNL     1       3.963   5.956  -3.160  1.00  0.00     0.155 P 
ATOM     83  O   UNL     1       3.083   5.154  -2.218  1.00  0.00    -0.313 OA
BRANCH  82  84
ATOM     84  C   UNL     1       4.125   7.624  -2.476  1.00  0.00     0.017 A 
ATOM     85  C   UNL     1       4.650   8.711  -3.184  1.00  0.00     0.012 A 
ATOM     86  C   UNL     1       3.803   7.795  -1.119  1.00  0.00     0.012 A 
ATOM     87  C   UNL     1       4.764   9.960  -2.571  1.00  0.00     0.001 A 
ATOM     88  C   UNL     1       3.954   9.030  -0.498  1.00  0.00     0.001 A 
ATOM     89  C   UNL     1       4.415  10.118  -1.231  1.00  0.00     0.000 A 
ENDBRANCH  82  84
BRANCH  82  90
ATOM     90  C   UNL     1       3.092   5.952  -4.733  1.00  0.00     0.017 A 
ATOM     91  C   UNL     1       2.699   7.113  -5.411  1.00  0.00     0.012 A 
ATOM     92  C   UNL     1       2.433   4.755  -5.086  1.00  0.00     0.012 A 
ATOM     93  C   UNL     1       1.666   7.088  -6.358  1.00  0.00     0.001 A 
ATOM     94  C   UNL     1       1.412   4.723  -6.040  1.00  0.00     0.001 A 
ATOM     95  C   UNL     1       1.013   5.898  -6.661  1.00  0.00     0.000 A 
ENDBRANCH  82  90
ENDBRANCH  77  82
ENDBRANCH  74  77
ENDBRANCH  72  73
ENDBRANCH   1  72
TORSDOF 19
