REMARK SMILES Cc1oc2c(C)c3oc(=O)c(CC(=O)N[C@@H](CC(C)C)C(=O)NCCCNC(=O)c4ccc(-c5c6nc(c(-c7cccc(S(=O)(=O)[O-])c7F)c7ccc([nH]7)c(-c7cccc(S(=O)(=O)[O-])c7F)c7nc(c(-c8cccc(S(=O)(=O)[O-])c8F)c8ccc5[nH]8)C=C7)C=C6)cc4)c(C)c3cc2c1C
REMARK SMILES IDX 25 1 24 2 23 3 21 4 22 5 16 7 15 8 13 9 14 10 12 12 11 13
REMARK SMILES IDX 1 14 2 15 3 16 98 17 4 18 97 19 99 20 5 21 96 22 6 23 7 24
REMARK SMILES IDX 95 25 8 26 93 27 9 28 94 29 10 30 17 31 18 32 19 33 20 34
REMARK SMILES IDX 26 35 27 36 28 37 29 39 30 40 31 41 92 42 32 43 91 44 33 45
REMARK SMILES IDX 34 46 35 47 85 48 36 49 90 50 84 51 86 52 37 53 89 54 83 55
REMARK SMILES IDX 82 56 38 58 70 59 50 60 69 61 51 62 54 63 68 64 87 65 52 66
REMARK SMILES IDX 53 67 67 69 88 70 55 71 39 72 40 73 48 74 41 75 43 76 49 77
REMARK SMILES IDX 42 78 44 79 45 80 46 81 47 82 71 83 72 84 80 85 73 86 75 87
REMARK SMILES IDX 81 88 74 89 76 90 77 91 78 92 79 93 56 94 57 95 65 96 58 97
REMARK SMILES IDX 60 98 66 99 59 100 61 101 62 102 63 103 64 104
REMARK H PARENT 23 6 15 11 27 38 86 57 54 68
REMARK Flexibility Score: inf
ROOT
ATOM      1  C   UNL     1       4.206  10.600   8.498  1.00  0.00     0.042 C 
ENDROOT
BRANCH   1   2
ATOM      2  C   UNL     1       3.306   9.376   8.345  1.00  0.00     0.117 C 
BRANCH   2   3
ATOM      3  N   UNL     1       1.890   9.651   8.517  1.00  0.00    -0.354 N 
ATOM      4  C   UNL     1       0.783   8.993   8.063  1.00  0.00     0.242 C 
ATOM      5  O   UNL     1      -0.264   9.161   8.698  1.00  0.00    -0.273 OA
ATOM      6  H   UNL     1       1.695  10.453   9.054  1.00  0.00     0.163 HD
BRANCH   4   7
ATOM      7  C   UNL     1       0.801   8.001   6.878  1.00  0.00     0.171 C 
BRANCH   7   8
ATOM      8  N   UNL     1       1.559   8.522   5.740  1.00  0.00    -0.344 N 
ATOM      9  C   UNL     1       1.082   9.056   4.582  1.00  0.00     0.225 C 
ATOM     10  O   UNL     1       1.851   9.746   3.909  1.00  0.00    -0.275 OA
ATOM     11  H   UNL     1       2.539   8.480   5.821  1.00  0.00     0.164 HD
BRANCH   9  12
ATOM     12  C   UNL     1      -0.325   8.730   4.096  1.00  0.00     0.143 C 
BRANCH  12  13
ATOM     13  C   UNL     1      -0.445   7.255   3.766  1.00  0.00     0.051 A 
ATOM     14  C   UNL     1       0.634  -0.469   0.501  1.00  0.00     0.088 C 
ATOM     15  C   UNL     1       0.632   0.877   1.109  1.00  0.00     0.105 A 
ATOM     16  O   UNL     1      -0.281   1.094   2.098  1.00  0.00    -0.461 OA
ATOM     17  C   UNL     1       1.358   2.025   0.855  1.00  0.00    -0.002 A 
ATOM     18  C   UNL     1      -0.188   2.407   2.457  1.00  0.00     0.141 A 
ATOM     19  C   UNL     1       0.809   3.021   1.714  1.00  0.00     0.025 A 
ATOM     20  C   UNL     1       2.441   2.231  -0.137  1.00  0.00     0.049 C 
ATOM     21  C   UNL     1      -0.983   3.056   3.406  1.00  0.00     0.036 A 
ATOM     22  C   UNL     1       1.048   4.391   1.904  1.00  0.00     0.024 A 
ATOM     23  C   UNL     1      -2.020   2.337   4.210  1.00  0.00     0.052 C 
ATOM     24  C   UNL     1      -0.753   4.448   3.495  1.00  0.00     0.145 A 
ATOM     25  C   UNL     1       0.224   5.131   2.763  1.00  0.00     0.022 A 
ATOM     26  O   UNL     1      -1.595   5.173   4.365  1.00  0.00    -0.422 OA
ATOM     27  C   UNL     1       0.359   6.593   2.905  1.00  0.00    -0.029 A 
ATOM     28  C   UNL     1      -1.535   6.549   4.491  1.00  0.00     0.340 A 
ATOM     29  C   UNL     1       1.405   7.277   2.055  1.00  0.00     0.046 C 
ATOM     30  O   UNL     1      -2.351   7.147   5.182  1.00  0.00    -0.246 OA
ENDBRANCH  12  13
ENDBRANCH   9  12
ENDBRANCH   7   8
BRANCH   7  31
ATOM     31  C   UNL     1       1.092   6.513   7.169  1.00  0.00     0.038 C 
BRANCH  31  32
ATOM     32  C   UNL     1       2.302   6.143   8.044  1.00  0.00    -0.015 C 
ATOM     33  C   UNL     1       1.991   6.272   9.539  1.00  0.00     0.007 C 
ATOM     34  C   UNL     1       2.741   4.697   7.775  1.00  0.00     0.007 C 
ENDBRANCH  31  32
ENDBRANCH   7  31
ENDBRANCH   4   7
ENDBRANCH   2   3
ENDBRANCH   1   2
BRANCH   1  35
ATOM     35  C   UNL     1       4.378  11.095   9.939  1.00  0.00     0.118 C 
BRANCH  35  36
ATOM     36  N   UNL     1       4.923  10.056  10.802  1.00  0.00    -0.352 N 
ATOM     37  C   UNL     1       6.018  10.037  11.622  1.00  0.00     0.251 C 
ATOM     38  H   UNL     1       4.410   9.215  10.793  1.00  0.00     0.163 HD
ATOM     39  O   UNL     1       6.429   8.941  12.006  1.00  0.00    -0.269 OA
BRANCH  37  40
ATOM     40  C   UNL     1       6.713  11.272  12.050  1.00  0.00     0.039 A 
ATOM     41  C   UNL     1       8.093  11.192  12.282  1.00  0.00     0.014 A 
ATOM     42  C   UNL     1       6.033  12.458  12.337  1.00  0.00     0.014 A 
ATOM     43  C   UNL     1       8.795  12.306  12.740  1.00  0.00     0.010 A 
ATOM     44  C   UNL     1       6.739  13.579  12.785  1.00  0.00     0.010 A 
ATOM     45  C   UNL     1       8.126  13.516  12.970  1.00  0.00    -0.014 A 
BRANCH  45  46
ATOM     46  C   UNL     1       8.932  14.708  13.307  1.00  0.00     0.031 A 
ATOM     47  C   UNL     1       8.643  15.931  12.495  1.00  0.00     0.074 A 
ATOM     48  C   UNL     1       9.516  14.853  14.516  1.00  0.00     0.049 A 
ATOM     49  N   UNL     1       7.649  16.725  12.762  1.00  0.00    -0.248 NA
ATOM     50  C   UNL     1       9.282  16.203  11.208  1.00  0.00     0.031 C 
ATOM     51  C   UNL     1       8.964  14.281  15.752  1.00  0.00     0.029 A 
ATOM     52  N   UNL     1      10.517  15.694  14.950  1.00  0.00    -0.354 N 
ATOM     53  C   UNL     1       7.479  17.563  11.674  1.00  0.00     0.074 A 
ATOM     54  C   UNL     1       8.530  17.216  10.742  1.00  0.00     0.031 C 
ATOM     55  C   UNL     1       9.508  14.926  16.806  1.00  0.00     0.029 A 
ATOM     56  C   UNL     1      10.557  15.829  16.338  1.00  0.00     0.049 A 
ATOM     57  H   UNL     1      11.141  16.153  14.342  1.00  0.00     0.167 HD
ATOM     58  C   UNL     1       6.481  18.485  11.608  1.00  0.00     0.034 A 
ATOM     59  C   UNL     1      10.960  16.948  17.005  1.00  0.00     0.034 A 
ATOM     60  C   UNL     1       5.619  18.533  12.756  1.00  0.00     0.049 A 
ATOM     61  C   UNL     1       9.862  17.916  16.642  1.00  0.00     0.074 A 
ATOM     62  C   UNL     1       4.395  18.017  13.122  1.00  0.00     0.029 A 
ATOM     63  N   UNL     1       6.068  19.182  13.882  1.00  0.00    -0.354 N 
ATOM     64  N   UNL     1       8.663  17.938  17.164  1.00  0.00    -0.248 NA
ATOM     65  C   UNL     1       9.990  18.636  15.375  1.00  0.00     0.031 C 
ATOM     66  C   UNL     1       4.403  17.991  14.554  1.00  0.00     0.029 A 
ATOM     67  C   UNL     1       5.650  18.456  14.968  1.00  0.00     0.049 A 
ATOM     68  H   UNL     1       6.593  20.015  13.904  1.00  0.00     0.167 HD
ATOM     69  C   UNL     1       7.827  18.407  16.147  1.00  0.00     0.074 A 
ATOM     70  C   UNL     1       8.713  18.829  15.080  1.00  0.00     0.031 C 
ATOM     71  C   UNL     1       6.466  18.275  16.151  1.00  0.00     0.034 A 
BRANCH  58  72
ATOM     72  C   UNL     1       6.326  19.512  10.549  1.00  0.00     0.023 A 
ATOM     73  C   UNL     1       6.727  20.821  10.888  1.00  0.00     0.012 A 
ATOM     74  C   UNL     1       5.622  19.294   9.353  1.00  0.00     0.148 A 
ATOM     75  C   UNL     1       6.390  21.907  10.086  1.00  0.00     0.002 A 
ATOM     76  C   UNL     1       5.296  20.386   8.547  1.00  0.00     0.091 A 
ATOM     77  F   UNL     1       5.237  18.046   9.052  1.00  0.00    -0.205 F 
ATOM     78  C   UNL     1       5.666  21.690   8.921  1.00  0.00     0.022 A 
BRANCH  76  79
ATOM     79  S   UNL     1       4.372  20.231   7.013  1.00  0.00     0.127 S 
ATOM     80  O   UNL     1       3.089  20.841   7.370  1.00  0.00    -0.237 OA
ATOM     81  O   UNL     1       5.185  21.028   6.089  1.00  0.00    -0.237 OA
ATOM     82  O   UNL     1       4.334  18.813   6.712  1.00  0.00    -0.744 OA
ENDBRANCH  76  79
ENDBRANCH  58  72
BRANCH  59  83
ATOM     83  C   UNL     1      12.427  17.264  16.893  1.00  0.00     0.023 A 
ATOM     84  C   UNL     1      13.331  16.206  17.160  1.00  0.00     0.012 A 
ATOM     85  C   UNL     1      12.981  18.510  16.547  1.00  0.00     0.148 A 
ATOM     86  C   UNL     1      14.709  16.346  16.980  1.00  0.00     0.002 A 
ATOM     87  C   UNL     1      14.348  18.628  16.296  1.00  0.00     0.091 A 
ATOM     88  F   UNL     1      12.182  19.580  16.466  1.00  0.00    -0.205 F 
ATOM     89  C   UNL     1      15.215  17.549  16.512  1.00  0.00     0.022 A 
BRANCH  87  90
ATOM     90  S   UNL     1      15.076  20.112  15.584  1.00  0.00     0.127 S 
ATOM     91  O   UNL     1      16.153  20.407  16.526  1.00  0.00    -0.237 OA
ATOM     92  O   UNL     1      15.515  19.619  14.279  1.00  0.00    -0.237 OA
ATOM     93  O   UNL     1      14.004  21.097  15.540  1.00  0.00    -0.744 OA
ENDBRANCH  87  90
ENDBRANCH  59  83
BRANCH  71  94
ATOM     94  C   UNL     1       5.843  17.747  17.410  1.00  0.00     0.023 A 
ATOM     95  C   UNL     1       5.901  18.541  18.572  1.00  0.00     0.012 A 
ATOM     96  C   UNL     1       5.127  16.533  17.447  1.00  0.00     0.148 A 
ATOM     97  C   UNL     1       5.240  18.154  19.736  1.00  0.00     0.002 A 
ATOM     98  C   UNL     1       4.430  16.174  18.596  1.00  0.00     0.091 A 
ATOM     99  F   UNL     1       5.117  15.753  16.355  1.00  0.00    -0.205 F 
ATOM    100  C   UNL     1       4.490  16.981  19.743  1.00  0.00     0.022 A 
BRANCH  98 101
ATOM    101  S   UNL     1       3.366  14.728  18.685  1.00  0.00     0.127 S 
ATOM    102  O   UNL     1       3.916  14.012  19.836  1.00  0.00    -0.237 OA
ATOM    103  O   UNL     1       2.055  15.335  18.917  1.00  0.00    -0.237 OA
ATOM    104  O   UNL     1       3.504  14.036  17.410  1.00  0.00    -0.744 OA
ENDBRANCH  98 101
ENDBRANCH  71  94
ENDBRANCH  45  46
ENDBRANCH  37  40
ENDBRANCH  35  36
ENDBRANCH   1  35
TORSDOF 18
