REMARK SMILES CCc1ccc(C[NH+]2CCC(Oc3ccccc3OC)(C(=O)NCCCNC(=O)c3ccc(-c4c5nc(c(-c6cccc(S(=O)(=O)[O-])c6F)c6ccc([nH]6)c(-c6cccc(S(=O)(=O)[O-])c6F)c6nc(c(-c7cccc(S(=O)(=O)[O-])c7F)c7ccc4[nH]7)C=C6)C=C5)cc3)CC2)nc1
REMARK SMILES IDX 25 1 24 2 23 3 21 4 22 5 11 7 8 8 9 9 94 10 10 12 93 13 7 14
REMARK SMILES IDX 6 15 3 16 4 17 96 18 5 19 95 20 2 21 1 22 12 23 13 24 14 25
REMARK SMILES IDX 18 26 15 27 17 28 16 29 19 30 20 31 26 32 27 33 28 34 29 36
REMARK SMILES IDX 30 37 31 38 92 39 32 40 91 41 33 42 34 43 35 44 85 45 36 46
REMARK SMILES IDX 90 47 84 48 86 49 37 50 89 51 83 52 82 53 38 55 70 56 50 57
REMARK SMILES IDX 69 58 51 59 54 60 68 61 87 62 52 63 53 64 67 66 88 67 55 68
REMARK SMILES IDX 39 69 40 70 48 71 41 72 43 73 49 74 42 75 44 76 45 77 46 78
REMARK SMILES IDX 47 79 71 80 72 81 80 82 73 83 75 84 81 85 74 86 76 87 77 88
REMARK SMILES IDX 78 89 79 90 56 91 57 92 65 93 58 94 60 95 66 96 59 97 61 98
REMARK SMILES IDX 62 99 63 100 64 101
REMARK H PARENT 23 6 8 11 27 35 86 54 54 65
REMARK Flexibility Score: inf
ROOT
ATOM      1  C   UNL     1      -4.318  -2.887   5.057  1.00  0.00     0.042 C 
ENDROOT
BRANCH   1   2
ATOM      2  C   UNL     1      -4.658  -4.246   4.464  1.00  0.00     0.118 C 
BRANCH   2   3
ATOM      3  N   UNL     1      -3.875  -4.572   3.280  1.00  0.00    -0.353 N 
ATOM      4  C   UNL     1      -2.912  -5.523   3.065  1.00  0.00     0.264 C 
ATOM      5  O   UNL     1      -2.631  -5.728   1.879  1.00  0.00    -0.270 OA
ATOM      6  H   UNL     1      -4.072  -4.010   2.496  1.00  0.00     0.163 HD
BRANCH   4   7
ATOM      7  C   UNL     1      -2.203  -6.283   4.231  1.00  0.00     0.197 C 
ATOM      8  N   UNL     1       0.717  -5.909   3.903  1.00  0.00    -0.330 N 
ATOM      9  C   UNL     1      -0.139  -4.792   4.310  1.00  0.00     0.267 C 
ATOM     10  C   UNL     1      -0.004  -6.798   2.983  1.00  0.00     0.267 C 
ATOM     11  H   UNL     1       0.952  -6.447   4.737  1.00  0.00     0.348 HD
ATOM     12  C   UNL     1      -1.357  -5.311   5.059  1.00  0.00     0.120 C 
ATOM     13  C   UNL     1      -1.266  -7.371   3.652  1.00  0.00     0.120 C 
BRANCH   8  14
ATOM     14  C   UNL     1       2.008  -5.441   3.333  1.00  0.00     0.319 C 
BRANCH  14  15
ATOM     15  C   UNL     1       1.919  -4.316   2.312  1.00  0.00     0.095 A 
ATOM     16  C   UNL     1       1.245  -2.258   0.592  1.00  0.00    -0.030 A 
ATOM     17  C   UNL     1       1.760  -1.961   1.853  1.00  0.00     0.007 A 
ATOM     18  C   UNL     1       1.157  -3.607   0.252  1.00  0.00     0.115 A 
ATOM     19  C   UNL     1       2.106  -2.995   2.721  1.00  0.00     0.030 A 
ATOM     20  N   UNL     1       1.493  -4.632   1.067  1.00  0.00    -0.255 NA
BRANCH  16  21
ATOM     21  C   UNL     1       0.700  -1.229  -0.363  1.00  0.00     0.034 C 
ATOM     22  C   UNL     1       1.106   0.217  -0.109  1.00  0.00     0.009 C 
ENDBRANCH  16  21
ENDBRANCH  14  15
ENDBRANCH   8  14
BRANCH   7  23
ATOM     23  O   UNL     1      -3.335  -6.770   4.995  1.00  0.00    -0.473 OA
BRANCH  23  24
ATOM     24  C   UNL     1      -3.203  -7.787   5.888  1.00  0.00     0.162 A 
ATOM     25  C   UNL     1      -3.192  -9.097   5.398  1.00  0.00     0.050 A 
ATOM     26  C   UNL     1      -3.362  -7.579   7.265  1.00  0.00     0.160 A 
ATOM     27  C   UNL     1      -3.219 -10.185   6.269  1.00  0.00     0.004 A 
ATOM     28  C   UNL     1      -3.363  -8.670   8.141  1.00  0.00     0.050 A 
ATOM     29  C   UNL     1      -3.275  -9.971   7.644  1.00  0.00     0.004 A 
BRANCH  26  30
ATOM     30  O   UNL     1      -3.788  -6.386   7.790  1.00  0.00    -0.493 OA
ATOM     31  C   UNL     1      -2.744  -5.452   8.031  1.00  0.00     0.278 C 
ENDBRANCH  26  30
ENDBRANCH  23  24
ENDBRANCH   7  23
ENDBRANCH   4   7
ENDBRANCH   2   3
ENDBRANCH   1   2
BRANCH   1  32
ATOM     32  C   UNL     1      -4.727  -1.709   4.188  1.00  0.00     0.118 C 
BRANCH  32  33
ATOM     33  N   UNL     1      -6.171  -1.565   4.088  1.00  0.00    -0.352 N 
ATOM     34  C   UNL     1      -6.991  -0.540   4.490  1.00  0.00     0.251 C 
ATOM     35  H   UNL     1      -6.635  -2.324   3.664  1.00  0.00     0.163 HD
ATOM     36  O   UNL     1      -8.208  -0.714   4.490  1.00  0.00    -0.269 OA
BRANCH  34  37
ATOM     37  C   UNL     1      -6.433   0.761   4.928  1.00  0.00     0.039 A 
ATOM     38  C   UNL     1      -7.061   1.445   5.975  1.00  0.00     0.014 A 
ATOM     39  C   UNL     1      -5.340   1.343   4.281  1.00  0.00     0.014 A 
ATOM     40  C   UNL     1      -6.571   2.686   6.393  1.00  0.00     0.010 A 
ATOM     41  C   UNL     1      -4.800   2.536   4.754  1.00  0.00     0.010 A 
ATOM     42  C   UNL     1      -5.425   3.235   5.797  1.00  0.00    -0.014 A 
BRANCH  42  43
ATOM     43  C   UNL     1      -4.890   4.558   6.211  1.00  0.00     0.031 A 
ATOM     44  C   UNL     1      -4.856   5.695   5.222  1.00  0.00     0.074 A 
ATOM     45  C   UNL     1      -4.368   4.719   7.443  1.00  0.00     0.049 A 
ATOM     46  N   UNL     1      -4.349   6.893   5.357  1.00  0.00    -0.248 NA
ATOM     47  C   UNL     1      -5.441   5.442   3.893  1.00  0.00     0.031 C 
ATOM     48  C   UNL     1      -4.277   3.678   8.469  1.00  0.00     0.029 A 
ATOM     49  N   UNL     1      -3.786   5.814   8.032  1.00  0.00    -0.354 N 
ATOM     50  C   UNL     1      -4.519   7.519   4.128  1.00  0.00     0.074 A 
ATOM     51  C   UNL     1      -5.142   6.559   3.245  1.00  0.00     0.031 C 
ATOM     52  C   UNL     1      -3.674   4.183   9.558  1.00  0.00     0.029 A 
ATOM     53  C   UNL     1      -3.313   5.574   9.301  1.00  0.00     0.049 A 
ATOM     54  H   UNL     1      -3.715   6.690   7.587  1.00  0.00     0.167 HD
ATOM     55  C   UNL     1      -4.218   8.791   3.773  1.00  0.00     0.034 A 
ATOM     56  C   UNL     1      -2.659   6.383  10.158  1.00  0.00     0.034 A 
ATOM     57  C   UNL     1      -3.657   9.765   4.669  1.00  0.00     0.049 A 
ATOM     58  C   UNL     1      -2.394   7.810   9.758  1.00  0.00     0.074 A 
ATOM     59  C   UNL     1      -3.377  11.098   4.426  1.00  0.00     0.029 A 
ATOM     60  N   UNL     1      -3.303   9.515   5.985  1.00  0.00    -0.354 N 
ATOM     61  N   UNL     1      -2.688   8.421   8.636  1.00  0.00    -0.248 NA
ATOM     62  C   UNL     1      -1.748   8.673  10.758  1.00  0.00     0.031 C 
ATOM     63  C   UNL     1      -2.850  11.654   5.596  1.00  0.00     0.029 A 
ATOM     64  C   UNL     1      -2.817  10.670   6.571  1.00  0.00     0.049 A 
ATOM     65  H   UNL     1      -3.385   8.644   6.436  1.00  0.00     0.167 HD
ATOM     66  C   UNL     1      -2.304   9.745   8.811  1.00  0.00     0.074 A 
ATOM     67  C   UNL     1      -1.774   9.853  10.154  1.00  0.00     0.031 C 
ATOM     68  C   UNL     1      -2.366  10.777   7.933  1.00  0.00     0.034 A 
BRANCH  55  69
ATOM     69  C   UNL     1      -4.558   9.230   2.372  1.00  0.00     0.023 A 
ATOM     70  C   UNL     1      -5.908   9.441   2.025  1.00  0.00     0.012 A 
ATOM     71  C   UNL     1      -3.551   9.502   1.427  1.00  0.00     0.148 A 
ATOM     72  C   UNL     1      -6.253   9.890   0.752  1.00  0.00     0.002 A 
ATOM     73  C   UNL     1      -3.900   9.991   0.172  1.00  0.00     0.091 A 
ATOM     74  F   UNL     1      -2.274   9.277   1.770  1.00  0.00    -0.205 F 
ATOM     75  C   UNL     1      -5.250  10.175  -0.170  1.00  0.00     0.022 A 
BRANCH  73  76
ATOM     76  S   UNL     1      -2.682  10.461  -1.062  1.00  0.00     0.127 S 
ATOM     77  O   UNL     1      -2.883   9.432  -2.081  1.00  0.00    -0.237 OA
ATOM     78  O   UNL     1      -3.135  11.797  -1.447  1.00  0.00    -0.237 OA
ATOM     79  O   UNL     1      -1.391  10.425  -0.388  1.00  0.00    -0.744 OA
ENDBRANCH  73  76
ENDBRANCH  55  69
BRANCH  56  80
ATOM     80  C   UNL     1      -2.272   5.887  11.510  1.00  0.00     0.023 A 
ATOM     81  C   UNL     1      -2.934   6.392  12.646  1.00  0.00     0.012 A 
ATOM     82  C   UNL     1      -1.263   4.920  11.678  1.00  0.00     0.148 A 
ATOM     83  C   UNL     1      -2.570   5.974  13.927  1.00  0.00     0.002 A 
ATOM     84  C   UNL     1      -0.944   4.467  12.954  1.00  0.00     0.091 A 
ATOM     85  F   UNL     1      -0.631   4.461  10.588  1.00  0.00    -0.205 F 
ATOM     86  C   UNL     1      -1.582   5.006  14.081  1.00  0.00     0.022 A 
BRANCH  84  87
ATOM     87  S   UNL     1       0.223   3.127  13.222  1.00  0.00     0.127 S 
ATOM     88  O   UNL     1       1.421   3.850  13.636  1.00  0.00    -0.237 OA
ATOM     89  O   UNL     1      -0.429   2.357  14.282  1.00  0.00    -0.237 OA
ATOM     90  O   UNL     1       0.305   2.429  11.946  1.00  0.00    -0.744 OA
ENDBRANCH  84  87
ENDBRANCH  56  80
BRANCH  68  91
ATOM     91  C   UNL     1      -1.901  12.128   8.406  1.00  0.00     0.023 A 
ATOM     92  C   UNL     1      -0.525  12.379   8.568  1.00  0.00     0.012 A 
ATOM     93  C   UNL     1      -2.825  13.171   8.614  1.00  0.00     0.148 A 
ATOM     94  C   UNL     1      -0.077  13.640   8.960  1.00  0.00     0.002 A 
ATOM     95  C   UNL     1      -2.369  14.437   8.959  1.00  0.00     0.091 A 
ATOM     96  F   UNL     1      -4.133  12.906   8.474  1.00  0.00    -0.205 F 
ATOM     97  C   UNL     1      -0.996  14.670   9.144  1.00  0.00     0.022 A 
BRANCH  95  98
ATOM     98  S   UNL     1      -3.475  15.843   9.121  1.00  0.00     0.127 S 
ATOM     99  O   UNL     1      -3.559  15.991  10.573  1.00  0.00    -0.237 OA
ATOM    100  O   UNL     1      -2.732  16.906   8.442  1.00  0.00    -0.237 OA
ATOM    101  O   UNL     1      -4.711  15.455   8.455  1.00  0.00    -0.744 OA
ENDBRANCH  95  98
ENDBRANCH  68  91
ENDBRANCH  42  43
ENDBRANCH  34  37
ENDBRANCH  32  33
ENDBRANCH   1  32
TORSDOF 19
