REMARK SMILES C[C@H](O)[C@@H](NC(=O)c1ccc(Cl)c(S(C)(=O)=O)c1)C(=O)NCCCNC(=O)c1ccc(-c2c3nc(c(-c4cccc(S(=O)(=O)[O-])c4F)c4ccc([nH]4)c(-c4cccc(S(=O)(=O)[O-])c4F)c4nc(c(-c5cccc(S(=O)(=O)[O-])c5F)c5ccc2[nH]5)C=C4)C=C3)cc1
REMARK SMILES IDX 23 1 22 2 21 3 19 4 20 5 4 7 2 8 1 9 3 10 5 12 6 13 7 15
REMARK SMILES IDX 8 16 9 17 18 18 10 19 13 20 11 21 12 22 14 23 15 24 16 25
REMARK SMILES IDX 17 26 24 27 25 28 26 29 27 31 28 32 29 33 90 34 30 35 89 36
REMARK SMILES IDX 31 37 32 38 33 39 83 40 34 41 88 42 82 43 84 44 35 45 87 46
REMARK SMILES IDX 81 47 80 48 36 50 68 51 48 52 67 53 49 54 52 55 66 56 85 57
REMARK SMILES IDX 50 58 51 59 65 61 86 62 53 63 37 64 38 65 46 66 39 67 41 68
REMARK SMILES IDX 47 69 40 70 42 71 43 72 44 73 45 74 69 75 70 76 78 77 71 78
REMARK SMILES IDX 73 79 79 80 72 81 74 82 75 83 76 84 77 85 54 86 55 87 63 88
REMARK SMILES IDX 56 89 58 90 64 91 57 92 59 93 60 94 61 95 62 96
REMARK H PARENT 21 6 3 11 5 14 25 30 84 49 52 60
REMARK Flexibility Score: inf
ROOT
ATOM      1  C   UNL     1       1.340   3.903   2.688  1.00  0.00     0.042 C 
ENDROOT
BRANCH   1   2
ATOM      2  C   UNL     1       0.015   3.250   2.342  1.00  0.00     0.117 C 
BRANCH   2   3
ATOM      3  N   UNL     1      -0.518   3.756   1.089  1.00  0.00    -0.354 N 
ATOM      4  C   UNL     1      -1.049   3.079   0.037  1.00  0.00     0.245 C 
ATOM      5  O   UNL     1      -1.371   3.724  -0.965  1.00  0.00    -0.273 OA
ATOM      6  H   UNL     1      -0.491   4.735   0.987  1.00  0.00     0.163 HD
BRANCH   4   7
ATOM      7  C   UNL     1      -1.144   1.546   0.035  1.00  0.00     0.200 C 
BRANCH   7   8
ATOM      8  C   UNL     1       0.270   0.961  -0.239  1.00  0.00     0.143 C 
ATOM      9  C   UNL     1       0.954   1.532  -1.479  1.00  0.00     0.041 C 
BRANCH   8  10
ATOM     10  O   UNL     1       0.159  -0.464  -0.392  1.00  0.00    -0.391 OA
ATOM     11  H   UNL     1      -0.400  -0.664  -1.159  1.00  0.00     0.211 HD
ENDBRANCH   8  10
ENDBRANCH   7   8
BRANCH   7  12
ATOM     12  N   UNL     1      -1.709   0.948   1.269  1.00  0.00    -0.338 N 
ATOM     13  C   UNL     1      -2.847   1.246   1.976  1.00  0.00     0.252 C 
ATOM     14  H   UNL     1      -1.176   0.211   1.645  1.00  0.00     0.164 HD
ATOM     15  O   UNL     1      -3.232   0.519   2.887  1.00  0.00    -0.269 OA
BRANCH  13  16
ATOM     16  C   UNL     1      -3.544   2.530   1.762  1.00  0.00     0.041 A 
ATOM     17  C   UNL     1      -4.108   2.868   0.538  1.00  0.00     0.015 A 
ATOM     18  C   UNL     1      -3.556   3.450   2.818  1.00  0.00     0.035 A 
ATOM     19  C   UNL     1      -4.593   4.165   0.346  1.00  0.00     0.023 A 
ATOM     20  C   UNL     1      -4.043   4.756   2.623  1.00  0.00     0.086 A 
ATOM     21  C   UNL     1      -4.541   5.125   1.371  1.00  0.00     0.059 A 
ATOM     22  Cl  UNL     1      -5.065   6.705   0.932  1.00  0.00    -0.083 Cl
BRANCH  20  23
ATOM     23  S   UNL     1      -3.768   5.894   3.959  1.00  0.00     0.177 S 
ATOM     24  C   UNL     1      -4.589   5.185   5.360  1.00  0.00     0.164 C 
ATOM     25  O   UNL     1      -2.337   5.823   4.195  1.00  0.00    -0.224 OA
ATOM     26  O   UNL     1      -4.423   7.154   3.700  1.00  0.00    -0.224 OA
ENDBRANCH  20  23
ENDBRANCH  13  16
ENDBRANCH   7  12
ENDBRANCH   4   7
ENDBRANCH   2   3
ENDBRANCH   1   2
BRANCH   1  27
ATOM     27  C   UNL     1       1.204   5.370   3.064  1.00  0.00     0.118 C 
BRANCH  27  28
ATOM     28  N   UNL     1       0.405   5.582   4.265  1.00  0.00    -0.352 N 
ATOM     29  C   UNL     1       0.660   6.399   5.339  1.00  0.00     0.251 C 
ATOM     30  H   UNL     1      -0.433   5.068   4.313  1.00  0.00     0.163 HD
ATOM     31  O   UNL     1      -0.014   6.337   6.363  1.00  0.00    -0.269 OA
BRANCH  29  32
ATOM     32  C   UNL     1       1.778   7.351   5.240  1.00  0.00     0.039 A 
ATOM     33  C   UNL     1       2.678   7.453   6.300  1.00  0.00     0.014 A 
ATOM     34  C   UNL     1       1.963   8.087   4.066  1.00  0.00     0.014 A 
ATOM     35  C   UNL     1       3.825   8.223   6.139  1.00  0.00     0.010 A 
ATOM     36  C   UNL     1       3.153   8.766   3.869  1.00  0.00     0.010 A 
ATOM     37  C   UNL     1       4.095   8.835   4.903  1.00  0.00    -0.014 A 
BRANCH  37  38
ATOM     38  C   UNL     1       5.385   9.515   4.657  1.00  0.00     0.031 A 
ATOM     39  C   UNL     1       5.414  10.980   4.332  1.00  0.00     0.074 A 
ATOM     40  C   UNL     1       6.511   8.776   4.628  1.00  0.00     0.049 A 
ATOM     41  N   UNL     1       6.442  11.740   4.066  1.00  0.00    -0.248 NA
ATOM     42  C   UNL     1       4.118  11.678   4.261  1.00  0.00     0.031 C 
ATOM     43  C   UNL     1       6.574   7.322   4.810  1.00  0.00     0.029 A 
ATOM     44  N   UNL     1       7.815   9.137   4.417  1.00  0.00    -0.354 N 
ATOM     45  C   UNL     1       5.918  12.989   3.761  1.00  0.00     0.074 A 
ATOM     46  C   UNL     1       4.479  12.878   3.831  1.00  0.00     0.031 C 
ATOM     47  C   UNL     1       7.851   6.921   4.726  1.00  0.00     0.029 A 
ATOM     48  C   UNL     1       8.695   8.081   4.464  1.00  0.00     0.049 A 
ATOM     49  H   UNL     1       8.097  10.065   4.247  1.00  0.00     0.167 HD
ATOM     50  C   UNL     1       6.581  14.137   3.488  1.00  0.00     0.034 A 
ATOM     51  C   UNL     1      10.034   8.058   4.326  1.00  0.00     0.034 A 
ATOM     52  C   UNL     1       8.014  14.242   3.483  1.00  0.00     0.049 A 
ATOM     53  C   UNL     1      10.752   9.363   4.120  1.00  0.00     0.074 A 
ATOM     54  C   UNL     1       8.795  15.371   3.321  1.00  0.00     0.029 A 
ATOM     55  N   UNL     1       8.880  13.172   3.653  1.00  0.00    -0.354 N 
ATOM     56  N   UNL     1      10.250  10.570   4.015  1.00  0.00    -0.248 NA
ATOM     57  C   UNL     1      12.218   9.313   4.055  1.00  0.00     0.031 C 
ATOM     58  C   UNL     1      10.137  14.981   3.388  1.00  0.00     0.029 A 
ATOM     59  C   UNL     1      10.190  13.612   3.601  1.00  0.00     0.049 A 
ATOM     60  H   UNL     1       8.604  12.238   3.791  1.00  0.00     0.167 HD
ATOM     61  C   UNL     1      11.337  11.427   3.902  1.00  0.00     0.074 A 
ATOM     62  C   UNL     1      12.526  10.601   3.976  1.00  0.00     0.031 C 
ATOM     63  C   UNL     1      11.353  12.772   3.733  1.00  0.00     0.034 A 
BRANCH  50  64
ATOM     64  C   UNL     1       5.760  15.376   3.251  1.00  0.00     0.023 A 
ATOM     65  C   UNL     1       5.089  15.978   4.336  1.00  0.00     0.012 A 
ATOM     66  C   UNL     1       5.675  15.964   1.975  1.00  0.00     0.148 A 
ATOM     67  C   UNL     1       4.318  17.124   4.150  1.00  0.00     0.002 A 
ATOM     68  C   UNL     1       4.938  17.132   1.805  1.00  0.00     0.091 A 
ATOM     69  F   UNL     1       6.296  15.364   0.950  1.00  0.00    -0.205 F 
ATOM     70  C   UNL     1       4.251  17.706   2.887  1.00  0.00     0.022 A 
BRANCH  68  71
ATOM     71  S   UNL     1       4.848  17.998   0.234  1.00  0.00     0.127 S 
ATOM     72  O   UNL     1       3.484  17.693  -0.195  1.00  0.00    -0.237 OA
ATOM     73  O   UNL     1       5.064  19.389   0.635  1.00  0.00    -0.237 OA
ATOM     74  O   UNL     1       5.907  17.437  -0.593  1.00  0.00    -0.744 OA
ENDBRANCH  68  71
ENDBRANCH  50  64
BRANCH  51  75
ATOM     75  C   UNL     1      10.776   6.776   4.488  1.00  0.00     0.023 A 
ATOM     76  C   UNL     1      11.551   6.574   5.647  1.00  0.00     0.012 A 
ATOM     77  C   UNL     1      10.677   5.739   3.541  1.00  0.00     0.148 A 
ATOM     78  C   UNL     1      12.236   5.375   5.846  1.00  0.00     0.002 A 
ATOM     79  C   UNL     1      11.321   4.527   3.769  1.00  0.00     0.091 A 
ATOM     80  F   UNL     1       9.944   5.951   2.439  1.00  0.00    -0.205 F 
ATOM     81  C   UNL     1      12.113   4.348   4.914  1.00  0.00     0.022 A 
BRANCH  79  82
ATOM     82  S   UNL     1      11.100   3.109   2.687  1.00  0.00     0.127 S 
ATOM     83  O   UNL     1      12.351   3.108   1.934  1.00  0.00    -0.237 OA
ATOM     84  O   UNL     1      10.955   2.010   3.643  1.00  0.00    -0.237 OA
ATOM     85  O   UNL     1       9.893   3.392   1.921  1.00  0.00    -0.744 OA
ENDBRANCH  79  82
ENDBRANCH  51  75
BRANCH  63  86
ATOM     86  C   UNL     1      12.697  13.439   3.634  1.00  0.00     0.023 A 
ATOM     87  C   UNL     1      13.446  13.315   2.448  1.00  0.00     0.012 A 
ATOM     88  C   UNL     1      13.175  14.255   4.677  1.00  0.00     0.148 A 
ATOM     89  C   UNL     1      14.665  13.975   2.311  1.00  0.00     0.002 A 
ATOM     90  C   UNL     1      14.369  14.945   4.515  1.00  0.00     0.091 A 
ATOM     91  F   UNL     1      12.455  14.341   5.806  1.00  0.00    -0.205 F 
ATOM     92  C   UNL     1      15.120  14.799   3.338  1.00  0.00     0.022 A 
BRANCH  90  93
ATOM     93  S   UNL     1      14.979  16.100   5.748  1.00  0.00     0.127 S 
ATOM     94  O   UNL     1      16.043  15.324   6.383  1.00  0.00    -0.237 OA
ATOM     95  O   UNL     1      15.446  17.218   4.927  1.00  0.00    -0.237 OA
ATOM     96  O   UNL     1      13.838  16.415   6.597  1.00  0.00    -0.744 OA
ENDBRANCH  90  93
ENDBRANCH  63  86
ENDBRANCH  37  38
ENDBRANCH  29  32
ENDBRANCH  27  28
ENDBRANCH   1  27
TORSDOF 18
