REMARK SMILES CCN(CCC#N)C(=O)c1ccncc1/C=C/C(=O)NCCCNC(=O)c1ccc(-c2c3nc(c(-c4cccc(S(=O)(=O)[O-])c4F)c4ccc([nH]4)c(-c4cccc(S(=O)(=O)[O-])c4F)c4nc(c(-c5cccc(S(=O)(=O)[O-])c5F)c5ccc2[nH]5)C=C4)C=C3)cc1
REMARK SMILES IDX 18 1 19 2 20 3 17 5 16 6 15 7 10 8 11 9 12 10 14 11 13 12
REMARK SMILES IDX 8 13 9 14 3 15 2 16 1 17 4 18 5 19 6 20 7 21 21 22 22 23
REMARK SMILES IDX 23 24 24 25 25 26 26 28 27 29 28 30 89 31 29 32 88 33 30 34
REMARK SMILES IDX 31 35 32 36 82 37 33 38 87 39 81 40 83 41 34 42 86 43 80 44
REMARK SMILES IDX 79 45 35 47 67 48 47 49 66 50 48 51 51 52 65 53 84 54 49 55
REMARK SMILES IDX 50 56 64 58 85 59 52 60 36 61 37 62 45 63 38 64 40 65 46 66
REMARK SMILES IDX 39 67 41 68 42 69 43 70 44 71 68 72 69 73 77 74 70 75 72 76
REMARK SMILES IDX 78 77 71 78 73 79 74 80 75 81 76 82 53 83 54 84 62 85 55 86
REMARK SMILES IDX 57 87 63 88 56 89 58 90 59 91 60 92 61 93
REMARK H PARENT 20 4 24 27 83 46 51 57
REMARK Flexibility Score: inf
ROOT
ATOM      1  C   UNL     1       7.061  -3.067  -0.598  1.00  0.00     0.244 C 
ATOM      2  O   UNL     1       8.147  -3.643  -0.598  1.00  0.00    -0.270 OA
ATOM      3  N   UNL     1       6.693  -2.280   0.450  1.00  0.00    -0.352 N 
ATOM      4  H   UNL     1       7.330  -2.241   1.200  1.00  0.00     0.163 HD
ENDROOT
BRANCH   1   5
ATOM      5  C   UNL     1       6.067  -3.368  -1.646  1.00  0.00     0.072 C 
ATOM      6  C   UNL     1       5.423  -2.487  -2.433  1.00  0.00     0.016 C 
BRANCH   6   7
ATOM      7  C   UNL     1       4.305  -3.012  -3.229  1.00  0.00     0.006 A 
ATOM      8  C   UNL     1       2.932  -2.861  -2.897  1.00  0.00     0.050 A 
ATOM      9  C   UNL     1       2.061  -3.828  -3.396  1.00  0.00     0.034 A 
ATOM     10  C   UNL     1       2.506  -4.703  -4.379  1.00  0.00     0.112 A 
ATOM     11  C   UNL     1       4.637  -3.901  -4.256  1.00  0.00     0.119 A 
ATOM     12  N   UNL     1       3.762  -4.730  -4.859  1.00  0.00    -0.264 NA
BRANCH   8  13
ATOM     13  C   UNL     1       2.432  -1.639  -2.142  1.00  0.00     0.254 C 
ATOM     14  O   UNL     1       3.261  -1.023  -1.471  1.00  0.00    -0.269 OA
BRANCH  13  15
ATOM     15  N   UNL     1       1.117  -1.085  -2.241  1.00  0.00    -0.338 N 
BRANCH  15  16
ATOM     16  C   UNL     1       0.869   0.126  -1.427  1.00  0.00     0.116 C 
ATOM     17  C   UNL     1       1.013  -0.082   0.078  1.00  0.00     0.027 C 
ENDBRANCH  15  16
BRANCH  15  18
ATOM     18  C   UNL     1       0.075  -1.370  -3.262  1.00  0.00     0.135 C 
BRANCH  18  19
ATOM     19  C   UNL     1       0.318  -0.742  -4.649  1.00  0.00     0.141 C 
BRANCH  19  20
ATOM     20  C   UNL     1       1.736  -1.093  -5.067  1.00  0.00     0.064 C 
ATOM     21  N   UNL     1       2.913  -1.385  -5.414  1.00  0.00    -0.198 NA
ENDBRANCH  19  20
ENDBRANCH  18  19
ENDBRANCH  15  18
ENDBRANCH  13  15
ENDBRANCH   8  13
ENDBRANCH   6   7
ENDBRANCH   1   5
BRANCH   3  22
ATOM     22  C   UNL     1       5.488  -1.493   0.607  1.00  0.00     0.118 C 
BRANCH  22  23
ATOM     23  C   UNL     1       4.367  -2.216   1.339  1.00  0.00     0.042 C 
BRANCH  23  24
ATOM     24  C   UNL     1       4.592  -2.295   2.842  1.00  0.00     0.118 C 
BRANCH  24  25
ATOM     25  N   UNL     1       4.828  -0.981   3.439  1.00  0.00    -0.352 N 
ATOM     26  C   UNL     1       4.149  -0.302   4.409  1.00  0.00     0.251 C 
ATOM     27  H   UNL     1       5.611  -0.505   3.080  1.00  0.00     0.163 HD
ATOM     28  O   UNL     1       4.388   0.897   4.587  1.00  0.00    -0.269 OA
BRANCH  26  29
ATOM     29  C   UNL     1       3.149  -0.986   5.247  1.00  0.00     0.039 A 
ATOM     30  C   UNL     1       2.025  -0.279   5.682  1.00  0.00     0.014 A 
ATOM     31  C   UNL     1       3.342  -2.310   5.646  1.00  0.00     0.014 A 
ATOM     32  C   UNL     1       1.079  -0.915   6.486  1.00  0.00     0.010 A 
ATOM     33  C   UNL     1       2.348  -2.973   6.349  1.00  0.00     0.010 A 
ATOM     34  C   UNL     1       1.224  -2.275   6.806  1.00  0.00    -0.014 A 
BRANCH  34  35
ATOM     35  C   UNL     1       0.237  -2.979   7.657  1.00  0.00     0.031 A 
ATOM     36  C   UNL     1       0.675  -3.583   8.966  1.00  0.00     0.074 A 
ATOM     37  C   UNL     1      -1.023  -3.147   7.214  1.00  0.00     0.049 A 
ATOM     38  N   UNL     1      -0.017  -4.291   9.819  1.00  0.00    -0.248 NA
ATOM     39  C   UNL     1       2.086  -3.400   9.350  1.00  0.00     0.031 C 
ATOM     40  C   UNL     1      -1.538  -2.680   5.925  1.00  0.00     0.029 A 
ATOM     41  N   UNL     1      -2.096  -3.778   7.790  1.00  0.00    -0.354 N 
ATOM     42  C   UNL     1       0.880  -4.671  10.811  1.00  0.00     0.074 A 
ATOM     43  C   UNL     1       2.176  -4.159  10.431  1.00  0.00     0.031 C 
ATOM     44  C   UNL     1      -2.829  -3.028   5.814  1.00  0.00     0.029 A 
ATOM     45  C   UNL     1      -3.225  -3.771   7.006  1.00  0.00     0.049 A 
ATOM     46  H   UNL     1      -2.060  -4.197   8.680  1.00  0.00     0.167 HD
ATOM     47  C   UNL     1       0.641  -5.356  11.954  1.00  0.00     0.034 A 
ATOM     48  C   UNL     1      -4.441  -4.306   7.225  1.00  0.00     0.034 A 
ATOM     49  C   UNL     1      -0.661  -5.819  12.347  1.00  0.00     0.049 A 
ATOM     50  C   UNL     1      -4.696  -5.012   8.529  1.00  0.00     0.074 A 
ATOM     51  C   UNL     1      -1.035  -6.446  13.521  1.00  0.00     0.029 A 
ATOM     52  N   UNL     1      -1.805  -5.707  11.570  1.00  0.00    -0.354 N 
ATOM     53  N   UNL     1      -3.871  -5.233   9.524  1.00  0.00    -0.248 NA
ATOM     54  C   UNL     1      -6.061  -5.504   8.760  1.00  0.00     0.031 C 
ATOM     55  C   UNL     1      -2.400  -6.737  13.443  1.00  0.00     0.029 A 
ATOM     56  C   UNL     1      -2.885  -6.256  12.237  1.00  0.00     0.049 A 
ATOM     57  H   UNL     1      -1.842  -5.297  10.676  1.00  0.00     0.167 HD
ATOM     58  C   UNL     1      -4.625  -5.848  10.516  1.00  0.00     0.074 A 
ATOM     59  C   UNL     1      -5.978  -5.949  10.007  1.00  0.00     0.031 C 
ATOM     60  C   UNL     1      -4.234  -6.297  11.735  1.00  0.00     0.034 A 
BRANCH  47  61
ATOM     61  C   UNL     1       1.805  -5.602  12.880  1.00  0.00     0.023 A 
ATOM     62  C   UNL     1       2.394  -4.520  13.568  1.00  0.00     0.012 A 
ATOM     63  C   UNL     1       2.290  -6.905  13.103  1.00  0.00     0.148 A 
ATOM     64  C   UNL     1       3.473  -4.724  14.427  1.00  0.00     0.002 A 
ATOM     65  C   UNL     1       3.332  -7.108  14.001  1.00  0.00     0.091 A 
ATOM     66  F   UNL     1       1.734  -7.920  12.425  1.00  0.00    -0.205 F 
ATOM     67  C   UNL     1       3.934  -6.018  14.651  1.00  0.00     0.022 A 
BRANCH  65  68
ATOM     68  S   UNL     1       3.941  -8.743  14.426  1.00  0.00     0.127 S 
ATOM     69  O   UNL     1       5.266  -8.733  13.808  1.00  0.00    -0.237 OA
ATOM     70  O   UNL     1       3.950  -8.696  15.888  1.00  0.00    -0.237 OA
ATOM     71  O   UNL     1       2.993  -9.687  13.854  1.00  0.00    -0.744 OA
ENDBRANCH  65  68
ENDBRANCH  47  61
BRANCH  48  72
ATOM     72  C   UNL     1      -5.527  -4.123   6.221  1.00  0.00     0.023 A 
ATOM     73  C   UNL     1      -6.616  -3.284   6.525  1.00  0.00     0.012 A 
ATOM     74  C   UNL     1      -5.473  -4.748   4.960  1.00  0.00     0.148 A 
ATOM     75  C   UNL     1      -7.652  -3.100   5.608  1.00  0.00     0.002 A 
ATOM     76  C   UNL     1      -6.479  -4.514   4.028  1.00  0.00     0.091 A 
ATOM     77  F   UNL     1      -4.430  -5.545   4.690  1.00  0.00    -0.205 F 
ATOM     78  C   UNL     1      -7.579  -3.708   4.358  1.00  0.00     0.022 A 
BRANCH  76  79
ATOM     79  S   UNL     1      -6.400  -5.141   2.347  1.00  0.00     0.127 S 
ATOM     80  O   UNL     1      -7.479  -6.126   2.342  1.00  0.00    -0.237 OA
ATOM     81  O   UNL     1      -6.664  -3.934   1.562  1.00  0.00    -0.237 OA
ATOM     82  O   UNL     1      -5.055  -5.676   2.185  1.00  0.00    -0.744 OA
ENDBRANCH  76  79
ENDBRANCH  48  72
BRANCH  60  83
ATOM     83  C   UNL     1      -5.291  -6.886  12.631  1.00  0.00     0.023 A 
ATOM     84  C   UNL     1      -5.854  -8.143  12.333  1.00  0.00     0.012 A 
ATOM     85  C   UNL     1      -5.676  -6.217  13.810  1.00  0.00     0.148 A 
ATOM     86  C   UNL     1      -6.814  -8.705  13.174  1.00  0.00     0.002 A 
ATOM     87  C   UNL     1      -6.591  -6.809  14.671  1.00  0.00     0.091 A 
ATOM     88  F   UNL     1      -5.142  -5.014  14.067  1.00  0.00    -0.205 F 
ATOM     89  C   UNL     1      -7.173  -8.045  14.347  1.00  0.00     0.022 A 
BRANCH  87  90
ATOM     90  S   UNL     1      -7.032  -6.079  16.251  1.00  0.00     0.127 S 
ATOM     91  O   UNL     1      -8.384  -5.591  15.987  1.00  0.00    -0.237 OA
ATOM     92  O   UNL     1      -6.963  -7.228  17.154  1.00  0.00    -0.237 OA
ATOM     93  O   UNL     1      -6.035  -5.049  16.509  1.00  0.00    -0.744 OA
ENDBRANCH  87  90
ENDBRANCH  60  83
ENDBRANCH  34  35
ENDBRANCH  26  29
ENDBRANCH  24  25
ENDBRANCH  23  24
ENDBRANCH  22  23
ENDBRANCH   3  22
TORSDOF 20
