REMARK SMILES Cc1nc(SCc2cccc(Cl)c2)[nH]c(=O)c1CC(=O)NCCCNC(=O)c1ccc(-c2c3nc(c(-c4cccc(S(=O)(=O)[O-])c4F)c4ccc([nH]4)c(-c4cccc(S(=O)(=O)[O-])c4F)c4nc(c(-c5cccc(S(=O)(=O)[O-])c5F)c5ccc2[nH]5)C=C4)C=C3)cc1
REMARK SMILES IDX 22 1 21 2 19 3 20 4 18 6 17 7 1 8 2 9 3 10 4 11 15 12 14 13
REMARK SMILES IDX 16 14 5 16 6 17 7 18 8 19 13 20 9 21 11 22 10 23 12 24 23 25
REMARK SMILES IDX 24 26 25 27 26 28 27 30 28 31 29 32 90 33 30 34 89 35 31 36
REMARK SMILES IDX 32 37 33 38 83 39 34 40 88 41 82 42 84 43 35 44 87 45 81 46
REMARK SMILES IDX 80 47 36 49 68 50 48 51 67 52 49 53 52 54 66 55 85 56 50 57
REMARK SMILES IDX 51 58 65 60 86 61 53 62 37 63 38 64 46 65 39 66 41 67 47 68
REMARK SMILES IDX 40 69 42 70 43 71 44 72 45 73 69 74 70 75 78 76 71 77 73 78
REMARK SMILES IDX 79 79 72 80 74 81 75 82 76 83 77 84 54 85 55 86 63 87 56 88
REMARK SMILES IDX 58 89 64 90 57 91 59 92 60 93 61 94 62 95
REMARK H PARENT 21 5 14 15 25 29 84 48 52 59
REMARK Flexibility Score: inf
ROOT
ATOM      1  C   UNL     1      -0.942  -2.094  -2.715  1.00  0.00     0.117 C 
ENDROOT
BRANCH   1   2
ATOM      2  N   UNL     1       0.247  -2.847  -2.365  1.00  0.00    -0.356 N 
ATOM      3  C   UNL     1       0.799  -3.108  -1.147  1.00  0.00     0.224 C 
ATOM      4  O   UNL     1       1.784  -3.850  -1.113  1.00  0.00    -0.275 OA
ATOM      5  H   UNL     1       0.733  -3.231  -3.131  1.00  0.00     0.163 HD
BRANCH   3   6
ATOM      6  C   UNL     1       0.141  -2.614   0.141  1.00  0.00     0.143 C 
BRANCH   6   7
ATOM      7  C   UNL     1      -0.008  -1.125   0.264  1.00  0.00     0.048 A 
ATOM      8  C   UNL     1      -2.454  -1.166   0.838  1.00  0.00     0.067 C 
ATOM      9  C   UNL     1      -1.144  -0.465   0.568  1.00  0.00     0.049 A 
ATOM     10  N   UNL     1      -1.253   0.905   0.570  1.00  0.00    -0.229 NA
ATOM     11  C   UNL     1      -0.238   1.588   0.165  1.00  0.00     0.168 A 
ATOM     12  C   UNL     1       1.199  -0.293   0.011  1.00  0.00     0.255 A 
ATOM     13  N   UNL     1       0.970   1.043  -0.114  1.00  0.00    -0.301 N 
ATOM     14  O   UNL     1       2.315  -0.779  -0.088  1.00  0.00    -0.269 OA
ATOM     15  H   UNL     1       1.702   1.628  -0.415  1.00  0.00     0.172 HD
BRANCH  11  16
ATOM     16  S   UNL     1      -0.271   3.297  -0.086  1.00  0.00    -0.083 SA
BRANCH  16  17
ATOM     17  C   UNL     1      -2.046   3.666  -0.065  1.00  0.00     0.113 C 
BRANCH  17  18
ATOM     18  C   UNL     1      -2.791   3.350  -1.346  1.00  0.00    -0.036 A 
ATOM     19  C   UNL     1      -3.136   4.374  -2.241  1.00  0.00     0.005 A 
ATOM     20  C   UNL     1      -3.207   2.044  -1.649  1.00  0.00     0.025 A 
ATOM     21  C   UNL     1      -3.876   4.095  -3.397  1.00  0.00     0.002 A 
ATOM     22  C   UNL     1      -3.926   1.766  -2.811  1.00  0.00     0.041 A 
ATOM     23  C   UNL     1      -4.266   2.788  -3.687  1.00  0.00     0.020 A 
ATOM     24  Cl  UNL     1      -4.415   0.146  -3.139  1.00  0.00    -0.084 Cl
ENDBRANCH  17  18
ENDBRANCH  16  17
ENDBRANCH  11  16
ENDBRANCH   6   7
ENDBRANCH   3   6
ENDBRANCH   1   2
BRANCH   1  25
ATOM     25  C   UNL     1      -0.599  -0.785  -3.412  1.00  0.00     0.042 C 
BRANCH  25  26
ATOM     26  C   UNL     1      -0.079  -0.968  -4.832  1.00  0.00     0.118 C 
BRANCH  26  27
ATOM     27  N   UNL     1      -1.069  -1.557  -5.730  1.00  0.00    -0.352 N 
ATOM     28  C   UNL     1      -1.614  -1.065  -6.892  1.00  0.00     0.251 C 
ATOM     29  H   UNL     1      -1.397  -2.445  -5.461  1.00  0.00     0.163 HD
ATOM     30  O   UNL     1      -2.557  -1.652  -7.418  1.00  0.00    -0.269 OA
BRANCH  28  31
ATOM     31  C   UNL     1      -1.080   0.172  -7.500  1.00  0.00     0.039 A 
ATOM     32  C   UNL     1      -1.969   1.121  -8.012  1.00  0.00     0.014 A 
ATOM     33  C   UNL     1       0.296   0.395  -7.566  1.00  0.00     0.014 A 
ATOM     34  C   UNL     1      -1.478   2.328  -8.518  1.00  0.00     0.010 A 
ATOM     35  C   UNL     1       0.775   1.633  -7.975  1.00  0.00     0.010 A 
ATOM     36  C   UNL     1      -0.104   2.611  -8.465  1.00  0.00    -0.014 A 
BRANCH  36  37
ATOM     37  C   UNL     1       0.456   3.908  -8.928  1.00  0.00     0.031 A 
ATOM     38  C   UNL     1       1.479   3.922 -10.034  1.00  0.00     0.074 A 
ATOM     39  C   UNL     1       0.133   5.049  -8.287  1.00  0.00     0.049 A 
ATOM     40  N   UNL     1       2.203   4.916 -10.478  1.00  0.00    -0.248 NA
ATOM     41  C   UNL     1       1.748   2.639 -10.709  1.00  0.00     0.031 C 
ATOM     42  C   UNL     1      -0.800   5.159  -7.162  1.00  0.00     0.029 A 
ATOM     43  N   UNL     1       0.582   6.335  -8.469  1.00  0.00    -0.354 N 
ATOM     44  C   UNL     1       3.037   4.374 -11.449  1.00  0.00     0.074 A 
ATOM     45  C   UNL     1       2.761   2.956 -11.503  1.00  0.00     0.031 C 
ATOM     46  C   UNL     1      -0.853   6.439  -6.757  1.00  0.00     0.029 A 
ATOM     47  C   UNL     1       0.072   7.232  -7.558  1.00  0.00     0.049 A 
ATOM     48  H   UNL     1       1.210   6.590  -9.183  1.00  0.00     0.167 HD
ATOM     49  C   UNL     1       3.930   5.003 -12.249  1.00  0.00     0.034 A 
ATOM     50  C   UNL     1       0.338   8.542  -7.378  1.00  0.00     0.034 A 
ATOM     51  C   UNL     1       4.168   6.420 -12.225  1.00  0.00     0.049 A 
ATOM     52  C   UNL     1       1.328   9.217  -8.292  1.00  0.00     0.074 A 
ATOM     53  C   UNL     1       5.009   7.163 -13.034  1.00  0.00     0.029 A 
ATOM     54  N   UNL     1       3.563   7.307 -11.350  1.00  0.00    -0.354 N 
ATOM     55  N   UNL     1       2.018   8.708  -9.283  1.00  0.00    -0.248 NA
ATOM     56  C   UNL     1       1.552  10.656  -8.085  1.00  0.00     0.031 C 
ATOM     57  C   UNL     1       4.927   8.500 -12.634  1.00  0.00     0.029 A 
ATOM     58  C   UNL     1       4.007   8.592 -11.602  1.00  0.00     0.049 A 
ATOM     59  H   UNL     1       2.914   7.060 -10.653  1.00  0.00     0.167 HD
ATOM     60  C   UNL     1       2.710   9.772  -9.852  1.00  0.00     0.074 A 
ATOM     61  C   UNL     1       2.349  10.956  -9.101  1.00  0.00     0.031 C 
ATOM     62  C   UNL     1       3.574   9.770 -10.896  1.00  0.00     0.034 A 
BRANCH  49  63
ATOM     63  C   UNL     1       4.673   4.174 -13.264  1.00  0.00     0.023 A 
ATOM     64  C   UNL     1       3.980   3.654 -14.376  1.00  0.00     0.012 A 
ATOM     65  C   UNL     1       6.064   3.974 -13.162  1.00  0.00     0.148 A 
ATOM     66  C   UNL     1       4.651   2.920 -15.353  1.00  0.00     0.002 A 
ATOM     67  C   UNL     1       6.735   3.284 -14.165  1.00  0.00     0.091 A 
ATOM     68  F   UNL     1       6.703   4.464 -12.090  1.00  0.00    -0.205 F 
ATOM     69  C   UNL     1       6.028   2.746 -15.254  1.00  0.00     0.022 A 
BRANCH  67  70
ATOM     70  S   UNL     1       8.519   3.076 -14.178  1.00  0.00     0.127 S 
ATOM     71  O   UNL     1       8.647   1.629 -14.009  1.00  0.00    -0.237 OA
ATOM     72  O   UNL     1       8.874   3.569 -15.508  1.00  0.00    -0.237 OA
ATOM     73  O   UNL     1       9.027   3.876 -13.073  1.00  0.00    -0.744 OA
ENDBRANCH  67  70
ENDBRANCH  49  63
BRANCH  50  74
ATOM     74  C   UNL     1      -0.373   9.323  -6.324  1.00  0.00     0.023 A 
ATOM     75  C   UNL     1      -1.270  10.341  -6.708  1.00  0.00     0.012 A 
ATOM     76  C   UNL     1      -0.161   9.081  -4.954  1.00  0.00     0.148 A 
ATOM     77  C   UNL     1      -1.898  11.138  -5.750  1.00  0.00     0.002 A 
ATOM     78  C   UNL     1      -0.838   9.836  -4.003  1.00  0.00     0.091 A 
ATOM     79  F   UNL     1       0.701   8.116  -4.604  1.00  0.00    -0.205 F 
ATOM     80  C   UNL     1      -1.687  10.882  -4.398  1.00  0.00     0.022 A 
BRANCH  78  81
ATOM     81  S   UNL     1      -0.740   9.481  -2.245  1.00  0.00     0.127 S 
ATOM     82  O   UNL     1       0.053  10.605  -1.756  1.00  0.00    -0.237 OA
ATOM     83  O   UNL     1      -2.150   9.500  -1.853  1.00  0.00    -0.237 OA
ATOM     84  O   UNL     1      -0.115   8.169  -2.145  1.00  0.00    -0.744 OA
ENDBRANCH  78  81
ENDBRANCH  50  74
BRANCH  62  85
ATOM     85  C   UNL     1       4.130  11.091 -11.356  1.00  0.00     0.023 A 
ATOM     86  C   UNL     1       5.099  11.762 -10.586  1.00  0.00     0.012 A 
ATOM     87  C   UNL     1       3.753  11.617 -12.608  1.00  0.00     0.148 A 
ATOM     88  C   UNL     1       5.663  12.953 -11.042  1.00  0.00     0.002 A 
ATOM     89  C   UNL     1       4.358  12.774 -13.080  1.00  0.00     0.091 A 
ATOM     90  F   UNL     1       2.816  10.970 -13.317  1.00  0.00    -0.205 F 
ATOM     91  C   UNL     1       5.304  13.451 -12.293  1.00  0.00     0.022 A 
BRANCH  89  92
ATOM     92  S   UNL     1       4.036  13.430 -14.721  1.00  0.00     0.127 S 
ATOM     93  O   UNL     1       3.308  14.660 -14.411  1.00  0.00    -0.237 OA
ATOM     94  O   UNL     1       5.388  13.636 -15.241  1.00  0.00    -0.237 OA
ATOM     95  O   UNL     1       3.266  12.411 -15.420  1.00  0.00    -0.744 OA
ENDBRANCH  89  92
ENDBRANCH  62  85
ENDBRANCH  36  37
ENDBRANCH  28  31
ENDBRANCH  26  27
ENDBRANCH  25  26
ENDBRANCH   1  25
TORSDOF 17
