REMARK SMILES CCc1cc(OC(F)(F)F)cc2c1O[C@H](C(F)(F)F)C(C(=O)NCCCNC(=O)c1ccc(-c3c4nc(c(-c5cccc(S(=O)(=O)[O-])c5F)c5ccc([nH]5)c(-c5cccc(S(=O)(=O)[O-])c5F)c5nc(c(-c6cccc(S(=O)(=O)[O-])c6F)c6ccc3[nH]6)C=C5)C=C4)cc1)=C2
REMARK SMILES IDX 25 1 24 2 23 3 21 4 22 5 20 7 3 8 4 9 13 10 5 11 12 12 14 13
REMARK SMILES IDX 11 14 93 15 15 16 2 17 1 18 6 19 7 20 8 21 9 22 10 23 16 24
REMARK SMILES IDX 17 25 18 26 19 27 26 28 27 29 28 30 29 32 30 33 31 34 92 35
REMARK SMILES IDX 32 36 91 37 33 38 34 39 35 40 85 41 36 42 90 43 84 44 86 45
REMARK SMILES IDX 37 46 89 47 83 48 82 49 38 51 70 52 50 53 69 54 51 55 54 56
REMARK SMILES IDX 68 57 87 58 52 59 53 60 67 62 88 63 55 64 39 65 40 66 48 67
REMARK SMILES IDX 41 68 43 69 49 70 42 71 44 72 45 73 46 74 47 75 71 76 72 77
REMARK SMILES IDX 80 78 73 79 75 80 81 81 74 82 76 83 77 84 78 85 79 86 56 87
REMARK SMILES IDX 57 88 65 89 58 90 60 91 66 92 59 93 61 94 62 95 63 96 64 97
REMARK H PARENT 23 6 27 31 86 50 54 61
REMARK Flexibility Score: inf
ROOT
ATOM      1  C   UNL     1       0.332   7.637   3.918  1.00  0.00     0.042 C 
ENDROOT
BRANCH   1   2
ATOM      2  C   UNL     1      -0.910   6.900   3.421  1.00  0.00     0.118 C 
BRANCH   2   3
ATOM      3  N   UNL     1      -0.954   6.859   1.971  1.00  0.00    -0.352 N 
ATOM      4  C   UNL     1      -0.564   5.931   1.063  1.00  0.00     0.251 C 
ATOM      5  O   UNL     1      -0.815   6.160  -0.120  1.00  0.00    -0.270 OA
ATOM      6  H   UNL     1      -1.346   7.666   1.566  1.00  0.00     0.163 HD
BRANCH   4   7
ATOM      7  C   UNL     1       0.032   4.618   1.435  1.00  0.00     0.067 C 
ATOM      8  C   UNL     1       0.909   0.585   2.224  1.00  0.00    -0.002 A 
ATOM      9  C   UNL     1       1.646   0.267   3.383  1.00  0.00     0.054 A 
ATOM     10  C   UNL     1       0.619   1.931   1.958  1.00  0.00     0.131 A 
ATOM     11  C   UNL     1       2.080   1.266   4.257  1.00  0.00     0.130 A 
ATOM     12  C   UNL     1       1.065   2.940   2.817  1.00  0.00     0.021 A 
ATOM     13  O   UNL     1      -0.180   2.212   0.880  1.00  0.00    -0.475 OA
ATOM     14  C   UNL     1       1.794   2.602   3.961  1.00  0.00     0.058 A 
ATOM     15  C   UNL     1       0.675   4.326   2.574  1.00  0.00     0.025 C 
ATOM     16  C   UNL     1      -0.083   3.563   0.349  1.00  0.00     0.314 C 
BRANCH   8  17
ATOM     17  C   UNL     1       0.430  -0.531   1.322  1.00  0.00     0.036 C 
ATOM     18  C   UNL     1       1.026  -0.483  -0.079  1.00  0.00     0.009 C 
ENDBRANCH   8  17
BRANCH  11  19
ATOM     19  O   UNL     1       2.762   1.087   5.426  1.00  0.00    -0.406 OA
BRANCH  19  20
ATOM     20  C   UNL     1       3.068  -0.238   5.823  1.00  0.00     0.573 C 
ATOM     21  F   UNL     1       1.943  -0.972   5.978  1.00  0.00    -0.132 F 
ATOM     22  F   UNL     1       3.875  -0.843   4.927  1.00  0.00    -0.132 F 
ATOM     23  F   UNL     1       3.706  -0.203   7.013  1.00  0.00    -0.132 F 
ENDBRANCH  19  20
ENDBRANCH  11  19
BRANCH  16  24
ATOM     24  C   UNL     1       1.056   3.654  -0.689  1.00  0.00     0.429 C 
ATOM     25  F   UNL     1       0.972   2.638  -1.587  1.00  0.00    -0.167 F 
ATOM     26  F   UNL     1       1.030   4.797  -1.408  1.00  0.00    -0.167 F 
ATOM     27  F   UNL     1       2.280   3.571  -0.116  1.00  0.00    -0.167 F 
ENDBRANCH  16  24
ENDBRANCH   4   7
ENDBRANCH   2   3
ENDBRANCH   1   2
BRANCH   1  28
ATOM     28  C   UNL     1       0.228   9.153   3.771  1.00  0.00     0.118 C 
BRANCH  28  29
ATOM     29  N   UNL     1      -0.777   9.712   4.665  1.00  0.00    -0.352 N 
ATOM     30  C   UNL     1      -0.648  10.653   5.655  1.00  0.00     0.251 C 
ATOM     31  H   UNL     1      -1.688   9.361   4.540  1.00  0.00     0.163 HD
ATOM     32  O   UNL     1      -1.564  10.806   6.459  1.00  0.00    -0.269 OA
BRANCH  30  33
ATOM     33  C   UNL     1       0.576  11.478   5.758  1.00  0.00     0.039 A 
ATOM     34  C   UNL     1       1.086  11.771   7.027  1.00  0.00     0.014 A 
ATOM     35  C   UNL     1       1.189  12.005   4.619  1.00  0.00     0.014 A 
ATOM     36  C   UNL     1       2.235  12.557   7.149  1.00  0.00     0.010 A 
ATOM     37  C   UNL     1       2.373  12.729   4.738  1.00  0.00     0.010 A 
ATOM     38  C   UNL     1       2.901  13.023   6.004  1.00  0.00    -0.014 A 
BRANCH  38  39
ATOM     39  C   UNL     1       4.148  13.822   6.108  1.00  0.00     0.031 A 
ATOM     40  C   UNL     1       4.177  15.245   5.617  1.00  0.00     0.074 A 
ATOM     41  C   UNL     1       5.271  13.241   6.572  1.00  0.00     0.049 A 
ATOM     42  N   UNL     1       5.185  16.077   5.559  1.00  0.00    -0.248 NA
ATOM     43  C   UNL     1       2.914  15.800   5.101  1.00  0.00     0.031 C 
ATOM     44  C   UNL     1       5.383  11.849   7.016  1.00  0.00     0.029 A 
ATOM     45  N   UNL     1       6.541  13.739   6.724  1.00  0.00    -0.354 N 
ATOM     46  C   UNL     1       4.688  17.238   4.977  1.00  0.00     0.074 A 
ATOM     47  C   UNL     1       3.298  16.991   4.665  1.00  0.00     0.031 C 
ATOM     48  C   UNL     1       6.649  11.607   7.393  1.00  0.00     0.029 A 
ATOM     49  C   UNL     1       7.445  12.813   7.191  1.00  0.00     0.049 A 
ATOM     50  H   UNL     1       6.782  14.671   6.518  1.00  0.00     0.167 HD
ATOM     51  C   UNL     1       5.321  18.415   4.755  1.00  0.00     0.034 A 
ATOM     52  C   UNL     1       8.767  12.924   7.425  1.00  0.00     0.034 A 
ATOM     53  C   UNL     1       6.693  18.668   5.106  1.00  0.00     0.049 A 
ATOM     54  C   UNL     1       9.438  14.251   7.189  1.00  0.00     0.074 A 
ATOM     55  C   UNL     1       7.411  19.843   4.978  1.00  0.00     0.029 A 
ATOM     56  N   UNL     1       7.554  17.730   5.655  1.00  0.00    -0.354 N 
ATOM     57  N   UNL     1       8.916  15.378   6.770  1.00  0.00    -0.248 NA
ATOM     58  C   UNL     1      10.874  14.331   7.494  1.00  0.00     0.031 C 
ATOM     59  C   UNL     1       8.711  19.613   5.441  1.00  0.00     0.029 A 
ATOM     60  C   UNL     1       8.796  18.300   5.874  1.00  0.00     0.049 A 
ATOM     61  H   UNL     1       7.317  16.797   5.859  1.00  0.00     0.167 HD
ATOM     62  C   UNL     1       9.948  16.309   6.801  1.00  0.00     0.074 A 
ATOM     63  C   UNL     1      11.119  15.619   7.300  1.00  0.00     0.031 C 
ATOM     64  C   UNL     1       9.933  17.614   6.433  1.00  0.00     0.034 A 
BRANCH  51  65
ATOM     65  C   UNL     1       4.515  19.543   4.166  1.00  0.00     0.023 A 
ATOM     66  C   UNL     1       3.540  20.181   4.961  1.00  0.00     0.012 A 
ATOM     67  C   UNL     1       4.756  20.015   2.861  1.00  0.00     0.148 A 
ATOM     68  C   UNL     1       2.795  21.247   4.457  1.00  0.00     0.002 A 
ATOM     69  C   UNL     1       4.040  21.106   2.380  1.00  0.00     0.091 A 
ATOM     70  F   UNL     1       5.674  19.385   2.113  1.00  0.00    -0.205 F 
ATOM     71  C   UNL     1       3.052  21.715   3.172  1.00  0.00     0.022 A 
BRANCH  69  72
ATOM     72  S   UNL     1       4.345  21.836   0.767  1.00  0.00     0.127 S 
ATOM     73  O   UNL     1       3.132  21.462   0.040  1.00  0.00    -0.237 OA
ATOM     74  O   UNL     1       4.449  23.259   1.088  1.00  0.00    -0.237 OA
ATOM     75  O   UNL     1       5.577  21.231   0.279  1.00  0.00    -0.744 OA
ENDBRANCH  69  72
ENDBRANCH  51  65
BRANCH  52  76
ATOM     76  C   UNL     1       9.531  11.770   7.979  1.00  0.00     0.023 A 
ATOM     77  C   UNL     1      10.020  11.839   9.299  1.00  0.00     0.012 A 
ATOM     78  C   UNL     1       9.770  10.609   7.220  1.00  0.00     0.148 A 
ATOM     79  C   UNL     1      10.765  10.790   9.839  1.00  0.00     0.002 A 
ATOM     80  C   UNL     1      10.465   9.544   7.783  1.00  0.00     0.091 A 
ATOM     81  F   UNL     1       9.310  10.565   5.961  1.00  0.00    -0.205 F 
ATOM     82  C   UNL     1      10.980   9.640   9.085  1.00  0.00     0.022 A 
BRANCH  80  83
ATOM     83  S   UNL     1      10.670   7.977   6.929  1.00  0.00     0.127 S 
ATOM     84  O   UNL     1      12.067   8.044   6.511  1.00  0.00    -0.237 OA
ATOM     85  O   UNL     1      10.389   7.010   7.992  1.00  0.00    -0.237 OA
ATOM     86  O   UNL     1       9.681   7.988   5.859  1.00  0.00    -0.744 OA
ENDBRANCH  80  83
ENDBRANCH  52  76
BRANCH  64  87
ATOM     87  C   UNL     1      11.208  18.398   6.596  1.00  0.00     0.023 A 
ATOM     88  C   UNL     1      12.286  18.173   5.719  1.00  0.00     0.012 A 
ATOM     89  C   UNL     1      11.309  19.407   7.574  1.00  0.00     0.148 A 
ATOM     90  C   UNL     1      13.460  18.917   5.833  1.00  0.00     0.002 A 
ATOM     91  C   UNL     1      12.463  20.178   7.651  1.00  0.00     0.091 A 
ATOM     92  F   UNL     1      10.279  19.593   8.412  1.00  0.00    -0.205 F 
ATOM     93  C   UNL     1      13.543  19.926   6.790  1.00  0.00     0.022 A 
BRANCH  91  94
ATOM     94  S   UNL     1      12.623  21.560   8.787  1.00  0.00     0.127 S 
ATOM     95  O   UNL     1      13.549  21.022   9.782  1.00  0.00    -0.237 OA
ATOM     96  O   UNL     1      13.187  22.603   7.930  1.00  0.00    -0.237 OA
ATOM     97  O   UNL     1      11.277  21.840   9.270  1.00  0.00    -0.744 OA
ENDBRANCH  91  94
ENDBRANCH  64  87
ENDBRANCH  38  39
ENDBRANCH  30  33
ENDBRANCH  28  29
ENDBRANCH   1  28
TORSDOF 17
