REMARK SMILES [NH3+]CC[C@@H](C(=O)NCCCNC(=O)c1ccc(-c2c3nc(c(-c4cccc(S(=O)(=O)[O-])c4F)c4ccc([nH]4)c(-c4cccc(S(=O)(=O)[O-])c4F)c4nc(c(-c5cccc(S(=O)(=O)[O-])c5F)c5ccc2[nH]5)C=C4)C=C3)cc1)c1ccc(F)cc1
REMARK SMILES IDX 9 1 8 2 7 3 5 4 6 5 4 7 3 8 2 9 1 10 77 14 78 15 83 16 79 17
REMARK SMILES IDX 82 18 80 19 81 20 10 21 11 22 12 23 13 25 14 26 15 27 76 28
REMARK SMILES IDX 16 29 75 30 17 31 18 32 19 33 69 34 20 35 74 36 68 37 70 38
REMARK SMILES IDX 21 39 73 40 67 41 66 42 22 44 54 45 34 46 53 47 35 48 38 49
REMARK SMILES IDX 52 50 71 51 36 52 37 53 51 55 72 56 39 57 23 58 24 59 32 60
REMARK SMILES IDX 25 61 27 62 33 63 26 64 28 65 29 66 30 67 31 68 55 69 56 70
REMARK SMILES IDX 64 71 57 72 59 73 65 74 58 75 60 76 61 77 62 78 63 79 40 80
REMARK SMILES IDX 41 81 49 82 42 83 44 84 50 85 43 86 45 87 46 88 47 89 48 90
REMARK H PARENT 7 6 1 11 1 12 1 13 11 24 70 43 38 54
REMARK Flexibility Score: inf
ROOT
ATOM      1  C   UNL     1      -1.730   0.468   0.626  1.00  0.00     0.042 C 
ENDROOT
BRANCH   1   2
ATOM      2  C   UNL     1      -1.458  -0.323  -0.653  1.00  0.00     0.117 C 
BRANCH   2   3
ATOM      3  N   UNL     1      -1.815   0.457  -1.821  1.00  0.00    -0.356 N 
ATOM      4  C   UNL     1      -1.058   1.165  -2.703  1.00  0.00     0.227 C 
ATOM      5  O   UNL     1      -1.692   1.902  -3.465  1.00  0.00    -0.274 OA
ATOM      6  H   UNL     1      -2.781   0.478  -2.011  1.00  0.00     0.163 HD
BRANCH   4   7
ATOM      7  C   UNL     1       0.481   1.003  -2.783  1.00  0.00     0.114 C 
BRANCH   7   8
ATOM      8  C   UNL     1       1.282   1.939  -1.843  1.00  0.00     0.079 C 
BRANCH   8   9
ATOM      9  C   UNL     1       1.510   1.508  -0.396  1.00  0.00     0.259 C 
BRANCH   9  10
ATOM     10  N   UNL     1       2.199   0.239  -0.220  1.00  0.00    -0.358 N 
ATOM     11  H   UNL     1       2.301   0.042   0.775  1.00  0.00     0.344 HD
ATOM     12  H   UNL     1       3.121   0.290  -0.654  1.00  0.00     0.344 HD
ATOM     13  H   UNL     1       1.657  -0.506  -0.660  1.00  0.00     0.344 HD
ENDBRANCH   9  10
ENDBRANCH   8   9
ENDBRANCH   7   8
BRANCH   7  14
ATOM     14  C   UNL     1       0.971   1.295  -4.219  1.00  0.00    -0.035 A 
ATOM     15  C   UNL     1       1.591   0.299  -4.988  1.00  0.00     0.007 A 
ATOM     16  C   UNL     1       0.848   2.591  -4.766  1.00  0.00     0.007 A 
ATOM     17  C   UNL     1       2.081   0.598  -6.263  1.00  0.00     0.039 A 
ATOM     18  C   UNL     1       1.335   2.885  -6.037  1.00  0.00     0.039 A 
ATOM     19  C   UNL     1       1.951   1.886  -6.773  1.00  0.00     0.123 A 
ATOM     20  F   UNL     1       2.432   2.166  -7.992  1.00  0.00    -0.207 F 
ENDBRANCH   7  14
ENDBRANCH   4   7
ENDBRANCH   2   3
ENDBRANCH   1   2
BRANCH   1  21
ATOM     21  C   UNL     1      -3.199   0.588   1.002  1.00  0.00     0.118 C 
BRANCH  21  22
ATOM     22  N   UNL     1      -3.751  -0.648   1.523  1.00  0.00    -0.352 N 
ATOM     23  C   UNL     1      -4.360  -0.907   2.728  1.00  0.00     0.251 C 
ATOM     24  H   UNL     1      -3.678  -1.423   0.919  1.00  0.00     0.163 HD
ATOM     25  O   UNL     1      -4.603  -2.075   3.024  1.00  0.00    -0.269 OA
BRANCH  23  26
ATOM     26  C   UNL     1      -4.708   0.183   3.674  1.00  0.00     0.039 A 
ATOM     27  C   UNL     1      -4.601  -0.071   5.046  1.00  0.00     0.014 A 
ATOM     28  C   UNL     1      -5.181   1.426   3.244  1.00  0.00     0.014 A 
ATOM     29  C   UNL     1      -4.930   0.925   5.971  1.00  0.00     0.010 A 
ATOM     30  C   UNL     1      -5.414   2.449   4.164  1.00  0.00     0.010 A 
ATOM     31  C   UNL     1      -5.318   2.204   5.540  1.00  0.00    -0.014 A 
BRANCH  31  32
ATOM     32  C   UNL     1      -5.633   3.273   6.526  1.00  0.00     0.031 A 
ATOM     33  C   UNL     1      -7.013   3.880   6.594  1.00  0.00     0.074 A 
ATOM     34  C   UNL     1      -4.663   3.731   7.343  1.00  0.00     0.049 A 
ATOM     35  N   UNL     1      -7.479   4.775   7.428  1.00  0.00    -0.248 NA
ATOM     36  C   UNL     1      -7.989   3.450   5.580  1.00  0.00     0.031 C 
ATOM     37  C   UNL     1      -3.261   3.308   7.309  1.00  0.00     0.029 A 
ATOM     38  N   UNL     1      -4.704   4.657   8.355  1.00  0.00    -0.354 N 
ATOM     39  C   UNL     1      -8.783   5.036   7.022  1.00  0.00     0.074 A 
ATOM     40  C   UNL     1      -9.022   4.238   5.840  1.00  0.00     0.031 C 
ATOM     41  C   UNL     1      -2.583   3.951   8.272  1.00  0.00     0.029 A 
ATOM     42  C   UNL     1      -3.494   4.843   8.983  1.00  0.00     0.049 A 
ATOM     43  H   UNL     1      -5.522   5.143   8.608  1.00  0.00     0.167 HD
ATOM     44  C   UNL     1      -9.713   5.834   7.600  1.00  0.00     0.034 A 
ATOM     45  C   UNL     1      -3.159   5.627  10.026  1.00  0.00     0.034 A 
ATOM     46  C   UNL     1      -9.490   6.587   8.805  1.00  0.00     0.049 A 
ATOM     47  C   UNL     1      -4.232   6.433  10.707  1.00  0.00     0.074 A 
ATOM     48  C   UNL     1     -10.392   7.355   9.522  1.00  0.00     0.029 A 
ATOM     49  N   UNL     1      -8.278   6.669   9.473  1.00  0.00    -0.354 N 
ATOM     50  N   UNL     1      -5.506   6.525  10.413  1.00  0.00    -0.248 NA
ATOM     51  C   UNL     1      -3.831   7.203  11.893  1.00  0.00     0.031 C 
ATOM     52  C   UNL     1      -9.720   7.911  10.617  1.00  0.00     0.029 A 
ATOM     53  C   UNL     1      -8.406   7.473  10.594  1.00  0.00     0.049 A 
ATOM     54  H   UNL     1      -7.448   6.221   9.192  1.00  0.00     0.167 HD
ATOM     55  C   UNL     1      -6.066   7.335  11.396  1.00  0.00     0.074 A 
ATOM     56  C   UNL     1      -4.996   7.680  12.309  1.00  0.00     0.031 C 
ATOM     57  C   UNL     1      -7.345   7.768  11.521  1.00  0.00     0.034 A 
BRANCH  44  58
ATOM     58  C   UNL     1     -11.083   5.881   6.971  1.00  0.00     0.023 A 
ATOM     59  C   UNL     1     -11.927   4.755   7.064  1.00  0.00     0.012 A 
ATOM     60  C   UNL     1     -11.559   7.047   6.339  1.00  0.00     0.148 A 
ATOM     61  C   UNL     1     -13.205   4.773   6.507  1.00  0.00     0.002 A 
ATOM     62  C   UNL     1     -12.852   7.074   5.826  1.00  0.00     0.091 A 
ATOM     63  F   UNL     1     -10.738   8.102   6.241  1.00  0.00    -0.205 F 
ATOM     64  C   UNL     1     -13.671   5.935   5.898  1.00  0.00     0.022 A 
BRANCH  62  65
ATOM     65  S   UNL     1     -13.575   8.547   5.094  1.00  0.00     0.127 S 
ATOM     66  O   UNL     1     -13.611   8.185   3.678  1.00  0.00    -0.237 OA
ATOM     67  O   UNL     1     -14.886   8.602   5.742  1.00  0.00    -0.237 OA
ATOM     68  O   UNL     1     -12.682   9.645   5.438  1.00  0.00    -0.744 OA
ENDBRANCH  62  65
ENDBRANCH  44  58
BRANCH  45  69
ATOM     69  C   UNL     1      -1.765   5.606  10.554  1.00  0.00     0.023 A 
ATOM     70  C   UNL     1      -1.506   5.002  11.801  1.00  0.00     0.012 A 
ATOM     71  C   UNL     1      -0.693   6.144   9.817  1.00  0.00     0.148 A 
ATOM     72  C   UNL     1      -0.212   4.966  12.320  1.00  0.00     0.002 A 
ATOM     73  C   UNL     1       0.603   6.054  10.314  1.00  0.00     0.091 A 
ATOM     74  F   UNL     1      -0.959   6.725   8.639  1.00  0.00    -0.205 F 
ATOM     75  C   UNL     1       0.844   5.482  11.573  1.00  0.00     0.022 A 
BRANCH  73  76
ATOM     76  S   UNL     1       2.035   6.567   9.359  1.00  0.00     0.127 S 
ATOM     77  O   UNL     1       2.425   7.798  10.040  1.00  0.00    -0.237 OA
ATOM     78  O   UNL     1       2.948   5.440   9.550  1.00  0.00    -0.237 OA
ATOM     79  O   UNL     1       1.556   6.721   7.991  1.00  0.00    -0.744 OA
ENDBRANCH  73  76
ENDBRANCH  45  69
BRANCH  57  80
ATOM     80  C   UNL     1      -7.666   8.644  12.704  1.00  0.00     0.023 A 
ATOM     81  C   UNL     1      -7.182   9.967  12.748  1.00  0.00     0.012 A 
ATOM     82  C   UNL     1      -8.481   8.172  13.752  1.00  0.00     0.148 A 
ATOM     83  C   UNL     1      -7.465  10.790  13.837  1.00  0.00     0.002 A 
ATOM     84  C   UNL     1      -8.800   9.015  14.810  1.00  0.00     0.091 A 
ATOM     85  F   UNL     1      -8.916   6.904  13.706  1.00  0.00    -0.205 F 
ATOM     86  C   UNL     1      -8.281  10.319  14.862  1.00  0.00     0.022 A 
BRANCH  84  87
ATOM     87  S   UNL     1      -9.922   8.513  16.120  1.00  0.00     0.127 S 
ATOM     88  O   UNL     1      -8.993   8.153  17.189  1.00  0.00    -0.237 OA
ATOM     89  O   UNL     1     -10.688   9.736  16.365  1.00  0.00    -0.237 OA
ATOM     90  O   UNL     1     -10.707   7.417  15.566  1.00  0.00    -0.744 OA
ENDBRANCH  84  87
ENDBRANCH  57  80
ENDBRANCH  31  32
ENDBRANCH  23  26
ENDBRANCH  21  22
ENDBRANCH   1  21
TORSDOF 17
