REMARK SMILES C[C@@H](C(=O)NCCCNC(=O)c1ccc(-c2c3nc(c(-c4cccc(S(=O)(=O)[O-])c4F)c4ccc([nH]4)c(-c4cccc(S(=O)(=O)[O-])c4F)c4nc(c(-c5cccc(S(=O)(=O)[O-])c5F)c5ccc2[nH]5)C=C4)C=C3)cc1)[C@H](C)[N@@H+]1C[C@H]2C[NH2+]C[C@@H]2[C@@H]1C
REMARK SMILES IDX 7 1 6 2 5 3 3 4 4 5 2 7 1 8 75 9 76 10 77 11 78 12 84 13
REMARK SMILES IDX 79 15 83 16 85 17 80 18 82 19 81 20 8 23 9 24 10 25 11 27
REMARK SMILES IDX 12 28 13 29 74 30 14 31 73 32 15 33 16 34 17 35 67 36 18 37
REMARK SMILES IDX 72 38 66 39 68 40 19 41 71 42 65 43 64 44 20 46 52 47 32 48
REMARK SMILES IDX 51 49 33 50 36 51 50 52 69 53 34 54 35 55 49 57 70 58 37 59
REMARK SMILES IDX 21 60 22 61 30 62 23 63 25 64 31 65 24 66 26 67 27 68 28 69
REMARK SMILES IDX 29 70 53 71 54 72 62 73 55 74 57 75 63 76 56 77 58 78 59 79
REMARK SMILES IDX 60 80 61 81 38 82 39 83 47 84 40 85 42 86 48 87 41 88 43 89
REMARK SMILES IDX 44 90 45 91 46 92
REMARK H PARENT 5 6 77 14 81 21 81 22 9 26 68 45 36 56
REMARK Flexibility Score: inf
ROOT
ATOM      1  C   UNL     1      -2.745   4.245  -0.686  1.00  0.00     0.042 C 
ENDROOT
BRANCH   1   2
ATOM      2  C   UNL     1      -1.925   3.429  -1.683  1.00  0.00     0.117 C 
BRANCH   2   3
ATOM      3  N   UNL     1      -0.804   2.772  -1.034  1.00  0.00    -0.356 N 
ATOM      4  C   UNL     1      -0.658   1.477  -0.632  1.00  0.00     0.228 C 
ATOM      5  O   UNL     1       0.280   1.225   0.124  1.00  0.00    -0.275 OA
ATOM      6  H   UNL     1      -0.028   3.352  -0.857  1.00  0.00     0.163 HD
BRANCH   4   7
ATOM      7  C   UNL     1      -1.668   0.421  -1.090  1.00  0.00     0.133 C 
ATOM      8  C   UNL     1      -2.834   0.498  -0.087  1.00  0.00     0.024 C 
BRANCH   7   9
ATOM      9  C   UNL     1      -1.060  -1.026  -1.178  1.00  0.00     0.193 C 
ATOM     10  C   UNL     1       0.424  -0.995  -1.614  1.00  0.00     0.076 C 
BRANCH   9  11
ATOM     11  N   UNL     1      -1.736  -1.971  -2.110  1.00  0.00    -0.329 N 
ATOM     12  C   UNL     1      -3.197  -1.859  -2.335  1.00  0.00     0.272 C 
ATOM     13  C   UNL     1      -1.413  -3.439  -1.912  1.00  0.00     0.190 C 
ATOM     14  H   UNL     1      -1.292  -1.611  -2.954  1.00  0.00     0.348 HD
ATOM     15  C   UNL     1      -3.714  -3.070  -1.612  1.00  0.00     0.114 C 
ATOM     16  C   UNL     1      -2.760  -4.107  -2.144  1.00  0.00     0.116 C 
ATOM     17  C   UNL     1      -0.762  -3.885  -0.599  1.00  0.00     0.076 C 
ATOM     18  C   UNL     1      -5.038  -3.730  -1.876  1.00  0.00     0.270 C 
ATOM     19  C   UNL     1      -3.297  -5.348  -1.482  1.00  0.00     0.271 C 
ATOM     20  N   UNL     1      -4.771  -5.162  -1.561  1.00  0.00    -0.345 N 
ATOM     21  H   UNL     1      -5.156  -5.755  -2.296  1.00  0.00     0.346 HD
ATOM     22  H   UNL     1      -5.209  -5.418  -0.676  1.00  0.00     0.346 HD
ENDBRANCH   9  11
ENDBRANCH   7   9
ENDBRANCH   4   7
ENDBRANCH   2   3
ENDBRANCH   1   2
BRANCH   1  23
ATOM     23  C   UNL     1      -1.978   5.393  -0.035  1.00  0.00     0.118 C 
BRANCH  23  24
ATOM     24  N   UNL     1      -1.589   6.421  -0.990  1.00  0.00    -0.352 N 
ATOM     25  C   UNL     1      -1.867   7.765  -0.993  1.00  0.00     0.251 C 
ATOM     26  H   UNL     1      -1.044   6.105  -1.746  1.00  0.00     0.163 HD
ATOM     27  O   UNL     1      -1.599   8.433  -1.993  1.00  0.00    -0.269 OA
BRANCH  25  28
ATOM     28  C   UNL     1      -2.499   8.410   0.179  1.00  0.00     0.039 A 
ATOM     29  C   UNL     1      -3.509   9.352  -0.035  1.00  0.00     0.014 A 
ATOM     30  C   UNL     1      -2.088   8.112   1.481  1.00  0.00     0.014 A 
ATOM     31  C   UNL     1      -4.145   9.950   1.056  1.00  0.00     0.010 A 
ATOM     32  C   UNL     1      -2.776   8.650   2.568  1.00  0.00     0.010 A 
ATOM     33  C   UNL     1      -3.808   9.580   2.369  1.00  0.00    -0.014 A 
BRANCH  33  34
ATOM     34  C   UNL     1      -4.534  10.142   3.538  1.00  0.00     0.031 A 
ATOM     35  C   UNL     1      -3.806  10.960   4.571  1.00  0.00     0.074 A 
ATOM     36  C   UNL     1      -5.838   9.847   3.713  1.00  0.00     0.049 A 
ATOM     37  N   UNL     1      -4.265  11.485   5.678  1.00  0.00    -0.248 NA
ATOM     38  C   UNL     1      -2.371  11.200   4.345  1.00  0.00     0.031 C 
ATOM     39  C   UNL     1      -6.639   8.999   2.827  1.00  0.00     0.029 A 
ATOM     40  N   UNL     1      -6.713  10.203   4.710  1.00  0.00    -0.354 N 
ATOM     41  C   UNL     1      -3.174  12.082   6.298  1.00  0.00     0.074 A 
ATOM     42  C   UNL     1      -2.023  11.831   5.458  1.00  0.00     0.031 C 
ATOM     43  C   UNL     1      -7.884   8.900   3.319  1.00  0.00     0.029 A 
ATOM     44  C   UNL     1      -7.964   9.647   4.570  1.00  0.00     0.049 A 
ATOM     45  H   UNL     1      -6.468  10.799   5.454  1.00  0.00     0.167 HD
ATOM     46  C   UNL     1      -3.136  12.797   7.448  1.00  0.00     0.034 A 
ATOM     47  C   UNL     1      -9.050   9.716   5.365  1.00  0.00     0.034 A 
ATOM     48  C   UNL     1      -4.288  13.078   8.262  1.00  0.00     0.049 A 
ATOM     49  C   UNL     1      -8.992  10.550   6.616  1.00  0.00     0.074 A 
ATOM     50  C   UNL     1      -4.366  13.870   9.394  1.00  0.00     0.029 A 
ATOM     51  N   UNL     1      -5.558  12.570   8.042  1.00  0.00    -0.354 N 
ATOM     52  N   UNL     1      -7.988  11.240   7.101  1.00  0.00    -0.248 NA
ATOM     53  C   UNL     1     -10.226  10.648   7.409  1.00  0.00     0.031 C 
ATOM     54  C   UNL     1      -5.677  13.813   9.878  1.00  0.00     0.029 A 
ATOM     55  C   UNL     1      -6.425  13.019   9.024  1.00  0.00     0.049 A 
ATOM     56  H   UNL     1      -5.808  11.976   7.297  1.00  0.00     0.167 HD
ATOM     57  C   UNL     1      -8.476  11.879   8.234  1.00  0.00     0.074 A 
ATOM     58  C   UNL     1      -9.873  11.512   8.351  1.00  0.00     0.031 C 
ATOM     59  C   UNL     1      -7.824  12.687   9.106  1.00  0.00     0.034 A 
BRANCH  46  60
ATOM     60  C   UNL     1      -1.809  13.367   7.880  1.00  0.00     0.023 A 
ATOM     61  C   UNL     1      -1.242  14.439   7.160  1.00  0.00     0.012 A 
ATOM     62  C   UNL     1      -1.162  12.895   9.039  1.00  0.00     0.148 A 
ATOM     63  C   UNL     1      -0.037  15.010   7.567  1.00  0.00     0.002 A 
ATOM     64  C   UNL     1       0.014  13.501   9.466  1.00  0.00     0.091 A 
ATOM     65  F   UNL     1      -1.707  11.864   9.700  1.00  0.00    -0.205 F 
ATOM     66  C   UNL     1       0.584  14.550   8.725  1.00  0.00     0.022 A 
BRANCH  64  67
ATOM     67  S   UNL     1       0.848  13.040  10.988  1.00  0.00     0.127 S 
ATOM     68  O   UNL     1       2.075  12.428  10.479  1.00  0.00    -0.237 OA
ATOM     69  O   UNL     1       1.038  14.336  11.639  1.00  0.00    -0.237 OA
ATOM     70  O   UNL     1      -0.055  12.135  11.685  1.00  0.00    -0.744 OA
ENDBRANCH  64  67
ENDBRANCH  46  60
BRANCH  47  71
ATOM     71  C   UNL     1     -10.303   9.012   4.972  1.00  0.00     0.023 A 
ATOM     72  C   UNL     1     -11.425   9.760   4.566  1.00  0.00     0.012 A 
ATOM     73  C   UNL     1     -10.377   7.605   4.968  1.00  0.00     0.148 A 
ATOM     74  C   UNL     1     -12.608   9.122   4.194  1.00  0.00     0.002 A 
ATOM     75  C   UNL     1     -11.539   6.975   4.540  1.00  0.00     0.091 A 
ATOM     76  F   UNL     1      -9.301   6.912   5.366  1.00  0.00    -0.205 F 
ATOM     77  C   UNL     1     -12.662   7.731   4.171  1.00  0.00     0.022 A 
BRANCH  75  78
ATOM     78  S   UNL     1     -11.653   5.193   4.346  1.00  0.00     0.127 S 
ATOM     79  O   UNL     1     -12.591   4.836   5.407  1.00  0.00    -0.237 OA
ATOM     80  O   UNL     1     -12.183   5.072   2.987  1.00  0.00    -0.237 OA
ATOM     81  O   UNL     1     -10.295   4.690   4.506  1.00  0.00    -0.744 OA
ENDBRANCH  75  78
ENDBRANCH  47  71
BRANCH  59  82
ATOM     82  C   UNL     1      -8.614  13.270  10.248  1.00  0.00     0.023 A 
ATOM     83  C   UNL     1      -9.031  12.445  11.312  1.00  0.00     0.012 A 
ATOM     84  C   UNL     1      -8.879  14.653  10.302  1.00  0.00     0.148 A 
ATOM     85  C   UNL     1      -9.729  12.982  12.394  1.00  0.00     0.002 A 
ATOM     86  C   UNL     1      -9.528  15.189  11.407  1.00  0.00     0.091 A 
ATOM     87  F   UNL     1      -8.490  15.419   9.272  1.00  0.00    -0.205 F 
ATOM     88  C   UNL     1      -9.966  14.353  12.447  1.00  0.00     0.022 A 
BRANCH  86  89
ATOM     89  S   UNL     1      -9.790  16.955  11.609  1.00  0.00     0.127 S 
ATOM     90  O   UNL     1     -11.235  17.066  11.416  1.00  0.00    -0.237 OA
ATOM     91  O   UNL     1      -9.339  17.180  12.983  1.00  0.00    -0.237 OA
ATOM     92  O   UNL     1      -8.973  17.602  10.591  1.00  0.00    -0.744 OA
ENDBRANCH  86  89
ENDBRANCH  59  82
ENDBRANCH  33  34
ENDBRANCH  25  28
ENDBRANCH  23  24
ENDBRANCH   1  23
TORSDOF 15
