REMARK SMILES O=C(C[C@H]1CN(c2nc(C3CC3)ns2)CCO1)NCCCNC(=O)c1ccc(-c2c3nc(c(-c4cccc(S(=O)(=O)[O-])c4F)c4ccc([nH]4)c(-c4cccc(S(=O)(=O)[O-])c4F)c4nc(c(-c5cccc(S(=O)(=O)[O-])c5F)c5ccc2[nH]5)C=C4)C=C3)cc1
REMARK SMILES IDX 20 1 19 2 18 3 1 4 2 5 3 7 4 8 5 9 17 10 6 11 16 12 15 13
REMARK SMILES IDX 7 14 8 15 14 16 9 17 13 18 10 19 11 20 12 21 21 22 22 23
REMARK SMILES IDX 23 24 24 26 25 27 26 28 87 29 27 30 86 31 28 32 29 33 30 34
REMARK SMILES IDX 80 35 31 36 85 37 79 38 81 39 32 40 84 41 78 42 77 43 33 45
REMARK SMILES IDX 65 46 45 47 64 48 46 49 49 50 63 51 82 52 47 53 48 54 62 56
REMARK SMILES IDX 83 57 50 58 34 59 35 60 43 61 36 62 38 63 44 64 37 65 39 66
REMARK SMILES IDX 40 67 41 68 42 69 66 70 67 71 75 72 68 73 70 74 76 75 69 76
REMARK SMILES IDX 71 77 72 78 73 79 74 80 51 81 52 82 60 83 53 84 55 85 61 86
REMARK SMILES IDX 54 87 56 88 57 89 58 90 59 91
REMARK H PARENT 18 6 22 25 81 44 49 55
REMARK Flexibility Score: inf
ROOT
ATOM      1  C   UNL     1       3.836   3.025  -3.490  1.00  0.00     0.042 C 
ENDROOT
BRANCH   1   2
ATOM      2  C   UNL     1       4.740   1.832  -3.224  1.00  0.00     0.117 C 
BRANCH   2   3
ATOM      3  N   UNL     1       4.079   0.774  -2.492  1.00  0.00    -0.356 N 
ATOM      4  O   UNL     1       3.555  -0.497  -4.324  1.00  0.00    -0.275 OA
ATOM      5  C   UNL     1       3.595  -0.356  -3.106  1.00  0.00     0.222 C 
ATOM      6  H   UNL     1       3.971   0.867  -1.518  1.00  0.00     0.163 HD
BRANCH   5   7
ATOM      7  C   UNL     1       3.070  -1.418  -2.167  1.00  0.00     0.133 C 
BRANCH   7   8
ATOM      8  C   UNL     1       3.947  -1.802  -0.960  1.00  0.00     0.147 C 
ATOM      9  C   UNL     1       4.128  -3.328  -0.811  1.00  0.00     0.151 C 
ATOM     10  O   UNL     1       5.208  -1.109  -0.851  1.00  0.00    -0.374 OA
ATOM     11  N   UNL     1       5.201  -3.825  -1.667  1.00  0.00    -0.342 N 
ATOM     12  C   UNL     1       6.210  -1.607  -1.757  1.00  0.00     0.182 C 
ATOM     13  C   UNL     1       6.467  -3.109  -1.575  1.00  0.00     0.147 C 
BRANCH  11  14
ATOM     14  C   UNL     1       4.948  -4.747  -2.627  1.00  0.00     0.205 A 
ATOM     15  N   UNL     1       3.824  -4.846  -3.301  1.00  0.00    -0.203 NA
ATOM     16  S   UNL     1       6.045  -6.015  -3.075  1.00  0.00     0.004 S 
ATOM     17  C   UNL     1       3.900  -5.932  -4.164  1.00  0.00     0.147 A 
ATOM     18  N   UNL     1       4.974  -6.723  -4.136  1.00  0.00    -0.174 NA
BRANCH  17  19
ATOM     19  C   UNL     1       2.776  -6.236  -5.154  1.00  0.00     0.059 C 
ATOM     20  C   UNL     1       1.414  -5.603  -4.958  1.00  0.00     0.012 C 
ATOM     21  C   UNL     1       2.299  -5.116  -6.056  1.00  0.00     0.012 C 
ENDBRANCH  17  19
ENDBRANCH  11  14
ENDBRANCH   7   8
ENDBRANCH   5   7
ENDBRANCH   2   3
ENDBRANCH   1   2
BRANCH   1  22
ATOM     22  C   UNL     1       3.278   3.686  -2.236  1.00  0.00     0.118 C 
BRANCH  22  23
ATOM     23  N   UNL     1       4.309   4.221  -1.357  1.00  0.00    -0.352 N 
ATOM     24  C   UNL     1       4.458   5.475  -0.819  1.00  0.00     0.251 C 
ATOM     25  H   UNL     1       5.014   3.580  -1.110  1.00  0.00     0.163 HD
ATOM     26  O   UNL     1       5.490   5.740  -0.205  1.00  0.00    -0.269 OA
BRANCH  24  27
ATOM     27  C   UNL     1       3.409   6.510  -0.978  1.00  0.00     0.039 A 
ATOM     28  C   UNL     1       3.806   7.837  -1.178  1.00  0.00     0.014 A 
ATOM     29  C   UNL     1       2.049   6.203  -0.889  1.00  0.00     0.014 A 
ATOM     30  C   UNL     1       2.844   8.840  -1.325  1.00  0.00     0.010 A 
ATOM     31  C   UNL     1       1.092   7.189  -1.125  1.00  0.00     0.010 A 
ATOM     32  C   UNL     1       1.476   8.523  -1.321  1.00  0.00    -0.014 A 
BRANCH  32  33
ATOM     33  C   UNL     1       0.446   9.583  -1.493  1.00  0.00     0.031 A 
ATOM     34  C   UNL     1      -0.543   9.875  -0.393  1.00  0.00     0.074 A 
ATOM     35  C   UNL     1       0.367  10.257  -2.658  1.00  0.00     0.049 A 
ATOM     36  N   UNL     1      -1.495  10.772  -0.356  1.00  0.00    -0.248 NA
ATOM     37  C   UNL     1      -0.472   9.033   0.814  1.00  0.00     0.031 C 
ATOM     38  C   UNL     1       1.204  10.013  -3.835  1.00  0.00     0.029 A 
ATOM     39  N   UNL     1      -0.466  11.275  -3.050  1.00  0.00    -0.354 N 
ATOM     40  C   UNL     1      -2.153  10.582   0.854  1.00  0.00     0.074 A 
ATOM     41  C   UNL     1      -1.520   9.456   1.505  1.00  0.00     0.031 C 
ATOM     42  C   UNL     1       0.853  10.868  -4.809  1.00  0.00     0.029 A 
ATOM     43  C   UNL     1      -0.246  11.705  -4.338  1.00  0.00     0.049 A 
ATOM     44  H   UNL     1      -1.157  11.660  -2.464  1.00  0.00     0.167 HD
ATOM     45  C   UNL     1      -3.168  11.298   1.395  1.00  0.00     0.034 A 
ATOM     46  C   UNL     1      -0.854  12.670  -5.055  1.00  0.00     0.034 A 
ATOM     47  C   UNL     1      -3.769  12.444   0.767  1.00  0.00     0.049 A 
ATOM     48  C   UNL     1      -1.934  13.494  -4.407  1.00  0.00     0.074 A 
ATOM     49  C   UNL     1      -4.747  13.286   1.267  1.00  0.00     0.029 A 
ATOM     50  N   UNL     1      -3.451  12.910  -0.499  1.00  0.00    -0.354 N 
ATOM     51  N   UNL     1      -2.431  13.401  -3.198  1.00  0.00    -0.248 NA
ATOM     52  C   UNL     1      -2.502  14.589  -5.206  1.00  0.00     0.031 C 
ATOM     53  C   UNL     1      -5.036  14.248   0.293  1.00  0.00     0.029 A 
ATOM     54  C   UNL     1      -4.213  14.027  -0.798  1.00  0.00     0.049 A 
ATOM     55  H   UNL     1      -2.781  12.506  -1.097  1.00  0.00     0.167 HD
ATOM     56  C   UNL     1      -3.334  14.451  -3.075  1.00  0.00     0.074 A 
ATOM     57  C   UNL     1      -3.300  15.178  -4.327  1.00  0.00     0.031 C 
ATOM     58  C   UNL     1      -4.128  14.777  -2.025  1.00  0.00     0.034 A 
BRANCH  45  59
ATOM     59  C   UNL     1      -3.659  10.894   2.763  1.00  0.00     0.023 A 
ATOM     60  C   UNL     1      -2.837  11.108   3.889  1.00  0.00     0.012 A 
ATOM     61  C   UNL     1      -4.947  10.353   2.943  1.00  0.00     0.148 A 
ATOM     62  C   UNL     1      -3.271  10.755   5.166  1.00  0.00     0.002 A 
ATOM     63  C   UNL     1      -5.392  10.049   4.225  1.00  0.00     0.091 A 
ATOM     64  F   UNL     1      -5.708  10.137   1.861  1.00  0.00    -0.205 F 
ATOM     65  C   UNL     1      -4.551  10.236   5.335  1.00  0.00     0.022 A 
BRANCH  63  66
ATOM     66  S   UNL     1      -7.053   9.453   4.559  1.00  0.00     0.127 S 
ATOM     67  O   UNL     1      -6.798   8.064   4.939  1.00  0.00    -0.237 OA
ATOM     68  O   UNL     1      -7.474  10.318   5.662  1.00  0.00    -0.237 OA
ATOM     69  O   UNL     1      -7.802   9.636   3.324  1.00  0.00    -0.744 OA
ENDBRANCH  63  66
ENDBRANCH  45  59
BRANCH  46  70
ATOM     70  C   UNL     1      -0.395  12.970  -6.442  1.00  0.00     0.023 A 
ATOM     71  C   UNL     1       0.284  14.176  -6.702  1.00  0.00     0.012 A 
ATOM     72  C   UNL     1      -0.612  12.062  -7.496  1.00  0.00     0.148 A 
ATOM     73  C   UNL     1       0.704  14.493  -7.994  1.00  0.00     0.002 A 
ATOM     74  C   UNL     1      -0.141  12.359  -8.771  1.00  0.00     0.091 A 
ATOM     75  F   UNL     1      -1.267  10.924  -7.230  1.00  0.00    -0.205 F 
ATOM     76  C   UNL     1       0.500  13.581  -9.026  1.00  0.00     0.022 A 
BRANCH  74  77
ATOM     77  S   UNL     1      -0.244  11.189 -10.129  1.00  0.00     0.127 S 
ATOM     78  O   UNL     1      -1.241  11.822 -10.992  1.00  0.00    -0.237 OA
ATOM     79  O   UNL     1       1.124  11.213 -10.651  1.00  0.00    -0.237 OA
ATOM     80  O   UNL     1      -0.636   9.924  -9.531  1.00  0.00    -0.744 OA
ENDBRANCH  74  77
ENDBRANCH  46  70
BRANCH  58  81
ATOM     81  C   UNL     1      -4.986  16.010  -2.155  1.00  0.00     0.023 A 
ATOM     82  C   UNL     1      -6.091  16.015  -3.030  1.00  0.00     0.012 A 
ATOM     83  C   UNL     1      -4.722  17.150  -1.371  1.00  0.00     0.148 A 
ATOM     84  C   UNL     1      -6.890  17.151  -3.155  1.00  0.00     0.002 A 
ATOM     85  C   UNL     1      -5.554  18.259  -1.462  1.00  0.00     0.091 A 
ATOM     86  F   UNL     1      -3.655  17.137  -0.558  1.00  0.00    -0.205 F 
ATOM     87  C   UNL     1      -6.629  18.268  -2.365  1.00  0.00     0.022 A 
BRANCH  85  88
ATOM     88  S   UNL     1      -5.347  19.697  -0.405  1.00  0.00     0.127 S 
ATOM     89  O   UNL     1      -4.717  20.650  -1.317  1.00  0.00    -0.237 OA
ATOM     90  O   UNL     1      -6.728  20.022  -0.044  1.00  0.00    -0.237 OA
ATOM     91  O   UNL     1      -4.524  19.254   0.712  1.00  0.00    -0.744 OA
ENDBRANCH  85  88
ENDBRANCH  58  81
ENDBRANCH  32  33
ENDBRANCH  24  27
ENDBRANCH  22  23
ENDBRANCH   1  22
TORSDOF 16
