REMARK SMILES CC(=O)c1nnn(-c2ccc(C(=O)NCCCNC(=O)c3ccc(-c4c5nc(c(-c6cccc(S(=O)(=O)[O-])c6F)c6ccc([nH]6)c(-c6cccc(S(=O)(=O)[O-])c6F)c6nc(c(-c7cccc(S(=O)(=O)[O-])c7F)c7ccc4[nH]7)C=C6)C=C5)cc3)cc2)c1C
REMARK SMILES IDX 16 1 15 2 14 3 12 4 13 5 11 7 8 8 9 9 85 10 10 11 84 12 7 13
REMARK SMILES IDX 4 14 5 15 86 16 6 17 87 18 2 19 1 20 3 21 17 22 18 23 19 24
REMARK SMILES IDX 20 26 21 27 22 28 83 29 23 30 82 31 24 32 25 33 26 34 76 35
REMARK SMILES IDX 27 36 81 37 75 38 77 39 28 40 80 41 74 42 73 43 29 45 61 46
REMARK SMILES IDX 41 47 60 48 42 49 45 50 59 51 78 52 43 53 44 54 58 56 79 57
REMARK SMILES IDX 46 58 30 59 31 60 39 61 32 62 34 63 40 64 33 65 35 66 36 67
REMARK SMILES IDX 37 68 38 69 62 70 63 71 71 72 64 73 66 74 72 75 65 76 67 77
REMARK SMILES IDX 68 78 69 79 70 80 47 81 48 82 56 83 49 84 51 85 57 86 50 87
REMARK SMILES IDX 52 88 53 89 54 90 55 91
REMARK H PARENT 14 6 18 25 77 44 45 55
REMARK Flexibility Score: inf
ROOT
ATOM      1  C   UNL     1       8.202   2.721   6.315  1.00  0.00     0.042 C 
ENDROOT
BRANCH   1   2
ATOM      2  C   UNL     1       8.231   1.247   5.885  1.00  0.00     0.118 C 
BRANCH   2   3
ATOM      3  N   UNL     1       7.898   0.339   6.973  1.00  0.00    -0.352 N 
ATOM      4  C   UNL     1       6.726  -0.288   7.330  1.00  0.00     0.251 C 
ATOM      5  O   UNL     1       6.781  -1.165   8.190  1.00  0.00    -0.269 OA
ATOM      6  H   UNL     1       8.656   0.135   7.567  1.00  0.00     0.163 HD
BRANCH   4   7
ATOM      7  C   UNL     1       5.419  -0.013   6.671  1.00  0.00     0.039 A 
ATOM      8  C   UNL     1       3.058   0.251   5.207  1.00  0.00     0.067 A 
ATOM      9  C   UNL     1       3.225  -0.869   6.019  1.00  0.00     0.029 A 
ATOM     10  C   UNL     1       3.981   1.296   5.233  1.00  0.00     0.029 A 
ATOM     11  C   UNL     1       4.425  -1.008   6.727  1.00  0.00     0.016 A 
ATOM     12  C   UNL     1       5.132   1.174   5.999  1.00  0.00     0.016 A 
BRANCH   8  13
ATOM     13  N   UNL     1       2.006   0.312   4.280  1.00  0.00    -0.217 N 
ATOM     14  C   UNL     1       0.792   0.680   2.514  1.00  0.00     0.151 A 
ATOM     15  N   UNL     1      -0.032   0.468   3.591  1.00  0.00    -0.126 NA
ATOM     16  C   UNL     1       2.109   0.530   2.914  1.00  0.00     0.073 A 
ATOM     17  N   UNL     1       0.720   0.133   4.632  1.00  0.00    -0.061 NA
ATOM     18  C   UNL     1       3.400   0.500   2.181  1.00  0.00     0.069 C 
BRANCH  14  19
ATOM     19  C   UNL     1       0.263   0.948   1.187  1.00  0.00     0.181 C 
ATOM     20  C   UNL     1       0.650   0.006   0.075  1.00  0.00     0.095 C 
ATOM     21  O   UNL     1      -0.491   1.895   0.967  1.00  0.00    -0.293 OA
ENDBRANCH  14  19
ENDBRANCH   8  13
ENDBRANCH   4   7
ENDBRANCH   2   3
ENDBRANCH   1   2
BRANCH   1  22
ATOM     22  C   UNL     1       9.499   3.163   6.965  1.00  0.00     0.118 C 
BRANCH  22  23
ATOM     23  N   UNL     1      10.598   3.253   6.001  1.00  0.00    -0.352 N 
ATOM     24  C   UNL     1      11.931   3.540   6.236  1.00  0.00     0.251 C 
ATOM     25  H   UNL     1      10.355   3.087   5.061  1.00  0.00     0.163 HD
ATOM     26  O   UNL     1      12.652   3.912   5.327  1.00  0.00    -0.269 OA
BRANCH  24  27
ATOM     27  C   UNL     1      12.454   3.396   7.607  1.00  0.00     0.039 A 
ATOM     28  C   UNL     1      13.359   4.319   8.139  1.00  0.00     0.014 A 
ATOM     29  C   UNL     1      11.986   2.335   8.375  1.00  0.00     0.014 A 
ATOM     30  C   UNL     1      13.720   4.209   9.479  1.00  0.00     0.010 A 
ATOM     31  C   UNL     1      12.190   2.341   9.728  1.00  0.00     0.010 A 
ATOM     32  C   UNL     1      13.111   3.227  10.274  1.00  0.00    -0.014 A 
BRANCH  32  33
ATOM     33  C   UNL     1      13.330   3.171  11.715  1.00  0.00     0.031 A 
ATOM     34  C   UNL     1      13.003   4.429  12.435  1.00  0.00     0.074 A 
ATOM     35  C   UNL     1      13.563   2.006  12.360  1.00  0.00     0.049 A 
ATOM     36  N   UNL     1      13.823   5.238  13.023  1.00  0.00    -0.248 NA
ATOM     37  C   UNL     1      11.624   4.937  12.356  1.00  0.00     0.031 C 
ATOM     38  C   UNL     1      13.581   0.650  11.786  1.00  0.00     0.029 A 
ATOM     39  N   UNL     1      13.667   1.762  13.695  1.00  0.00    -0.354 N 
ATOM     40  C   UNL     1      13.021   6.212  13.615  1.00  0.00     0.074 A 
ATOM     41  C   UNL     1      11.739   6.115  12.974  1.00  0.00     0.031 C 
ATOM     42  C   UNL     1      13.412  -0.259  12.769  1.00  0.00     0.029 A 
ATOM     43  C   UNL     1      13.469   0.428  14.043  1.00  0.00     0.049 A 
ATOM     44  H   UNL     1      13.865   2.466  14.355  1.00  0.00     0.167 HD
ATOM     45  C   UNL     1      13.390   6.808  14.784  1.00  0.00     0.034 A 
ATOM     46  C   UNL     1      13.328  -0.075  15.292  1.00  0.00     0.034 A 
ATOM     47  C   UNL     1      14.774   6.529  15.088  1.00  0.00     0.049 A 
ATOM     48  C   UNL     1      13.897   0.921  16.223  1.00  0.00     0.074 A 
ATOM     49  C   UNL     1      15.989   6.761  14.479  1.00  0.00     0.029 A 
ATOM     50  N   UNL     1      14.988   5.548  16.024  1.00  0.00    -0.354 N 
ATOM     51  N   UNL     1      15.164   1.222  16.266  1.00  0.00    -0.248 NA
ATOM     52  C   UNL     1      13.002   1.882  16.844  1.00  0.00     0.031 C 
ATOM     53  C   UNL     1      16.783   5.617  14.788  1.00  0.00     0.029 A 
ATOM     54  C   UNL     1      16.039   4.775  15.618  1.00  0.00     0.049 A 
ATOM     55  H   UNL     1      14.470   5.423  16.852  1.00  0.00     0.167 HD
ATOM     56  C   UNL     1      15.179   2.592  16.477  1.00  0.00     0.074 A 
ATOM     57  C   UNL     1      13.845   2.909  16.982  1.00  0.00     0.031 C 
ATOM     58  C   UNL     1      16.164   3.368  15.935  1.00  0.00     0.034 A 
BRANCH  45  59
ATOM     59  C   UNL     1      12.445   7.270  15.882  1.00  0.00     0.023 A 
ATOM     60  C   UNL     1      13.034   7.918  16.996  1.00  0.00     0.012 A 
ATOM     61  C   UNL     1      11.101   6.858  16.031  1.00  0.00     0.148 A 
ATOM     62  C   UNL     1      12.355   8.068  18.210  1.00  0.00     0.002 A 
ATOM     63  C   UNL     1      10.404   7.078  17.216  1.00  0.00     0.091 A 
ATOM     64  F   UNL     1      10.509   6.131  15.083  1.00  0.00    -0.205 F 
ATOM     65  C   UNL     1      11.037   7.648  18.321  1.00  0.00     0.022 A 
BRANCH  63  66
ATOM     66  S   UNL     1       8.681   6.595  17.398  1.00  0.00     0.127 S 
ATOM     67  O   UNL     1       8.797   5.429  18.268  1.00  0.00    -0.237 OA
ATOM     68  O   UNL     1       8.104   7.784  18.024  1.00  0.00    -0.237 OA
ATOM     69  O   UNL     1       8.201   6.342  16.045  1.00  0.00    -0.744 OA
ENDBRANCH  63  66
ENDBRANCH  45  59
BRANCH  46  70
ATOM     70  C   UNL     1      12.584  -1.257  15.777  1.00  0.00     0.023 A 
ATOM     71  C   UNL     1      12.940  -1.847  17.006  1.00  0.00     0.012 A 
ATOM     72  C   UNL     1      11.352  -1.622  15.191  1.00  0.00     0.148 A 
ATOM     73  C   UNL     1      12.077  -2.735  17.656  1.00  0.00     0.002 A 
ATOM     74  C   UNL     1      10.496  -2.507  15.842  1.00  0.00     0.091 A 
ATOM     75  F   UNL     1      10.985  -1.031  14.046  1.00  0.00    -0.205 F 
ATOM     76  C   UNL     1      10.850  -3.055  17.082  1.00  0.00     0.022 A 
BRANCH  74  77
ATOM     77  S   UNL     1       8.878  -2.939  15.188  1.00  0.00     0.127 S 
ATOM     78  O   UNL     1       8.903  -4.400  15.265  1.00  0.00    -0.237 OA
ATOM     79  O   UNL     1       7.985  -2.290  16.144  1.00  0.00    -0.237 OA
ATOM     80  O   UNL     1       8.846  -2.408  13.832  1.00  0.00    -0.744 OA
ENDBRANCH  74  77
ENDBRANCH  46  70
BRANCH  58  81
ATOM     81  C   UNL     1      17.390   2.670  15.399  1.00  0.00     0.023 A 
ATOM     82  C   UNL     1      17.346   1.792  14.295  1.00  0.00     0.012 A 
ATOM     83  C   UNL     1      18.639   3.033  15.927  1.00  0.00     0.148 A 
ATOM     84  C   UNL     1      18.521   1.270  13.748  1.00  0.00     0.002 A 
ATOM     85  C   UNL     1      19.807   2.552  15.350  1.00  0.00     0.091 A 
ATOM     86  F   UNL     1      18.663   3.870  16.975  1.00  0.00    -0.205 F 
ATOM     87  C   UNL     1      19.753   1.661  14.267  1.00  0.00     0.022 A 
BRANCH  85  88
ATOM     88  S   UNL     1      21.418   3.124  15.891  1.00  0.00     0.127 S 
ATOM     89  O   UNL     1      21.901   1.986  16.669  1.00  0.00    -0.237 OA
ATOM     90  O   UNL     1      22.118   3.340  14.623  1.00  0.00    -0.237 OA
ATOM     91  O   UNL     1      21.175   4.346  16.648  1.00  0.00    -0.744 OA
ENDBRANCH  85  88
ENDBRANCH  58  81
ENDBRANCH  32  33
ENDBRANCH  24  27
ENDBRANCH  22  23
ENDBRANCH   1  22
TORSDOF 15
