REMARK SMILES O=C(NCCCNC(=O)[C@@H]1CCCCC[C@H]1NS(=O)(=O)c1cccnc1Cl)c1ccc(-c2c3nc(c(-c4cccc(S(=O)(=O)[O-])c4F)c4ccc([nH]4)c(-c4cccc(S(=O)(=O)[O-])c4F)c4nc(c(-c5cccc(S(=O)(=O)[O-])c5F)c5ccc2[nH]5)C=C4)C=C3)cc1
REMARK SMILES IDX 6 1 5 2 4 3 3 4 1 5 2 6 28 8 29 9 90 10 30 11 89 12 31 13
REMARK SMILES IDX 32 14 33 15 83 16 34 17 88 18 82 19 84 20 35 21 87 22 81 23
REMARK SMILES IDX 80 24 36 26 68 27 48 28 67 29 49 30 52 31 66 32 85 33 50 34
REMARK SMILES IDX 51 35 65 37 86 38 53 39 37 40 38 41 46 42 39 43 41 44 47 45
REMARK SMILES IDX 40 46 42 47 43 48 44 49 45 50 69 51 70 52 78 53 71 54 73 55
REMARK SMILES IDX 79 56 72 57 74 58 75 59 76 60 77 61 54 62 55 63 63 64 56 65
REMARK SMILES IDX 58 66 64 67 57 68 59 69 60 70 61 71 62 72 7 73 8 74 9 76
REMARK SMILES IDX 10 77 11 78 16 80 15 81 14 82 13 83 12 84 17 86 18 88 19 89
REMARK SMILES IDX 20 90 21 91 22 92 26 93 23 94 25 95 27 96 24 97
REMARK H PARENT 3 7 84 25 52 36 7 75 17 87
REMARK Flexibility Score: 90.00
ROOT
ATOM      1  C   UNL     1       3.710  -3.540  -1.030  1.00  0.00     0.117 C 
ENDROOT
BRANCH   1   2
ATOM      2  C   UNL     1       4.320  -2.378  -0.255  1.00  0.00     0.042 C 
BRANCH   2   3
ATOM      3  C   UNL     1       4.211  -1.067  -1.028  1.00  0.00     0.118 C 
BRANCH   3   4
ATOM      4  N   UNL     1       2.826  -0.608  -1.086  1.00  0.00    -0.352 N 
ATOM      5  O   UNL     1       0.939   0.278  -0.259  1.00  0.00    -0.269 OA
ATOM      6  C   UNL     1       2.166   0.318  -0.315  1.00  0.00     0.251 C 
ATOM      7  H   UNL     1       2.279  -1.029  -1.788  1.00  0.00     0.163 HD
BRANCH   6   8
ATOM      8  C   UNL     1       2.916   1.346   0.441  1.00  0.00     0.039 A 
ATOM      9  C   UNL     1       4.084   1.900  -0.081  1.00  0.00     0.014 A 
ATOM     10  C   UNL     1       2.411   1.817   1.657  1.00  0.00     0.014 A 
ATOM     11  C   UNL     1       4.834   2.788   0.678  1.00  0.00     0.010 A 
ATOM     12  C   UNL     1       3.108   2.801   2.368  1.00  0.00     0.010 A 
ATOM     13  C   UNL     1       4.346   3.269   1.902  1.00  0.00    -0.014 A 
BRANCH  13  14
ATOM     14  C   UNL     1       5.128   4.302   2.630  1.00  0.00     0.031 A 
ATOM     15  C   UNL     1       5.666   4.044   4.010  1.00  0.00     0.074 A 
ATOM     16  C   UNL     1       5.375   5.478   2.017  1.00  0.00     0.049 A 
ATOM     17  N   UNL     1       6.412   4.815   4.758  1.00  0.00    -0.248 NA
ATOM     18  C   UNL     1       5.313   2.762   4.641  1.00  0.00     0.031 C 
ATOM     19  C   UNL     1       4.870   5.861   0.695  1.00  0.00     0.029 A 
ATOM     20  N   UNL     1       6.121   6.560   2.409  1.00  0.00    -0.354 N 
ATOM     21  C   UNL     1       6.575   4.142   5.962  1.00  0.00     0.074 A 
ATOM     22  C   UNL     1       5.843   2.899   5.849  1.00  0.00     0.031 C 
ATOM     23  C   UNL     1       5.364   7.062   0.363  1.00  0.00     0.029 A 
ATOM     24  C   UNL     1       6.166   7.565   1.471  1.00  0.00     0.049 A 
ATOM     25  H   UNL     1       6.579   6.612   3.279  1.00  0.00     0.167 HD
ATOM     26  C   UNL     1       7.279   4.519   7.056  1.00  0.00     0.034 A 
ATOM     27  C   UNL     1       6.780   8.763   1.497  1.00  0.00     0.034 A 
ATOM     28  C   UNL     1       8.045   5.734   7.141  1.00  0.00     0.049 A 
ATOM     29  C   UNL     1       7.588   9.134   2.707  1.00  0.00     0.074 A 
ATOM     30  C   UNL     1       8.851   6.173   8.178  1.00  0.00     0.029 A 
ATOM     31  N   UNL     1       8.098   6.709   6.156  1.00  0.00    -0.354 N 
ATOM     32  N   UNL     1       7.825   8.430   3.787  1.00  0.00    -0.248 NA
ATOM     33  C   UNL     1       8.235  10.452   2.691  1.00  0.00     0.031 C 
ATOM     34  C   UNL     1       9.368   7.426   7.830  1.00  0.00     0.029 A 
ATOM     35  C   UNL     1       8.913   7.752   6.563  1.00  0.00     0.049 A 
ATOM     36  H   UNL     1       7.625   6.666   5.294  1.00  0.00     0.167 HD
ATOM     37  C   UNL     1       8.679   9.202   4.564  1.00  0.00     0.074 A 
ATOM     38  C   UNL     1       8.932  10.420   3.819  1.00  0.00     0.031 C 
ATOM     39  C   UNL     1       9.197   8.933   5.787  1.00  0.00     0.034 A 
BRANCH  26  40
ATOM     40  C   UNL     1       7.271   3.597   8.250  1.00  0.00     0.023 A 
ATOM     41  C   UNL     1       7.973   2.376   8.204  1.00  0.00     0.012 A 
ATOM     42  C   UNL     1       6.606   3.965   9.437  1.00  0.00     0.148 A 
ATOM     43  C   UNL     1       7.982   1.519   9.305  1.00  0.00     0.002 A 
ATOM     44  C   UNL     1       6.658   3.127  10.545  1.00  0.00     0.091 A 
ATOM     45  F   UNL     1       5.923   5.118   9.457  1.00  0.00    -0.205 F 
ATOM     46  C   UNL     1       7.334   1.899  10.477  1.00  0.00     0.022 A 
BRANCH  44  47
ATOM     47  S   UNL     1       5.919   3.567  12.123  1.00  0.00     0.127 S 
ATOM     48  O   UNL     1       4.745   2.696  12.152  1.00  0.00    -0.237 OA
ATOM     49  O   UNL     1       6.972   3.203  13.071  1.00  0.00    -0.237 OA
ATOM     50  O   UNL     1       5.641   4.995  12.048  1.00  0.00    -0.744 OA
ENDBRANCH  44  47
ENDBRANCH  26  40
BRANCH  27  51
ATOM     51  C   UNL     1       6.700   9.665   0.314  1.00  0.00     0.023 A 
ATOM     52  C   UNL     1       7.854   9.897  -0.459  1.00  0.00     0.012 A 
ATOM     53  C   UNL     1       5.482  10.256  -0.074  1.00  0.00     0.148 A 
ATOM     54  C   UNL     1       7.803  10.723  -1.582  1.00  0.00     0.002 A 
ATOM     55  C   UNL     1       5.425  11.029  -1.228  1.00  0.00     0.091 A 
ATOM     56  F   UNL     1       4.398  10.032   0.681  1.00  0.00    -0.205 F 
ATOM     57  C   UNL     1       6.588  11.279  -1.973  1.00  0.00     0.022 A 
BRANCH  55  58
ATOM     58  S   UNL     1       3.879  11.667  -1.882  1.00  0.00     0.127 S 
ATOM     59  O   UNL     1       4.021  13.100  -1.640  1.00  0.00    -0.237 OA
ATOM     60  O   UNL     1       3.960  11.268  -3.288  1.00  0.00    -0.237 OA
ATOM     61  O   UNL     1       2.828  10.998  -1.129  1.00  0.00    -0.744 OA
ENDBRANCH  55  58
ENDBRANCH  27  51
BRANCH  39  62
ATOM     62  C   UNL     1      10.134   9.951   6.381  1.00  0.00     0.023 A 
ATOM     63  C   UNL     1       9.634  11.180   6.854  1.00  0.00     0.012 A 
ATOM     64  C   UNL     1      11.506   9.662   6.520  1.00  0.00     0.148 A 
ATOM     65  C   UNL     1      10.492  12.122   7.422  1.00  0.00     0.002 A 
ATOM     66  C   UNL     1      12.345  10.583   7.134  1.00  0.00     0.091 A 
ATOM     67  F   UNL     1      11.967   8.497   6.041  1.00  0.00    -0.205 F 
ATOM     68  C   UNL     1      11.844  11.819   7.572  1.00  0.00     0.022 A 
BRANCH  66  69
ATOM     69  S   UNL     1      14.076  10.231   7.457  1.00  0.00     0.127 S 
ATOM     70  O   UNL     1      14.741  11.031   6.431  1.00  0.00    -0.237 OA
ATOM     71  O   UNL     1      14.246  10.729   8.823  1.00  0.00    -0.237 OA
ATOM     72  O   UNL     1      14.222   8.788   7.322  1.00  0.00    -0.744 OA
ENDBRANCH  66  69
ENDBRANCH  39  62
ENDBRANCH  13  14
ENDBRANCH   6   8
ENDBRANCH   3   4
ENDBRANCH   2   3
ENDBRANCH   1   2
BRANCH   1  73
ATOM     73  N   UNL     1       4.651  -4.064  -2.003  1.00  0.00    -0.356 N 
ATOM     74  C   UNL     1       5.610  -5.011  -2.031  1.00  0.00     0.224 C 
ATOM     75  H   UNL     1       4.567  -3.607  -2.872  1.00  0.00     0.163 HD
ATOM     76  O   UNL     1       6.285  -4.996  -3.073  1.00  0.00    -0.275 OA
BRANCH  74  77
ATOM     77  C   UNL     1       5.950  -6.057  -0.945  1.00  0.00     0.096 C 
BRANCH  77  78
ATOM     78  C   UNL     1       6.194  -7.372  -1.733  1.00  0.00     0.015 CG0
ATOM     79  G   UNL     1       6.182  -8.689  -0.969  1.00  0.00     0.000 G0
ENDBRANCH  77  78
BRANCH  77  80
ATOM     80  C   UNL     1       5.027  -6.174   0.278  1.00  0.00     0.082 C 
BRANCH  80  81
ATOM     81  C   UNL     1       3.767  -7.011   0.013  1.00  0.00     0.021 C 
BRANCH  81  82
ATOM     82  C   UNL     1       3.899  -8.524   0.202  1.00  0.00     0.002 C 
BRANCH  82  83
ATOM     83  C   UNL     1       4.776  -9.253  -0.805  1.00  0.00     0.000 C 
BRANCH  83  84
ATOM     84  C   UNL     1       6.182  -8.689  -0.969  1.00  0.00     0.001 CG0
ATOM     85  G   UNL     1       6.194  -7.372  -1.733  1.00  0.00     0.000 G0
ENDBRANCH  83  84
ENDBRANCH  82  83
ENDBRANCH  81  82
ENDBRANCH  80  81
BRANCH  80  86
ATOM     86  N   UNL     1       5.762  -6.637   1.478  1.00  0.00    -0.207 NA
ATOM     87  H   UNL     1       6.670  -6.172   1.451  1.00  0.00     0.141 HD
BRANCH  86  88
ATOM     88  S   UNL     1       5.171  -6.419   3.042  1.00  0.00     0.243 S 
ATOM     89  O   UNL     1       3.896  -7.094   3.117  1.00  0.00    -0.207 OA
ATOM     90  O   UNL     1       6.249  -6.776   3.940  1.00  0.00    -0.207 OA
BRANCH  88  91
ATOM     91  C   UNL     1       4.856  -4.705   3.239  1.00  0.00     0.119 A 
ATOM     92  C   UNL     1       3.599  -4.281   3.690  1.00  0.00     0.026 A 
ATOM     93  C   UNL     1       5.820  -3.749   3.002  1.00  0.00     0.149 A 
ATOM     94  C   UNL     1       3.361  -2.923   3.887  1.00  0.00     0.022 A 
ATOM     95  N   UNL     1       5.597  -2.419   3.153  1.00  0.00    -0.243 NA
ATOM     96  Cl  UNL     1       7.405  -4.067   2.417  1.00  0.00    -0.061 Cl
ATOM     97  C   UNL     1       4.385  -2.035   3.611  1.00  0.00     0.113 A 
ENDBRANCH  88  91
ENDBRANCH  86  88
ENDBRANCH  80  86
ENDBRANCH  77  80
ENDBRANCH  74  77
ENDBRANCH   1  73
TORSDOF 16
