REMARK SMILES Cc1ccc(OC2(C(=O)NCCCNC(=O)c3ccc(-c4c5nc(c(-c6cccc(S(=O)(=O)[O-])c6F)c6ccc([nH]6)c(-c6cccc(S(=O)(=O)[O-])c6F)c6nc(c(-c7cccc(S(=O)(=O)[O-])c7F)c7ccc4[nH]7)C=C6)C=C5)cc3)CC[NH+](C[C@@H]3CC=CCC3)CC2)cn1
REMARK SMILES IDX 12 1 11 2 10 3 8 4 9 5 7 7 80 8 91 9 81 10 90 11 82 12 6 14
REMARK SMILES IDX 5 15 1 16 2 17 3 18 93 19 4 20 92 21 83 22 84 23 85 24 89 25
REMARK SMILES IDX 86 26 88 27 87 28 13 29 14 30 15 31 16 33 17 34 18 35 79 36
REMARK SMILES IDX 19 37 78 38 20 39 21 40 22 41 72 42 23 43 77 44 71 45 73 46
REMARK SMILES IDX 24 47 76 48 70 49 69 50 25 52 57 53 37 54 56 55 38 56 41 57
REMARK SMILES IDX 55 58 74 59 39 60 40 61 54 63 75 64 42 65 26 66 27 67 35 68
REMARK SMILES IDX 28 69 30 70 36 71 29 72 31 73 32 74 33 75 34 76 58 77 59 78
REMARK SMILES IDX 67 79 60 80 62 81 68 82 61 83 63 84 64 85 65 86 66 87 43 88
REMARK SMILES IDX 44 89 52 90 45 91 47 92 53 93 46 94 48 95 49 96 50 97 51 98
REMARK H PARENT 10 6 82 13 14 32 73 51 41 62
REMARK Flexibility Score: inf
ROOT
ATOM      1  C   UNL     1       0.640  -5.526  -7.339  1.00  0.00     0.042 C 
ENDROOT
BRANCH   1   2
ATOM      2  C   UNL     1       1.704  -6.294  -6.533  1.00  0.00     0.118 C 
BRANCH   2   3
ATOM      3  N   UNL     1       2.717  -5.496  -5.834  1.00  0.00    -0.353 N 
ATOM      4  C   UNL     1       2.856  -5.038  -4.545  1.00  0.00     0.264 C 
ATOM      5  O   UNL     1       4.008  -4.698  -4.239  1.00  0.00    -0.270 OA
ATOM      6  H   UNL     1       3.463  -5.228  -6.418  1.00  0.00     0.163 HD
BRANCH   4   7
ATOM      7  C   UNL     1       1.684  -4.917  -3.509  1.00  0.00     0.197 C 
ATOM      8  C   UNL     1       0.421  -4.527  -4.236  1.00  0.00     0.120 C 
ATOM      9  C   UNL     1       1.411  -6.279  -2.821  1.00  0.00     0.120 C 
ATOM     10  C   UNL     1      -0.830  -4.518  -3.407  1.00  0.00     0.267 C 
ATOM     11  C   UNL     1       0.079  -6.272  -2.024  1.00  0.00     0.267 C 
ATOM     12  N   UNL     1      -1.044  -5.850  -2.869  1.00  0.00    -0.334 N 
ATOM     13  H   UNL     1      -1.033  -6.518  -3.639  1.00  0.00     0.348 HD
BRANCH   7  14
ATOM     14  O   UNL     1       2.105  -4.066  -2.419  1.00  0.00    -0.475 OA
BRANCH  14  15
ATOM     15  C   UNL     1       2.050  -2.714  -2.323  1.00  0.00     0.139 A 
ATOM     16  C   UNL     1       1.941   1.366  -1.032  1.00  0.00     0.066 C 
ATOM     17  C   UNL     1       1.996  -0.049  -1.522  1.00  0.00     0.038 A 
ATOM     18  C   UNL     1       1.035  -0.521  -2.401  1.00  0.00     0.027 A 
ATOM     19  N   UNL     1       3.006  -0.831  -1.080  1.00  0.00    -0.258 NA
ATOM     20  C   UNL     1       1.075  -1.857  -2.807  1.00  0.00     0.050 A 
ATOM     21  C   UNL     1       3.000  -2.131  -1.485  1.00  0.00     0.157 A 
ENDBRANCH  14  15
ENDBRANCH   7  14
BRANCH  12  22
ATOM     22  C   UNL     1      -2.398  -6.044  -2.325  1.00  0.00     0.266 C 
BRANCH  22  23
ATOM     23  C   UNL     1      -3.170  -4.915  -1.570  1.00  0.00     0.048 C 
ATOM     24  C   UNL     1      -3.681  -3.749  -2.467  1.00  0.00     0.036 C 
ATOM     25  C   UNL     1      -2.432  -4.466  -0.297  1.00  0.00     0.014 C 
ATOM     26  C   UNL     1      -3.310  -2.365  -2.015  1.00  0.00    -0.031 C 
ATOM     27  C   UNL     1      -2.981  -3.172   0.293  1.00  0.00     0.027 C 
ATOM     28  C   UNL     1      -3.005  -2.091  -0.740  1.00  0.00    -0.031 C 
ENDBRANCH  22  23
ENDBRANCH  12  22
ENDBRANCH   4   7
ENDBRANCH   2   3
ENDBRANCH   1   2
BRANCH   1  29
ATOM     29  C   UNL     1       1.145  -4.721  -8.524  1.00  0.00     0.118 C 
BRANCH  29  30
ATOM     30  N   UNL     1       1.405  -5.562  -9.674  1.00  0.00    -0.352 N 
ATOM     31  C   UNL     1       0.624  -5.863 -10.764  1.00  0.00     0.251 C 
ATOM     32  H   UNL     1       2.291  -5.992  -9.674  1.00  0.00     0.163 HD
ATOM     33  O   UNL     1       0.944  -6.838 -11.445  1.00  0.00    -0.269 OA
BRANCH  31  34
ATOM     34  C   UNL     1      -0.573  -5.066 -11.150  1.00  0.00     0.039 A 
ATOM     35  C   UNL     1      -1.623  -5.728 -11.802  1.00  0.00     0.014 A 
ATOM     36  C   UNL     1      -0.640  -3.678 -11.005  1.00  0.00     0.014 A 
ATOM     37  C   UNL     1      -2.724  -5.012 -12.289  1.00  0.00     0.010 A 
ATOM     38  C   UNL     1      -1.778  -2.974 -11.418  1.00  0.00     0.010 A 
ATOM     39  C   UNL     1      -2.820  -3.626 -12.092  1.00  0.00    -0.014 A 
BRANCH  39  40
ATOM     40  C   UNL     1      -3.985  -2.852 -12.607  1.00  0.00     0.031 A 
ATOM     41  C   UNL     1      -3.799  -1.781 -13.653  1.00  0.00     0.074 A 
ATOM     42  C   UNL     1      -5.210  -3.063 -12.088  1.00  0.00     0.049 A 
ATOM     43  N   UNL     1      -4.692  -0.992 -14.196  1.00  0.00    -0.248 NA
ATOM     44  C   UNL     1      -2.427  -1.546 -14.132  1.00  0.00     0.031 C 
ATOM     45  C   UNL     1      -5.519  -4.008 -11.014  1.00  0.00     0.029 A 
ATOM     46  N   UNL     1      -6.420  -2.477 -12.374  1.00  0.00    -0.354 N 
ATOM     47  C   UNL     1      -3.989  -0.144 -15.046  1.00  0.00     0.074 A 
ATOM     48  C   UNL     1      -2.591  -0.494 -14.922  1.00  0.00     0.031 C 
ATOM     49  C   UNL     1      -6.829  -3.937 -10.731  1.00  0.00     0.029 A 
ATOM     50  C   UNL     1      -7.451  -2.930 -11.585  1.00  0.00     0.049 A 
ATOM     51  H   UNL     1      -6.537  -1.798 -13.078  1.00  0.00     0.167 HD
ATOM     52  C   UNL     1      -4.461   0.817 -15.877  1.00  0.00     0.034 A 
ATOM     53  C   UNL     1      -8.751  -2.575 -11.547  1.00  0.00     0.034 A 
ATOM     54  C   UNL     1      -5.856   1.130 -16.042  1.00  0.00     0.049 A 
ATOM     55  C   UNL     1      -9.266  -1.554 -12.524  1.00  0.00     0.074 A 
ATOM     56  C   UNL     1      -6.443   2.009 -16.937  1.00  0.00     0.029 A 
ATOM     57  N   UNL     1      -6.885   0.579 -15.293  1.00  0.00    -0.354 N 
ATOM     58  N   UNL     1      -8.609  -0.889 -13.442  1.00  0.00    -0.248 NA
ATOM     59  C   UNL     1     -10.707  -1.265 -12.488  1.00  0.00     0.031 C 
ATOM     60  C   UNL     1      -7.825   2.002 -16.716  1.00  0.00     0.029 A 
ATOM     61  C   UNL     1      -8.101   1.107 -15.695  1.00  0.00     0.049 A 
ATOM     62  H   UNL     1      -6.768  -0.089 -14.580  1.00  0.00     0.167 HD
ATOM     63  C   UNL     1      -9.557  -0.120 -14.109  1.00  0.00     0.074 A 
ATOM     64  C   UNL     1     -10.839  -0.424 -13.506  1.00  0.00     0.031 C 
ATOM     65  C   UNL     1      -9.378   0.769 -15.118  1.00  0.00     0.034 A 
BRANCH  52  66
ATOM     66  C   UNL     1      -3.458   1.563 -16.721  1.00  0.00     0.023 A 
ATOM     67  C   UNL     1      -2.821   0.900 -17.790  1.00  0.00     0.012 A 
ATOM     68  C   UNL     1      -3.172   2.923 -16.487  1.00  0.00     0.148 A 
ATOM     69  C   UNL     1      -1.885   1.562 -18.584  1.00  0.00     0.002 A 
ATOM     70  C   UNL     1      -2.269   3.589 -17.311  1.00  0.00     0.091 A 
ATOM     71  F   UNL     1      -3.768   3.536 -15.454  1.00  0.00    -0.205 F 
ATOM     72  C   UNL     1      -1.616   2.908 -18.350  1.00  0.00     0.022 A 
BRANCH  70  73
ATOM     73  S   UNL     1      -1.919   5.342 -17.132  1.00  0.00     0.127 S 
ATOM     74  O   UNL     1      -0.627   5.317 -16.448  1.00  0.00    -0.237 OA
ATOM     75  O   UNL     1      -1.862   5.794 -18.523  1.00  0.00    -0.237 OA
ATOM     76  O   UNL     1      -3.029   5.891 -16.366  1.00  0.00    -0.744 OA
ENDBRANCH  70  73
ENDBRANCH  52  66
BRANCH  53  77
ATOM     77  C   UNL     1      -9.665  -3.260 -10.590  1.00  0.00     0.023 A 
ATOM     78  C   UNL     1     -10.598  -4.196 -11.075  1.00  0.00     0.012 A 
ATOM     79  C   UNL     1      -9.562  -3.047  -9.201  1.00  0.00     0.148 A 
ATOM     80  C   UNL     1     -11.424  -4.897 -10.196  1.00  0.00     0.002 A 
ATOM     81  C   UNL     1     -10.348  -3.790  -8.328  1.00  0.00     0.091 A 
ATOM     82  F   UNL     1      -8.676  -2.143  -8.762  1.00  0.00    -0.205 F 
ATOM     83  C   UNL     1     -11.290  -4.705  -8.823  1.00  0.00     0.022 A 
BRANCH  81  84
ATOM     84  S   UNL     1     -10.139  -3.713  -6.544  1.00  0.00     0.127 S 
ATOM     85  O   UNL     1     -11.375  -3.050  -6.127  1.00  0.00    -0.237 OA
ATOM     86  O   UNL     1     -10.054  -5.133  -6.191  1.00  0.00    -0.237 OA
ATOM     87  O   UNL     1      -8.914  -2.966  -6.321  1.00  0.00    -0.744 OA
ENDBRANCH  81  84
ENDBRANCH  53  77
BRANCH  65  88
ATOM     88  C   UNL     1     -10.597   1.479 -15.646  1.00  0.00     0.023 A 
ATOM     89  C   UNL     1     -11.200   2.492 -14.874  1.00  0.00     0.012 A 
ATOM     90  C   UNL     1     -11.102   1.196 -16.930  1.00  0.00     0.148 A 
ATOM     91  C   UNL     1     -12.306   3.191 -15.359  1.00  0.00     0.002 A 
ATOM     92  C   UNL     1     -12.177   1.927 -17.425  1.00  0.00     0.091 A 
ATOM     93  F   UNL     1     -10.529   0.215 -17.642  1.00  0.00    -0.205 F 
ATOM     94  C   UNL     1     -12.786   2.917 -16.637  1.00  0.00     0.022 A 
BRANCH  92  95
ATOM     95  S   UNL     1     -12.803   1.702 -19.094  1.00  0.00     0.127 S 
ATOM     96  O   UNL     1     -14.031   0.947 -18.853  1.00  0.00    -0.237 OA
ATOM     97  O   UNL     1     -13.011   3.080 -19.540  1.00  0.00    -0.237 OA
ATOM     98  O   UNL     1     -11.758   0.989 -19.818  1.00  0.00    -0.744 OA
ENDBRANCH  92  95
ENDBRANCH  65  88
ENDBRANCH  39  40
ENDBRANCH  31  34
ENDBRANCH  29  30
ENDBRANCH   1  29
TORSDOF 17
