REMARK SMILES Cn1c(C(=O)N2CCC[C@@H](C(=O)NCCCNC(=O)c3ccc(-c4c5nc(c(-c6cccc(S(=O)(=O)[O-])c6F)c6ccc([nH]6)c(-c6cccc(S(=O)(=O)[O-])c6F)c6nc(c(-c7cccc(S(=O)(=O)[O-])c7F)c7ccc4[nH]7)C=C6)C=C5)cc3)C2)cc2sccc21
REMARK SMILES IDX 15 1 14 2 13 3 11 4 12 5 10 7 6 8 7 9 83 10 8 11 9 12 4 13
REMARK SMILES IDX 5 14 3 15 1 16 2 17 89 18 84 19 85 20 88 21 86 22 87 23
REMARK SMILES IDX 16 24 17 25 18 26 19 28 20 29 21 30 82 31 22 32 81 33 23 34
REMARK SMILES IDX 24 35 25 36 75 37 26 38 80 39 74 40 76 41 27 42 79 43 73 44
REMARK SMILES IDX 72 45 28 47 60 48 40 49 59 50 41 51 44 52 58 53 77 54 42 55
REMARK SMILES IDX 43 56 57 58 78 59 45 60 29 61 30 62 38 63 31 64 33 65 39 66
REMARK SMILES IDX 32 67 34 68 35 69 36 70 37 71 61 72 62 73 70 74 63 75 65 76
REMARK SMILES IDX 71 77 64 78 66 79 67 80 68 81 69 82 46 83 47 84 55 85 48 86
REMARK SMILES IDX 50 87 56 88 49 89 51 90 52 91 53 92 54 93
REMARK H PARENT 13 6 17 27 76 46 44 57
REMARK Flexibility Score: inf
ROOT
ATOM      1  C   UNL     1       8.177   7.110  -1.816  1.00  0.00     0.042 C 
ENDROOT
BRANCH   1   2
ATOM      2  C   UNL     1       8.030   6.342  -0.494  1.00  0.00     0.117 C 
BRANCH   2   3
ATOM      3  N   UNL     1       6.859   6.741   0.269  1.00  0.00    -0.356 N 
ATOM      4  C   UNL     1       5.618   6.185   0.368  1.00  0.00     0.224 C 
ATOM      5  O   UNL     1       4.857   6.670   1.207  1.00  0.00    -0.275 OA
ATOM      6  H   UNL     1       6.984   7.555   0.808  1.00  0.00     0.163 HD
BRANCH   4   7
ATOM      7  C   UNL     1       5.214   4.962  -0.459  1.00  0.00     0.098 C 
ATOM      8  N   UNL     1       3.209   3.604  -1.088  1.00  0.00    -0.337 N 
ATOM      9  C   UNL     1       3.442   3.772  -2.506  1.00  0.00     0.120 C 
ATOM     10  C   UNL     1       3.718   4.646  -0.190  1.00  0.00     0.133 C 
ATOM     11  C   UNL     1       4.915   3.966  -2.777  1.00  0.00     0.022 C 
ATOM     12  C   UNL     1       5.443   5.142  -1.967  1.00  0.00     0.017 C 
BRANCH   8  13
ATOM     13  C   UNL     1       2.702   2.396  -0.651  1.00  0.00     0.270 C 
ATOM     14  O   UNL     1       3.232   1.338  -1.004  1.00  0.00    -0.267 OA
BRANCH  13  15
ATOM     15  C   UNL     1       1.411   2.453   0.029  1.00  0.00     0.108 A 
ATOM     16  C   UNL     1       1.010  -0.052   0.183  1.00  0.00     0.150 C 
ATOM     17  N   UNL     1       0.660   1.337   0.361  1.00  0.00    -0.339 N 
ATOM     18  C   UNL     1      -0.591   1.742   0.777  1.00  0.00     0.059 A 
ATOM     19  C   UNL     1       0.648   3.574   0.346  1.00  0.00     0.053 A 
ATOM     20  C   UNL     1      -0.614   3.101   0.796  1.00  0.00     0.053 A 
ATOM     21  C   UNL     1      -1.826   1.147   1.159  1.00  0.00     0.038 A 
ATOM     22  S   UNL     1      -2.143   3.731   1.306  1.00  0.00    -0.142 S 
ATOM     23  C   UNL     1      -2.746   2.128   1.460  1.00  0.00     0.068 A 
ENDBRANCH  13  15
ENDBRANCH   8  13
ENDBRANCH   4   7
ENDBRANCH   2   3
ENDBRANCH   1   2
BRANCH   1  24
ATOM     24  C   UNL     1       8.703   8.522  -1.631  1.00  0.00     0.118 C 
BRANCH  24  25
ATOM     25  N   UNL     1      10.112   8.550  -1.241  1.00  0.00    -0.352 N 
ATOM     26  C   UNL     1      10.909   9.654  -1.009  1.00  0.00     0.251 C 
ATOM     27  H   UNL     1      10.546   7.674  -1.130  1.00  0.00     0.163 HD
ATOM     28  O   UNL     1      12.131   9.548  -1.036  1.00  0.00    -0.269 OA
BRANCH  26  29
ATOM     29  C   UNL     1      10.274  10.957  -0.738  1.00  0.00     0.039 A 
ATOM     30  C   UNL     1      10.812  12.139  -1.254  1.00  0.00     0.014 A 
ATOM     31  C   UNL     1       9.109  10.983   0.025  1.00  0.00     0.014 A 
ATOM     32  C   UNL     1      10.118  13.332  -1.063  1.00  0.00     0.010 A 
ATOM     33  C   UNL     1       8.349  12.124   0.075  1.00  0.00     0.010 A 
ATOM     34  C   UNL     1       8.870  13.312  -0.420  1.00  0.00    -0.014 A 
BRANCH  34  35
ATOM     35  C   UNL     1       8.017  14.498  -0.403  1.00  0.00     0.031 A 
ATOM     36  C   UNL     1       7.750  15.040  -1.761  1.00  0.00     0.074 A 
ATOM     37  C   UNL     1       7.353  14.920   0.698  1.00  0.00     0.049 A 
ATOM     38  N   UNL     1       8.238  16.116  -2.285  1.00  0.00    -0.248 NA
ATOM     39  C   UNL     1       7.021  14.194  -2.721  1.00  0.00     0.031 C 
ATOM     40  C   UNL     1       7.302  14.258   2.010  1.00  0.00     0.029 A 
ATOM     41  N   UNL     1       6.470  15.949   0.851  1.00  0.00    -0.354 N 
ATOM     42  C   UNL     1       7.619  16.225  -3.530  1.00  0.00     0.074 A 
ATOM     43  C   UNL     1       7.121  14.915  -3.841  1.00  0.00     0.031 C 
ATOM     44  C   UNL     1       6.260  14.740   2.723  1.00  0.00     0.029 A 
ATOM     45  C   UNL     1       5.691  15.863   2.005  1.00  0.00     0.049 A 
ATOM     46  H   UNL     1       6.390  16.687   0.204  1.00  0.00     0.167 HD
ATOM     47  C   UNL     1       7.263  17.449  -4.012  1.00  0.00     0.034 A 
ATOM     48  C   UNL     1       4.644  16.652   2.350  1.00  0.00     0.034 A 
ATOM     49  C   UNL     1       7.864  18.493  -3.218  1.00  0.00     0.049 A 
ATOM     50  C   UNL     1       4.777  17.907   1.587  1.00  0.00     0.074 A 
ATOM     51  C   UNL     1       9.124  19.007  -3.010  1.00  0.00     0.029 A 
ATOM     52  N   UNL     1       7.078  18.883  -2.166  1.00  0.00    -0.354 N 
ATOM     53  N   UNL     1       5.729  18.768   1.805  1.00  0.00    -0.248 NA
ATOM     54  C   UNL     1       4.045  18.078   0.340  1.00  0.00     0.031 C 
ATOM     55  C   UNL     1       9.109  19.556  -1.693  1.00  0.00     0.029 A 
ATOM     56  C   UNL     1       7.831  19.410  -1.156  1.00  0.00     0.049 A 
ATOM     57  H   UNL     1       6.097  18.796  -2.141  1.00  0.00     0.167 HD
ATOM     58  C   UNL     1       6.024  19.248   0.544  1.00  0.00     0.074 A 
ATOM     59  C   UNL     1       4.843  18.965  -0.261  1.00  0.00     0.031 C 
ATOM     60  C   UNL     1       7.315  19.507   0.192  1.00  0.00     0.034 A 
BRANCH  47  61
ATOM     61  C   UNL     1       6.013  17.762  -4.825  1.00  0.00     0.023 A 
ATOM     62  C   UNL     1       5.849  19.105  -5.244  1.00  0.00     0.012 A 
ATOM     63  C   UNL     1       4.876  16.928  -4.936  1.00  0.00     0.148 A 
ATOM     64  C   UNL     1       4.616  19.604  -5.680  1.00  0.00     0.002 A 
ATOM     65  C   UNL     1       3.669  17.409  -5.436  1.00  0.00     0.091 A 
ATOM     66  F   UNL     1       4.898  15.690  -4.443  1.00  0.00    -0.205 F 
ATOM     67  C   UNL     1       3.523  18.754  -5.779  1.00  0.00     0.022 A 
BRANCH  65  68
ATOM     68  S   UNL     1       2.228  16.345  -5.612  1.00  0.00     0.127 S 
ATOM     69  O   UNL     1       1.351  16.867  -4.569  1.00  0.00    -0.237 OA
ATOM     70  O   UNL     1       1.810  16.639  -6.983  1.00  0.00    -0.237 OA
ATOM     71  O   UNL     1       2.715  14.985  -5.415  1.00  0.00    -0.744 OA
ENDBRANCH  65  68
ENDBRANCH  47  61
BRANCH  48  72
ATOM     72  C   UNL     1       3.463  16.419   3.209  1.00  0.00     0.023 A 
ATOM     73  C   UNL     1       2.811  17.519   3.805  1.00  0.00     0.012 A 
ATOM     74  C   UNL     1       2.794  15.180   3.176  1.00  0.00     0.148 A 
ATOM     75  C   UNL     1       1.506  17.406   4.293  1.00  0.00     0.002 A 
ATOM     76  C   UNL     1       1.490  15.075   3.654  1.00  0.00     0.091 A 
ATOM     77  F   UNL     1       3.403  14.139   2.591  1.00  0.00    -0.205 F 
ATOM     78  C   UNL     1       0.838  16.189   4.199  1.00  0.00     0.022 A 
BRANCH  76  79
ATOM     79  S   UNL     1       0.531  13.560   3.514  1.00  0.00     0.127 S 
ATOM     80  O   UNL     1       0.056  13.378   4.886  1.00  0.00    -0.237 OA
ATOM     81  O   UNL     1      -0.500  13.947   2.555  1.00  0.00    -0.237 OA
ATOM     82  O   UNL     1       1.466  12.541   3.058  1.00  0.00    -0.744 OA
ENDBRANCH  76  79
ENDBRANCH  48  72
BRANCH  60  83
ATOM     83  C   UNL     1       8.293  19.742   1.306  1.00  0.00     0.023 A 
ATOM     84  C   UNL     1       8.669  18.746   2.230  1.00  0.00     0.012 A 
ATOM     85  C   UNL     1       8.898  21.006   1.379  1.00  0.00     0.148 A 
ATOM     86  C   UNL     1       9.609  19.020   3.228  1.00  0.00     0.002 A 
ATOM     87  C   UNL     1       9.865  21.260   2.341  1.00  0.00     0.091 A 
ATOM     88  F   UNL     1       8.518  21.943   0.498  1.00  0.00    -0.205 F 
ATOM     89  C   UNL     1      10.215  20.275   3.276  1.00  0.00     0.022 A 
BRANCH  87  90
ATOM     90  S   UNL     1      10.747  22.819   2.372  1.00  0.00     0.127 S 
ATOM     91  O   UNL     1      10.084  23.525   3.465  1.00  0.00    -0.237 OA
ATOM     92  O   UNL     1      12.120  22.398   2.657  1.00  0.00    -0.237 OA
ATOM     93  O   UNL     1      10.571  23.400   1.046  1.00  0.00    -0.744 OA
ENDBRANCH  87  90
ENDBRANCH  60  83
ENDBRANCH  34  35
ENDBRANCH  26  29
ENDBRANCH  24  25
ENDBRANCH   1  24
TORSDOF 15
