REMARK SMILES CC(C)(C)CN1C(=O)CC[C@@H](C(=O)NCCCNC(=O)c2ccc(-c3c4nc(c(-c5cccc(S(=O)(=O)[O-])c5F)c5ccc([nH]5)c(-c5cccc(S(=O)(=O)[O-])c5F)c5nc(c(-c6cccc(S(=O)(=O)[O-])c6F)c6ccc3[nH]6)C=C5)C=C4)cc2)[C@H]1c1cccc2c1OCO2
REMARK SMILES IDX 16 1 15 2 14 3 12 4 13 5 11 7 6 8 7 9 84 10 8 11 9 12 10 13
REMARK SMILES IDX 5 14 2 15 1 16 3 17 4 18 85 19 86 20 90 21 87 22 89 23 91 24
REMARK SMILES IDX 88 25 93 26 92 27 17 28 18 29 19 30 20 32 21 33 22 34 83 35
REMARK SMILES IDX 23 36 82 37 24 38 25 39 26 40 76 41 27 42 81 43 75 44 77 45
REMARK SMILES IDX 28 46 80 47 74 48 73 49 29 51 61 52 41 53 60 54 42 55 45 56
REMARK SMILES IDX 59 57 78 58 43 59 44 60 58 62 79 63 46 64 30 65 31 66 39 67
REMARK SMILES IDX 32 68 34 69 40 70 33 71 35 72 36 73 37 74 38 75 62 76 63 77
REMARK SMILES IDX 71 78 64 79 66 80 72 81 65 82 67 83 68 84 69 85 70 86 47 87
REMARK SMILES IDX 48 88 56 89 49 90 51 91 57 92 50 93 52 94 53 95 54 96 55 97
REMARK H PARENT 14 6 18 31 77 50 45 61
REMARK Flexibility Score: inf
ROOT
ATOM      1  C   UNL     1      -4.193   0.199   2.109  1.00  0.00     0.042 C 
ENDROOT
BRANCH   1   2
ATOM      2  C   UNL     1      -3.190   1.253   2.601  1.00  0.00     0.117 C 
BRANCH   2   3
ATOM      3  N   UNL     1      -3.104   2.457   1.797  1.00  0.00    -0.356 N 
ATOM      4  C   UNL     1      -2.049   3.225   1.423  1.00  0.00     0.225 C 
ATOM      5  O   UNL     1      -2.333   4.259   0.815  1.00  0.00    -0.275 OA
ATOM      6  H   UNL     1      -3.973   2.777   1.460  1.00  0.00     0.163 HD
BRANCH   4   7
ATOM      7  C   UNL     1      -0.606   2.829   1.749  1.00  0.00     0.106 C 
ATOM      8  N   UNL     1       0.725   2.787  -0.485  1.00  0.00    -0.334 N 
ATOM      9  C   UNL     1       0.961   4.170  -0.358  1.00  0.00     0.223 C 
ATOM     10  C   UNL     1       0.138   2.006   0.657  1.00  0.00     0.132 C 
ATOM     11  O   UNL     1       1.571   4.817  -1.218  1.00  0.00    -0.275 OA
ATOM     12  C   UNL     1       0.473   4.919   0.858  1.00  0.00     0.101 C 
ATOM     13  C   UNL     1       0.214   4.071   2.083  1.00  0.00     0.026 C 
BRANCH   8  14
ATOM     14  C   UNL     1       1.595   2.202  -1.556  1.00  0.00     0.126 C 
BRANCH  14  15
ATOM     15  C   UNL     1       1.586   0.754  -2.144  1.00  0.00    -0.021 C 
ATOM     16  C   UNL     1       2.028  -0.296  -1.109  1.00  0.00     0.012 C 
ATOM     17  C   UNL     1       2.661   0.692  -3.268  1.00  0.00     0.012 C 
ATOM     18  C   UNL     1       0.276   0.418  -2.878  1.00  0.00     0.012 C 
ENDBRANCH  14  15
ENDBRANCH   8  14
BRANCH  10  19
ATOM     19  C   UNL     1      -0.718   0.832   0.244  1.00  0.00     0.021 A 
ATOM     20  C   UNL     1      -1.731   0.974  -0.712  1.00  0.00     0.010 A 
ATOM     21  C   UNL     1      -0.561  -0.434   0.796  1.00  0.00     0.171 A 
ATOM     22  C   UNL     1      -2.428  -0.146  -1.190  1.00  0.00     0.004 A 
ATOM     23  C   UNL     1      -1.274  -1.524   0.348  1.00  0.00     0.166 A 
ATOM     24  O   UNL     1       0.306  -0.775   1.793  1.00  0.00    -0.453 OA
ATOM     25  C   UNL     1      -2.204  -1.415  -0.658  1.00  0.00     0.050 A 
ATOM     26  O   UNL     1      -0.936  -2.674   0.986  1.00  0.00    -0.454 OA
ATOM     27  C   UNL     1       0.101  -2.204   1.865  1.00  0.00     0.468 C 
ENDBRANCH  10  19
ENDBRANCH   4   7
ENDBRANCH   2   3
ENDBRANCH   1   2
BRANCH   1  28
ATOM     28  C   UNL     1      -5.382   0.688   1.284  1.00  0.00     0.118 C 
BRANCH  28  29
ATOM     29  N   UNL     1      -5.291   0.373  -0.145  1.00  0.00    -0.352 N 
ATOM     30  C   UNL     1      -5.745  -0.702  -0.885  1.00  0.00     0.251 C 
ATOM     31  H   UNL     1      -4.818   1.054  -0.677  1.00  0.00     0.163 HD
ATOM     32  O   UNL     1      -5.398  -0.848  -2.055  1.00  0.00    -0.269 OA
BRANCH  30  33
ATOM     33  C   UNL     1      -6.664  -1.687  -0.290  1.00  0.00     0.039 A 
ATOM     34  C   UNL     1      -6.584  -3.045  -0.620  1.00  0.00     0.014 A 
ATOM     35  C   UNL     1      -7.665  -1.238   0.560  1.00  0.00     0.014 A 
ATOM     36  C   UNL     1      -7.490  -3.946  -0.051  1.00  0.00     0.010 A 
ATOM     37  C   UNL     1      -8.434  -2.144   1.258  1.00  0.00     0.010 A 
ATOM     38  C   UNL     1      -8.409  -3.499   0.911  1.00  0.00    -0.014 A 
BRANCH  38  39
ATOM     39  C   UNL     1      -9.435  -4.370   1.532  1.00  0.00     0.031 A 
ATOM     40  C   UNL     1     -10.888  -3.965   1.438  1.00  0.00     0.074 A 
ATOM     41  C   UNL     1      -9.057  -5.402   2.307  1.00  0.00     0.049 A 
ATOM     42  N   UNL     1     -11.923  -4.441   2.076  1.00  0.00    -0.248 NA
ATOM     43  C   UNL     1     -11.205  -2.813   0.571  1.00  0.00     0.031 C 
ATOM     44  C   UNL     1      -7.675  -5.811   2.562  1.00  0.00     0.029 A 
ATOM     45  N   UNL     1      -9.806  -6.265   3.063  1.00  0.00    -0.354 N 
ATOM     46  C   UNL     1     -12.982  -3.598   1.757  1.00  0.00     0.074 A 
ATOM     47  C   UNL     1     -12.453  -2.547   0.920  1.00  0.00     0.031 C 
ATOM     48  C   UNL     1      -7.675  -6.851   3.411  1.00  0.00     0.029 A 
ATOM     49  C   UNL     1      -9.051  -7.157   3.785  1.00  0.00     0.049 A 
ATOM     50  H   UNL     1     -10.790  -6.248   3.085  1.00  0.00     0.167 HD
ATOM     51  C   UNL     1     -14.288  -3.708   2.097  1.00  0.00     0.034 A 
ATOM     52  C   UNL     1      -9.431  -8.111   4.657  1.00  0.00     0.034 A 
ATOM     53  C   UNL     1     -14.809  -4.815   2.849  1.00  0.00     0.049 A 
ATOM     54  C   UNL     1     -10.900  -8.310   4.904  1.00  0.00     0.074 A 
ATOM     55  C   UNL     1     -16.125  -5.123   3.135  1.00  0.00     0.029 A 
ATOM     56  N   UNL     1     -14.028  -5.806   3.426  1.00  0.00    -0.354 N 
ATOM     57  N   UNL     1     -11.913  -7.601   4.465  1.00  0.00    -0.248 NA
ATOM     58  C   UNL     1     -11.284  -9.467   5.721  1.00  0.00     0.031 C 
ATOM     59  C   UNL     1     -16.138  -6.289   3.909  1.00  0.00     0.029 A 
ATOM     60  C   UNL     1     -14.832  -6.727   4.071  1.00  0.00     0.049 A 
ATOM     61  H   UNL     1     -13.046  -5.847   3.384  1.00  0.00     0.167 HD
ATOM     62  C   UNL     1     -13.057  -8.246   4.920  1.00  0.00     0.074 A 
ATOM     63  C   UNL     1     -12.607  -9.414   5.653  1.00  0.00     0.031 C 
ATOM     64  C   UNL     1     -14.359  -7.903   4.756  1.00  0.00     0.034 A 
BRANCH  51  65
ATOM     65  C   UNL     1     -15.235  -2.637   1.612  1.00  0.00     0.023 A 
ATOM     66  C   UNL     1     -15.486  -2.485   0.231  1.00  0.00     0.012 A 
ATOM     67  C   UNL     1     -15.889  -1.785   2.523  1.00  0.00     0.148 A 
ATOM     68  C   UNL     1     -16.316  -1.467  -0.238  1.00  0.00     0.002 A 
ATOM     69  C   UNL     1     -16.762  -0.810   2.052  1.00  0.00     0.091 A 
ATOM     70  F   UNL     1     -15.629  -1.923   3.830  1.00  0.00    -0.205 F 
ATOM     71  C   UNL     1     -16.961  -0.636   0.672  1.00  0.00     0.022 A 
BRANCH  69  72
ATOM     72  S   UNL     1     -17.713   0.249   3.148  1.00  0.00     0.127 S 
ATOM     73  O   UNL     1     -17.041   1.536   2.972  1.00  0.00    -0.237 OA
ATOM     74  O   UNL     1     -19.052   0.175   2.562  1.00  0.00    -0.237 OA
ATOM     75  O   UNL     1     -17.599  -0.342   4.474  1.00  0.00    -0.744 OA
ENDBRANCH  69  72
ENDBRANCH  51  65
BRANCH  52  76
ATOM     76  C   UNL     1      -8.403  -8.998   5.266  1.00  0.00     0.023 A 
ATOM     77  C   UNL     1      -8.288 -10.329   4.819  1.00  0.00     0.012 A 
ATOM     78  C   UNL     1      -7.487  -8.512   6.218  1.00  0.00     0.148 A 
ATOM     79  C   UNL     1      -7.297 -11.168   5.328  1.00  0.00     0.002 A 
ATOM     80  C   UNL     1      -6.467  -9.335   6.680  1.00  0.00     0.091 A 
ATOM     81  F   UNL     1      -7.613  -7.242   6.628  1.00  0.00    -0.205 F 
ATOM     82  C   UNL     1      -6.380 -10.669   6.249  1.00  0.00     0.022 A 
BRANCH  80  83
ATOM     83  S   UNL     1      -5.155  -8.742   7.755  1.00  0.00     0.127 S 
ATOM     84  O   UNL     1      -5.422  -9.475   8.988  1.00  0.00    -0.237 OA
ATOM     85  O   UNL     1      -3.958  -9.166   7.030  1.00  0.00    -0.237 OA
ATOM     86  O   UNL     1      -5.330  -7.296   7.831  1.00  0.00    -0.744 OA
ENDBRANCH  80  83
ENDBRANCH  52  76
BRANCH  64  87
ATOM     87  C   UNL     1     -15.395  -8.826   5.338  1.00  0.00     0.023 A 
ATOM     88  C   UNL     1     -15.572  -8.901   6.734  1.00  0.00     0.012 A 
ATOM     89  C   UNL     1     -16.235  -9.574   4.491  1.00  0.00     0.148 A 
ATOM     90  C   UNL     1     -16.541  -9.742   7.278  1.00  0.00     0.002 A 
ATOM     91  C   UNL     1     -17.236 -10.365   5.039  1.00  0.00     0.091 A 
ATOM     92  F   UNL     1     -16.038  -9.503   3.166  1.00  0.00    -0.205 F 
ATOM     93  C   UNL     1     -17.380 -10.463   6.432  1.00  0.00     0.022 A 
BRANCH  91  94
ATOM     94  S   UNL     1     -18.425 -11.241   4.018  1.00  0.00     0.127 S 
ATOM     95  O   UNL     1     -17.940 -12.617   4.109  1.00  0.00    -0.237 OA
ATOM     96  O   UNL     1     -19.684 -10.990   4.721  1.00  0.00    -0.237 OA
ATOM     97  O   UNL     1     -18.343 -10.631   2.698  1.00  0.00    -0.744 OA
ENDBRANCH  91  94
ENDBRANCH  64  87
ENDBRANCH  38  39
ENDBRANCH  30  33
ENDBRANCH  28  29
ENDBRANCH   1  28
TORSDOF 16
