REMARK SMILES COc1ccc2[nH]cc([C@H](C(=O)NCCCNC(=O)c3ccc(-c4c5nc(c(-c6cccc(S(=O)(=O)[O-])c6F)c6ccc([nH]6)c(-c6cccc(S(=O)(=O)[O-])c6F)c6nc(c(-c7cccc(S(=O)(=O)[O-])c7F)c7ccc4[nH]7)C=C6)C=C5)cc3)[NH+]3CC[NH+](Cc4cccc5ccccc45)CC3)c2c1
REMARK SMILES IDX 15 1 14 2 13 3 11 4 12 5 10 7 9 8 3 9 4 10 101 11 5 12
REMARK SMILES IDX 100 13 6 14 7 15 8 16 2 18 1 19 83 20 84 21 99 22 85 24
REMARK SMILES IDX 98 25 86 26 87 28 88 29 89 30 97 31 90 32 92 33 96 34 91 35
REMARK SMILES IDX 93 36 95 37 94 38 16 39 17 40 18 41 19 43 20 44 21 45 82 46
REMARK SMILES IDX 22 47 81 48 23 49 24 50 25 51 75 52 26 53 80 54 74 55 76 56
REMARK SMILES IDX 27 57 79 58 73 59 72 60 28 62 60 63 40 64 59 65 41 66 44 67
REMARK SMILES IDX 58 68 77 69 42 70 43 71 57 73 78 74 45 75 29 76 30 77 38 78
REMARK SMILES IDX 31 79 33 80 39 81 32 82 34 83 35 84 36 85 37 86 61 87 62 88
REMARK SMILES IDX 70 89 63 90 65 91 71 92 64 93 66 94 67 95 68 96 69 97 46 98
REMARK SMILES IDX 47 99 55 100 48 101 50 102 56 103 49 104 51 105 52 106
REMARK SMILES IDX 53 107 54 108
REMARK H PARENT 13 6 7 17 83 23 86 27 17 42 76 61 44 72
REMARK Flexibility Score: inf
ROOT
ATOM      1  C   UNL     1       0.981   6.027   3.682  1.00  0.00     0.042 C 
ENDROOT
BRANCH   1   2
ATOM      2  C   UNL     1       0.290   6.512   2.395  1.00  0.00     0.118 C 
BRANCH   2   3
ATOM      3  N   UNL     1       0.041   5.372   1.526  1.00  0.00    -0.351 N 
ATOM      4  C   UNL     1      -1.055   4.850   0.918  1.00  0.00     0.283 C 
ATOM      5  O   UNL     1      -0.881   3.697   0.485  1.00  0.00    -0.268 OA
ATOM      6  H   UNL     1       0.859   4.859   1.334  1.00  0.00     0.163 HD
BRANCH   4   7
ATOM      7  C   UNL     1      -2.356   5.589   0.562  1.00  0.00     0.308 C 
BRANCH   7   8
ATOM      8  C   UNL     1      -3.410   5.984   1.582  1.00  0.00     0.045 A 
ATOM      9  C   UNL     1      -2.665   6.460   5.311  1.00  0.00     0.119 A 
ATOM     10  C   UNL     1      -3.772   7.254   5.578  1.00  0.00     0.048 A 
ATOM     11  C   UNL     1      -2.481   5.874   4.050  1.00  0.00     0.057 A 
ATOM     12  C   UNL     1      -4.770   7.416   4.622  1.00  0.00     0.030 A 
ATOM     13  C   UNL     1      -3.389   6.158   3.010  1.00  0.00     0.013 A 
ATOM     14  C   UNL     1      -4.551   6.857   3.358  1.00  0.00     0.046 A 
ATOM     15  N   UNL     1      -5.365   6.864   2.256  1.00  0.00    -0.361 N 
ATOM     16  C   UNL     1      -4.695   6.354   1.187  1.00  0.00     0.094 A 
ATOM     17  H   UNL     1      -6.295   7.188   2.240  1.00  0.00     0.166 HD
BRANCH   9  18
ATOM     18  O   UNL     1      -1.725   6.381   6.302  1.00  0.00    -0.497 OA
ATOM     19  C   UNL     1      -1.425   5.040   6.681  1.00  0.00     0.278 C 
ENDBRANCH   9  18
ENDBRANCH   7   8
BRANCH   7  20
ATOM     20  N   UNL     1      -2.101   6.700  -0.362  1.00  0.00    -0.312 N 
ATOM     21  C   UNL     1      -1.827   8.033   0.123  1.00  0.00     0.325 C 
ATOM     22  C   UNL     1      -1.755   6.419  -1.744  1.00  0.00     0.325 C 
ATOM     23  H   UNL     1      -3.113   6.811  -0.420  1.00  0.00     0.349 HD
ATOM     24  C   UNL     1      -0.514   8.656  -0.397  1.00  0.00     0.324 C 
ATOM     25  C   UNL     1      -0.415   7.048  -2.202  1.00  0.00     0.324 C 
ATOM     26  N   UNL     1      -0.164   8.439  -1.801  1.00  0.00    -0.322 N 
ATOM     27  H   UNL     1       0.847   8.553  -1.877  1.00  0.00     0.348 HD
BRANCH  26  28
ATOM     28  C   UNL     1      -0.564   9.498  -2.734  1.00  0.00     0.300 C 
BRANCH  28  29
ATOM     29  C   UNL     1      -1.994   9.480  -3.240  1.00  0.00     0.014 A 
ATOM     30  C   UNL     1      -2.239   8.804  -4.451  1.00  0.00     0.010 A 
ATOM     31  C   UNL     1      -3.086  10.015  -2.502  1.00  0.00    -0.010 A 
ATOM     32  C   UNL     1      -3.535   8.555  -4.880  1.00  0.00     0.001 A 
ATOM     33  C   UNL     1      -4.400   9.663  -2.896  1.00  0.00    -0.018 A 
ATOM     34  C   UNL     1      -2.950  10.853  -1.368  1.00  0.00     0.009 A 
ATOM     35  C   UNL     1      -4.607   8.944  -4.083  1.00  0.00     0.009 A 
ATOM     36  C   UNL     1      -5.492  10.012  -2.084  1.00  0.00     0.009 A 
ATOM     37  C   UNL     1      -4.047  11.204  -0.577  1.00  0.00     0.001 A 
ATOM     38  C   UNL     1      -5.314  10.754  -0.918  1.00  0.00     0.001 A 
ENDBRANCH  28  29
ENDBRANCH  26  28
ENDBRANCH   7  20
ENDBRANCH   4   7
ENDBRANCH   2   3
ENDBRANCH   1   2
BRANCH   1  39
ATOM     39  C   UNL     1       2.319   6.706   3.934  1.00  0.00     0.118 C 
BRANCH  39  40
ATOM     40  N   UNL     1       2.177   7.989   4.595  1.00  0.00    -0.352 N 
ATOM     41  C   UNL     1       1.901   8.378   5.884  1.00  0.00     0.251 C 
ATOM     42  H   UNL     1       2.307   8.750   3.985  1.00  0.00     0.163 HD
ATOM     43  O   UNL     1       1.792   9.595   6.062  1.00  0.00    -0.269 OA
BRANCH  41  44
ATOM     44  C   UNL     1       1.723   7.462   7.056  1.00  0.00     0.039 A 
ATOM     45  C   UNL     1       1.116   8.007   8.203  1.00  0.00     0.014 A 
ATOM     46  C   UNL     1       2.171   6.145   7.133  1.00  0.00     0.014 A 
ATOM     47  C   UNL     1       0.982   7.266   9.389  1.00  0.00     0.010 A 
ATOM     48  C   UNL     1       1.972   5.380   8.292  1.00  0.00     0.010 A 
ATOM     49  C   UNL     1       1.406   5.934   9.448  1.00  0.00    -0.014 A 
BRANCH  49  50
ATOM     50  C   UNL     1       1.322   5.116  10.696  1.00  0.00     0.031 A 
ATOM     51  C   UNL     1       2.576   4.506  11.283  1.00  0.00     0.074 A 
ATOM     52  C   UNL     1       0.131   4.829  11.259  1.00  0.00     0.049 A 
ATOM     53  N   UNL     1       2.703   3.630  12.249  1.00  0.00    -0.248 NA
ATOM     54  C   UNL     1       3.855   4.908  10.675  1.00  0.00     0.031 C 
ATOM     55  C   UNL     1      -1.170   5.307  10.791  1.00  0.00     0.029 A 
ATOM     56  N   UNL     1      -0.180   4.032  12.336  1.00  0.00    -0.354 N 
ATOM     57  C   UNL     1       4.059   3.326  12.314  1.00  0.00     0.074 A 
ATOM     58  C   UNL     1       4.709   4.088  11.270  1.00  0.00     0.031 C 
ATOM     59  C   UNL     1      -2.137   4.788  11.565  1.00  0.00     0.029 A 
ATOM     60  C   UNL     1      -1.532   3.925  12.574  1.00  0.00     0.049 A 
ATOM     61  H   UNL     1       0.500   3.581  12.886  1.00  0.00     0.167 HD
ATOM     62  C   UNL     1       4.717   2.518  13.182  1.00  0.00     0.034 A 
ATOM     63  C   UNL     1      -2.210   3.213  13.497  1.00  0.00     0.034 A 
ATOM     64  C   UNL     1       4.094   1.841  14.288  1.00  0.00     0.049 A 
ATOM     65  C   UNL     1      -1.452   2.383  14.499  1.00  0.00     0.074 A 
ATOM     66  C   UNL     1       4.691   1.085  15.282  1.00  0.00     0.029 A 
ATOM     67  N   UNL     1       2.736   1.856  14.560  1.00  0.00    -0.354 N 
ATOM     68  N   UNL     1      -0.159   2.210  14.619  1.00  0.00    -0.248 NA
ATOM     69  C   UNL     1      -2.248   1.683  15.520  1.00  0.00     0.031 C 
ATOM     70  C   UNL     1       3.692   0.644  16.157  1.00  0.00     0.029 A 
ATOM     71  C   UNL     1       2.475   1.132  15.711  1.00  0.00     0.049 A 
ATOM     72  H   UNL     1       2.056   2.314  14.015  1.00  0.00     0.167 HD
ATOM     73  C   UNL     1       0.017   1.419  15.750  1.00  0.00     0.074 A 
ATOM     74  C   UNL     1      -1.302   1.160  16.289  1.00  0.00     0.031 C 
ATOM     75  C   UNL     1       1.167   0.940  16.284  1.00  0.00     0.034 A 
BRANCH  62  76
ATOM     76  C   UNL     1       6.210   2.382  13.012  1.00  0.00     0.023 A 
ATOM     77  C   UNL     1       7.046   3.474  13.325  1.00  0.00     0.012 A 
ATOM     78  C   UNL     1       6.790   1.175  12.574  1.00  0.00     0.148 A 
ATOM     79  C   UNL     1       8.427   3.386  13.155  1.00  0.00     0.002 A 
ATOM     80  C   UNL     1       8.173   1.080  12.452  1.00  0.00     0.091 A 
ATOM     81  F   UNL     1       5.984   0.149  12.264  1.00  0.00    -0.205 F 
ATOM     82  C   UNL     1       8.991   2.188  12.727  1.00  0.00     0.022 A 
BRANCH  80  83
ATOM     83  S   UNL     1       8.997  -0.448  11.986  1.00  0.00     0.127 S 
ATOM     84  O   UNL     1       9.315  -0.198  10.583  1.00  0.00    -0.237 OA
ATOM     85  O   UNL     1      10.154  -0.466  12.881  1.00  0.00    -0.237 OA
ATOM     86  O   UNL     1       8.028  -1.510  12.235  1.00  0.00    -0.744 OA
ENDBRANCH  80  83
ENDBRANCH  62  76
BRANCH  63  87
ATOM     87  C   UNL     1      -3.694   3.334  13.582  1.00  0.00     0.023 A 
ATOM     88  C   UNL     1      -4.256   4.051  14.657  1.00  0.00     0.012 A 
ATOM     89  C   UNL     1      -4.544   2.776  12.609  1.00  0.00     0.148 A 
ATOM     90  C   UNL     1      -5.639   4.186  14.779  1.00  0.00     0.002 A 
ATOM     91  C   UNL     1      -5.920   2.954  12.710  1.00  0.00     0.091 A 
ATOM     92  F   UNL     1      -3.990   2.091  11.599  1.00  0.00    -0.205 F 
ATOM     93  C   UNL     1      -6.470   3.645  13.802  1.00  0.00     0.022 A 
BRANCH  91  94
ATOM     94  S   UNL     1      -7.069   2.395  11.447  1.00  0.00     0.127 S 
ATOM     95  O   UNL     1      -7.765   1.314  12.131  1.00  0.00    -0.237 OA
ATOM     96  O   UNL     1      -7.867   3.597  11.212  1.00  0.00    -0.237 OA
ATOM     97  O   UNL     1      -6.238   1.996  10.313  1.00  0.00    -0.744 OA
ENDBRANCH  91  94
ENDBRANCH  63  87
BRANCH  75  98
ATOM     98  C   UNL     1       1.072   0.120  17.544  1.00  0.00     0.023 A 
ATOM     99  C   UNL     1       0.591  -1.203  17.482  1.00  0.00     0.012 A 
ATOM    100  C   UNL     1       1.538   0.630  18.773  1.00  0.00     0.148 A 
ATOM    101  C   UNL     1       0.552  -1.997  18.628  1.00  0.00     0.002 A 
ATOM    102  C   UNL     1       1.537  -0.183  19.901  1.00  0.00     0.091 A 
ATOM    103  F   UNL     1       1.970   1.898  18.817  1.00  0.00    -0.205 F 
ATOM    104  C   UNL     1       1.036  -1.493  19.833  1.00  0.00     0.022 A 
BRANCH 102 105
ATOM    105  S   UNL     1       2.229   0.355  21.470  1.00  0.00     0.127 S 
ATOM    106  O   UNL     1       1.024   0.638  22.247  1.00  0.00    -0.237 OA
ATOM    107  O   UNL     1       2.972  -0.827  21.907  1.00  0.00    -0.237 OA
ATOM    108  O   UNL     1       3.064   1.509  21.162  1.00  0.00    -0.744 OA
ENDBRANCH 102 105
ENDBRANCH  75  98
ENDBRANCH  49  50
ENDBRANCH  41  44
ENDBRANCH  39  40
ENDBRANCH   1  39
TORSDOF 18
