REMARK SMILES COc1cccc(C(=O)Nc2ccc(NC(=O)[C@@H]3[C@@H](C(=O)NCCCNC(=O)c4ccc(-c5c6nc(c(-c7cccc(S(=O)(=O)[O-])c7F)c7ccc([nH]7)c(-c7cccc(S(=O)(=O)[O-])c7F)c7nc(c(-c8cccc(S(=O)(=O)[O-])c8F)c8ccc5[nH]8)C=C7)C=C6)cc4)[C@@H]4C=C[C@H]3C4)cc2)c1
REMARK SMILES IDX 23 1 22 2 20 3 21 4 19 6 18 7 95 8 92 9 94 10 96 11 93 12
REMARK SMILES IDX 16 13 15 14 17 16 14 17 11 18 12 19 98 20 13 21 97 22 10 23
REMARK SMILES IDX 8 24 9 25 7 27 3 28 4 29 99 30 5 31 6 32 2 33 1 34 24 35
REMARK SMILES IDX 25 36 26 37 27 38 28 40 29 41 30 42 91 43 31 44 90 45 32 46
REMARK SMILES IDX 33 47 34 48 84 49 35 50 89 51 83 52 85 53 36 54 88 55 82 56
REMARK SMILES IDX 81 57 37 59 69 60 49 61 68 62 50 63 53 64 67 65 86 66 51 67
REMARK SMILES IDX 52 68 66 70 87 71 54 72 38 73 39 74 47 75 40 76 42 77 48 78
REMARK SMILES IDX 41 79 43 80 44 81 45 82 46 83 70 84 71 85 79 86 72 87 74 88
REMARK SMILES IDX 80 89 73 90 75 91 76 92 77 93 78 94 55 95 56 96 64 97 57 98
REMARK SMILES IDX 59 99 65 100 58 101 60 102 61 103 62 104 63 105
REMARK H PARENT 22 5 15 15 10 26 26 39 85 58 53 69
REMARK Flexibility Score: inf
ROOT
ATOM      1  C   UNL     1       3.715   5.422   0.142  1.00  0.00     0.117 C 
ENDROOT
BRANCH   1   2
ATOM      2  N   UNL     1       4.969   5.517   0.868  1.00  0.00    -0.356 N 
ATOM      3  C   UNL     1       5.727   4.539   1.435  1.00  0.00     0.224 C 
ATOM      4  O   UNL     1       6.541   4.878   2.293  1.00  0.00    -0.275 OA
ATOM      5  H   UNL     1       5.326   6.429   0.965  1.00  0.00     0.163 HD
BRANCH   3   6
ATOM      6  C   UNL     1       5.664   3.132   0.863  1.00  0.00     0.098 C 
ATOM      7  C   UNL     1       6.073   2.022   1.867  1.00  0.00     0.099 C 
ATOM      8  C   UNL     1       7.310   1.362   1.196  1.00  0.00     0.025 C 
ATOM      9  C   UNL     1       6.812   3.059  -0.193  1.00  0.00     0.025 C 
ATOM     10  C   UNL     1       7.027   0.777  -0.163  1.00  0.00    -0.027 C 
ATOM     11  C   UNL     1       8.014   2.629   0.670  1.00  0.00     0.017 C 
ATOM     12  C   UNL     1       6.712   1.787  -0.990  1.00  0.00    -0.027 C 
BRANCH   7  13
ATOM     13  C   UNL     1       4.957   1.201   2.535  1.00  0.00     0.228 C 
ATOM     14  N   UNL     1       4.342   0.079   2.081  1.00  0.00    -0.326 N 
ATOM     15  H   UNL     1       3.885  -0.421   2.795  1.00  0.00     0.169 HD
ATOM     16  O   UNL     1       4.597   1.550   3.672  1.00  0.00    -0.274 OA
BRANCH  14  17
ATOM     17  C   UNL     1       4.211  -0.523   0.831  1.00  0.00     0.041 A 
ATOM     18  C   UNL     1       4.183  -1.812  -1.642  1.00  0.00     0.041 A 
ATOM     19  C   UNL     1       4.217  -0.425  -1.577  1.00  0.00     0.028 A 
ATOM     20  C   UNL     1       4.088  -2.567  -0.477  1.00  0.00     0.028 A 
ATOM     21  C   UNL     1       4.150   0.208  -0.342  1.00  0.00     0.028 A 
ATOM     22  C   UNL     1       4.083  -1.916   0.764  1.00  0.00     0.028 A 
BRANCH  18  23
ATOM     23  N   UNL     1       4.257  -2.418  -2.895  1.00  0.00    -0.322 N 
ATOM     24  C   UNL     1       3.319  -2.323  -3.906  1.00  0.00     0.255 C 
ATOM     25  O   UNL     1       3.671  -2.463  -5.076  1.00  0.00    -0.269 OA
ATOM     26  H   UNL     1       5.054  -2.967  -3.078  1.00  0.00     0.170 HD
BRANCH  24  27
ATOM     27  C   UNL     1       1.867  -2.256  -3.572  1.00  0.00     0.043 A 
ATOM     28  C   UNL     1       0.000  -1.547  -2.188  1.00  0.00     0.119 A 
ATOM     29  C   UNL     1      -0.808  -2.488  -2.824  1.00  0.00     0.046 A 
ATOM     30  C   UNL     1       1.318  -1.399  -2.610  1.00  0.00     0.060 A 
ATOM     31  C   UNL     1      -0.305  -3.272  -3.864  1.00  0.00     0.005 A 
ATOM     32  C   UNL     1       1.034  -3.164  -4.231  1.00  0.00     0.014 A 
BRANCH  28  33
ATOM     33  O   UNL     1      -0.595  -0.855  -1.171  1.00  0.00    -0.497 OA
ATOM     34  C   UNL     1       0.211   0.052  -0.424  1.00  0.00     0.278 C 
ENDBRANCH  28  33
ENDBRANCH  24  27
ENDBRANCH  18  23
ENDBRANCH  14  17
ENDBRANCH   7  13
ENDBRANCH   3   6
ENDBRANCH   1   2
BRANCH   1  35
ATOM     35  C   UNL     1       2.565   5.955   0.994  1.00  0.00     0.042 C 
BRANCH  35  36
ATOM     36  C   UNL     1       2.686   7.438   1.333  1.00  0.00     0.118 C 
BRANCH  36  37
ATOM     37  N   UNL     1       2.663   8.284   0.149  1.00  0.00    -0.352 N 
ATOM     38  C   UNL     1       1.900   9.390  -0.118  1.00  0.00     0.251 C 
ATOM     39  H   UNL     1       3.287   8.023  -0.566  1.00  0.00     0.163 HD
ATOM     40  O   UNL     1       1.898   9.854  -1.262  1.00  0.00    -0.269 OA
BRANCH  38  41
ATOM     41  C   UNL     1       1.081  10.019   0.939  1.00  0.00     0.039 A 
ATOM     42  C   UNL     1      -0.182  10.513   0.603  1.00  0.00     0.014 A 
ATOM     43  C   UNL     1       1.560  10.162   2.245  1.00  0.00     0.014 A 
ATOM     44  C   UNL     1      -0.971  11.123   1.579  1.00  0.00     0.010 A 
ATOM     45  C   UNL     1       0.736  10.690   3.236  1.00  0.00     0.010 A 
ATOM     46  C   UNL     1      -0.527  11.202   2.910  1.00  0.00    -0.014 A 
BRANCH  46  47
ATOM     47  C   UNL     1      -1.368  11.844   3.953  1.00  0.00     0.031 A 
ATOM     48  C   UNL     1      -0.888  13.081   4.667  1.00  0.00     0.074 A 
ATOM     49  C   UNL     1      -2.550  11.290   4.288  1.00  0.00     0.049 A 
ATOM     50  N   UNL     1      -1.497  13.793   5.581  1.00  0.00    -0.248 NA
ATOM     51  C   UNL     1       0.459  13.572   4.330  1.00  0.00     0.031 C 
ATOM     52  C   UNL     1      -3.089  10.046   3.734  1.00  0.00     0.029 A 
ATOM     53  N   UNL     1      -3.507  11.695   5.185  1.00  0.00    -0.354 N 
ATOM     54  C   UNL     1      -0.600  14.790   5.949  1.00  0.00     0.074 A 
ATOM     55  C   UNL     1       0.611  14.566   5.191  1.00  0.00     0.031 C 
ATOM     56  C   UNL     1      -4.287   9.801   4.288  1.00  0.00     0.029 A 
ATOM     57  C   UNL     1      -4.591  10.852   5.254  1.00  0.00     0.049 A 
ATOM     58  H   UNL     1      -3.425  12.513   5.727  1.00  0.00     0.167 HD
ATOM     59  C   UNL     1      -0.776  15.818   6.813  1.00  0.00     0.034 A 
ATOM     60  C   UNL     1      -5.706  10.920   6.006  1.00  0.00     0.034 A 
ATOM     61  C   UNL     1      -1.994  16.058   7.539  1.00  0.00     0.049 A 
ATOM     62  C   UNL     1      -5.901  12.102   6.918  1.00  0.00     0.074 A 
ATOM     63  C   UNL     1      -2.303  17.113   8.379  1.00  0.00     0.029 A 
ATOM     64  N   UNL     1      -3.104  15.227   7.519  1.00  0.00    -0.354 N 
ATOM     65  N   UNL     1      -5.103  13.120   7.133  1.00  0.00    -0.248 NA
ATOM     66  C   UNL     1      -7.171  12.168   7.653  1.00  0.00     0.031 C 
ATOM     67  C   UNL     1      -3.588  16.905   8.889  1.00  0.00     0.029 A 
ATOM     68  C   UNL     1      -4.097  15.742   8.334  1.00  0.00     0.049 A 
ATOM     69  H   UNL     1      -3.175  14.392   7.001  1.00  0.00     0.167 HD
ATOM     70  C   UNL     1      -5.793  13.970   7.990  1.00  0.00     0.074 A 
ATOM     71  C   UNL     1      -7.081  13.355   8.237  1.00  0.00     0.031 C 
ATOM     72  C   UNL     1      -5.394  15.148   8.531  1.00  0.00     0.034 A 
BRANCH  59  73
ATOM     73  C   UNL     1       0.364  16.790   6.986  1.00  0.00     0.023 A 
ATOM     74  C   UNL     1       0.710  17.658   5.929  1.00  0.00     0.012 A 
ATOM     75  C   UNL     1       1.057  16.884   8.209  1.00  0.00     0.148 A 
ATOM     76  C   UNL     1       1.752  18.574   6.071  1.00  0.00     0.002 A 
ATOM     77  C   UNL     1       2.061  17.834   8.360  1.00  0.00     0.091 A 
ATOM     78  F   UNL     1       0.729  16.039   9.197  1.00  0.00    -0.205 F 
ATOM     79  C   UNL     1       2.419  18.669   7.289  1.00  0.00     0.022 A 
BRANCH  77  80
ATOM     80  S   UNL     1       2.923  18.096   9.914  1.00  0.00     0.127 S 
ATOM     81  O   UNL     1       4.262  17.604   9.595  1.00  0.00    -0.237 OA
ATOM     82  O   UNL     1       2.830  19.547  10.075  1.00  0.00    -0.237 OA
ATOM     83  O   UNL     1       2.196  17.325  10.913  1.00  0.00    -0.744 OA
ENDBRANCH  77  80
ENDBRANCH  59  73
BRANCH  60  84
ATOM     84  C   UNL     1      -6.761   9.876   5.873  1.00  0.00     0.023 A 
ATOM     85  C   UNL     1      -7.998  10.206   5.284  1.00  0.00     0.012 A 
ATOM     86  C   UNL     1      -6.541   8.556   6.312  1.00  0.00     0.148 A 
ATOM     87  C   UNL     1      -9.010   9.253   5.172  1.00  0.00     0.002 A 
ATOM     88  C   UNL     1      -7.532   7.597   6.144  1.00  0.00     0.091 A 
ATOM     89  F   UNL     1      -5.360   8.264   6.875  1.00  0.00    -0.205 F 
ATOM     90  C   UNL     1      -8.775   7.947   5.593  1.00  0.00     0.022 A 
BRANCH  88  91
ATOM     91  S   UNL     1      -7.270   5.864   6.534  1.00  0.00     0.127 S 
ATOM     92  O   UNL     1      -8.143   5.683   7.692  1.00  0.00    -0.237 OA
ATOM     93  O   UNL     1      -7.728   5.208   5.309  1.00  0.00    -0.237 OA
ATOM     94  O   UNL     1      -5.843   5.728   6.790  1.00  0.00    -0.744 OA
ENDBRANCH  88  91
ENDBRANCH  60  84
BRANCH  72  95
ATOM     95  C   UNL     1      -6.383  15.886   9.398  1.00  0.00     0.023 A 
ATOM     96  C   UNL     1      -6.738  15.378  10.663  1.00  0.00     0.012 A 
ATOM     97  C   UNL     1      -6.928  17.112   8.968  1.00  0.00     0.148 A 
ATOM     98  C   UNL     1      -7.659  16.052  11.464  1.00  0.00     0.002 A 
ATOM     99  C   UNL     1      -7.802  17.806   9.796  1.00  0.00     0.091 A 
ATOM    100  F   UNL     1      -6.595  17.572   7.754  1.00  0.00    -0.205 F 
ATOM    101  C   UNL     1      -8.182  17.270  11.036  1.00  0.00     0.022 A 
BRANCH  99 102
ATOM    102  S   UNL     1      -8.441  19.429   9.366  1.00  0.00     0.127 S 
ATOM    103  O   UNL     1      -9.813  19.115   8.973  1.00  0.00    -0.237 OA
ATOM    104  O   UNL     1      -8.320  20.157  10.630  1.00  0.00    -0.237 OA
ATOM    105  O   UNL     1      -7.580  19.927   8.302  1.00  0.00    -0.744 OA
ENDBRANCH  99 102
ENDBRANCH  72  95
ENDBRANCH  46  47
ENDBRANCH  38  41
ENDBRANCH  36  37
ENDBRANCH  35  36
ENDBRANCH   1  35
TORSDOF 18
