REMARK SMILES N#Cc1cccc(NCCCC(=O)NCCCNC(=O)c2ccc(-c3c4nc(c(-c5cccc(S(=O)(=O)[O-])c5F)c5ccc([nH]5)c(-c5cccc(S(=O)(=O)[O-])c5F)c5nc(c(-c6cccc(S(=O)(=O)[O-])c6F)c6ccc3[nH]6)C=C5)C=C4)cc2)c1
REMARK SMILES IDX 15 1 14 2 12 3 13 4 11 6 10 7 9 8 8 9 7 11 3 12 4 13 84 14
REMARK SMILES IDX 5 15 6 16 2 17 1 18 16 19 17 20 18 21 19 22 20 24 21 25
REMARK SMILES IDX 22 26 83 27 23 28 82 29 24 30 25 31 26 32 76 33 27 34 81 35
REMARK SMILES IDX 75 36 77 37 28 38 80 39 74 40 73 41 29 43 61 44 41 45 60 46
REMARK SMILES IDX 42 47 45 48 59 49 78 50 43 51 44 52 58 54 79 55 46 56 30 57
REMARK SMILES IDX 31 58 39 59 32 60 34 61 40 62 33 63 35 64 36 65 37 66 38 67
REMARK SMILES IDX 62 68 63 69 71 70 64 71 66 72 72 73 65 74 67 75 68 76 69 77
REMARK SMILES IDX 70 78 47 79 48 80 56 81 49 82 51 83 57 84 50 85 52 86 53 87
REMARK SMILES IDX 54 88 55 89
REMARK H PARENT 14 5 8 10 18 23 77 42 45 53
REMARK Flexibility Score: inf
ROOT
ATOM      1  C   UNL     1       3.028  -4.256  -1.655  1.00  0.00     0.117 C 
ENDROOT
BRANCH   1   2
ATOM      2  N   UNL     1       4.014  -5.167  -1.104  1.00  0.00    -0.356 N 
ATOM      3  C   UNL     1       4.352  -5.408   0.190  1.00  0.00     0.220 C 
ATOM      4  O   UNL     1       5.278  -6.189   0.418  1.00  0.00    -0.275 OA
ATOM      5  H   UNL     1       4.515  -5.691  -1.770  1.00  0.00     0.163 HD
BRANCH   3   6
ATOM      6  C   UNL     1       3.574  -4.775   1.323  1.00  0.00     0.102 C 
BRANCH   6   7
ATOM      7  C   UNL     1       4.139  -3.450   1.840  1.00  0.00     0.031 C 
BRANCH   7   8
ATOM      8  C   UNL     1       3.749  -2.166   1.104  1.00  0.00     0.113 C 
BRANCH   8   9
ATOM      9  N   UNL     1       2.315  -2.070   0.894  1.00  0.00    -0.385 N 
ATOM     10  H   UNL     1       1.777  -2.880   1.049  1.00  0.00     0.160 HD
BRANCH   9  11
ATOM     11  C   UNL     1       1.650  -0.927   0.494  1.00  0.00     0.035 A 
ATOM     12  C   UNL     1      -0.494   0.153   0.014  1.00  0.00     0.054 A 
ATOM     13  C   UNL     1       0.151   1.374  -0.178  1.00  0.00     0.019 A 
ATOM     14  C   UNL     1       0.257  -0.986   0.334  1.00  0.00     0.045 A 
ATOM     15  C   UNL     1       1.539   1.440  -0.079  1.00  0.00     0.003 A 
ATOM     16  C   UNL     1       2.279   0.295   0.242  1.00  0.00     0.026 A 
BRANCH  12  17
ATOM     17  C   UNL     1      -1.919   0.060  -0.082  1.00  0.00     0.099 C 
ATOM     18  N   UNL     1      -3.077  -0.035  -0.142  1.00  0.00    -0.192 NA
ENDBRANCH  12  17
ENDBRANCH   9  11
ENDBRANCH   8   9
ENDBRANCH   7   8
ENDBRANCH   6   7
ENDBRANCH   3   6
ENDBRANCH   1   2
BRANCH   1  19
ATOM     19  C   UNL     1       3.697  -3.061  -2.318  1.00  0.00     0.042 C 
BRANCH  19  20
ATOM     20  C   UNL     1       4.265  -3.373  -3.691  1.00  0.00     0.118 C 
BRANCH  20  21
ATOM     21  N   UNL     1       3.224  -3.554  -4.690  1.00  0.00    -0.352 N 
ATOM     22  C   UNL     1       2.985  -2.836  -5.837  1.00  0.00     0.251 C 
ATOM     23  H   UNL     1       2.602  -4.298  -4.521  1.00  0.00     0.163 HD
ATOM     24  O   UNL     1       1.931  -2.999  -6.444  1.00  0.00    -0.269 OA
BRANCH  22  25
ATOM     25  C   UNL     1       3.986  -1.860  -6.325  1.00  0.00     0.039 A 
ATOM     26  C   UNL     1       3.546  -0.646  -6.859  1.00  0.00     0.014 A 
ATOM     27  C   UNL     1       5.353  -2.141  -6.267  1.00  0.00     0.014 A 
ATOM     28  C   UNL     1       4.480   0.300  -7.286  1.00  0.00     0.010 A 
ATOM     29  C   UNL     1       6.280  -1.155  -6.587  1.00  0.00     0.010 A 
ATOM     30  C   UNL     1       5.856   0.068  -7.124  1.00  0.00    -0.014 A 
BRANCH  30  31
ATOM     31  C   UNL     1       6.870   1.068  -7.546  1.00  0.00     0.031 A 
ATOM     32  C   UNL     1       7.895   0.700  -8.589  1.00  0.00     0.074 A 
ATOM     33  C   UNL     1       6.910   2.279  -6.954  1.00  0.00     0.049 A 
ATOM     34  N   UNL     1       8.911   1.396  -9.029  1.00  0.00    -0.248 NA
ATOM     35  C   UNL     1       7.780  -0.637  -9.201  1.00  0.00     0.031 C 
ATOM     36  C   UNL     1       6.008   2.737  -5.894  1.00  0.00     0.029 A 
ATOM     37  N   UNL     1       7.759   3.342  -7.144  1.00  0.00    -0.354 N 
ATOM     38  C   UNL     1       9.562   0.580  -9.947  1.00  0.00     0.074 A 
ATOM     39  C   UNL     1       8.862  -0.684  -9.963  1.00  0.00     0.031 C 
ATOM     40  C   UNL     1       6.344   3.986  -5.535  1.00  0.00     0.029 A 
ATOM     41  C   UNL     1       7.514   4.402  -6.301  1.00  0.00     0.049 A 
ATOM     42  H   UNL     1       8.475   3.345  -7.819  1.00  0.00     0.167 HD
ATOM     43  C   UNL     1      10.623   0.867 -10.736  1.00  0.00     0.034 A 
ATOM     44  C   UNL     1       8.174   5.568  -6.148  1.00  0.00     0.034 A 
ATOM     45  C   UNL     1      11.301   2.133 -10.738  1.00  0.00     0.049 A 
ATOM     46  C   UNL     1       9.369   5.846  -7.022  1.00  0.00     0.074 A 
ATOM     47  C   UNL     1      12.361   2.538 -11.530  1.00  0.00     0.029 A 
ATOM     48  N   UNL     1      10.990   3.197  -9.909  1.00  0.00    -0.354 N 
ATOM     49  N   UNL     1       9.898   5.102  -7.962  1.00  0.00    -0.248 NA
ATOM     50  C   UNL     1      10.040   7.142  -6.838  1.00  0.00     0.031 C 
ATOM     51  C   UNL     1      12.714   3.836 -11.153  1.00  0.00     0.029 A 
ATOM     52  C   UNL     1      11.839   4.258 -10.167  1.00  0.00     0.049 A 
ATOM     53  H   UNL     1      10.272   3.199  -9.235  1.00  0.00     0.167 HD
ATOM     54  C   UNL     1      10.923   5.861  -8.517  1.00  0.00     0.074 A 
ATOM     55  C   UNL     1      10.930   7.128  -7.819  1.00  0.00     0.031 C 
ATOM     56  C   UNL     1      11.786   5.537  -9.509  1.00  0.00     0.034 A 
BRANCH  43  57
ATOM     57  C   UNL     1      11.086  -0.187 -11.708  1.00  0.00     0.023 A 
ATOM     58  C   UNL     1      10.283  -0.504 -12.823  1.00  0.00     0.012 A 
ATOM     59  C   UNL     1      12.347  -0.799 -11.568  1.00  0.00     0.148 A 
ATOM     60  C   UNL     1      10.713  -1.434 -13.768  1.00  0.00     0.002 A 
ATOM     61  C   UNL     1      12.790  -1.687 -12.540  1.00  0.00     0.091 A 
ATOM     62  F   UNL     1      13.089  -0.493 -10.495  1.00  0.00    -0.205 F 
ATOM     63  C   UNL     1      11.971  -2.015 -13.633  1.00  0.00     0.022 A 
BRANCH  61  64
ATOM     64  S   UNL     1      14.425  -2.431 -12.505  1.00  0.00     0.127 S 
ATOM     65  O   UNL     1      14.099  -3.850 -12.364  1.00  0.00    -0.237 OA
ATOM     66  O   UNL     1      14.959  -2.054 -13.813  1.00  0.00    -0.237 OA
ATOM     67  O   UNL     1      15.114  -1.841 -11.367  1.00  0.00    -0.744 OA
ENDBRANCH  61  64
ENDBRANCH  43  57
BRANCH  44  68
ATOM     68  C   UNL     1       7.725   6.577  -5.145  1.00  0.00     0.023 A 
ATOM     69  C   UNL     1       7.266   7.838  -5.578  1.00  0.00     0.012 A 
ATOM     70  C   UNL     1       7.797   6.314  -3.764  1.00  0.00     0.148 A 
ATOM     71  C   UNL     1       6.957   8.839  -4.656  1.00  0.00     0.002 A 
ATOM     72  C   UNL     1       7.425   7.293  -2.851  1.00  0.00     0.091 A 
ATOM     73  F   UNL     1       8.238   5.112  -3.367  1.00  0.00    -0.205 F 
ATOM     74  C   UNL     1       7.032   8.566  -3.293  1.00  0.00     0.022 A 
BRANCH  72  75
ATOM     75  S   UNL     1       7.368   6.986  -1.083  1.00  0.00     0.127 S 
ATOM     76  O   UNL     1       8.494   7.783  -0.604  1.00  0.00    -0.237 OA
ATOM     77  O   UNL     1       6.047   7.506  -0.729  1.00  0.00    -0.237 OA
ATOM     78  O   UNL     1       7.502   5.543  -0.930  1.00  0.00    -0.744 OA
ENDBRANCH  72  75
ENDBRANCH  44  68
BRANCH  56  79
ATOM     79  C   UNL     1      12.757   6.593  -9.970  1.00  0.00     0.023 A 
ATOM     80  C   UNL     1      13.831   6.986  -9.149  1.00  0.00     0.012 A 
ATOM     81  C   UNL     1      12.637   7.139 -11.264  1.00  0.00     0.148 A 
ATOM     82  C   UNL     1      14.749   7.936  -9.593  1.00  0.00     0.002 A 
ATOM     83  C   UNL     1      13.588   8.040 -11.722  1.00  0.00     0.091 A 
ATOM     84  F   UNL     1      11.599   6.761 -12.024  1.00  0.00    -0.205 F 
ATOM     85  C   UNL     1      14.636   8.452 -10.883  1.00  0.00     0.022 A 
BRANCH  83  86
ATOM     86  S   UNL     1      13.583   8.678 -13.400  1.00  0.00     0.127 S 
ATOM     87  O   UNL     1      13.287  10.092 -13.179  1.00  0.00    -0.237 OA
ATOM     88  O   UNL     1      14.952   8.402 -13.837  1.00  0.00    -0.237 OA
ATOM     89  O   UNL     1      12.555   7.933 -14.114  1.00  0.00    -0.744 OA
ENDBRANCH  83  86
ENDBRANCH  56  79
ENDBRANCH  30  31
ENDBRANCH  22  25
ENDBRANCH  20  21
ENDBRANCH  19  20
ENDBRANCH   1  19
TORSDOF 18
