REMARK SMILES Cc1ccc(C(=O)NCCCNC(=O)c2ccc(-c3c4nc(c(-c5cccc(S(=O)(=O)[O-])c5F)c5ccc([nH]5)c(-c5cccc(S(=O)(=O)[O-])c5F)c5nc(c(-c6cccc(S(=O)(=O)[O-])c6F)c6ccc3[nH]6)C=C5)C=C4)cc2)cc1O[C@@H](C)C(=O)N[C@@H]1CCS(=O)(=O)C1
REMARK SMILES IDX 9 1 8 2 6 3 7 4 5 6 1 7 2 8 3 9 79 10 4 11 78 12 80 13 81 14
REMARK SMILES IDX 82 15 83 16 84 17 85 18 86 20 87 21 92 22 88 23 89 24 90 25
REMARK SMILES IDX 91 26 10 27 11 28 12 29 13 30 14 32 15 33 16 34 77 35 17 36
REMARK SMILES IDX 76 37 18 38 19 39 20 40 70 41 21 42 75 43 69 44 71 45 22 46
REMARK SMILES IDX 74 47 68 48 67 49 23 51 55 52 35 53 54 54 36 55 39 56 53 57
REMARK SMILES IDX 72 58 37 59 38 60 52 62 73 63 40 64 24 65 25 66 33 67 26 68
REMARK SMILES IDX 28 69 34 70 27 71 29 72 30 73 31 74 32 75 56 76 57 77 65 78
REMARK SMILES IDX 58 79 60 80 66 81 59 82 61 83 62 84 63 85 64 86 41 87 42 88
REMARK SMILES IDX 50 89 43 90 45 91 51 92 44 93 46 94 47 95 48 96 49 97
REMARK H PARENT 8 5 85 19 12 31 71 50 39 61
REMARK Flexibility Score: inf
ROOT
ATOM      1  C   UNL     1      -2.950   2.805   0.336  1.00  0.00     0.118 C 
ENDROOT
BRANCH   1   2
ATOM      2  N   UNL     1      -3.514   1.459   0.414  1.00  0.00    -0.352 N 
ATOM      3  C   UNL     1      -3.046   0.235   0.843  1.00  0.00     0.251 C 
ATOM      4  O   UNL     1      -3.831  -0.715   0.817  1.00  0.00    -0.269 OA
ATOM      5  H   UNL     1      -4.441   1.417   0.086  1.00  0.00     0.163 HD
BRANCH   3   6
ATOM      6  C   UNL     1      -1.630  -0.053   1.241  1.00  0.00     0.043 A 
ATOM      7  C   UNL     1       2.569  -1.079   1.706  1.00  0.00     0.048 C 
ATOM      8  C   UNL     1       1.135  -0.687   1.517  1.00  0.00    -0.009 A 
ATOM      9  C   UNL     1       0.169  -1.696   1.346  1.00  0.00     0.008 A 
ATOM     10  C   UNL     1       0.695   0.632   1.520  1.00  0.00     0.124 A 
ATOM     11  C   UNL     1      -1.182  -1.378   1.144  1.00  0.00     0.014 A 
ATOM     12  C   UNL     1      -0.683   0.907   1.575  1.00  0.00     0.060 A 
BRANCH  10  13
ATOM     13  O   UNL     1       1.434   1.761   1.456  1.00  0.00    -0.481 OA
BRANCH  13  14
ATOM     14  C   UNL     1       2.549   2.015   0.623  1.00  0.00     0.258 C 
ATOM     15  C   UNL     1       3.660   2.318   1.651  1.00  0.00     0.064 C 
BRANCH  14  16
ATOM     16  C   UNL     1       3.247   1.471  -0.720  1.00  0.00     0.261 C 
ATOM     17  O   UNL     1       4.406   1.815  -0.999  1.00  0.00    -0.271 OA
ATOM     18  N   UNL     1       2.640   0.741  -1.698  1.00  0.00    -0.349 N 
ATOM     19  H   UNL     1       3.128   0.703  -2.552  1.00  0.00     0.163 HD
BRANCH  18  20
ATOM     20  C   UNL     1       1.390   0.013  -1.678  1.00  0.00     0.098 C 
ATOM     21  C   UNL     1       1.234  -1.023  -2.808  1.00  0.00     0.042 C 
ATOM     22  C   UNL     1       0.177   0.915  -1.636  1.00  0.00     0.161 C 
ATOM     23  C   UNL     1       0.062  -0.663  -3.711  1.00  0.00     0.139 C 
ATOM     24  S   UNL     1      -0.465   0.962  -3.269  1.00  0.00     0.152 S 
ATOM     25  O   UNL     1       0.284   1.930  -4.029  1.00  0.00    -0.229 OA
ATOM     26  O   UNL     1      -1.915   0.967  -3.197  1.00  0.00    -0.229 OA
ENDBRANCH  18  20
ENDBRANCH  14  16
ENDBRANCH  13  14
ENDBRANCH  10  13
ENDBRANCH   3   6
ENDBRANCH   1   2
BRANCH   1  27
ATOM     27  C   UNL     1      -3.001   3.434  -1.041  1.00  0.00     0.042 C 
BRANCH  27  28
ATOM     28  C   UNL     1      -4.315   4.091  -1.410  1.00  0.00     0.118 C 
BRANCH  28  29
ATOM     29  N   UNL     1      -4.343   5.535  -1.172  1.00  0.00    -0.352 N 
ATOM     30  C   UNL     1      -5.135   6.507  -1.775  1.00  0.00     0.251 C 
ATOM     31  H   UNL     1      -3.714   5.864  -0.490  1.00  0.00     0.163 HD
ATOM     32  O   UNL     1      -4.921   7.695  -1.558  1.00  0.00    -0.269 OA
BRANCH  30  33
ATOM     33  C   UNL     1      -6.308   6.071  -2.572  1.00  0.00     0.039 A 
ATOM     34  C   UNL     1      -7.562   6.439  -2.085  1.00  0.00     0.014 A 
ATOM     35  C   UNL     1      -6.178   4.992  -3.436  1.00  0.00     0.014 A 
ATOM     36  C   UNL     1      -8.599   5.520  -2.155  1.00  0.00     0.010 A 
ATOM     37  C   UNL     1      -7.145   4.018  -3.383  1.00  0.00     0.010 A 
ATOM     38  C   UNL     1      -8.318   4.257  -2.664  1.00  0.00    -0.014 A 
BRANCH  38  39
ATOM     39  C   UNL     1      -9.262   3.161  -2.673  1.00  0.00     0.031 A 
ATOM     40  C   UNL     1     -10.284   3.212  -3.734  1.00  0.00     0.074 A 
ATOM     41  C   UNL     1      -9.097   2.100  -1.849  1.00  0.00     0.049 A 
ATOM     42  N   UNL     1     -11.427   2.630  -3.679  1.00  0.00    -0.248 NA
ATOM     43  C   UNL     1     -10.097   4.009  -4.945  1.00  0.00     0.031 C 
ATOM     44  C   UNL     1      -9.751   0.801  -1.961  1.00  0.00     0.029 A 
ATOM     45  N   UNL     1      -8.374   1.982  -0.656  1.00  0.00    -0.354 N 
ATOM     46  C   UNL     1     -11.983   2.714  -4.941  1.00  0.00     0.074 A 
ATOM     47  C   UNL     1     -11.197   3.702  -5.633  1.00  0.00     0.031 C 
ATOM     48  C   UNL     1      -9.648   0.159  -0.784  1.00  0.00     0.029 A 
ATOM     49  C   UNL     1      -9.111   1.113   0.169  1.00  0.00     0.049 A 
ATOM     50  H   UNL     1      -7.520   2.420  -0.438  1.00  0.00     0.167 HD
ATOM     51  C   UNL     1     -12.918   1.790  -5.297  1.00  0.00     0.034 A 
ATOM     52  C   UNL     1      -9.722   1.472   1.344  1.00  0.00     0.034 A 
ATOM     53  C   UNL     1     -13.221   0.923  -4.141  1.00  0.00     0.049 A 
ATOM     54  C   UNL     1     -11.235   1.288   1.293  1.00  0.00     0.074 A 
ATOM     55  C   UNL     1     -12.728  -0.315  -3.760  1.00  0.00     0.029 A 
ATOM     56  N   UNL     1     -13.834   1.462  -3.012  1.00  0.00    -0.354 N 
ATOM     57  N   UNL     1     -11.894   0.998   0.205  1.00  0.00    -0.248 NA
ATOM     58  C   UNL     1     -12.124   1.446   2.443  1.00  0.00     0.031 C 
ATOM     59  C   UNL     1     -12.965  -0.471  -2.367  1.00  0.00     0.029 A 
ATOM     60  C   UNL     1     -13.640   0.647  -1.904  1.00  0.00     0.049 A 
ATOM     61  H   UNL     1     -14.338   2.308  -3.002  1.00  0.00     0.167 HD
ATOM     62  C   UNL     1     -13.241   1.072   0.433  1.00  0.00     0.074 A 
ATOM     63  C   UNL     1     -13.330   1.263   1.873  1.00  0.00     0.031 C 
ATOM     64  C   UNL     1     -14.156   1.034  -0.588  1.00  0.00     0.034 A 
BRANCH  51  65
ATOM     65  C   UNL     1     -13.304   1.428  -6.730  1.00  0.00     0.023 A 
ATOM     66  C   UNL     1     -13.925   0.172  -6.917  1.00  0.00     0.012 A 
ATOM     67  C   UNL     1     -13.059   2.167  -7.915  1.00  0.00     0.148 A 
ATOM     68  C   UNL     1     -14.208  -0.356  -8.182  1.00  0.00     0.002 A 
ATOM     69  C   UNL     1     -13.307   1.629  -9.184  1.00  0.00     0.091 A 
ATOM     70  F   UNL     1     -12.641   3.430  -7.844  1.00  0.00    -0.205 F 
ATOM     71  C   UNL     1     -13.877   0.362  -9.320  1.00  0.00     0.022 A 
BRANCH  69  72
ATOM     72  S   UNL     1     -12.889   2.489 -10.716  1.00  0.00     0.127 S 
ATOM     73  O   UNL     1     -12.035   1.510 -11.394  1.00  0.00    -0.237 OA
ATOM     74  O   UNL     1     -14.199   2.680 -11.335  1.00  0.00    -0.237 OA
ATOM     75  O   UNL     1     -12.201   3.714 -10.328  1.00  0.00    -0.744 OA
ENDBRANCH  69  72
ENDBRANCH  51  65
BRANCH  52  76
ATOM     76  C   UNL     1      -9.025   2.586   2.057  1.00  0.00     0.023 A 
ATOM     77  C   UNL     1      -7.664   2.360   2.368  1.00  0.00     0.012 A 
ATOM     78  C   UNL     1      -9.485   3.905   1.927  1.00  0.00     0.148 A 
ATOM     79  C   UNL     1      -6.736   3.389   2.219  1.00  0.00     0.002 A 
ATOM     80  C   UNL     1      -8.555   4.932   1.818  1.00  0.00     0.091 A 
ATOM     81  F   UNL     1     -10.802   4.133   1.842  1.00  0.00    -0.205 F 
ATOM     82  C   UNL     1      -7.178   4.661   1.871  1.00  0.00     0.022 A 
BRANCH  80  83
ATOM     83  S   UNL     1      -9.099   6.611   1.497  1.00  0.00     0.127 S 
ATOM     84  O   UNL     1      -9.436   7.075   2.838  1.00  0.00    -0.237 OA
ATOM     85  O   UNL     1      -7.907   7.231   0.923  1.00  0.00    -0.237 OA
ATOM     86  O   UNL     1     -10.208   6.459   0.565  1.00  0.00    -0.744 OA
ENDBRANCH  80  83
ENDBRANCH  52  76
BRANCH  64  87
ATOM     87  C   UNL     1     -15.637   1.337  -0.431  1.00  0.00     0.023 A 
ATOM     88  C   UNL     1     -16.146   2.066   0.661  1.00  0.00     0.012 A 
ATOM     89  C   UNL     1     -16.568   0.989  -1.444  1.00  0.00     0.148 A 
ATOM     90  C   UNL     1     -17.512   2.329   0.809  1.00  0.00     0.002 A 
ATOM     91  C   UNL     1     -17.902   1.375  -1.359  1.00  0.00     0.091 A 
ATOM     92  F   UNL     1     -16.176   0.252  -2.492  1.00  0.00    -0.205 F 
ATOM     93  C   UNL     1     -18.390   1.998  -0.210  1.00  0.00     0.022 A 
BRANCH  91  94
ATOM     94  S   UNL     1     -19.013   1.231  -2.765  1.00  0.00     0.127 S 
ATOM     95  O   UNL     1     -19.764   0.022  -2.434  1.00  0.00    -0.237 OA
ATOM     96  O   UNL     1     -19.786   2.472  -2.676  1.00  0.00    -0.237 OA
ATOM     97  O   UNL     1     -18.151   1.150  -3.936  1.00  0.00    -0.744 OA
ENDBRANCH  91  94
ENDBRANCH  64  87
ENDBRANCH  38  39
ENDBRANCH  30  33
ENDBRANCH  28  29
ENDBRANCH  27  28
ENDBRANCH   1  27
TORSDOF 17
