REMARK SMILES Cc1cccc(-c2noc(C[N@@H+](C)Cc3ncccc3C(=O)NCCCNC(=O)c3ccc(-c4c5nc(c(-c6cccc(S(=O)(=O)[O-])c6F)c6ccc([nH]6)c(-c6cccc(S(=O)(=O)[O-])c6F)c6nc(c(-c7cccc(S(=O)(=O)[O-])c7F)c7ccc4[nH]7)C=C6)C=C5)cc3)n2)c1
REMARK SMILES IDX 24 1 23 2 21 3 22 4 20 6 15 7 16 8 17 9 19 10 18 11 14 12
REMARK SMILES IDX 12 13 13 14 11 16 10 17 7 18 8 19 93 20 9 21 6 22 1 23 2 24
REMARK SMILES IDX 3 25 94 26 4 27 5 28 25 29 26 30 27 31 28 32 29 34 30 35
REMARK SMILES IDX 31 36 92 37 32 38 91 39 33 40 34 41 35 42 85 43 36 44 90 45
REMARK SMILES IDX 84 46 86 47 37 48 89 49 83 50 82 51 38 53 70 54 50 55 69 56
REMARK SMILES IDX 51 57 54 58 68 59 87 60 52 61 53 62 67 64 88 65 55 66 39 67
REMARK SMILES IDX 40 68 48 69 41 70 43 71 49 72 42 73 44 74 45 75 46 76 47 77
REMARK SMILES IDX 71 78 72 79 80 80 73 81 75 82 81 83 74 84 76 85 77 86 78 87
REMARK SMILES IDX 79 88 56 89 57 90 65 91 58 92 60 93 66 94 59 95 61 96 62 97
REMARK SMILES IDX 63 98 64 99
REMARK H PARENT 23 5 12 15 27 33 86 52 54 63
REMARK Flexibility Score: inf
ROOT
ATOM      1  C   UNL     1      -3.175   0.812  -6.060  1.00  0.00     0.118 C 
ENDROOT
BRANCH   1   2
ATOM      2  N   UNL     1      -3.631   1.163  -4.725  1.00  0.00    -0.352 N 
ATOM      3  C   UNL     1      -3.753   2.339  -4.020  1.00  0.00     0.253 C 
ATOM      4  O   UNL     1      -4.281   2.216  -2.918  1.00  0.00    -0.269 OA
ATOM      5  H   UNL     1      -3.920   0.379  -4.205  1.00  0.00     0.163 HD
BRANCH   3   6
ATOM      6  C   UNL     1      -3.331   3.697  -4.515  1.00  0.00     0.067 A 
ATOM      7  C   UNL     1      -3.764   4.902  -3.922  1.00  0.00     0.107 A 
ATOM      8  N   UNL     1      -3.451   6.129  -4.466  1.00  0.00    -0.254 NA
ATOM      9  C   UNL     1      -2.628   6.197  -5.523  1.00  0.00     0.111 A 
ATOM     10  C   UNL     1      -2.441   3.842  -5.591  1.00  0.00     0.017 A 
ATOM     11  C   UNL     1      -2.079   5.085  -6.102  1.00  0.00     0.021 A 
BRANCH   7  12
ATOM     12  C   UNL     1      -4.614   5.012  -2.657  1.00  0.00     0.320 C 
BRANCH  12  13
ATOM     13  N   UNL     1      -4.181   5.996  -1.621  1.00  0.00    -0.325 N 
ATOM     14  C   UNL     1      -4.439   7.381  -1.994  1.00  0.00     0.333 C 
ATOM     15  H   UNL     1      -4.770   5.797  -0.813  1.00  0.00     0.348 HD
BRANCH  13  16
ATOM     16  C   UNL     1      -2.778   5.807  -1.192  1.00  0.00     0.364 C 
BRANCH  16  17
ATOM     17  C   UNL     1      -2.490   4.473  -0.586  1.00  0.00     0.282 A 
ATOM     18  C   UNL     1      -1.881   2.542  -0.037  1.00  0.00     0.202 A 
ATOM     19  N   UNL     1      -2.875   2.819   0.824  1.00  0.00    -0.057 NA
ATOM     20  N   UNL     1      -1.579   3.577  -0.902  1.00  0.00    -0.186 NA
ATOM     21  O   UNL     1      -3.278   4.099   0.462  1.00  0.00    -0.333 OA
BRANCH  18  22
ATOM     22  C   UNL     1      -1.163   1.277  -0.035  1.00  0.00     0.023 A 
ATOM     23  C   UNL     1       2.434  -0.006  -0.080  1.00  0.00     0.044 C 
ATOM     24  C   UNL     1       0.935   0.036  -0.047  1.00  0.00    -0.050 A 
ATOM     25  C   UNL     1       0.215  -1.158   0.085  1.00  0.00     0.003 A 
ATOM     26  C   UNL     1       0.237   1.251  -0.124  1.00  0.00     0.015 A 
ATOM     27  C   UNL     1      -1.177  -1.142   0.149  1.00  0.00     0.001 A 
ATOM     28  C   UNL     1      -1.864   0.071   0.094  1.00  0.00     0.012 A 
ENDBRANCH  18  22
ENDBRANCH  16  17
ENDBRANCH  13  16
ENDBRANCH  12  13
ENDBRANCH   7  12
ENDBRANCH   3   6
ENDBRANCH   1   2
BRANCH   1  29
ATOM     29  C   UNL     1      -1.668   0.561  -6.095  1.00  0.00     0.042 C 
BRANCH  29  30
ATOM     30  C   UNL     1      -1.274  -0.855  -5.705  1.00  0.00     0.118 C 
BRANCH  30  31
ATOM     31  N   UNL     1      -0.848  -1.664  -6.843  1.00  0.00    -0.352 N 
ATOM     32  C   UNL     1      -0.338  -2.950  -6.841  1.00  0.00     0.251 C 
ATOM     33  H   UNL     1      -0.934  -1.239  -7.727  1.00  0.00     0.163 HD
ATOM     34  O   UNL     1       0.069  -3.449  -7.888  1.00  0.00    -0.269 OA
BRANCH  32  35
ATOM     35  C   UNL     1      -0.408  -3.731  -5.588  1.00  0.00     0.039 A 
ATOM     36  C   UNL     1      -1.172  -4.903  -5.595  1.00  0.00     0.014 A 
ATOM     37  C   UNL     1       0.005  -3.155  -4.390  1.00  0.00     0.014 A 
ATOM     38  C   UNL     1      -1.749  -5.347  -4.409  1.00  0.00     0.010 A 
ATOM     39  C   UNL     1      -0.635  -3.538  -3.231  1.00  0.00     0.010 A 
ATOM     40  C   UNL     1      -1.569  -4.583  -3.260  1.00  0.00    -0.014 A 
BRANCH  40  41
ATOM     41  C   UNL     1      -2.373  -4.715  -2.056  1.00  0.00     0.031 A 
ATOM     42  C   UNL     1      -1.841  -5.429  -0.882  1.00  0.00     0.074 A 
ATOM     43  C   UNL     1      -3.529  -4.020  -1.965  1.00  0.00     0.049 A 
ATOM     44  N   UNL     1      -2.557  -5.757   0.139  1.00  0.00    -0.248 NA
ATOM     45  C   UNL     1      -0.462  -5.897  -0.799  1.00  0.00     0.031 C 
ATOM     46  C   UNL     1      -4.236  -3.644  -0.746  1.00  0.00     0.029 A 
ATOM     47  N   UNL     1      -4.428  -3.710  -2.993  1.00  0.00    -0.354 N 
ATOM     48  C   UNL     1      -1.693  -6.184   1.119  1.00  0.00     0.074 A 
ATOM     49  C   UNL     1      -0.442  -6.400   0.439  1.00  0.00     0.031 C 
ATOM     50  C   UNL     1      -5.522  -3.419  -1.044  1.00  0.00     0.029 A 
ATOM     51  C   UNL     1      -5.713  -3.814  -2.428  1.00  0.00     0.049 A 
ATOM     52  H   UNL     1      -4.207  -3.469  -3.921  1.00  0.00     0.167 HD
ATOM     53  C   UNL     1      -2.108  -6.143   2.414  1.00  0.00     0.034 A 
ATOM     54  C   UNL     1      -6.683  -4.661  -2.876  1.00  0.00     0.034 A 
ATOM     55  C   UNL     1      -3.566  -5.964   2.493  1.00  0.00     0.049 A 
ATOM     56  C   UNL     1      -7.194  -5.616  -1.813  1.00  0.00     0.074 A 
ATOM     57  C   UNL     1      -4.385  -4.898   2.821  1.00  0.00     0.029 A 
ATOM     58  N   UNL     1      -4.397  -6.946   1.958  1.00  0.00    -0.354 N 
ATOM     59  N   UNL     1      -6.688  -5.729  -0.616  1.00  0.00    -0.248 NA
ATOM     60  C   UNL     1      -8.297  -6.549  -2.031  1.00  0.00     0.031 C 
ATOM     61  C   UNL     1      -5.702  -5.208   2.377  1.00  0.00     0.029 A 
ATOM     62  C   UNL     1      -5.693  -6.476   1.817  1.00  0.00     0.049 A 
ATOM     63  H   UNL     1      -4.103  -7.853   1.714  1.00  0.00     0.167 HD
ATOM     64  C   UNL     1      -7.241  -6.809   0.024  1.00  0.00     0.074 A 
ATOM     65  C   UNL     1      -8.312  -7.224  -0.868  1.00  0.00     0.031 C 
ATOM     66  C   UNL     1      -6.717  -7.310   1.188  1.00  0.00     0.034 A 
BRANCH  53  67
ATOM     67  C   UNL     1      -1.202  -6.054   3.636  1.00  0.00     0.023 A 
ATOM     68  C   UNL     1      -1.831  -5.931   4.897  1.00  0.00     0.012 A 
ATOM     69  C   UNL     1       0.213  -5.953   3.647  1.00  0.00     0.148 A 
ATOM     70  C   UNL     1      -1.115  -5.697   6.079  1.00  0.00     0.002 A 
ATOM     71  C   UNL     1       0.933  -5.777   4.833  1.00  0.00     0.091 A 
ATOM     72  F   UNL     1       0.898  -5.937   2.505  1.00  0.00    -0.205 F 
ATOM     73  C   UNL     1       0.270  -5.630   6.051  1.00  0.00     0.022 A 
BRANCH  71  74
ATOM     74  S   UNL     1       2.737  -5.717   4.866  1.00  0.00     0.127 S 
ATOM     75  O   UNL     1       2.992  -4.324   5.229  1.00  0.00    -0.237 OA
ATOM     76  O   UNL     1       3.064  -6.689   5.909  1.00  0.00    -0.237 OA
ATOM     77  O   UNL     1       3.186  -6.097   3.531  1.00  0.00    -0.744 OA
ENDBRANCH  71  74
ENDBRANCH  53  67
BRANCH  54  78
ATOM     78  C   UNL     1      -6.611  -4.943  -4.336  1.00  0.00     0.023 A 
ATOM     79  C   UNL     1      -6.874  -3.858  -5.206  1.00  0.00     0.012 A 
ATOM     80  C   UNL     1      -5.940  -6.071  -4.839  1.00  0.00     0.148 A 
ATOM     81  C   UNL     1      -6.378  -3.846  -6.510  1.00  0.00     0.002 A 
ATOM     82  C   UNL     1      -5.440  -6.048  -6.140  1.00  0.00     0.091 A 
ATOM     83  F   UNL     1      -5.722  -7.105  -4.016  1.00  0.00    -0.205 F 
ATOM     84  C   UNL     1      -5.633  -4.926  -6.965  1.00  0.00     0.022 A 
BRANCH  82  85
ATOM     85  S   UNL     1      -4.395  -7.363  -6.782  1.00  0.00     0.127 S 
ATOM     86  O   UNL     1      -5.345  -8.131  -7.580  1.00  0.00    -0.237 OA
ATOM     87  O   UNL     1      -3.401  -6.618  -7.554  1.00  0.00    -0.237 OA
ATOM     88  O   UNL     1      -3.858  -8.025  -5.602  1.00  0.00    -0.744 OA
ENDBRANCH  82  85
ENDBRANCH  54  78
BRANCH  66  89
ATOM     89  C   UNL     1      -7.091  -8.644   1.825  1.00  0.00     0.023 A 
ATOM     90  C   UNL     1      -7.732  -9.674   1.108  1.00  0.00     0.012 A 
ATOM     91  C   UNL     1      -6.679  -8.967   3.146  1.00  0.00     0.148 A 
ATOM     92  C   UNL     1      -8.013 -10.924   1.677  1.00  0.00     0.002 A 
ATOM     93  C   UNL     1      -6.862 -10.248   3.671  1.00  0.00     0.091 A 
ATOM     94  F   UNL     1      -6.116  -8.028   3.920  1.00  0.00    -0.205 F 
ATOM     95  C   UNL     1      -7.558 -11.220   2.952  1.00  0.00     0.022 A 
BRANCH  93  96
ATOM     96  S   UNL     1      -6.069 -10.731   5.213  1.00  0.00     0.127 S 
ATOM     97  O   UNL     1      -7.072 -10.358   6.206  1.00  0.00    -0.237 OA
ATOM     98  O   UNL     1      -5.891 -12.175   5.043  1.00  0.00    -0.237 OA
ATOM     99  O   UNL     1      -4.820  -9.980   5.234  1.00  0.00    -0.744 OA
ENDBRANCH  93  96
ENDBRANCH  66  89
ENDBRANCH  40  41
ENDBRANCH  32  35
ENDBRANCH  30  31
ENDBRANCH  29  30
ENDBRANCH   1  29
TORSDOF 18
