REMARK SMILES O=C(CC[NH+]1CCC([N@H+]2CCC[C@H](C(=O)NCc3cccnc3)C2)CC1)NCCCNC(=O)c1ccc(-c2c3nc(c(-c4cccc(S(=O)(=O)[O-])c4F)c4ccc([nH]4)c(-c4cccc(S(=O)(=O)[O-])c4F)c4nc(c(-c5cccc(S(=O)(=O)[O-])c5F)c5ccc2[nH]5)C=C4)C=C3)cc1
REMARK SMILES IDX 1 1 2 2 27 3 3 5 4 6 5 7 6 8 26 9 7 11 25 12 8 13 9 14 10 15
REMARK SMILES IDX 24 16 11 18 13 19 12 20 14 21 15 22 16 23 17 25 18 26 19 27
REMARK SMILES IDX 23 28 20 29 22 30 21 31 28 32 29 33 30 34 31 35 32 36 33 38
REMARK SMILES IDX 34 39 35 40 96 41 36 42 95 43 37 44 38 45 39 46 89 47 40 48
REMARK SMILES IDX 94 49 88 50 90 51 41 52 93 53 87 54 86 55 42 57 74 58 54 59
REMARK SMILES IDX 73 60 55 61 58 62 72 63 91 64 56 65 57 66 71 68 92 69 59 70
REMARK SMILES IDX 43 71 44 72 52 73 45 74 47 75 53 76 46 77 48 78 49 79 50 80
REMARK SMILES IDX 51 81 75 82 76 83 84 84 77 85 79 86 85 87 78 88 80 89 81 90
REMARK SMILES IDX 82 91 83 92 60 93 61 94 69 95 62 96 64 97 70 98 63 99 65 100
REMARK SMILES IDX 66 101 67 102 68 103
REMARK H PARENT 27 4 5 10 9 17 16 24 31 37 90 56 58 67
REMARK Flexibility Score: inf
ROOT
ATOM      1  O   UNL     1       0.430  -0.047  -0.119  1.00  0.00    -0.275 OA
ATOM      2  C   UNL     1       1.644   0.064   0.044  1.00  0.00     0.225 C 
ATOM      3  N   UNL     1       2.333  -0.650   0.994  1.00  0.00    -0.356 N 
ATOM      4  H   UNL     1       3.300  -0.496   1.088  1.00  0.00     0.163 HD
ENDROOT
BRANCH   2   5
ATOM      5  C   UNL     1       2.467   0.926  -0.905  1.00  0.00     0.161 C 
BRANCH   5   6
ATOM      6  C   UNL     1       3.712   1.648  -0.378  1.00  0.00     0.272 C 
BRANCH   6   7
ATOM      7  N   UNL     1       4.766   0.829   0.231  1.00  0.00    -0.334 N 
ATOM      8  C   UNL     1       5.157  -0.367  -0.520  1.00  0.00     0.268 C 
ATOM      9  C   UNL     1       5.981   1.624   0.483  1.00  0.00     0.268 C 
ATOM     10  H   UNL     1       4.338   0.507   1.099  1.00  0.00     0.348 HD
ATOM     11  C   UNL     1       5.872  -1.268   0.478  1.00  0.00     0.126 C 
ATOM     12  C   UNL     1       6.894   0.876   1.453  1.00  0.00     0.126 C 
ATOM     13  C   UNL     1       7.116  -0.606   1.078  1.00  0.00     0.195 C 
BRANCH  13  14
ATOM     14  N   UNL     1       7.715  -1.365   2.199  1.00  0.00    -0.331 N 
ATOM     15  C   UNL     1       6.903  -1.465   3.419  1.00  0.00     0.262 C 
ATOM     16  C   UNL     1       8.197  -2.688   1.783  1.00  0.00     0.275 C 
ATOM     17  H   UNL     1       8.513  -0.787   2.465  1.00  0.00     0.348 HD
ATOM     18  C   UNL     1       7.671  -2.087   4.583  1.00  0.00     0.062 C 
ATOM     19  C   UNL     1       9.030  -3.389   2.851  1.00  0.00     0.133 C 
ATOM     20  C   UNL     1       8.389  -3.380   4.236  1.00  0.00     0.025 C 
BRANCH  19  21
ATOM     21  C   UNL     1      10.527  -3.089   2.834  1.00  0.00     0.229 C 
ATOM     22  O   UNL     1      11.319  -4.026   2.657  1.00  0.00    -0.275 OA
ATOM     23  N   UNL     1      11.111  -1.885   3.034  1.00  0.00    -0.352 N 
ATOM     24  H   UNL     1      12.088  -1.948   3.140  1.00  0.00     0.163 HD
BRANCH  23  25
ATOM     25  C   UNL     1      10.622  -0.527   3.127  1.00  0.00     0.153 C 
BRANCH  25  26
ATOM     26  C   UNL     1      10.541   0.054   4.510  1.00  0.00    -0.010 A 
ATOM     27  C   UNL     1      10.037   1.352   4.680  1.00  0.00     0.009 A 
ATOM     28  C   UNL     1      10.910  -0.631   5.662  1.00  0.00     0.116 A 
ATOM     29  C   UNL     1       9.911   1.893   5.956  1.00  0.00     0.020 A 
ATOM     30  N   UNL     1      10.805  -0.127   6.915  1.00  0.00    -0.264 NA
ATOM     31  C   UNL     1      10.300   1.118   7.033  1.00  0.00     0.111 A 
ENDBRANCH  25  26
ENDBRANCH  23  25
ENDBRANCH  19  21
ENDBRANCH  13  14
ENDBRANCH   6   7
ENDBRANCH   5   6
ENDBRANCH   2   5
BRANCH   3  32
ATOM     32  C   UNL     1       1.698  -1.623   1.865  1.00  0.00     0.117 C 
BRANCH  32  33
ATOM     33  C   UNL     1       1.886  -3.084   1.434  1.00  0.00     0.042 C 
BRANCH  33  34
ATOM     34  C   UNL     1       3.283  -3.689   1.597  1.00  0.00     0.118 C 
BRANCH  34  35
ATOM     35  N   UNL     1       3.846  -3.509   2.926  1.00  0.00    -0.352 N 
ATOM     36  C   UNL     1       4.594  -4.344   3.719  1.00  0.00     0.251 C 
ATOM     37  H   UNL     1       3.657  -2.631   3.330  1.00  0.00     0.163 HD
ATOM     38  O   UNL     1       4.869  -3.980   4.859  1.00  0.00    -0.269 OA
BRANCH  36  39
ATOM     39  C   UNL     1       5.064  -5.665   3.243  1.00  0.00     0.039 A 
ATOM     40  C   UNL     1       5.038  -6.730   4.151  1.00  0.00     0.014 A 
ATOM     41  C   UNL     1       5.557  -5.866   1.952  1.00  0.00     0.014 A 
ATOM     42  C   UNL     1       5.403  -8.013   3.737  1.00  0.00     0.010 A 
ATOM     43  C   UNL     1       5.888  -7.154   1.527  1.00  0.00     0.010 A 
ATOM     44  C   UNL     1       5.777  -8.242   2.405  1.00  0.00    -0.014 A 
BRANCH  44  45
ATOM     45  C   UNL     1       5.905  -9.625   1.880  1.00  0.00     0.031 A 
ATOM     46  C   UNL     1       7.224 -10.173   1.424  1.00  0.00     0.074 A 
ATOM     47  C   UNL     1       4.777 -10.344   1.710  1.00  0.00     0.049 A 
ATOM     48  N   UNL     1       7.487 -11.334   0.882  1.00  0.00    -0.248 NA
ATOM     49  C   UNL     1       8.398  -9.300   1.579  1.00  0.00     0.031 C 
ATOM     50  C   UNL     1       3.427  -9.882   2.045  1.00  0.00     0.029 A 
ATOM     51  N   UNL     1       4.576 -11.594   1.181  1.00  0.00    -0.354 N 
ATOM     52  C   UNL     1       8.848 -11.329   0.608  1.00  0.00     0.074 A 
ATOM     53  C   UNL     1       9.354 -10.037   1.026  1.00  0.00     0.031 C 
ATOM     54  C   UNL     1       2.539 -10.827   1.702  1.00  0.00     0.029 A 
ATOM     55  C   UNL     1       3.249 -11.946   1.095  1.00  0.00     0.049 A 
ATOM     56  H   UNL     1       5.311 -12.181   0.891  1.00  0.00     0.167 HD
ATOM     57  C   UNL     1       9.607 -12.317   0.072  1.00  0.00     0.034 A 
ATOM     58  C   UNL     1       2.664 -13.039   0.567  1.00  0.00     0.034 A 
ATOM     59  C   UNL     1       9.093 -13.601  -0.334  1.00  0.00     0.049 A 
ATOM     60  C   UNL     1       3.531 -14.120  -0.014  1.00  0.00     0.074 A 
ATOM     61  C   UNL     1       9.794 -14.697  -0.805  1.00  0.00     0.029 A 
ATOM     62  N   UNL     1       7.752 -13.955  -0.341  1.00  0.00    -0.354 N 
ATOM     63  N   UNL     1       4.838 -14.168  -0.105  1.00  0.00    -0.248 NA
ATOM     64  C   UNL     1       2.847 -15.312  -0.533  1.00  0.00     0.031 C 
ATOM     65  C   UNL     1       8.874 -15.698  -1.135  1.00  0.00     0.029 A 
ATOM     66  C   UNL     1       7.602 -15.242  -0.832  1.00  0.00     0.049 A 
ATOM     67  H   UNL     1       7.014 -13.376  -0.041  1.00  0.00     0.167 HD
ATOM     68  C   UNL     1       5.135 -15.405  -0.664  1.00  0.00     0.074 A 
ATOM     69  C   UNL     1       3.872 -16.086  -0.864  1.00  0.00     0.031 C 
ATOM     70  C   UNL     1       6.343 -15.925  -0.994  1.00  0.00     0.034 A 
BRANCH  57  71
ATOM     71  C   UNL     1      11.086 -12.066  -0.077  1.00  0.00     0.023 A 
ATOM     72  C   UNL     1      11.902 -12.011   1.071  1.00  0.00     0.012 A 
ATOM     73  C   UNL     1      11.681 -11.959  -1.350  1.00  0.00     0.148 A 
ATOM     74  C   UNL     1      13.279 -11.818   0.958  1.00  0.00     0.002 A 
ATOM     75  C   UNL     1      13.059 -11.813  -1.457  1.00  0.00     0.091 A 
ATOM     76  F   UNL     1      10.889 -11.999  -2.431  1.00  0.00    -0.205 F 
ATOM     77  C   UNL     1      13.858 -11.730  -0.305  1.00  0.00     0.022 A 
BRANCH  75  78
ATOM     78  S   UNL     1      13.913 -11.772  -3.038  1.00  0.00     0.127 S 
ATOM     79  O   UNL     1      14.366 -10.383  -3.094  1.00  0.00    -0.237 OA
ATOM     80  O   UNL     1      14.979 -12.753  -2.838  1.00  0.00    -0.237 OA
ATOM     81  O   UNL     1      12.924 -12.144  -4.040  1.00  0.00    -0.744 OA
ENDBRANCH  75  78
ENDBRANCH  57  71
BRANCH  58  82
ATOM     82  C   UNL     1       1.182 -13.181   0.607  1.00  0.00     0.023 A 
ATOM     83  C   UNL     1       0.602 -14.149   1.449  1.00  0.00     0.012 A 
ATOM     84  C   UNL     1       0.346 -12.344  -0.158  1.00  0.00     0.148 A 
ATOM     85  C   UNL     1      -0.784 -14.305   1.502  1.00  0.00     0.002 A 
ATOM     86  C   UNL     1      -1.035 -12.467  -0.057  1.00  0.00     0.091 A 
ATOM     87  F   UNL     1       0.919 -11.434  -0.958  1.00  0.00    -0.205 F 
ATOM     88  C   UNL     1      -1.601 -13.459   0.758  1.00  0.00     0.022 A 
BRANCH  86  89
ATOM     89  S   UNL     1      -2.166 -11.337  -0.875  1.00  0.00     0.127 S 
ATOM     90  O   UNL     1      -2.776 -12.201  -1.881  1.00  0.00    -0.237 OA
ATOM     91  O   UNL     1      -3.050 -10.949   0.224  1.00  0.00    -0.237 OA
ATOM     92  O   UNL     1      -1.337 -10.254  -1.391  1.00  0.00    -0.744 OA
ENDBRANCH  86  89
ENDBRANCH  58  82
BRANCH  70  93
ATOM     93  C   UNL     1       6.364 -17.310  -1.588  1.00  0.00     0.023 A 
ATOM     94  C   UNL     1       5.887 -17.520  -2.897  1.00  0.00     0.012 A 
ATOM     95  C   UNL     1       6.911 -18.393  -0.870  1.00  0.00     0.148 A 
ATOM     96  C   UNL     1       5.920 -18.792  -3.469  1.00  0.00     0.002 A 
ATOM     97  C   UNL     1       6.990 -19.646  -1.466  1.00  0.00     0.091 A 
ATOM     98  F   UNL     1       7.344 -18.177   0.381  1.00  0.00    -0.205 F 
ATOM     99  C   UNL     1       6.482 -19.851  -2.759  1.00  0.00     0.022 A 
BRANCH  97 100
ATOM    100  S   UNL     1       7.780 -21.048  -0.669  1.00  0.00     0.127 S 
ATOM    101  O   UNL     1       6.636 -21.913  -0.385  1.00  0.00    -0.237 OA
ATOM    102  O   UNL     1       8.671 -21.539  -1.720  1.00  0.00    -0.237 OA
ATOM    103  O   UNL     1       8.462 -20.514   0.502  1.00  0.00    -0.744 OA
ENDBRANCH  97 100
ENDBRANCH  70  93
ENDBRANCH  44  45
ENDBRANCH  36  39
ENDBRANCH  34  35
ENDBRANCH  33  34
ENDBRANCH  32  33
ENDBRANCH   3  32
TORSDOF 19
