REMARK SMILES O=C(NCCCNC(=O)[C@H](CO)NC(=O)[C@H](Cc1c[nH]c2ccccc12)NC(=O)[C@H](Cc1ccc(O)cc1)NC(=O)c1ccc(F)cc1)c1ccc(-c2c3nc(c(-c4cccc(S(=O)(=O)[O-])c4F)c4ccc([nH]4)c(-c4cccc(S(=O)(=O)[O-])c4F)c4nc(c(-c5cccc(S(=O)(=O)[O-])c5F)c5ccc2[nH]5)C=C4)C=C3)cc1
REMARK SMILES IDX 7 1 8 2 9 3 6 5 5 6 4 7 3 8 1 9 2 10 49 12 50 13 111 14
REMARK SMILES IDX 51 15 110 16 52 17 53 18 54 19 104 20 55 21 109 22 103 23
REMARK SMILES IDX 105 24 56 25 108 26 102 27 101 28 57 30 89 31 69 32 88 33
REMARK SMILES IDX 70 34 73 35 87 36 106 37 71 38 72 39 86 41 107 42 74 43
REMARK SMILES IDX 58 44 59 45 67 46 60 47 62 48 68 49 61 50 63 51 64 52 65 53
REMARK SMILES IDX 66 54 90 55 91 56 99 57 92 58 94 59 100 60 93 61 95 62 96 63
REMARK SMILES IDX 97 64 98 65 75 66 76 67 84 68 77 69 79 70 85 71 78 72 80 73
REMARK SMILES IDX 81 74 82 75 83 76 10 77 13 78 14 79 15 81 16 82 27 83 28 84
REMARK SMILES IDX 29 86 30 87 39 88 40 89 41 91 42 92 43 93 48 94 44 95 47 96
REMARK SMILES IDX 45 97 46 98 31 99 32 100 33 101 38 102 34 103 37 104 35 105
REMARK SMILES IDX 36 106 17 108 18 109 19 110 26 111 20 112 21 113 25 114
REMARK SMILES IDX 22 116 24 117 23 118 11 119 12 120
REMARK H PARENT 7 4 3 11 105 29 73 40 13 80 27 85 39 90 36 107 20 115 12 121
REMARK Flexibility Score: inf
ROOT
ATOM      1  N   UNL     1       1.125 -11.031  -1.565  1.00  0.00    -0.354 N 
ATOM      2  C   UNL     1       2.295 -10.409  -1.259  1.00  0.00     0.244 C 
ATOM      3  O   UNL     1       2.202  -9.415  -0.528  1.00  0.00    -0.273 OA
ATOM      4  H   UNL     1       0.331 -10.561  -1.221  1.00  0.00     0.163 HD
ENDROOT
BRANCH   1   5
ATOM      5  C   UNL     1       0.805 -12.249  -2.297  1.00  0.00     0.117 C 
BRANCH   5   6
ATOM      6  C   UNL     1       0.570 -13.420  -1.347  1.00  0.00     0.042 C 
BRANCH   6   7
ATOM      7  C   UNL     1      -0.748 -13.310  -0.584  1.00  0.00     0.118 C 
BRANCH   7   8
ATOM      8  N   UNL     1      -1.907 -13.372  -1.468  1.00  0.00    -0.352 N 
ATOM      9  O   UNL     1      -3.625 -14.309  -2.569  1.00  0.00    -0.269 OA
ATOM     10  C   UNL     1      -2.883 -14.330  -1.588  1.00  0.00     0.251 C 
ATOM     11  H   UNL     1      -2.004 -12.604  -2.076  1.00  0.00     0.163 HD
BRANCH  10  12
ATOM     12  C   UNL     1      -3.032 -15.379  -0.558  1.00  0.00     0.039 A 
ATOM     13  C   UNL     1      -2.897 -15.064   0.794  1.00  0.00     0.014 A 
ATOM     14  C   UNL     1      -3.340 -16.687  -0.943  1.00  0.00     0.014 A 
ATOM     15  C   UNL     1      -2.894 -16.078   1.743  1.00  0.00     0.010 A 
ATOM     16  C   UNL     1      -3.440 -17.690   0.026  1.00  0.00     0.010 A 
ATOM     17  C   UNL     1      -3.177 -17.402   1.373  1.00  0.00    -0.014 A 
BRANCH  17  18
ATOM     18  C   UNL     1      -3.231 -18.449   2.427  1.00  0.00     0.031 A 
ATOM     19  C   UNL     1      -2.280 -19.616   2.415  1.00  0.00     0.074 A 
ATOM     20  C   UNL     1      -4.132 -18.321   3.423  1.00  0.00     0.049 A 
ATOM     21  N   UNL     1      -2.171 -20.590   3.281  1.00  0.00    -0.248 NA
ATOM     22  C   UNL     1      -1.333 -19.710   1.291  1.00  0.00     0.031 C 
ATOM     23  C   UNL     1      -5.129 -17.251   3.520  1.00  0.00     0.029 A 
ATOM     24  N   UNL     1      -4.355 -19.081   4.543  1.00  0.00    -0.354 N 
ATOM     25  C   UNL     1      -1.179 -21.430   2.791  1.00  0.00     0.074 A 
ATOM     26  C   UNL     1      -0.718 -20.858   1.545  1.00  0.00     0.031 C 
ATOM     27  C   UNL     1      -5.828 -17.400   4.653  1.00  0.00     0.029 A 
ATOM     28  C   UNL     1      -5.378 -18.609   5.332  1.00  0.00     0.049 A 
ATOM     29  H   UNL     1      -3.833 -19.887   4.761  1.00  0.00     0.167 HD
ATOM     30  C   UNL     1      -0.684 -22.564   3.342  1.00  0.00     0.034 A 
ATOM     31  C   UNL     1      -5.912 -19.101   6.467  1.00  0.00     0.034 A 
ATOM     32  C   UNL     1      -1.111 -23.098   4.607  1.00  0.00     0.049 A 
ATOM     33  C   UNL     1      -5.334 -20.356   7.057  1.00  0.00     0.074 A 
ATOM     34  C   UNL     1      -0.614 -24.201   5.280  1.00  0.00     0.029 A 
ATOM     35  N   UNL     1      -2.134 -22.581   5.385  1.00  0.00    -0.354 N 
ATOM     36  N   UNL     1      -4.310 -21.062   6.642  1.00  0.00    -0.248 NA
ATOM     37  C   UNL     1      -5.967 -20.873   8.278  1.00  0.00     0.031 C 
ATOM     38  C   UNL     1      -1.357 -24.368   6.451  1.00  0.00     0.029 A 
ATOM     39  C   UNL     1      -2.297 -23.353   6.522  1.00  0.00     0.049 A 
ATOM     40  H   UNL     1      -2.666 -21.783   5.162  1.00  0.00     0.167 HD
ATOM     41  C   UNL     1      -4.168 -22.098   7.556  1.00  0.00     0.074 A 
ATOM     42  C   UNL     1      -5.188 -21.909   8.566  1.00  0.00     0.031 C 
ATOM     43  C   UNL     1      -3.286 -23.127   7.544  1.00  0.00     0.034 A 
BRANCH  30  44
ATOM     44  C   UNL     1       0.416 -23.296   2.618  1.00  0.00     0.023 A 
ATOM     45  C   UNL     1       1.725 -22.777   2.637  1.00  0.00     0.012 A 
ATOM     46  C   UNL     1       0.179 -24.561   2.041  1.00  0.00     0.148 A 
ATOM     47  C   UNL     1       2.782 -23.500   2.085  1.00  0.00     0.002 A 
ATOM     48  C   UNL     1       1.245 -25.294   1.531  1.00  0.00     0.091 A 
ATOM     49  F   UNL     1      -1.077 -25.029   2.022  1.00  0.00    -0.205 F 
ATOM     50  C   UNL     1       2.545 -24.762   1.546  1.00  0.00     0.022 A 
BRANCH  48  51
ATOM     51  S   UNL     1       1.062 -26.963   0.891  1.00  0.00     0.127 S 
ATOM     52  O   UNL     1       1.412 -26.777  -0.517  1.00  0.00    -0.237 OA
ATOM     53  O   UNL     1       2.053 -27.700   1.673  1.00  0.00    -0.237 OA
ATOM     54  O   UNL     1      -0.322 -27.342   1.138  1.00  0.00    -0.744 OA
ENDBRANCH  48  51
ENDBRANCH  30  44
BRANCH  31  55
ATOM     55  C   UNL     1      -7.039 -18.381   7.125  1.00  0.00     0.023 A 
ATOM     56  C   UNL     1      -6.833 -17.754   8.368  1.00  0.00     0.012 A 
ATOM     57  C   UNL     1      -8.296 -18.267   6.498  1.00  0.00     0.148 A 
ATOM     58  C   UNL     1      -7.864 -17.042   8.984  1.00  0.00     0.002 A 
ATOM     59  C   UNL     1      -9.297 -17.504   7.085  1.00  0.00     0.091 A 
ATOM     60  F   UNL     1      -8.479 -18.887   5.324  1.00  0.00    -0.205 F 
ATOM     61  C   UNL     1      -9.090 -16.905   8.337  1.00  0.00     0.022 A 
BRANCH  59  62
ATOM     62  S   UNL     1     -10.847 -17.148   6.250  1.00  0.00     0.127 S 
ATOM     63  O   UNL     1     -11.794 -17.948   7.023  1.00  0.00    -0.237 OA
ATOM     64  O   UNL     1     -10.965 -15.701   6.436  1.00  0.00    -0.237 OA
ATOM     65  O   UNL     1     -10.650 -17.559   4.867  1.00  0.00    -0.744 OA
ENDBRANCH  59  62
ENDBRANCH  31  55
BRANCH  43  66
ATOM     66  C   UNL     1      -3.368 -24.139   8.655  1.00  0.00     0.023 A 
ATOM     67  C   UNL     1      -4.417 -25.078   8.660  1.00  0.00     0.012 A 
ATOM     68  C   UNL     1      -2.340 -24.240   9.614  1.00  0.00     0.148 A 
ATOM     69  C   UNL     1      -4.451 -26.096   9.611  1.00  0.00     0.002 A 
ATOM     70  C   UNL     1      -2.353 -25.287  10.527  1.00  0.00     0.091 A 
ATOM     71  F   UNL     1      -1.359 -23.326   9.597  1.00  0.00    -0.205 F 
ATOM     72  C   UNL     1      -3.413 -26.209  10.534  1.00  0.00     0.022 A 
BRANCH  70  73
ATOM     73  S   UNL     1      -1.012 -25.578  11.685  1.00  0.00     0.127 S 
ATOM     74  O   UNL     1      -1.663 -25.317  12.968  1.00  0.00    -0.237 OA
ATOM     75  O   UNL     1      -0.692 -26.984  11.438  1.00  0.00    -0.237 OA
ATOM     76  O   UNL     1       0.044 -24.642  11.325  1.00  0.00    -0.744 OA
ENDBRANCH  70  73
ENDBRANCH  43  66
ENDBRANCH  17  18
ENDBRANCH  10  12
ENDBRANCH   7   8
ENDBRANCH   6   7
ENDBRANCH   5   6
ENDBRANCH   1   5
BRANCH   2  77
ATOM     77  C   UNL     1       3.652 -10.739  -1.912  1.00  0.00     0.197 C 
BRANCH  77  78
ATOM     78  N   UNL     1       3.805 -12.041  -2.537  1.00  0.00    -0.340 N 
ATOM     79  C   UNL     1       4.086 -13.292  -2.101  1.00  0.00     0.243 C 
ATOM     80  H   UNL     1       3.674 -12.005  -3.512  1.00  0.00     0.164 HD
ATOM     81  O   UNL     1       3.816 -14.154  -2.944  1.00  0.00    -0.273 OA
BRANCH  79  82
ATOM     82  C   UNL     1       4.836 -13.635  -0.773  1.00  0.00     0.175 C 
BRANCH  82  83
ATOM     83  N   UNL     1       4.863 -12.569   0.260  1.00  0.00    -0.342 N 
ATOM     84  C   UNL     1       5.752 -11.570   0.558  1.00  0.00     0.243 C 
ATOM     85  H   UNL     1       4.079 -12.584   0.855  1.00  0.00     0.164 HD
ATOM     86  O   UNL     1       5.486 -10.880   1.548  1.00  0.00    -0.273 OA
BRANCH  84  87
ATOM     87  C   UNL     1       7.078 -11.331  -0.215  1.00  0.00     0.176 C 
BRANCH  87  88
ATOM     88  N   UNL     1       7.090 -11.928  -1.550  1.00  0.00    -0.340 N 
ATOM     89  C   UNL     1       7.893 -12.908  -2.077  1.00  0.00     0.251 C 
ATOM     90  H   UNL     1       6.415 -11.568  -2.169  1.00  0.00     0.164 HD
ATOM     91  O   UNL     1       7.868 -13.084  -3.293  1.00  0.00    -0.269 OA
BRANCH  89  92
ATOM     92  C   UNL     1       8.792 -13.744  -1.230  1.00  0.00     0.040 A 
ATOM     93  C   UNL     1       8.520 -14.089   0.103  1.00  0.00     0.017 A 
ATOM     94  C   UNL     1       9.937 -14.270  -1.843  1.00  0.00     0.017 A 
ATOM     95  C   UNL     1       9.407 -14.887   0.830  1.00  0.00     0.040 A 
ATOM     96  C   UNL     1      10.810 -15.090  -1.126  1.00  0.00     0.040 A 
ATOM     97  C   UNL     1      10.542 -15.382   0.206  1.00  0.00     0.123 A 
ATOM     98  F   UNL     1      11.372 -16.180   0.889  1.00  0.00    -0.207 F 
ENDBRANCH  89  92
ENDBRANCH  87  88
BRANCH  87  99
ATOM     99  C   UNL     1       7.451  -9.818  -0.254  1.00  0.00     0.070 C 
BRANCH  99 100
ATOM    100  C   UNL     1       8.406  -9.463  -1.381  1.00  0.00    -0.045 A 
ATOM    101  C   UNL     1       9.611 -10.166  -1.553  1.00  0.00     0.007 A 
ATOM    102  C   UNL     1       8.026  -8.523  -2.348  1.00  0.00     0.007 A 
ATOM    103  C   UNL     1      10.333 -10.050  -2.742  1.00  0.00     0.046 A 
ATOM    104  C   UNL     1       8.771  -8.377  -3.519  1.00  0.00     0.046 A 
ATOM    105  C   UNL     1       9.889  -9.175  -3.726  1.00  0.00     0.115 A 
BRANCH 105 106
ATOM    106  O   UNL     1      10.520  -9.093  -4.932  1.00  0.00    -0.508 OA
ATOM    107  H   UNL     1      11.277  -9.619  -5.102  1.00  0.00     0.293 HD
ENDBRANCH 105 106
ENDBRANCH  99 100
ENDBRANCH  87  99
ENDBRANCH  84  87
ENDBRANCH  82  83
BRANCH  82 108
ATOM    108  C   UNL     1       4.377 -14.980  -0.134  1.00  0.00     0.072 C 
BRANCH 108 109
ATOM    109  C   UNL     1       4.466 -16.194  -1.023  1.00  0.00    -0.020 A 
ATOM    110  C   UNL     1       3.394 -16.785  -1.668  1.00  0.00     0.087 A 
ATOM    111  C   UNL     1       5.625 -16.953  -1.407  1.00  0.00     0.003 A 
ATOM    112  N   UNL     1       3.869 -17.749  -2.514  1.00  0.00    -0.361 N 
ATOM    113  C   UNL     1       5.233 -17.853  -2.398  1.00  0.00     0.046 A 
ATOM    114  C   UNL     1       6.981 -16.956  -1.032  1.00  0.00     0.010 A 
ATOM    115  H   UNL     1       3.312 -18.291  -3.119  1.00  0.00     0.166 HD
ATOM    116  C   UNL     1       6.135 -18.676  -3.087  1.00  0.00     0.026 A 
ATOM    117  C   UNL     1       7.902 -17.772  -1.703  1.00  0.00     0.001 A 
ATOM    118  C   UNL     1       7.484 -18.606  -2.733  1.00  0.00     0.002 A 
ENDBRANCH 108 109
ENDBRANCH  82 108
ENDBRANCH  79  82
ENDBRANCH  77  78
BRANCH  77 119
ATOM    119  C   UNL     1       3.956  -9.639  -2.946  1.00  0.00     0.191 C 
BRANCH 119 120
ATOM    120  O   UNL     1       3.063  -9.704  -4.059  1.00  0.00    -0.394 OA
ATOM    121  H   UNL     1       3.162 -10.561  -4.503  1.00  0.00     0.210 HD
ENDBRANCH 119 120
ENDBRANCH  77 119
ENDBRANCH   2  77
TORSDOF 26
