REMARK SMILES C[C@@](O)(c1ccc(Cl)cc1Cl)[C@@H](F)C(=O)NCCCNC(=O)c1ccc(-c2c3nc(c(-c4cccc(S(=O)(=O)[O-])c4F)c4ccc([nH]4)c(-c4cccc(S(=O)(=O)[O-])c4F)c4nc(c(-c5cccc(S(=O)(=O)[O-])c5F)c5ccc2[nH]5)C=C4)C=C3)cc1
REMARK SMILES IDX 18 1 17 2 16 3 14 4 15 5 12 7 13 8 2 9 1 10 3 11 4 13 5 14
REMARK SMILES IDX 10 15 6 16 9 17 11 18 7 19 8 20 19 21 20 22 21 23 22 25
REMARK SMILES IDX 23 26 24 27 85 28 25 29 84 30 26 31 27 32 28 33 78 34 29 35
REMARK SMILES IDX 83 36 77 37 79 38 30 39 82 40 76 41 75 42 31 44 63 45 43 46
REMARK SMILES IDX 62 47 44 48 47 49 61 50 80 51 45 52 46 53 60 55 81 56 48 57
REMARK SMILES IDX 32 58 33 59 41 60 34 61 36 62 42 63 35 64 37 65 38 66 39 67
REMARK SMILES IDX 40 68 64 69 65 70 73 71 66 72 68 73 74 74 67 75 69 76 70 77
REMARK SMILES IDX 71 78 72 79 49 80 50 81 58 82 51 83 53 84 59 85 52 86 54 87
REMARK SMILES IDX 55 88 56 89 57 90
REMARK H PARENT 16 6 3 12 20 24 79 43 47 54
REMARK Flexibility Score: inf
ROOT
ATOM      1  C   UNL     1       3.193   0.012  -1.694  1.00  0.00     0.042 C 
ENDROOT
BRANCH   1   2
ATOM      2  C   UNL     1       2.866  -1.387  -1.168  1.00  0.00     0.117 C 
BRANCH   2   3
ATOM      3  N   UNL     1       3.181  -1.541   0.248  1.00  0.00    -0.353 N 
ATOM      4  C   UNL     1       2.389  -1.723   1.345  1.00  0.00     0.257 C 
ATOM      5  O   UNL     1       2.968  -1.777   2.436  1.00  0.00    -0.272 OA
ATOM      6  H   UNL     1       4.144  -1.507   0.450  1.00  0.00     0.163 HD
BRANCH   4   7
ATOM      7  C   UNL     1       0.861  -1.817   1.265  1.00  0.00     0.291 C 
ATOM      8  F   UNL     1       0.445  -2.332   0.069  1.00  0.00    -0.233 F 
BRANCH   7   9
ATOM      9  C   UNL     1       0.132  -0.463   1.564  1.00  0.00     0.128 C 
ATOM     10  C   UNL     1       0.598   0.572   0.529  1.00  0.00     0.051 C 
BRANCH   9  11
ATOM     11  O   UNL     1       0.487  -0.046   2.890  1.00  0.00    -0.382 OA
ATOM     12  H   UNL     1       0.045   0.793   3.094  1.00  0.00     0.212 HD
ENDBRANCH   9  11
BRANCH   9  13
ATOM     13  C   UNL     1      -1.411  -0.536   1.565  1.00  0.00     0.005 A 
ATOM     14  C   UNL     1      -2.082  -1.743   1.268  1.00  0.00     0.010 A 
ATOM     15  C   UNL     1      -2.233   0.587   1.847  1.00  0.00     0.048 A 
ATOM     16  C   UNL     1      -3.477  -1.812   1.185  1.00  0.00     0.021 A 
ATOM     17  C   UNL     1      -3.628   0.523   1.725  1.00  0.00     0.041 A 
ATOM     18  Cl  UNL     1      -1.626   2.110   2.414  1.00  0.00    -0.084 Cl
ATOM     19  C   UNL     1      -4.242  -0.673   1.388  1.00  0.00     0.042 A 
ATOM     20  Cl  UNL     1      -5.953  -0.753   1.241  1.00  0.00    -0.084 Cl
ENDBRANCH   9  13
ENDBRANCH   7   9
ENDBRANCH   4   7
ENDBRANCH   2   3
ENDBRANCH   1   2
BRANCH   1  21
ATOM     21  C   UNL     1       4.676   0.358  -1.674  1.00  0.00     0.118 C 
BRANCH  21  22
ATOM     22  N   UNL     1       5.357  -0.130  -2.861  1.00  0.00    -0.352 N 
ATOM     23  C   UNL     1       5.854   0.575  -3.932  1.00  0.00     0.251 C 
ATOM     24  H   UNL     1       5.481  -1.106  -2.905  1.00  0.00     0.163 HD
ATOM     25  O   UNL     1       6.154  -0.031  -4.958  1.00  0.00    -0.269 OA
BRANCH  23  26
ATOM     26  C   UNL     1       6.022   2.048  -3.867  1.00  0.00     0.039 A 
ATOM     27  C   UNL     1       5.730   2.812  -5.002  1.00  0.00     0.014 A 
ATOM     28  C   UNL     1       6.519   2.677  -2.722  1.00  0.00     0.014 A 
ATOM     29  C   UNL     1       5.901   4.201  -4.974  1.00  0.00     0.010 A 
ATOM     30  C   UNL     1       6.607   4.068  -2.668  1.00  0.00     0.010 A 
ATOM     31  C   UNL     1       6.323   4.846  -3.800  1.00  0.00    -0.014 A 
BRANCH  31  32
ATOM     32  C   UNL     1       6.500   6.322  -3.747  1.00  0.00     0.031 A 
ATOM     33  C   UNL     1       7.859   6.916  -3.474  1.00  0.00     0.074 A 
ATOM     34  C   UNL     1       5.431   7.133  -3.872  1.00  0.00     0.049 A 
ATOM     35  N   UNL     1       8.201   8.173  -3.344  1.00  0.00    -0.248 NA
ATOM     36  C   UNL     1       8.977   5.974  -3.295  1.00  0.00     0.031 C 
ATOM     37  C   UNL     1       4.049   6.688  -4.061  1.00  0.00     0.029 A 
ATOM     38  N   UNL     1       5.334   8.503  -3.833  1.00  0.00    -0.354 N 
ATOM     39  C   UNL     1       9.556   8.170  -3.030  1.00  0.00     0.074 A 
ATOM     40  C   UNL     1       9.967   6.786  -2.953  1.00  0.00     0.031 C 
ATOM     41  C   UNL     1       3.245   7.761  -4.127  1.00  0.00     0.029 A 
ATOM     42  C   UNL     1       4.046   8.970  -3.959  1.00  0.00     0.049 A 
ATOM     43  H   UNL     1       6.114   9.095  -3.726  1.00  0.00     0.167 HD
ATOM     44  C   UNL     1      10.392   9.221  -2.854  1.00  0.00     0.034 A 
ATOM     45  C   UNL     1       3.563  10.229  -3.937  1.00  0.00     0.034 A 
ATOM     46  C   UNL     1       9.997  10.597  -2.989  1.00  0.00     0.049 A 
ATOM     47  C   UNL     1       4.520  11.381  -3.788  1.00  0.00     0.074 A 
ATOM     48  C   UNL     1      10.790  11.729  -2.931  1.00  0.00     0.029 A 
ATOM     49  N   UNL     1       8.698  11.030  -3.204  1.00  0.00    -0.354 N 
ATOM     50  N   UNL     1       5.825  11.358  -3.660  1.00  0.00    -0.248 NA
ATOM     51  C   UNL     1       3.944  12.733  -3.817  1.00  0.00     0.031 C 
ATOM     52  C   UNL     1       9.967  12.849  -3.092  1.00  0.00     0.029 A 
ATOM     53  C   UNL     1       8.664  12.412  -3.271  1.00  0.00     0.049 A 
ATOM     54  H   UNL     1       7.914  10.441  -3.296  1.00  0.00     0.167 HD
ATOM     55  C   UNL     1       6.228  12.688  -3.625  1.00  0.00     0.074 A 
ATOM     56  C   UNL     1       5.031  13.491  -3.770  1.00  0.00     0.031 C 
ATOM     57  C   UNL     1       7.474  13.199  -3.469  1.00  0.00     0.034 A 
BRANCH  44  58
ATOM     58  C   UNL     1      11.840   8.924  -2.558  1.00  0.00     0.023 A 
ATOM     59  C   UNL     1      12.664   8.404  -3.577  1.00  0.00     0.012 A 
ATOM     60  C   UNL     1      12.399   9.211  -1.297  1.00  0.00     0.148 A 
ATOM     61  C   UNL     1      14.011   8.139  -3.338  1.00  0.00     0.002 A 
ATOM     62  C   UNL     1      13.755   8.986  -1.079  1.00  0.00     0.091 A 
ATOM     63  F   UNL     1      11.598   9.686  -0.334  1.00  0.00    -0.205 F 
ATOM     64  C   UNL     1      14.558   8.440  -2.094  1.00  0.00     0.022 A 
BRANCH  62  65
ATOM     65  S   UNL     1      14.572   9.412   0.463  1.00  0.00     0.127 S 
ATOM     66  O   UNL     1      14.818   8.091   1.040  1.00  0.00    -0.237 OA
ATOM     67  O   UNL     1      15.772  10.105  -0.005  1.00  0.00    -0.237 OA
ATOM     68  O   UNL     1      13.634  10.251   1.196  1.00  0.00    -0.744 OA
ENDBRANCH  62  65
ENDBRANCH  44  58
BRANCH  45  69
ATOM     69  C   UNL     1       2.104  10.468  -4.130  1.00  0.00     0.023 A 
ATOM     70  C   UNL     1       1.654  11.055  -5.329  1.00  0.00     0.012 A 
ATOM     71  C   UNL     1       1.162  10.093  -3.153  1.00  0.00     0.148 A 
ATOM     72  C   UNL     1       0.295  11.292  -5.539  1.00  0.00     0.002 A 
ATOM     73  C   UNL     1      -0.195  10.281  -3.393  1.00  0.00     0.091 A 
ATOM     74  F   UNL     1       1.611   9.549  -2.013  1.00  0.00    -0.205 F 
ATOM     75  C   UNL     1      -0.629  10.895  -4.577  1.00  0.00     0.022 A 
BRANCH  73  76
ATOM     76  S   UNL     1      -1.460   9.677  -2.269  1.00  0.00     0.127 S 
ATOM     77  O   UNL     1      -1.958  10.921  -1.685  1.00  0.00    -0.237 OA
ATOM     78  O   UNL     1      -2.388   9.014  -3.187  1.00  0.00    -0.237 OA
ATOM     79  O   UNL     1      -0.775   8.776  -1.356  1.00  0.00    -0.744 OA
ENDBRANCH  73  76
ENDBRANCH  45  69
BRANCH  57  80
ATOM     80  C   UNL     1       7.623  14.698  -3.470  1.00  0.00     0.023 A 
ATOM     81  C   UNL     1       7.191  15.443  -2.355  1.00  0.00     0.012 A 
ATOM     82  C   UNL     1       8.262  15.358  -4.538  1.00  0.00     0.148 A 
ATOM     83  C   UNL     1       7.368  16.825  -2.315  1.00  0.00     0.002 A 
ATOM     84  C   UNL     1       8.477  16.730  -4.470  1.00  0.00     0.091 A 
ATOM     85  F   UNL     1       8.649  14.634  -5.598  1.00  0.00    -0.205 F 
ATOM     86  C   UNL     1       8.021  17.466  -3.365  1.00  0.00     0.022 A 
BRANCH  84  87
ATOM     87  S   UNL     1       9.393  17.625  -5.731  1.00  0.00     0.127 S 
ATOM     88  O   UNL     1       8.327  18.366  -6.403  1.00  0.00    -0.237 OA
ATOM     89  O   UNL     1      10.299  18.449  -4.931  1.00  0.00    -0.237 OA
ATOM     90  O   UNL     1      10.056  16.611  -6.540  1.00  0.00    -0.744 OA
ENDBRANCH  84  87
ENDBRANCH  57  80
ENDBRANCH  31  32
ENDBRANCH  23  26
ENDBRANCH  21  22
ENDBRANCH   1  21
TORSDOF 16
