REMARK SMILES O=C(NCCCNC(=O)[C@H](Cc1ccccc1)SCc1nccs1)c1ccc(-c2c3nc(c(-c4cccc(S(=O)(=O)[O-])c4F)c4ccc([nH]4)c(-c4cccc(S(=O)(=O)[O-])c4F)c4nc(c(-c5cccc(S(=O)(=O)[O-])c5F)c5ccc2[nH]5)C=C4)C=C3)cc1
REMARK SMILES IDX 5 1 4 2 3 3 1 4 2 5 25 7 26 8 87 9 27 10 86 11 28 12 29 13
REMARK SMILES IDX 30 14 80 15 31 16 85 17 79 18 81 19 32 20 84 21 78 22 77 23
REMARK SMILES IDX 33 25 65 26 45 27 64 28 46 29 49 30 63 31 82 32 47 33 48 34
REMARK SMILES IDX 62 36 83 37 50 38 34 39 35 40 43 41 36 42 38 43 44 44 37 45
REMARK SMILES IDX 39 46 40 47 41 48 42 49 66 50 67 51 75 52 68 53 70 54 76 55
REMARK SMILES IDX 69 56 71 57 72 58 73 59 74 60 51 61 52 62 60 63 53 64 55 65
REMARK SMILES IDX 61 66 54 67 56 68 57 69 58 70 59 71 6 72 7 73 8 74 9 76
REMARK SMILES IDX 10 77 18 78 19 79 20 80 21 81 24 82 22 83 23 84 11 85 12 86
REMARK SMILES IDX 13 87 17 88 14 89 16 90 15 91
REMARK H PARENT 3 6 81 24 49 35 7 75
REMARK Flexibility Score: inf
ROOT
ATOM      1  C   UNL     1       3.903   2.594   0.993  1.00  0.00     0.042 C 
ENDROOT
BRANCH   1   2
ATOM      2  C   UNL     1       4.467   2.876  -0.386  1.00  0.00     0.118 C 
BRANCH   2   3
ATOM      3  N   UNL     1       4.633   1.675  -1.181  1.00  0.00    -0.352 N 
ATOM      4  O   UNL     1       4.170   0.200  -2.812  1.00  0.00    -0.269 OA
ATOM      5  C   UNL     1       4.017   1.332  -2.360  1.00  0.00     0.251 C 
ATOM      6  H   UNL     1       5.273   1.016  -0.828  1.00  0.00     0.163 HD
BRANCH   5   7
ATOM      7  C   UNL     1       3.149   2.308  -3.060  1.00  0.00     0.039 A 
ATOM      8  C   UNL     1       3.554   3.633  -3.257  1.00  0.00     0.014 A 
ATOM      9  C   UNL     1       1.918   1.874  -3.557  1.00  0.00     0.014 A 
ATOM     10  C   UNL     1       2.691   4.546  -3.859  1.00  0.00     0.010 A 
ATOM     11  C   UNL     1       1.084   2.772  -4.229  1.00  0.00     0.010 A 
ATOM     12  C   UNL     1       1.461   4.116  -4.380  1.00  0.00    -0.014 A 
BRANCH  12  13
ATOM     13  C   UNL     1       0.643   5.027  -5.221  1.00  0.00     0.031 A 
ATOM     14  C   UNL     1      -0.741   5.445  -4.812  1.00  0.00     0.074 A 
ATOM     15  C   UNL     1       1.138   5.394  -6.420  1.00  0.00     0.049 A 
ATOM     16  N   UNL     1      -1.615   6.149  -5.483  1.00  0.00    -0.248 NA
ATOM     17  C   UNL     1      -1.212   5.012  -3.486  1.00  0.00     0.031 C 
ATOM     18  C   UNL     1       2.447   4.995  -6.946  1.00  0.00     0.029 A 
ATOM     19  N   UNL     1       0.589   6.142  -7.431  1.00  0.00    -0.354 N 
ATOM     20  C   UNL     1      -2.754   6.205  -4.691  1.00  0.00     0.074 A 
ATOM     21  C   UNL     1      -2.457   5.473  -3.477  1.00  0.00     0.031 C 
ATOM     22  C   UNL     1       2.592   5.483  -8.185  1.00  0.00     0.029 A 
ATOM     23  C   UNL     1       1.370   6.181  -8.563  1.00  0.00     0.049 A 
ATOM     24  H   UNL     1      -0.276   6.604  -7.354  1.00  0.00     0.167 HD
ATOM     25  C   UNL     1      -3.933   6.817  -4.953  1.00  0.00     0.034 A 
ATOM     26  C   UNL     1       1.119   6.682  -9.788  1.00  0.00     0.034 A 
ATOM     27  C   UNL     1      -4.201   7.580  -6.144  1.00  0.00     0.049 A 
ATOM     28  C   UNL     1      -0.195   7.361 -10.040  1.00  0.00     0.074 A 
ATOM     29  C   UNL     1      -5.316   8.345  -6.441  1.00  0.00     0.029 A 
ATOM     30  N   UNL     1      -3.362   7.656  -7.244  1.00  0.00    -0.354 N 
ATOM     31  N   UNL     1      -1.188   7.563  -9.209  1.00  0.00    -0.248 NA
ATOM     32  C   UNL     1      -0.417   7.899 -11.389  1.00  0.00     0.031 C 
ATOM     33  C   UNL     1      -5.164   8.859  -7.733  1.00  0.00     0.029 A 
ATOM     34  C   UNL     1      -3.947   8.427  -8.234  1.00  0.00     0.049 A 
ATOM     35  H   UNL     1      -2.479   7.225  -7.312  1.00  0.00     0.167 HD
ATOM     36  C   UNL     1      -2.148   8.263  -9.929  1.00  0.00     0.074 A 
ATOM     37  C   UNL     1      -1.602   8.479 -11.254  1.00  0.00     0.031 C 
ATOM     38  C   UNL     1      -3.379   8.669  -9.535  1.00  0.00     0.034 A 
BRANCH  25  39
ATOM     39  C   UNL     1      -5.030   6.734  -3.925  1.00  0.00     0.023 A 
ATOM     40  C   UNL     1      -4.967   7.546  -2.776  1.00  0.00     0.012 A 
ATOM     41  C   UNL     1      -6.176   5.948  -4.156  1.00  0.00     0.148 A 
ATOM     42  C   UNL     1      -6.023   7.570  -1.865  1.00  0.00     0.002 A 
ATOM     43  C   UNL     1      -7.239   6.001  -3.261  1.00  0.00     0.091 A 
ATOM     44  F   UNL     1      -6.207   5.169  -5.247  1.00  0.00    -0.205 F 
ATOM     45  C   UNL     1      -7.162   6.808  -2.114  1.00  0.00     0.022 A 
BRANCH  43  46
ATOM     46  S   UNL     1      -8.778   5.111  -3.526  1.00  0.00     0.127 S 
ATOM     47  O   UNL     1      -8.706   4.085  -2.487  1.00  0.00    -0.237 OA
ATOM     48  O   UNL     1      -9.780   6.151  -3.287  1.00  0.00    -0.237 OA
ATOM     49  O   UNL     1      -8.727   4.618  -4.895  1.00  0.00    -0.744 OA
ENDBRANCH  43  46
ENDBRANCH  25  39
BRANCH  26  50
ATOM     50  C   UNL     1       2.147   6.563 -10.857  1.00  0.00     0.023 A 
ATOM     51  C   UNL     1       2.826   7.714 -11.297  1.00  0.00     0.012 A 
ATOM     52  C   UNL     1       2.493   5.310 -11.401  1.00  0.00     0.148 A 
ATOM     53  C   UNL     1       3.817   7.622 -12.275  1.00  0.00     0.002 A 
ATOM     54  C   UNL     1       3.521   5.218 -12.331  1.00  0.00     0.091 A 
ATOM     55  F   UNL     1       1.821   4.226 -10.987  1.00  0.00    -0.205 F 
ATOM     56  C   UNL     1       4.174   6.375 -12.782  1.00  0.00     0.022 A 
BRANCH  54  57
ATOM     57  S   UNL     1       4.134   3.631 -12.908  1.00  0.00     0.127 S 
ATOM     58  O   UNL     1       3.458   3.498 -14.195  1.00  0.00    -0.237 OA
ATOM     59  O   UNL     1       5.576   3.865 -12.990  1.00  0.00    -0.237 OA
ATOM     60  O   UNL     1       3.747   2.677 -11.876  1.00  0.00    -0.744 OA
ENDBRANCH  54  57
ENDBRANCH  26  50
BRANCH  38  61
ATOM     61  C   UNL     1      -4.226   9.392 -10.546  1.00  0.00     0.023 A 
ATOM     62  C   UNL     1      -4.833   8.661 -11.586  1.00  0.00     0.012 A 
ATOM     63  C   UNL     1      -4.480  10.772 -10.427  1.00  0.00     0.148 A 
ATOM     64  C   UNL     1      -5.661   9.297 -12.508  1.00  0.00     0.002 A 
ATOM     65  C   UNL     1      -5.342  11.391 -11.324  1.00  0.00     0.091 A 
ATOM     66  F   UNL     1      -3.876  11.450  -9.440  1.00  0.00    -0.205 F 
ATOM     67  C   UNL     1      -5.925  10.658 -12.371  1.00  0.00     0.022 A 
BRANCH  65  68
ATOM     68  S   UNL     1      -5.809  13.119 -11.176  1.00  0.00     0.127 S 
ATOM     69  O   UNL     1      -5.111  13.716 -12.313  1.00  0.00    -0.237 OA
ATOM     70  O   UNL     1      -7.264  13.060 -11.315  1.00  0.00    -0.237 OA
ATOM     71  O   UNL     1      -5.344  13.550  -9.864  1.00  0.00    -0.744 OA
ENDBRANCH  65  68
ENDBRANCH  38  61
ENDBRANCH  12  13
ENDBRANCH   5   7
ENDBRANCH   2   3
ENDBRANCH   1   2
BRANCH   1  72
ATOM     72  C   UNL     1       4.882   2.017   2.008  1.00  0.00     0.117 C 
BRANCH  72  73
ATOM     73  N   UNL     1       6.184   2.663   2.055  1.00  0.00    -0.355 N 
ATOM     74  C   UNL     1       6.902   3.354   2.978  1.00  0.00     0.233 C 
ATOM     75  H   UNL     1       6.668   2.578   1.202  1.00  0.00     0.163 HD
ATOM     76  O   UNL     1       8.084   3.573   2.676  1.00  0.00    -0.274 OA
BRANCH  74  77
ATOM     77  C   UNL     1       6.370   3.849   4.326  1.00  0.00     0.140 C 
BRANCH  77  78
ATOM     78  S   UNL     1       5.837   5.623   4.297  1.00  0.00    -0.141 SA
BRANCH  78  79
ATOM     79  C   UNL     1       4.587   5.677   2.983  1.00  0.00     0.137 C 
BRANCH  79  80
ATOM     80  C   UNL     1       5.128   6.059   1.633  1.00  0.00     0.102 A 
ATOM     81  N   UNL     1       6.199   5.544   1.063  1.00  0.00    -0.249 NA
ATOM     82  S   UNL     1       4.276   7.194   0.649  1.00  0.00    -0.126 S 
ATOM     83  C   UNL     1       6.409   6.107  -0.178  1.00  0.00     0.123 A 
ATOM     84  C   UNL     1       5.455   7.013  -0.582  1.00  0.00     0.087 A 
ENDBRANCH  79  80
ENDBRANCH  78  79
ENDBRANCH  77  78
BRANCH  77  85
ATOM     85  C   UNL     1       5.657   2.800   5.202  1.00  0.00     0.060 C 
BRANCH  85  86
ATOM     86  C   UNL     1       4.606   3.267   6.176  1.00  0.00    -0.046 A 
ATOM     87  C   UNL     1       3.313   3.594   5.744  1.00  0.00     0.004 A 
ATOM     88  C   UNL     1       4.900   3.343   7.545  1.00  0.00     0.004 A 
ATOM     89  C   UNL     1       2.348   4.023   6.657  1.00  0.00     0.000 A 
ATOM     90  C   UNL     1       3.929   3.753   8.458  1.00  0.00     0.000 A 
ATOM     91  C   UNL     1       2.656   4.102   8.013  1.00  0.00     0.000 A 
ENDBRANCH  85  86
ENDBRANCH  77  85
ENDBRANCH  74  77
ENDBRANCH  72  73
ENDBRANCH   1  72
TORSDOF 18
