REMARK SMILES CC1(C)S[C@@H](c2cccc3c2sc2ccccc23)[NH2+][C@@H]1C(=O)NCCCNC(=O)c1ccc(-c2c3nc(c(-c4cccc(S(=O)(=O)[O-])c4F)c4ccc([nH]4)c(-c4cccc(S(=O)(=O)[O-])c4F)c4nc(c(-c5cccc(S(=O)(=O)[O-])c5F)c5ccc2[nH]5)C=C4)C=C3)cc1
REMARK SMILES IDX 26 1 25 2 24 3 23 4 21 5 22 6 20 8 1 9 2 10 3 11 4 12 5 13
REMARK SMILES IDX 19 14 6 17 7 18 11 19 8 20 10 21 12 22 9 23 18 24 13 25
REMARK SMILES IDX 17 26 14 27 16 28 15 29 27 30 28 31 29 33 30 34 31 35 92 36
REMARK SMILES IDX 32 37 91 38 33 39 34 40 35 41 85 42 36 43 90 44 84 45 86 46
REMARK SMILES IDX 37 47 89 48 83 49 82 50 38 52 70 53 50 54 69 55 51 56 54 57
REMARK SMILES IDX 68 58 87 59 52 60 53 61 67 63 88 64 55 65 39 66 40 67 48 68
REMARK SMILES IDX 41 69 43 70 49 71 42 72 44 73 45 74 46 75 47 76 71 77 72 78
REMARK SMILES IDX 80 79 73 80 75 81 81 82 74 83 76 84 77 85 78 86 79 87 56 88
REMARK SMILES IDX 57 89 65 90 58 91 60 92 66 93 59 94 61 95 62 96 63 97 64 98
REMARK H PARENT 23 7 19 15 19 16 27 32 86 51 54 62
REMARK Flexibility Score: inf
ROOT
ATOM      1  C   UNL     1      -3.427   3.346  -4.029  1.00  0.00     0.118 C 
ENDROOT
BRANCH   1   2
ATOM      2  C   UNL     1      -3.172   3.359  -2.531  1.00  0.00     0.042 C 
BRANCH   2   3
ATOM      3  C   UNL     1      -2.740   2.020  -1.961  1.00  0.00     0.118 C 
BRANCH   3   4
ATOM      4  N   UNL     1      -1.494   1.546  -2.545  1.00  0.00    -0.351 N 
ATOM      5  C   UNL     1      -0.299   1.181  -2.003  1.00  0.00     0.279 C 
ATOM      6  O   UNL     1       0.585   0.921  -2.826  1.00  0.00    -0.268 OA
ATOM      7  H   UNL     1      -1.520   1.474  -3.526  1.00  0.00     0.163 HD
BRANCH   5   8
ATOM      8  C   UNL     1      -0.014   1.203  -0.473  1.00  0.00     0.289 C 
ATOM      9  C   UNL     1       1.594   0.605   1.415  1.00  0.00     0.030 C 
ATOM     10  C   UNL     1       1.015   0.160   0.056  1.00  0.00     0.077 C 
ATOM     11  C   UNL     1       2.185  -0.199  -0.860  1.00  0.00     0.030 C 
ATOM     12  S   UNL     1      -0.009  -1.333   0.373  1.00  0.00    -0.081 SA
ATOM     13  C   UNL     1      -1.577  -0.423   0.277  1.00  0.00     0.276 C 
ATOM     14  N   UNL     1      -1.244   1.002   0.334  1.00  0.00    -0.320 N 
ATOM     15  H   UNL     1      -1.077   1.282   1.301  1.00  0.00     0.348 HD
ATOM     16  H   UNL     1      -2.012   1.566  -0.031  1.00  0.00     0.348 HD
BRANCH  13  17
ATOM     17  C   UNL     1      -2.582  -0.791   1.353  1.00  0.00     0.038 A 
ATOM     18  C   UNL     1      -2.222  -0.693   2.719  1.00  0.00     0.012 A 
ATOM     19  C   UNL     1      -3.925  -1.185   1.073  1.00  0.00     0.046 A 
ATOM     20  C   UNL     1      -3.112  -0.980   3.739  1.00  0.00     0.001 A 
ATOM     21  C   UNL     1      -4.837  -1.500   2.087  1.00  0.00     0.001 A 
ATOM     22  S   UNL     1      -4.680  -1.338  -0.472  1.00  0.00    -0.135 S 
ATOM     23  C   UNL     1      -4.405  -1.390   3.433  1.00  0.00     0.010 A 
ATOM     24  C   UNL     1      -6.132  -1.906   1.568  1.00  0.00     0.000 A 
ATOM     25  C   UNL     1      -6.181  -1.839   0.179  1.00  0.00     0.036 A 
ATOM     26  C   UNL     1      -7.303  -2.332   2.251  1.00  0.00     0.010 A 
ATOM     27  C   UNL     1      -7.353  -2.159  -0.538  1.00  0.00     0.019 A 
ATOM     28  C   UNL     1      -8.463  -2.666   1.546  1.00  0.00     0.001 A 
ATOM     29  C   UNL     1      -8.487  -2.574   0.163  1.00  0.00     0.002 A 
ENDBRANCH  13  17
ENDBRANCH   5   8
ENDBRANCH   3   4
ENDBRANCH   2   3
ENDBRANCH   1   2
BRANCH   1  30
ATOM     30  N   UNL     1      -4.507   2.447  -4.417  1.00  0.00    -0.352 N 
ATOM     31  C   UNL     1      -5.722   2.729  -4.994  1.00  0.00     0.251 C 
ATOM     32  H   UNL     1      -4.341   1.494  -4.237  1.00  0.00     0.163 HD
ATOM     33  O   UNL     1      -6.573   1.846  -5.085  1.00  0.00    -0.269 OA
BRANCH  31  34
ATOM     34  C   UNL     1      -6.013   4.093  -5.482  1.00  0.00     0.039 A 
ATOM     35  C   UNL     1      -7.268   4.653  -5.228  1.00  0.00     0.014 A 
ATOM     36  C   UNL     1      -5.049   4.826  -6.178  1.00  0.00     0.014 A 
ATOM     37  C   UNL     1      -7.525   5.972  -5.606  1.00  0.00     0.010 A 
ATOM     38  C   UNL     1      -5.269   6.171  -6.455  1.00  0.00     0.010 A 
ATOM     39  C   UNL     1      -6.513   6.757  -6.184  1.00  0.00    -0.014 A 
BRANCH  39  40
ATOM     40  C   UNL     1      -6.732   8.190  -6.509  1.00  0.00     0.031 A 
ATOM     41  C   UNL     1      -6.593   8.676  -7.928  1.00  0.00     0.074 A 
ATOM     42  C   UNL     1      -6.975   9.069  -5.516  1.00  0.00     0.049 A 
ATOM     43  N   UNL     1      -6.694   9.893  -8.396  1.00  0.00    -0.248 NA
ATOM     44  C   UNL     1      -6.268   7.668  -8.952  1.00  0.00     0.031 C 
ATOM     45  C   UNL     1      -7.052   8.737  -4.091  1.00  0.00     0.029 A 
ATOM     46  N   UNL     1      -7.178  10.426  -5.550  1.00  0.00    -0.354 N 
ATOM     47  C   UNL     1      -6.413   9.803  -9.754  1.00  0.00     0.074 A 
ATOM     48  C   UNL     1      -6.093   8.420 -10.028  1.00  0.00     0.031 C 
ATOM     49  C   UNL     1      -7.302   9.855  -3.390  1.00  0.00     0.029 A 
ATOM     50  C   UNL     1      -7.364  10.988  -4.308  1.00  0.00     0.049 A 
ATOM     51  H   UNL     1      -7.190  10.948  -6.384  1.00  0.00     0.167 HD
ATOM     52  C   UNL     1      -6.448  10.775 -10.696  1.00  0.00     0.034 A 
ATOM     53  C   UNL     1      -7.555  12.272  -3.947  1.00  0.00     0.034 A 
ATOM     54  C   UNL     1      -6.803  12.142 -10.426  1.00  0.00     0.049 A 
ATOM     55  C   UNL     1      -7.618  13.329  -5.016  1.00  0.00     0.074 A 
ATOM     56  C   UNL     1      -6.949  13.185 -11.322  1.00  0.00     0.029 A 
ATOM     57  N   UNL     1      -7.058  12.659  -9.165  1.00  0.00    -0.354 N 
ATOM     58  N   UNL     1      -7.500  13.197  -6.315  1.00  0.00    -0.248 NA
ATOM     59  C   UNL     1      -7.875  14.707  -4.574  1.00  0.00     0.031 C 
ATOM     60  C   UNL     1      -7.261  14.342 -10.600  1.00  0.00     0.029 A 
ATOM     61  C   UNL     1      -7.348  14.010  -9.257  1.00  0.00     0.049 A 
ATOM     62  H   UNL     1      -7.035  12.143  -8.327  1.00  0.00     0.167 HD
ATOM     63  C   UNL     1      -7.707  14.464  -6.848  1.00  0.00     0.074 A 
ATOM     64  C   UNL     1      -7.979  15.346  -5.731  1.00  0.00     0.031 C 
ATOM     65  C   UNL     1      -7.665  14.865  -8.142  1.00  0.00     0.034 A 
BRANCH  52  66
ATOM     66  C   UNL     1      -6.141  10.383 -12.119  1.00  0.00     0.023 A 
ATOM     67  C   UNL     1      -7.051   9.576 -12.833  1.00  0.00     0.012 A 
ATOM     68  C   UNL     1      -4.984  10.857 -12.768  1.00  0.00     0.148 A 
ATOM     69  C   UNL     1      -6.797   9.214 -14.155  1.00  0.00     0.002 A 
ATOM     70  C   UNL     1      -4.762  10.532 -14.101  1.00  0.00     0.091 A 
ATOM     71  F   UNL     1      -4.120  11.606 -12.069  1.00  0.00    -0.205 F 
ATOM     72  C   UNL     1      -5.659   9.701 -14.791  1.00  0.00     0.022 A 
BRANCH  70  73
ATOM     73  S   UNL     1      -3.371  11.175 -15.038  1.00  0.00     0.127 S 
ATOM     74  O   UNL     1      -2.571   9.968 -15.244  1.00  0.00    -0.237 OA
ATOM     75  O   UNL     1      -4.023  11.687 -16.243  1.00  0.00    -0.237 OA
ATOM     76  O   UNL     1      -2.756  12.194 -14.199  1.00  0.00    -0.744 OA
ENDBRANCH  70  73
ENDBRANCH  52  66
BRANCH  53  77
ATOM     77  C   UNL     1      -7.764  12.623  -2.513  1.00  0.00     0.023 A 
ATOM     78  C   UNL     1      -9.032  13.064  -2.086  1.00  0.00     0.012 A 
ATOM     79  C   UNL     1      -6.725  12.505  -1.570  1.00  0.00     0.148 A 
ATOM     80  C   UNL     1      -9.251  13.418  -0.754  1.00  0.00     0.002 A 
ATOM     81  C   UNL     1      -6.965  12.804  -0.234  1.00  0.00     0.091 A 
ATOM     82  F   UNL     1      -5.524  12.090  -1.998  1.00  0.00    -0.205 F 
ATOM     83  C   UNL     1      -8.222  13.279   0.173  1.00  0.00     0.022 A 
BRANCH  81  84
ATOM     84  S   UNL     1      -5.740  12.533   1.051  1.00  0.00     0.127 S 
ATOM     85  O   UNL     1      -5.414  13.901   1.447  1.00  0.00    -0.237 OA
ATOM     86  O   UNL     1      -6.504  11.770   2.039  1.00  0.00    -0.237 OA
ATOM     87  O   UNL     1      -4.662  11.786   0.418  1.00  0.00    -0.744 OA
ENDBRANCH  81  84
ENDBRANCH  53  77
BRANCH  65  88
ATOM     88  C   UNL     1      -7.961  16.313  -8.435  1.00  0.00     0.023 A 
ATOM     89  C   UNL     1      -7.033  17.311  -8.077  1.00  0.00     0.012 A 
ATOM     90  C   UNL     1      -9.133  16.676  -9.129  1.00  0.00     0.148 A 
ATOM     91  C   UNL     1      -7.285  18.651  -8.370  1.00  0.00     0.002 A 
ATOM     92  C   UNL     1      -9.351  18.006  -9.466  1.00  0.00     0.091 A 
ATOM     93  F   UNL     1     -10.012  15.714  -9.447  1.00  0.00    -0.205 F 
ATOM     94  C   UNL     1      -8.436  18.996  -9.074  1.00  0.00     0.022 A 
BRANCH  92  95
ATOM     95  S   UNL     1     -10.754  18.532 -10.456  1.00  0.00     0.127 S 
ATOM     96  O   UNL     1     -11.563  19.247  -9.470  1.00  0.00    -0.237 OA
ATOM     97  O   UNL     1     -10.119  19.387 -11.460  1.00  0.00    -0.237 OA
ATOM     98  O   UNL     1     -11.350  17.315 -10.989  1.00  0.00    -0.744 OA
ENDBRANCH  92  95
ENDBRANCH  65  88
ENDBRANCH  39  40
ENDBRANCH  31  34
ENDBRANCH   1  30
TORSDOF 14
