REMARK SMILES O=C(NCCCNC(=O)[C@H]1C[C@H](O)CN1S(=O)(=O)c1ccc2c(c1)OCCO2)c1ccc(-c2c3nc(c(-c4cccc(S(=O)(=O)[O-])c4F)c4ccc([nH]4)c(-c4cccc(S(=O)(=O)[O-])c4F)c4nc(c(-c5cccc(S(=O)(=O)[O-])c5F)c5ccc2[nH]5)C=C4)C=C3)cc1
REMARK SMILES IDX 4 1 3 2 1 3 2 4 29 6 30 7 91 8 31 9 90 10 32 11 33 12 34 13
REMARK SMILES IDX 84 14 35 15 89 16 83 17 85 18 36 19 88 20 82 21 81 22 37 24
REMARK SMILES IDX 69 25 49 26 68 27 50 28 53 29 67 30 86 31 51 32 52 33 66 35
REMARK SMILES IDX 87 36 54 37 38 38 39 39 47 40 40 41 42 42 48 43 41 44 43 45
REMARK SMILES IDX 44 46 45 47 46 48 70 49 71 50 79 51 72 52 74 53 80 54 73 55
REMARK SMILES IDX 75 56 76 57 77 58 78 59 55 60 56 61 64 62 57 63 59 64 65 65
REMARK SMILES IDX 58 66 60 67 61 68 62 69 63 70 5 71 6 72 7 73 8 74 9 76 10 77
REMARK SMILES IDX 11 78 15 79 12 80 14 81 16 82 17 83 18 84 19 85 20 86 24 87
REMARK SMILES IDX 21 88 23 89 22 90 25 91 28 92 26 93 27 94 13 95
REMARK H PARENT 3 5 85 23 53 34 7 75 13 96
REMARK Flexibility Score: inf
ROOT
ATOM      1  C   UNL     1       4.625   1.029  -0.567  1.00  0.00     0.118 C 
ENDROOT
BRANCH   1   2
ATOM      2  N   UNL     1       3.173   0.928  -0.395  1.00  0.00    -0.352 N 
ATOM      3  O   UNL     1       1.202  -0.025   0.165  1.00  0.00    -0.269 OA
ATOM      4  C   UNL     1       2.425  -0.020   0.267  1.00  0.00     0.251 C 
ATOM      5  H   UNL     1       2.652   1.648  -0.818  1.00  0.00     0.163 HD
BRANCH   4   6
ATOM      6  C   UNL     1       3.116  -1.047   1.069  1.00  0.00     0.039 A 
ATOM      7  C   UNL     1       4.211  -0.683   1.849  1.00  0.00     0.014 A 
ATOM      8  C   UNL     1       2.709  -2.383   1.005  1.00  0.00     0.014 A 
ATOM      9  C   UNL     1       5.034  -1.667   2.363  1.00  0.00     0.010 A 
ATOM     10  C   UNL     1       3.460  -3.364   1.660  1.00  0.00     0.010 A 
ATOM     11  C   UNL     1       4.654  -3.018   2.307  1.00  0.00    -0.014 A 
BRANCH  11  12
ATOM     12  C   UNL     1       5.503  -4.001   3.025  1.00  0.00     0.031 A 
ATOM     13  C   UNL     1       6.192  -5.130   2.314  1.00  0.00     0.074 A 
ATOM     14  C   UNL     1       5.709  -3.793   4.342  1.00  0.00     0.049 A 
ATOM     15  N   UNL     1       7.048  -5.994   2.796  1.00  0.00    -0.248 NA
ATOM     16  C   UNL     1       5.880  -5.333   0.890  1.00  0.00     0.031 C 
ATOM     17  C   UNL     1       5.042  -2.756   5.138  1.00  0.00     0.029 A 
ATOM     18  N   UNL     1       6.559  -4.392   5.232  1.00  0.00    -0.354 N 
ATOM     19  C   UNL     1       7.338  -6.870   1.758  1.00  0.00     0.074 A 
ATOM     20  C   UNL     1       6.570  -6.433   0.612  1.00  0.00     0.031 C 
ATOM     21  C   UNL     1       5.572  -2.730   6.365  1.00  0.00     0.029 A 
ATOM     22  C   UNL     1       6.557  -3.797   6.473  1.00  0.00     0.049 A 
ATOM     23  H   UNL     1       7.117  -5.171   5.007  1.00  0.00     0.167 HD
ATOM     24  C   UNL     1       8.178  -7.933   1.762  1.00  0.00     0.034 A 
ATOM     25  C   UNL     1       7.267  -4.078   7.581  1.00  0.00     0.034 A 
ATOM     26  C   UNL     1       8.972  -8.325   2.898  1.00  0.00     0.049 A 
ATOM     27  C   UNL     1       8.254  -5.204   7.524  1.00  0.00     0.074 A 
ATOM     28  C   UNL     1       9.868  -9.375   3.002  1.00  0.00     0.029 A 
ATOM     29  N   UNL     1       8.975  -7.677   4.125  1.00  0.00    -0.354 N 
ATOM     30  N   UNL     1       8.570  -5.967   6.506  1.00  0.00    -0.248 NA
ATOM     31  C   UNL     1       8.991  -5.501   8.758  1.00  0.00     0.031 C 
ATOM     32  C   UNL     1      10.414  -9.359   4.290  1.00  0.00     0.029 A 
ATOM     33  C   UNL     1       9.862  -8.297   4.988  1.00  0.00     0.049 A 
ATOM     34  H   UNL     1       8.426  -6.890   4.348  1.00  0.00     0.167 HD
ATOM     35  C   UNL     1       9.534  -6.845   6.978  1.00  0.00     0.074 A 
ATOM     36  C   UNL     1       9.792  -6.478   8.357  1.00  0.00     0.031 C 
ATOM     37  C   UNL     1      10.123  -7.889   6.344  1.00  0.00     0.034 A 
BRANCH  24  38
ATOM     38  C   UNL     1       8.325  -8.723   0.488  1.00  0.00     0.023 A 
ATOM     39  C   UNL     1       9.103  -8.200  -0.563  1.00  0.00     0.012 A 
ATOM     40  C   UNL     1       7.765 -10.011   0.360  1.00  0.00     0.148 A 
ATOM     41  C   UNL     1       9.310  -8.937  -1.730  1.00  0.00     0.002 A 
ATOM     42  C   UNL     1       8.003 -10.753  -0.793  1.00  0.00     0.091 A 
ATOM     43  F   UNL     1       7.010 -10.483   1.361  1.00  0.00    -0.205 F 
ATOM     44  C   UNL     1       8.770 -10.216  -1.840  1.00  0.00     0.022 A 
BRANCH  42  45
ATOM     45  S   UNL     1       7.407 -12.435  -1.006  1.00  0.00     0.127 S 
ATOM     46  O   UNL     1       6.356 -12.251  -2.006  1.00  0.00    -0.237 OA
ATOM     47  O   UNL     1       8.600 -13.127  -1.496  1.00  0.00    -0.237 OA
ATOM     48  O   UNL     1       6.952 -12.868   0.308  1.00  0.00    -0.744 OA
ENDBRANCH  42  45
ENDBRANCH  24  38
BRANCH  25  49
ATOM     49  C   UNL     1       7.083  -3.246   8.803  1.00  0.00     0.023 A 
ATOM     50  C   UNL     1       8.123  -2.401   9.235  1.00  0.00     0.012 A 
ATOM     51  C   UNL     1       5.852  -3.220   9.486  1.00  0.00     0.148 A 
ATOM     52  C   UNL     1       7.941  -1.556  10.332  1.00  0.00     0.002 A 
ATOM     53  C   UNL     1       5.655  -2.324  10.530  1.00  0.00     0.091 A 
ATOM     54  F   UNL     1       4.877  -4.047   9.082  1.00  0.00    -0.205 F 
ATOM     55  C   UNL     1       6.703  -1.503  10.967  1.00  0.00     0.022 A 
BRANCH  53  56
ATOM     56  S   UNL     1       4.023  -2.092  11.245  1.00  0.00     0.127 S 
ATOM     57  O   UNL     1       4.029  -3.059  12.338  1.00  0.00    -0.237 OA
ATOM     58  O   UNL     1       4.054  -0.689  11.662  1.00  0.00    -0.237 OA
ATOM     59  O   UNL     1       3.103  -2.358  10.145  1.00  0.00    -0.744 OA
ENDBRANCH  53  56
ENDBRANCH  25  49
BRANCH  37  60
ATOM     60  C   UNL     1      11.082  -8.714   7.155  1.00  0.00     0.023 A 
ATOM     61  C   UNL     1      10.572  -9.607   8.118  1.00  0.00     0.012 A 
ATOM     62  C   UNL     1      12.470  -8.633   6.948  1.00  0.00     0.148 A 
ATOM     63  C   UNL     1      11.433 -10.384   8.889  1.00  0.00     0.002 A 
ATOM     64  C   UNL     1      13.322  -9.440   7.693  1.00  0.00     0.091 A 
ATOM     65  F   UNL     1      12.937  -7.757   6.046  1.00  0.00    -0.205 F 
ATOM     66  C   UNL     1      12.807 -10.308   8.670  1.00  0.00     0.022 A 
BRANCH  64  67
ATOM     67  S   UNL     1      15.095  -9.450   7.414  1.00  0.00     0.127 S 
ATOM     68  O   UNL     1      15.567  -8.536   8.452  1.00  0.00    -0.237 OA
ATOM     69  O   UNL     1      15.444 -10.855   7.633  1.00  0.00    -0.237 OA
ATOM     70  O   UNL     1      15.274  -8.998   6.040  1.00  0.00    -0.744 OA
ENDBRANCH  64  67
ENDBRANCH  37  60
ENDBRANCH  11  12
ENDBRANCH   4   6
ENDBRANCH   1   2
BRANCH   1  71
ATOM     71  C   UNL     1       5.052   0.980  -2.022  1.00  0.00     0.042 C 
BRANCH  71  72
ATOM     72  C   UNL     1       4.605   2.212  -2.772  1.00  0.00     0.117 C 
BRANCH  72  73
ATOM     73  N   UNL     1       5.500   3.339  -2.638  1.00  0.00    -0.355 N 
ATOM     74  C   UNL     1       6.018   4.156  -3.596  1.00  0.00     0.238 C 
ATOM     75  H   UNL     1       5.775   3.548  -1.716  1.00  0.00     0.163 HD
ATOM     76  O   UNL     1       6.649   5.144  -3.203  1.00  0.00    -0.273 OA
BRANCH  74  77
ATOM     77  C   UNL     1       5.953   3.829  -5.085  1.00  0.00     0.165 C 
ATOM     78  C   UNL     1       6.751   2.558  -5.411  1.00  0.00     0.063 C 
ATOM     79  N   UNL     1       4.676   3.747  -5.856  1.00  0.00    -0.183 NA
ATOM     80  C   UNL     1       5.788   1.618  -6.106  1.00  0.00     0.131 C 
ATOM     81  C   UNL     1       4.690   2.515  -6.666  1.00  0.00     0.135 C 
BRANCH  79  82
ATOM     82  S   UNL     1       3.271   4.380  -5.179  1.00  0.00     0.244 S 
ATOM     83  O   UNL     1       2.705   3.411  -4.266  1.00  0.00    -0.207 OA
ATOM     84  O   UNL     1       3.570   5.722  -4.740  1.00  0.00    -0.207 OA
BRANCH  82  85
ATOM     85  C   UNL     1       2.056   4.484  -6.470  1.00  0.00     0.086 A 
ATOM     86  C   UNL     1       1.532   5.723  -6.846  1.00  0.00     0.026 A 
ATOM     87  C   UNL     1       1.433   3.300  -6.883  1.00  0.00     0.072 A 
ATOM     88  C   UNL     1       0.383   5.769  -7.644  1.00  0.00     0.052 A 
ATOM     89  C   UNL     1       0.332   3.351  -7.722  1.00  0.00     0.162 A 
ATOM     90  C   UNL     1      -0.223   4.585  -8.069  1.00  0.00     0.161 A 
ATOM     91  O   UNL     1      -0.176   2.145  -8.126  1.00  0.00    -0.486 OA
ATOM     92  O   UNL     1      -1.378   4.695  -8.802  1.00  0.00    -0.486 OA
ATOM     93  C   UNL     1      -1.109   2.316  -9.197  1.00  0.00     0.271 C 
ATOM     94  C   UNL     1      -2.075   3.440  -8.864  1.00  0.00     0.271 C 
ENDBRANCH  82  85
ENDBRANCH  79  82
BRANCH  80  95
ATOM     95  O   UNL     1       6.448   0.906  -7.146  1.00  0.00    -0.392 OA
ATOM     96  H   UNL     1       6.825   1.536  -7.780  1.00  0.00     0.211 HD
ENDBRANCH  80  95
ENDBRANCH  74  77
ENDBRANCH  72  73
ENDBRANCH  71  72
ENDBRANCH   1  71
TORSDOF 16
