REMARK SMILES CC(=O)Nc1ccc(/C=C2/CCc3oc(C(=O)NCCCNC(=O)c4ccc(-c5c6nc(c(-c7cccc(S(=O)(=O)[O-])c7F)c7ccc([nH]7)c(-c7cccc(S(=O)(=O)[O-])c7F)c7nc(c(-c8cccc(S(=O)(=O)[O-])c8F)c8ccc5[nH]8)C=C7)C=C6)cc4)c(C)c3C2=O)cc1
REMARK SMILES IDX 20 1 19 2 18 3 16 4 17 5 15 7 9 8 10 9 11 10 91 11 12 12
REMARK SMILES IDX 90 13 92 14 13 15 88 16 14 17 89 18 8 19 5 20 6 21 94 22
REMARK SMILES IDX 7 23 93 24 4 25 1 26 2 27 3 28 21 30 22 31 23 32 24 34 25 35
REMARK SMILES IDX 26 36 87 37 27 38 86 39 28 40 29 41 30 42 80 43 31 44 85 45
REMARK SMILES IDX 79 46 81 47 32 48 84 49 78 50 77 51 33 53 65 54 45 55 64 56
REMARK SMILES IDX 46 57 49 58 63 59 82 60 47 61 48 62 62 64 83 65 50 66 34 67
REMARK SMILES IDX 35 68 43 69 36 70 38 71 44 72 37 73 39 74 40 75 41 76 42 77
REMARK SMILES IDX 66 78 67 79 75 80 68 81 70 82 76 83 69 84 71 85 72 86 73 87
REMARK SMILES IDX 74 88 51 89 52 90 60 91 53 92 55 93 61 94 54 95 56 96 57 97
REMARK SMILES IDX 58 98 59 99
REMARK H PARENT 18 6 4 29 22 33 81 52 49 63
REMARK Flexibility Score: inf
ROOT
ATOM      1  C   UNL     1       2.563  -5.462  12.230  1.00  0.00     0.042 C 
ENDROOT
BRANCH   1   2
ATOM      2  C   UNL     1       1.486  -5.467  11.139  1.00  0.00     0.118 C 
BRANCH   2   3
ATOM      3  N   UNL     1       0.410  -4.520  11.386  1.00  0.00    -0.349 N 
ATOM      4  C   UNL     1       0.178  -3.263  10.868  1.00  0.00     0.287 C 
ATOM      5  O   UNL     1      -0.918  -2.762  11.115  1.00  0.00    -0.266 OA
ATOM      6  H   UNL     1      -0.266  -4.828  12.032  1.00  0.00     0.163 HD
BRANCH   4   7
ATOM      7  C   UNL     1       1.177  -2.593  10.053  1.00  0.00     0.195 A 
ATOM      8  C   UNL     1       4.181  -0.751   5.680  1.00  0.00     0.016 C 
ATOM      9  C   UNL     1       4.111  -0.851   7.022  1.00  0.00     0.001 C 
ATOM     10  C   UNL     1       5.093  -1.702   7.821  1.00  0.00     0.048 C 
ATOM     11  C   UNL     1       3.024  -0.244   7.880  1.00  0.00     0.192 C 
ATOM     12  C   UNL     1       4.384  -2.897   8.482  1.00  0.00     0.081 C 
ATOM     13  C   UNL     1       2.421  -1.259   8.725  1.00  0.00     0.067 A 
ATOM     14  O   UNL     1       2.738   0.933   7.884  1.00  0.00    -0.289 OA
ATOM     15  C   UNL     1       3.081  -2.429   8.996  1.00  0.00     0.116 A 
ATOM     16  C   UNL     1       1.165  -1.355   9.398  1.00  0.00     0.012 A 
ATOM     17  O   UNL     1       2.374  -3.216   9.816  1.00  0.00    -0.455 OA
ATOM     18  C   UNL     1       0.067  -0.350   9.348  1.00  0.00     0.049 C 
BRANCH   8  19
ATOM     19  C   UNL     1       3.295  -0.117   4.678  1.00  0.00    -0.025 A 
ATOM     20  C   UNL     1       1.693   1.016   2.623  1.00  0.00     0.041 A 
ATOM     21  C   UNL     1       1.306   1.097   3.955  1.00  0.00     0.027 A 
ATOM     22  C   UNL     1       2.895   0.386   2.312  1.00  0.00     0.027 A 
ATOM     23  C   UNL     1       2.075   0.500   4.960  1.00  0.00     0.010 A 
ATOM     24  C   UNL     1       3.690  -0.164   3.331  1.00  0.00     0.010 A 
BRANCH  20  25
ATOM     25  N   UNL     1       0.858   1.633   1.682  1.00  0.00    -0.326 N 
ATOM     26  C   UNL     1       1.062   0.018  -0.189  1.00  0.00     0.114 C 
ATOM     27  C   UNL     1       0.625   1.344   0.370  1.00  0.00     0.221 C 
ATOM     28  O   UNL     1      -0.014   2.140  -0.321  1.00  0.00    -0.275 OA
ATOM     29  H   UNL     1       0.355   2.406   2.026  1.00  0.00     0.169 HD
ENDBRANCH  20  25
ENDBRANCH   8  19
ENDBRANCH   4   7
ENDBRANCH   2   3
ENDBRANCH   1   2
BRANCH   1  30
ATOM     30  C   UNL     1       2.178  -6.398  13.364  1.00  0.00     0.118 C 
BRANCH  30  31
ATOM     31  N   UNL     1       2.195  -7.815  12.949  1.00  0.00    -0.352 N 
ATOM     32  C   UNL     1       1.936  -8.950  13.696  1.00  0.00     0.251 C 
ATOM     33  H   UNL     1       2.423  -7.974  12.005  1.00  0.00     0.163 HD
ATOM     34  O   UNL     1       2.261 -10.060  13.287  1.00  0.00    -0.269 OA
BRANCH  32  35
ATOM     35  C   UNL     1       1.244  -8.800  14.985  1.00  0.00     0.039 A 
ATOM     36  C   UNL     1       1.551  -9.574  16.110  1.00  0.00     0.014 A 
ATOM     37  C   UNL     1       0.275  -7.811  15.048  1.00  0.00     0.014 A 
ATOM     38  C   UNL     1       0.904  -9.290  17.311  1.00  0.00     0.010 A 
ATOM     39  C   UNL     1      -0.148  -7.366  16.259  1.00  0.00     0.010 A 
ATOM     40  C   UNL     1       0.057  -8.178  17.364  1.00  0.00    -0.014 A 
BRANCH  40  41
ATOM     41  C   UNL     1      -0.616  -7.737  18.574  1.00  0.00     0.031 A 
ATOM     42  C   UNL     1       0.310  -7.163  19.586  1.00  0.00     0.074 A 
ATOM     43  C   UNL     1      -1.955  -7.533  18.547  1.00  0.00     0.049 A 
ATOM     44  N   UNL     1       0.575  -7.606  20.771  1.00  0.00    -0.248 NA
ATOM     45  C   UNL     1       1.199  -6.065  19.157  1.00  0.00     0.031 C 
ATOM     46  C   UNL     1      -2.865  -7.696  17.398  1.00  0.00     0.029 A 
ATOM     47  N   UNL     1      -2.757  -6.927  19.460  1.00  0.00    -0.354 N 
ATOM     48  C   UNL     1       1.452  -6.667  21.317  1.00  0.00     0.074 A 
ATOM     49  C   UNL     1       2.017  -5.959  20.205  1.00  0.00     0.031 C 
ATOM     50  C   UNL     1      -3.969  -6.942  17.587  1.00  0.00     0.029 A 
ATOM     51  C   UNL     1      -3.917  -6.370  18.918  1.00  0.00     0.049 A 
ATOM     52  H   UNL     1      -2.540  -6.884  20.419  1.00  0.00     0.167 HD
ATOM     53  C   UNL     1       1.374  -6.308  22.630  1.00  0.00     0.034 A 
ATOM     54  C   UNL     1      -4.711  -5.428  19.491  1.00  0.00     0.034 A 
ATOM     55  C   UNL     1       0.576  -7.253  23.375  1.00  0.00     0.049 A 
ATOM     56  C   UNL     1      -4.367  -5.394  20.934  1.00  0.00     0.074 A 
ATOM     57  C   UNL     1       0.598  -8.625  23.544  1.00  0.00     0.029 A 
ATOM     58  N   UNL     1      -0.691  -6.854  23.734  1.00  0.00    -0.354 N 
ATOM     59  N   UNL     1      -4.563  -6.397  21.746  1.00  0.00    -0.248 NA
ATOM     60  C   UNL     1      -3.353  -4.436  21.349  1.00  0.00     0.031 C 
ATOM     61  C   UNL     1      -0.772  -9.017  23.483  1.00  0.00     0.029 A 
ATOM     62  C   UNL     1      -1.550  -7.862  23.388  1.00  0.00     0.049 A 
ATOM     63  H   UNL     1      -0.934  -6.001  24.162  1.00  0.00     0.167 HD
ATOM     64  C   UNL     1      -3.401  -6.452  22.506  1.00  0.00     0.074 A 
ATOM     65  C   UNL     1      -2.733  -5.169  22.279  1.00  0.00     0.031 C 
ATOM     66  C   UNL     1      -2.921  -7.638  22.987  1.00  0.00     0.034 A 
BRANCH  53  67
ATOM     67  C   UNL     1       1.645  -4.913  23.172  1.00  0.00     0.023 A 
ATOM     68  C   UNL     1       1.594  -4.759  24.577  1.00  0.00     0.012 A 
ATOM     69  C   UNL     1       1.671  -3.720  22.409  1.00  0.00     0.148 A 
ATOM     70  C   UNL     1       1.489  -3.501  25.179  1.00  0.00     0.002 A 
ATOM     71  C   UNL     1       1.650  -2.469  23.016  1.00  0.00     0.091 A 
ATOM     72  F   UNL     1       1.585  -3.760  21.080  1.00  0.00    -0.205 F 
ATOM     73  C   UNL     1       1.520  -2.353  24.399  1.00  0.00     0.022 A 
BRANCH  71  74
ATOM     74  S   UNL     1       1.737  -0.953  22.051  1.00  0.00     0.127 S 
ATOM     75  O   UNL     1       0.369  -0.457  22.166  1.00  0.00    -0.237 OA
ATOM     76  O   UNL     1       2.740  -0.187  22.792  1.00  0.00    -0.237 OA
ATOM     77  O   UNL     1       2.163  -1.358  20.717  1.00  0.00    -0.744 OA
ENDBRANCH  71  74
ENDBRANCH  53  67
BRANCH  54  78
ATOM     78  C   UNL     1      -5.503  -4.345  18.849  1.00  0.00     0.023 A 
ATOM     79  C   UNL     1      -6.546  -3.713  19.558  1.00  0.00     0.012 A 
ATOM     80  C   UNL     1      -5.077  -3.749  17.640  1.00  0.00     0.148 A 
ATOM     81  C   UNL     1      -7.129  -2.526  19.090  1.00  0.00     0.002 A 
ATOM     82  C   UNL     1      -5.671  -2.580  17.169  1.00  0.00     0.091 A 
ATOM     83  F   UNL     1      -4.023  -4.272  17.000  1.00  0.00    -0.205 F 
ATOM     84  C   UNL     1      -6.691  -1.958  17.897  1.00  0.00     0.022 A 
BRANCH  82  85
ATOM     85  S   UNL     1      -5.147  -1.799  15.635  1.00  0.00     0.127 S 
ATOM     86  O   UNL     1      -6.428  -1.529  14.980  1.00  0.00    -0.237 OA
ATOM     87  O   UNL     1      -4.446  -0.616  16.124  1.00  0.00    -0.237 OA
ATOM     88  O   UNL     1      -4.325  -2.792  14.955  1.00  0.00    -0.744 OA
ENDBRANCH  82  85
ENDBRANCH  54  78
BRANCH  66  89
ATOM     89  C   UNL     1      -3.784  -8.871  22.878  1.00  0.00     0.023 A 
ATOM     90  C   UNL     1      -4.168  -9.432  21.641  1.00  0.00     0.012 A 
ATOM     91  C   UNL     1      -4.031  -9.595  24.055  1.00  0.00     0.148 A 
ATOM     92  C   UNL     1      -4.793 -10.682  21.584  1.00  0.00     0.002 A 
ATOM     93  C   UNL     1      -4.608 -10.856  23.991  1.00  0.00     0.091 A 
ATOM     94  F   UNL     1      -3.658  -9.049  25.222  1.00  0.00    -0.205 F 
ATOM     95  C   UNL     1      -4.999 -11.402  22.758  1.00  0.00     0.022 A 
BRANCH  93  96
ATOM     96  S   UNL     1      -4.774 -11.878  25.456  1.00  0.00     0.127 S 
ATOM     97  O   UNL     1      -6.205 -11.780  25.734  1.00  0.00    -0.237 OA
ATOM     98  O   UNL     1      -4.331 -13.188  24.978  1.00  0.00    -0.237 OA
ATOM     99  O   UNL     1      -3.897 -11.285  26.458  1.00  0.00    -0.744 OA
ENDBRANCH  93  96
ENDBRANCH  66  89
ENDBRANCH  40  41
ENDBRANCH  32  35
ENDBRANCH  30  31
ENDBRANCH   1  30
TORSDOF 15
