REMARK SMILES Cc1cccc(C[N@@H+](C)C[C@]2(C(=O)NCCCNC(=O)c3ccc(-c4c5nc(c(-c6cccc(S(=O)(=O)[O-])c6F)c6ccc([nH]6)c(-c6cccc(S(=O)(=O)[O-])c6F)c6nc(c(-c7cccc(S(=O)(=O)[O-])c7F)c7ccc4[nH]7)C=C6)C=C5)cc3)CCC[C@H](C)C2)n1
REMARK SMILES IDX 15 1 14 2 12 3 13 4 11 6 84 7 89 8 85 9 87 10 86 11 88 12
REMARK SMILES IDX 10 13 8 14 9 15 7 17 6 18 1 19 2 20 3 21 90 22 4 23 5 24
REMARK SMILES IDX 16 25 17 26 18 27 19 28 20 30 21 31 22 32 83 33 23 34 82 35
REMARK SMILES IDX 24 36 25 37 26 38 76 39 27 40 81 41 75 42 77 43 28 44 80 45
REMARK SMILES IDX 74 46 73 47 29 49 61 50 41 51 60 52 42 53 45 54 59 55 78 56
REMARK SMILES IDX 43 57 44 58 58 60 79 61 46 62 30 63 31 64 39 65 32 66 34 67
REMARK SMILES IDX 40 68 33 69 35 70 36 71 37 72 38 73 62 74 63 75 71 76 64 77
REMARK SMILES IDX 66 78 72 79 65 80 67 81 68 82 69 83 70 84 47 85 48 86 56 87
REMARK SMILES IDX 49 88 51 89 57 90 50 91 52 92 53 93 54 94 55 95
REMARK H PARENT 14 5 8 16 18 29 77 48 45 59
REMARK Flexibility Score: inf
ROOT
ATOM      1  C   UNL     1       0.629   4.444   1.129  1.00  0.00     0.117 C 
ENDROOT
BRANCH   1   2
ATOM      2  N   UNL     1       1.195   3.530   2.098  1.00  0.00    -0.355 N 
ATOM      3  C   UNL     1       0.584   2.783   3.057  1.00  0.00     0.231 C 
ATOM      4  O   UNL     1       1.264   1.859   3.523  1.00  0.00    -0.274 OA
ATOM      5  H   UNL     1       2.174   3.435   2.058  1.00  0.00     0.163 HD
BRANCH   3   6
ATOM      6  C   UNL     1      -0.859   3.063   3.569  1.00  0.00     0.098 C 
ATOM      7  C   UNL     1      -1.072   2.220   4.878  1.00  0.00     0.023 C 
ATOM      8  C   UNL     1      -1.085   4.545   3.968  1.00  0.00     0.026 C 
ATOM      9  C   UNL     1      -0.240   2.685   6.078  1.00  0.00     0.002 C 
ATOM     10  C   UNL     1      -0.185   5.015   5.125  1.00  0.00    -0.013 C 
ATOM     11  C   UNL     1      -0.432   4.166   6.372  1.00  0.00     0.003 C 
ATOM     12  C   UNL     1      -0.427   6.495   5.430  1.00  0.00     0.007 C 
BRANCH   6  13
ATOM     13  C   UNL     1      -1.914   2.499   2.535  1.00  0.00     0.279 C 
BRANCH  13  14
ATOM     14  N   UNL     1      -1.982   3.137   1.216  1.00  0.00    -0.331 N 
ATOM     15  C   UNL     1      -2.950   4.232   1.139  1.00  0.00     0.333 C 
ATOM     16  H   UNL     1      -1.036   3.514   1.151  1.00  0.00     0.348 HD
BRANCH  14  17
ATOM     17  C   UNL     1      -2.124   2.258   0.039  1.00  0.00     0.319 C 
BRANCH  17  18
ATOM     18  C   UNL     1      -1.286   0.986   0.003  1.00  0.00     0.095 A 
ATOM     19  C   UNL     1       2.289   0.086  -0.007  1.00  0.00     0.067 C 
ATOM     20  C   UNL     1       0.795  -0.056  -0.018  1.00  0.00     0.038 A 
ATOM     21  C   UNL     1       0.208  -1.317   0.004  1.00  0.00     0.023 A 
ATOM     22  N   UNL     1       0.068   1.089  -0.036  1.00  0.00    -0.252 NA
ATOM     23  C   UNL     1      -1.178  -1.411   0.014  1.00  0.00     0.004 A 
ATOM     24  C   UNL     1      -1.936  -0.248   0.017  1.00  0.00     0.030 A 
ENDBRANCH  17  18
ENDBRANCH  14  17
ENDBRANCH  13  14
ENDBRANCH   6  13
ENDBRANCH   3   6
ENDBRANCH   1   2
BRANCH   1  25
ATOM     25  C   UNL     1       1.352   5.767   1.038  1.00  0.00     0.042 C 
BRANCH  25  26
ATOM     26  C   UNL     1       2.703   5.655   0.368  1.00  0.00     0.118 C 
BRANCH  26  27
ATOM     27  N   UNL     1       2.610   5.233  -1.029  1.00  0.00    -0.352 N 
ATOM     28  C   UNL     1       2.833   5.932  -2.191  1.00  0.00     0.251 C 
ATOM     29  H   UNL     1       2.342   4.295  -1.159  1.00  0.00     0.163 HD
ATOM     30  O   UNL     1       2.516   5.442  -3.272  1.00  0.00    -0.269 OA
BRANCH  28  31
ATOM     31  C   UNL     1       3.433   7.282  -2.139  1.00  0.00     0.039 A 
ATOM     32  C   UNL     1       2.966   8.278  -3.001  1.00  0.00     0.014 A 
ATOM     33  C   UNL     1       4.450   7.570  -1.230  1.00  0.00     0.014 A 
ATOM     34  C   UNL     1       3.466   9.578  -2.888  1.00  0.00     0.010 A 
ATOM     35  C   UNL     1       4.838   8.884  -1.023  1.00  0.00     0.010 A 
ATOM     36  C   UNL     1       4.374   9.901  -1.867  1.00  0.00    -0.014 A 
BRANCH  36  37
ATOM     37  C   UNL     1       4.888  11.280  -1.674  1.00  0.00     0.031 A 
ATOM     38  C   UNL     1       6.374  11.536  -1.720  1.00  0.00     0.074 A 
ATOM     39  C   UNL     1       4.038  12.276  -1.353  1.00  0.00     0.049 A 
ATOM     40  N   UNL     1       7.029  12.640  -1.476  1.00  0.00    -0.248 NA
ATOM     41  C   UNL     1       7.242  10.388  -2.039  1.00  0.00     0.031 C 
ATOM     42  C   UNL     1       2.589  12.136  -1.187  1.00  0.00     0.029 A 
ATOM     43  N   UNL     1       4.274  13.600  -1.082  1.00  0.00    -0.354 N 
ATOM     44  C   UNL     1       8.376  12.308  -1.562  1.00  0.00     0.074 A 
ATOM     45  C   UNL     1       8.448  10.890  -1.828  1.00  0.00     0.031 C 
ATOM     46  C   UNL     1       2.066  13.328  -0.857  1.00  0.00     0.029 A 
ATOM     47  C   UNL     1       3.141  14.308  -0.753  1.00  0.00     0.049 A 
ATOM     48  H   UNL     1       5.170  14.006  -1.120  1.00  0.00     0.167 HD
ATOM     49  C   UNL     1       9.459  13.115  -1.467  1.00  0.00     0.034 A 
ATOM     50  C   UNL     1       2.989  15.599  -0.400  1.00  0.00     0.034 A 
ATOM     51  C   UNL     1       9.378  14.535  -1.267  1.00  0.00     0.049 A 
ATOM     52  C   UNL     1       4.202  16.489  -0.361  1.00  0.00     0.074 A 
ATOM     53  C   UNL     1      10.405  15.461  -1.258  1.00  0.00     0.029 A 
ATOM     54  N   UNL     1       8.203  15.234  -1.041  1.00  0.00    -0.354 N 
ATOM     55  N   UNL     1       5.455  16.188  -0.604  1.00  0.00    -0.248 NA
ATOM     56  C   UNL     1       3.978  17.905  -0.038  1.00  0.00     0.031 C 
ATOM     57  C   UNL     1       9.851  16.720  -1.002  1.00  0.00     0.029 A 
ATOM     58  C   UNL     1       8.478  16.580  -0.883  1.00  0.00     0.049 A 
ATOM     59  H   UNL     1       7.306  14.831  -0.998  1.00  0.00     0.167 HD
ATOM     60  C   UNL     1       6.162  17.380  -0.501  1.00  0.00     0.074 A 
ATOM     61  C   UNL     1       5.193  18.413  -0.194  1.00  0.00     0.031 C 
ATOM     62  C   UNL     1       7.493  17.601  -0.634  1.00  0.00     0.034 A 
BRANCH  49  63
ATOM     63  C   UNL     1      10.818  12.487  -1.639  1.00  0.00     0.023 A 
ATOM     64  C   UNL     1      11.209  12.005  -2.906  1.00  0.00     0.012 A 
ATOM     65  C   UNL     1      11.725  12.415  -0.564  1.00  0.00     0.148 A 
ATOM     66  C   UNL     1      12.462  11.424  -3.091  1.00  0.00     0.002 A 
ATOM     67  C   UNL     1      12.992  11.881  -0.768  1.00  0.00     0.091 A 
ATOM     68  F   UNL     1      11.329  12.858   0.638  1.00  0.00    -0.205 F 
ATOM     69  C   UNL     1      13.357  11.372  -2.026  1.00  0.00     0.022 A 
BRANCH  67  70
ATOM     70  S   UNL     1      14.248  11.845   0.515  1.00  0.00     0.127 S 
ATOM     71  O   UNL     1      14.338  10.413   0.800  1.00  0.00    -0.237 OA
ATOM     72  O   UNL     1      15.409  12.403  -0.177  1.00  0.00    -0.237 OA
ATOM     73  O   UNL     1      13.736  12.666   1.603  1.00  0.00    -0.744 OA
ENDBRANCH  67  70
ENDBRANCH  49  63
BRANCH  50  74
ATOM     74  C   UNL     1       1.628  16.144  -0.128  1.00  0.00     0.023 A 
ATOM     75  C   UNL     1       1.054  17.054  -1.038  1.00  0.00     0.012 A 
ATOM     76  C   UNL     1       0.892  15.753   1.007  1.00  0.00     0.148 A 
ATOM     77  C   UNL     1      -0.212  17.592  -0.806  1.00  0.00     0.002 A 
ATOM     78  C   UNL     1      -0.392  16.250   1.204  1.00  0.00     0.091 A 
ATOM     79  F   UNL     1       1.457  14.893   1.866  1.00  0.00    -0.205 F 
ATOM     80  C   UNL     1      -0.938  17.184   0.309  1.00  0.00     0.022 A 
BRANCH  78  81
ATOM     81  S   UNL     1      -1.452  15.684   2.539  1.00  0.00     0.127 S 
ATOM     82  O   UNL     1      -1.505  16.863   3.400  1.00  0.00    -0.237 OA
ATOM     83  O   UNL     1      -2.695  15.381   1.830  1.00  0.00    -0.237 OA
ATOM     84  O   UNL     1      -0.784  14.518   3.104  1.00  0.00    -0.744 OA
ENDBRANCH  78  81
ENDBRANCH  50  74
BRANCH  62  85
ATOM     85  C   UNL     1       7.984  19.017  -0.495  1.00  0.00     0.023 A 
ATOM     86  C   UNL     1       8.012  19.631   0.772  1.00  0.00     0.012 A 
ATOM     87  C   UNL     1       8.496  19.707  -1.612  1.00  0.00     0.148 A 
ATOM     88  C   UNL     1       8.510  20.925   0.920  1.00  0.00     0.002 A 
ATOM     89  C   UNL     1       9.040  20.975  -1.447  1.00  0.00     0.091 A 
ATOM     90  F   UNL     1       8.445  19.111  -2.812  1.00  0.00    -0.205 F 
ATOM     91  C   UNL     1       9.036  21.590  -0.185  1.00  0.00     0.022 A 
BRANCH  89  92
ATOM     92  S   UNL     1       9.830  21.865  -2.792  1.00  0.00     0.127 S 
ATOM     93  O   UNL     1       8.857  22.924  -3.060  1.00  0.00    -0.237 OA
ATOM     94  O   UNL     1      11.074  22.322  -2.173  1.00  0.00    -0.237 OA
ATOM     95  O   UNL     1      10.009  20.896  -3.865  1.00  0.00    -0.744 OA
ENDBRANCH  89  92
ENDBRANCH  62  85
ENDBRANCH  36  37
ENDBRANCH  28  31
ENDBRANCH  26  27
ENDBRANCH  25  26
ENDBRANCH   1  25
TORSDOF 17
