REMARK SMILES COc1ccc(-c2cc(C(=O)NCCCNC(=O)c3ccc(-c4c5nc(c(-c6cccc(S(=O)(=O)[O-])c6F)c6ccc([nH]6)c(-c6cccc(S(=O)(=O)[O-])c6F)c6nc(c(-c7cccc(S(=O)(=O)[O-])c7F)c7ccc4[nH]7)C=C6)C=C5)cc3)nc(=O)n2C)cc1
REMARK SMILES IDX 14 1 13 2 12 3 10 4 11 5 9 7 7 8 8 9 85 10 83 11 86 12 82 13
REMARK SMILES IDX 84 14 6 15 3 16 4 17 88 18 5 19 87 20 2 21 1 22 15 23 16 24
REMARK SMILES IDX 17 25 18 27 19 28 20 29 81 30 21 31 80 32 22 33 23 34 24 35
REMARK SMILES IDX 74 36 25 37 79 38 73 39 75 40 26 41 78 42 72 43 71 44 27 46
REMARK SMILES IDX 59 47 39 48 58 49 40 50 43 51 57 52 76 53 41 54 42 55 56 57
REMARK SMILES IDX 77 58 44 59 28 60 29 61 37 62 30 63 32 64 38 65 31 66 33 67
REMARK SMILES IDX 34 68 35 69 36 70 60 71 61 72 69 73 62 74 64 75 70 76 63 77
REMARK SMILES IDX 65 78 66 79 67 80 68 81 45 82 46 83 54 84 47 85 49 86 55 87
REMARK SMILES IDX 48 88 50 89 51 90 52 91 53 92
REMARK H PARENT 12 6 16 26 75 45 43 56
REMARK Flexibility Score: inf
ROOT
ATOM      1  C   UNL     1       2.029  11.893  -3.407  1.00  0.00     0.042 C 
ENDROOT
BRANCH   1   2
ATOM      2  C   UNL     1       2.604  11.142  -2.211  1.00  0.00     0.118 C 
BRANCH   2   3
ATOM      3  N   UNL     1       1.560  10.508  -1.422  1.00  0.00    -0.351 N 
ATOM      4  C   UNL     1       1.151   9.200  -1.353  1.00  0.00     0.270 C 
ATOM      5  O   UNL     1       0.203   8.909  -0.625  1.00  0.00    -0.268 OA
ATOM      6  H   UNL     1       1.060  11.123  -0.838  1.00  0.00     0.163 HD
BRANCH   4   7
ATOM      7  C   UNL     1       1.862   8.078  -2.116  1.00  0.00     0.136 A 
ATOM      8  C   UNL     1       2.045   5.725  -2.428  1.00  0.00     0.055 A 
ATOM      9  C   UNL     1       1.432   6.713  -1.769  1.00  0.00     0.061 A 
ATOM     10  N   UNL     1       3.030   6.010  -3.359  1.00  0.00    -0.295 N 
ATOM     11  C   UNL     1       3.434   7.328  -3.612  1.00  0.00     0.348 A 
ATOM     12  C   UNL     1       3.723   4.983  -4.120  1.00  0.00     0.155 C 
ATOM     13  N   UNL     1       2.778   8.348  -2.981  1.00  0.00    -0.188 NA
ATOM     14  O   UNL     1       4.378   7.571  -4.362  1.00  0.00    -0.246 OA
BRANCH   8  15
ATOM     15  C   UNL     1       1.647   4.348  -2.088  1.00  0.00    -0.001 A 
ATOM     16  C   UNL     1       0.856   1.754  -1.349  1.00  0.00     0.118 A 
ATOM     17  C   UNL     1      -0.037   2.603  -2.004  1.00  0.00     0.047 A 
ATOM     18  C   UNL     1       2.154   2.192  -1.083  1.00  0.00     0.047 A 
ATOM     19  C   UNL     1       0.351   3.894  -2.368  1.00  0.00     0.014 A 
ATOM     20  C   UNL     1       2.544   3.486  -1.441  1.00  0.00     0.014 A 
BRANCH  16  21
ATOM     21  O   UNL     1       0.372   0.509  -1.053  1.00  0.00    -0.497 OA
ATOM     22  C   UNL     1       0.919  -0.090   0.117  1.00  0.00     0.278 C 
ENDBRANCH  16  21
ENDBRANCH   8  15
ENDBRANCH   4   7
ENDBRANCH   2   3
ENDBRANCH   1   2
BRANCH   1  23
ATOM     23  C   UNL     1       1.236  13.137  -3.010  1.00  0.00     0.118 C 
BRANCH  23  24
ATOM     24  N   UNL     1       2.052  14.116  -2.296  1.00  0.00    -0.352 N 
ATOM     25  C   UNL     1       2.429  15.387  -2.654  1.00  0.00     0.251 C 
ATOM     26  H   UNL     1       2.385  13.817  -1.420  1.00  0.00     0.163 HD
ATOM     27  O   UNL     1       3.305  15.964  -2.016  1.00  0.00    -0.269 OA
BRANCH  25  28
ATOM     28  C   UNL     1       1.787  16.054  -3.804  1.00  0.00     0.039 A 
ATOM     29  C   UNL     1       2.581  16.758  -4.713  1.00  0.00     0.014 A 
ATOM     30  C   UNL     1       0.403  15.990  -3.979  1.00  0.00     0.014 A 
ATOM     31  C   UNL     1       1.994  17.329  -5.844  1.00  0.00     0.010 A 
ATOM     32  C   UNL     1      -0.167  16.488  -5.144  1.00  0.00     0.010 A 
ATOM     33  C   UNL     1       0.622  17.157  -6.091  1.00  0.00    -0.014 A 
BRANCH  33  34
ATOM     34  C   UNL     1      -0.005  17.626  -7.353  1.00  0.00     0.031 A 
ATOM     35  C   UNL     1      -1.102  18.653  -7.321  1.00  0.00     0.074 A 
ATOM     36  C   UNL     1       0.343  17.043  -8.517  1.00  0.00     0.049 A 
ATOM     37  N   UNL     1      -1.825  19.117  -8.307  1.00  0.00    -0.248 NA
ATOM     38  C   UNL     1      -1.450  19.213  -6.005  1.00  0.00     0.031 C 
ATOM     39  C   UNL     1       1.349  15.989  -8.667  1.00  0.00     0.029 A 
ATOM     40  N   UNL     1      -0.130  17.233  -9.791  1.00  0.00    -0.354 N 
ATOM     41  C   UNL     1      -2.732  19.998  -7.730  1.00  0.00     0.074 A 
ATOM     42  C   UNL     1      -2.494  19.972  -6.303  1.00  0.00     0.031 C 
ATOM     43  C   UNL     1       1.426  15.634  -9.959  1.00  0.00     0.029 A 
ATOM     44  C   UNL     1       0.447  16.401 -10.722  1.00  0.00     0.049 A 
ATOM     45  H   UNL     1      -0.817  17.901 -10.017  1.00  0.00     0.167 HD
ATOM     46  C   UNL     1      -3.661  20.777  -8.334  1.00  0.00     0.034 A 
ATOM     47  C   UNL     1       0.205  16.262 -12.040  1.00  0.00     0.034 A 
ATOM     48  C   UNL     1      -3.881  20.809  -9.756  1.00  0.00     0.049 A 
ATOM     49  C   UNL     1      -0.841  17.127 -12.686  1.00  0.00     0.074 A 
ATOM     50  C   UNL     1      -4.746  21.614 -10.475  1.00  0.00     0.029 A 
ATOM     51  N   UNL     1      -3.244  19.987 -10.674  1.00  0.00    -0.354 N 
ATOM     52  N   UNL     1      -1.589  18.059 -12.147  1.00  0.00    -0.248 NA
ATOM     53  C   UNL     1      -1.058  16.941 -14.127  1.00  0.00     0.031 C 
ATOM     54  C   UNL     1      -4.659  21.253 -11.824  1.00  0.00     0.029 A 
ATOM     55  C   UNL     1      -3.711  20.250 -11.951  1.00  0.00     0.049 A 
ATOM     56  H   UNL     1      -2.560  19.315 -10.451  1.00  0.00     0.167 HD
ATOM     57  C   UNL     1      -2.338  18.596 -13.188  1.00  0.00     0.074 A 
ATOM     58  C   UNL     1      -1.940  17.895 -14.392  1.00  0.00     0.031 C 
ATOM     59  C   UNL     1      -3.277  19.574 -13.148  1.00  0.00     0.034 A 
BRANCH  46  60
ATOM     60  C   UNL     1      -4.484  21.685  -7.455  1.00  0.00     0.023 A 
ATOM     61  C   UNL     1      -3.867  22.777  -6.808  1.00  0.00     0.012 A 
ATOM     62  C   UNL     1      -5.868  21.480  -7.288  1.00  0.00     0.148 A 
ATOM     63  C   UNL     1      -4.599  23.616  -5.969  1.00  0.00     0.002 A 
ATOM     64  C   UNL     1      -6.602  22.351  -6.490  1.00  0.00     0.091 A 
ATOM     65  F   UNL     1      -6.438  20.429  -7.894  1.00  0.00    -0.205 F 
ATOM     66  C   UNL     1      -5.967  23.408  -5.818  1.00  0.00     0.022 A 
BRANCH  64  67
ATOM     67  S   UNL     1      -8.383  22.218  -6.296  1.00  0.00     0.127 S 
ATOM     68  O   UNL     1      -8.493  21.730  -4.922  1.00  0.00    -0.237 OA
ATOM     69  O   UNL     1      -8.817  23.602  -6.487  1.00  0.00    -0.237 OA
ATOM     70  O   UNL     1      -8.831  21.294  -7.327  1.00  0.00    -0.744 OA
ENDBRANCH  64  67
ENDBRANCH  46  60
BRANCH  47  71
ATOM     71  C   UNL     1       1.016  15.307 -12.847  1.00  0.00     0.023 A 
ATOM     72  C   UNL     1       1.944  15.813 -13.778  1.00  0.00     0.012 A 
ATOM     73  C   UNL     1       0.903  13.914 -12.677  1.00  0.00     0.148 A 
ATOM     74  C   UNL     1       2.724  14.949 -14.547  1.00  0.00     0.002 A 
ATOM     75  C   UNL     1       1.720  13.059 -13.408  1.00  0.00     0.091 A 
ATOM     76  F   UNL     1       0.010  13.454 -11.789  1.00  0.00    -0.205 F 
ATOM     77  C   UNL     1       2.620  13.574 -14.355  1.00  0.00     0.022 A 
BRANCH  75  78
ATOM     78  S   UNL     1       1.744  11.282 -13.148  1.00  0.00     0.127 S 
ATOM     79  O   UNL     1       1.227  10.787 -14.421  1.00  0.00    -0.237 OA
ATOM     80  O   UNL     1       3.168  11.033 -12.921  1.00  0.00    -0.237 OA
ATOM     81  O   UNL     1       0.896  11.040 -11.989  1.00  0.00    -0.744 OA
ENDBRANCH  75  78
ENDBRANCH  47  71
BRANCH  59  82
ATOM     82  C   UNL     1      -3.922  19.977 -14.450  1.00  0.00     0.023 A 
ATOM     83  C   UNL     1      -4.840  19.113 -15.078  1.00  0.00     0.012 A 
ATOM     84  C   UNL     1      -3.675  21.248 -15.007  1.00  0.00     0.148 A 
ATOM     85  C   UNL     1      -5.480  19.495 -16.256  1.00  0.00     0.002 A 
ATOM     86  C   UNL     1      -4.356  21.643 -16.152  1.00  0.00     0.091 A 
ATOM     87  F   UNL     1      -2.786  22.049 -14.402  1.00  0.00    -0.205 F 
ATOM     88  C   UNL     1      -5.249  20.763 -16.785  1.00  0.00     0.022 A 
BRANCH  86  89
ATOM     89  S   UNL     1      -4.200  23.290 -16.852  1.00  0.00     0.127 S 
ATOM     90  O   UNL     1      -3.520  23.012 -18.116  1.00  0.00    -0.237 OA
ATOM     91  O   UNL     1      -5.597  23.700 -16.988  1.00  0.00    -0.237 OA
ATOM     92  O   UNL     1      -3.429  24.067 -15.890  1.00  0.00    -0.744 OA
ENDBRANCH  86  89
ENDBRANCH  59  82
ENDBRANCH  33  34
ENDBRANCH  25  28
ENDBRANCH  23  24
ENDBRANCH   1  23
TORSDOF 15
