REMARK SMILES Cc1ccc(N2C(=O)[NH+]=C(NCCCNC(=O)c3ccc(-c4c5nc(c(-c6cccc(S(=O)(=O)[O-])c6F)c6ccc([nH]6)c(-c6cccc(S(=O)(=O)[O-])c6F)c6nc(c(-c7cccc(S(=O)(=O)[O-])c7F)c7ccc4[nH]7)C=C6)C=C5)cc3)/C(=C\c3ccccc3OCc3cccc(C(=O)[O-])c3)C2=O)cc1
REMARK SMILES IDX 12 1 11 2 6 3 7 4 100 5 8 6 9 7 81 8 101 9 10 10 82 12 5 14
REMARK SMILES IDX 1 15 2 16 3 17 103 18 4 19 102 20 83 21 84 22 88 23 85 24
REMARK SMILES IDX 87 25 86 26 89 27 90 28 91 29 92 30 99 31 93 32 95 33 94 34
REMARK SMILES IDX 96 35 97 36 98 37 13 38 14 39 15 40 16 41 17 43 18 44 19 45
REMARK SMILES IDX 80 46 20 47 79 48 21 49 22 50 23 51 73 52 24 53 78 54 72 55
REMARK SMILES IDX 74 56 25 57 77 58 71 59 70 60 26 62 58 63 38 64 57 65 39 66
REMARK SMILES IDX 42 67 56 68 75 69 40 70 41 71 55 73 76 74 43 75 27 76 28 77
REMARK SMILES IDX 36 78 29 79 31 80 37 81 30 82 32 83 33 84 34 85 35 86 59 87
REMARK SMILES IDX 60 88 68 89 61 90 63 91 69 92 62 93 64 94 65 95 66 96 67 97
REMARK SMILES IDX 44 98 45 99 53 100 46 101 48 102 54 103 47 104 49 105 50 106
REMARK SMILES IDX 51 107 52 108
REMARK H PARENT 9 11 11 13 15 42 74 61 42 72
REMARK Flexibility Score: inf
ROOT
ATOM      1  C   UNL     1      -7.731  -0.293   1.655  1.00  0.00     0.195 C 
ENDROOT
BRANCH   1   2
ATOM      2  N   UNL     1      -7.044   0.833   1.012  1.00  0.00    -0.305 N 
ATOM      3  N   UNL     1      -2.915   0.728   0.521  1.00  0.00    -0.155 N 
ATOM      4  C   UNL     1      -3.605   0.029   1.522  1.00  0.00     0.448 C 
ATOM      5  C   UNL     1      -3.547   1.580  -0.373  1.00  0.00     0.328 C 
ATOM      6  O   UNL     1      -3.034  -0.713   2.320  1.00  0.00    -0.212 OA
ATOM      7  N   UNL     1      -4.951   0.198   1.663  1.00  0.00    -0.209 N 
ATOM      8  C   UNL     1      -5.013   1.405  -0.414  1.00  0.00     0.129 C 
ATOM      9  O   UNL     1      -2.995   2.320  -1.188  1.00  0.00    -0.249 OA
ATOM     10  C   UNL     1      -5.680   0.808   0.780  1.00  0.00     0.236 C 
ATOM     11  H   UNL     1      -5.388  -0.159   2.470  1.00  0.00     0.270 HD
ATOM     12  C   UNL     1      -5.532   1.565  -1.647  1.00  0.00     0.034 C 
ATOM     13  H   UNL     1      -7.565   1.623   0.739  1.00  0.00     0.256 HD
BRANCH   3  14
ATOM     14  C   UNL     1      -1.503   0.531   0.384  1.00  0.00     0.111 A 
ATOM     15  C   UNL     1       2.739  -0.092  -0.076  1.00  0.00     0.044 C 
ATOM     16  C   UNL     1       1.267   0.128   0.072  1.00  0.00    -0.051 A 
ATOM     17  C   UNL     1       0.417  -0.958   0.297  1.00  0.00     0.007 A 
ATOM     18  C   UNL     1       0.724   1.411  -0.024  1.00  0.00     0.007 A 
ATOM     19  C   UNL     1      -0.953  -0.756   0.460  1.00  0.00     0.044 A 
ATOM     20  C   UNL     1      -0.647   1.609   0.127  1.00  0.00     0.044 A 
ENDBRANCH   3  14
BRANCH  12  21
ATOM     21  C   UNL     1      -6.896   1.248  -2.028  1.00  0.00     0.018 A 
ATOM     22  C   UNL     1      -7.643   2.369  -2.377  1.00  0.00     0.012 A 
ATOM     23  C   UNL     1      -7.519  -0.002  -1.872  1.00  0.00     0.127 A 
ATOM     24  C   UNL     1      -9.016   2.277  -2.382  1.00  0.00     0.001 A 
ATOM     25  C   UNL     1      -8.905  -0.083  -1.923  1.00  0.00     0.047 A 
ATOM     26  C   UNL     1      -9.647   1.062  -2.132  1.00  0.00     0.004 A 
BRANCH  23  27
ATOM     27  O   UNL     1      -6.953  -1.161  -1.441  1.00  0.00    -0.488 OA
BRANCH  27  28
ATOM     28  C   UNL     1      -5.663  -1.524  -1.898  1.00  0.00     0.265 C 
BRANCH  28  29
ATOM     29  C   UNL     1      -5.293  -2.818  -1.212  1.00  0.00    -0.010 A 
ATOM     30  C   UNL     1      -3.946  -3.135  -1.000  1.00  0.00     0.007 A 
ATOM     31  C   UNL     1      -6.281  -3.730  -0.806  1.00  0.00     0.017 A 
ATOM     32  C   UNL     1      -3.591  -4.339  -0.394  1.00  0.00     0.001 A 
ATOM     33  C   UNL     1      -5.930  -4.948  -0.220  1.00  0.00    -0.002 A 
ATOM     34  C   UNL     1      -4.579  -5.249  -0.014  1.00  0.00     0.010 A 
BRANCH  33  35
ATOM     35  C   UNL     1      -6.958  -5.947   0.142  1.00  0.00     0.071 C 
ATOM     36  O   UNL     1      -6.739  -7.110   0.467  1.00  0.00    -0.545 OA
ATOM     37  O   UNL     1      -8.207  -5.464   0.065  1.00  0.00    -0.545 OA
ENDBRANCH  33  35
ENDBRANCH  28  29
ENDBRANCH  27  28
ENDBRANCH  23  27
ENDBRANCH  12  21
ENDBRANCH   1   2
BRANCH   1  38
ATOM     38  C   UNL     1      -8.827   0.160   2.607  1.00  0.00     0.059 C 
BRANCH  38  39
ATOM     39  C   UNL     1     -10.035   0.740   1.897  1.00  0.00     0.119 C 
BRANCH  39  40
ATOM     40  N   UNL     1     -11.126  -0.190   1.678  1.00  0.00    -0.352 N 
ATOM     41  C   UNL     1     -12.417   0.053   1.245  1.00  0.00     0.251 C 
ATOM     42  H   UNL     1     -10.917  -1.133   1.867  1.00  0.00     0.163 HD
ATOM     43  O   UNL     1     -13.230  -0.862   1.365  1.00  0.00    -0.269 OA
BRANCH  41  44
ATOM     44  C   UNL     1     -12.777   1.294   0.497  1.00  0.00     0.039 A 
ATOM     45  C   UNL     1     -13.863   1.223  -0.389  1.00  0.00     0.014 A 
ATOM     46  C   UNL     1     -11.941   2.400   0.432  1.00  0.00     0.014 A 
ATOM     47  C   UNL     1     -13.912   2.057  -1.504  1.00  0.00     0.010 A 
ATOM     48  C   UNL     1     -11.922   3.153  -0.715  1.00  0.00     0.010 A 
ATOM     49  C   UNL     1     -12.851   2.909  -1.729  1.00  0.00    -0.014 A 
BRANCH  49  50
ATOM     50  C   UNL     1     -12.607   3.666  -2.943  1.00  0.00     0.031 A 
ATOM     51  C   UNL     1     -12.851   5.109  -2.883  1.00  0.00     0.074 A 
ATOM     52  C   UNL     1     -11.795   3.128  -3.881  1.00  0.00     0.049 A 
ATOM     53  N   UNL     1     -12.595   5.904  -3.850  1.00  0.00    -0.248 NA
ATOM     54  C   UNL     1     -13.380   5.776  -1.700  1.00  0.00     0.031 C 
ATOM     55  C   UNL     1     -10.852   3.813  -4.766  1.00  0.00     0.029 A 
ATOM     56  N   UNL     1     -11.649   1.795  -4.241  1.00  0.00    -0.354 N 
ATOM     57  C   UNL     1     -12.685   7.187  -3.372  1.00  0.00     0.074 A 
ATOM     58  C   UNL     1     -13.230   7.058  -2.043  1.00  0.00     0.031 C 
ATOM     59  C   UNL     1     -10.392   2.946  -5.684  1.00  0.00     0.029 A 
ATOM     60  C   UNL     1     -11.204   1.750  -5.568  1.00  0.00     0.049 A 
ATOM     61  H   UNL     1     -11.827   1.017  -3.664  1.00  0.00     0.167 HD
ATOM     62  C   UNL     1     -12.169   8.178  -4.146  1.00  0.00     0.034 A 
ATOM     63  C   UNL     1     -11.969   1.198  -6.560  1.00  0.00     0.034 A 
ATOM     64  C   UNL     1     -11.668   7.622  -5.420  1.00  0.00     0.049 A 
ATOM     65  C   UNL     1     -12.457   2.278  -7.524  1.00  0.00     0.074 A 
ATOM     66  C   UNL     1     -10.428   7.240  -5.907  1.00  0.00     0.029 A 
ATOM     67  N   UNL     1     -12.592   7.063  -6.283  1.00  0.00    -0.354 N 
ATOM     68  N   UNL     1     -12.105   3.535  -7.458  1.00  0.00    -0.248 NA
ATOM     69  C   UNL     1     -13.427   2.047  -8.591  1.00  0.00     0.031 C 
ATOM     70  C   UNL     1     -10.641   6.421  -7.064  1.00  0.00     0.029 A 
ATOM     71  C   UNL     1     -12.004   6.329  -7.295  1.00  0.00     0.049 A 
ATOM     72  H   UNL     1     -13.565   7.176  -6.186  1.00  0.00     0.167 HD
ATOM     73  C   UNL     1     -12.889   4.292  -8.279  1.00  0.00     0.074 A 
ATOM     74  C   UNL     1     -13.675   3.304  -9.006  1.00  0.00     0.031 C 
ATOM     75  C   UNL     1     -12.878   5.663  -8.262  1.00  0.00     0.034 A 
BRANCH  62  76
ATOM     76  C   UNL     1     -11.944   9.614  -3.728  1.00  0.00     0.023 A 
ATOM     77  C   UNL     1     -11.044  10.358  -4.524  1.00  0.00     0.012 A 
ATOM     78  C   UNL     1     -12.519  10.302  -2.632  1.00  0.00     0.148 A 
ATOM     79  C   UNL     1     -10.689  11.676  -4.231  1.00  0.00     0.002 A 
ATOM     80  C   UNL     1     -12.133  11.609  -2.312  1.00  0.00     0.091 A 
ATOM     81  F   UNL     1     -13.488   9.730  -1.915  1.00  0.00    -0.205 F 
ATOM     82  C   UNL     1     -11.218  12.297  -3.113  1.00  0.00     0.022 A 
BRANCH  80  83
ATOM     83  S   UNL     1     -12.725  12.482  -0.849  1.00  0.00     0.127 S 
ATOM     84  O   UNL     1     -11.470  12.861  -0.195  1.00  0.00    -0.237 OA
ATOM     85  O   UNL     1     -13.467  13.600  -1.427  1.00  0.00    -0.237 OA
ATOM     86  O   UNL     1     -13.524  11.524  -0.093  1.00  0.00    -0.744 OA
ENDBRANCH  80  83
ENDBRANCH  62  76
BRANCH  63  87
ATOM     87  C   UNL     1     -12.756   0.025  -6.038  1.00  0.00     0.023 A 
ATOM     88  C   UNL     1     -11.979  -1.036  -5.500  1.00  0.00     0.012 A 
ATOM     89  C   UNL     1     -14.067   0.204  -5.562  1.00  0.00     0.148 A 
ATOM     90  C   UNL     1     -12.398  -1.712  -4.349  1.00  0.00     0.002 A 
ATOM     91  C   UNL     1     -14.490  -0.503  -4.435  1.00  0.00     0.091 A 
ATOM     92  F   UNL     1     -14.834   1.146  -6.125  1.00  0.00    -0.205 F 
ATOM     93  C   UNL     1     -13.631  -1.403  -3.784  1.00  0.00     0.022 A 
BRANCH  91  94
ATOM     94  S   UNL     1     -16.099  -0.170  -3.703  1.00  0.00     0.127 S 
ATOM     95  O   UNL     1     -16.960  -1.055  -4.478  1.00  0.00    -0.237 OA
ATOM     96  O   UNL     1     -15.909  -0.563  -2.307  1.00  0.00    -0.237 OA
ATOM     97  O   UNL     1     -16.289   1.260  -3.896  1.00  0.00    -0.744 OA
ENDBRANCH  91  94
ENDBRANCH  63  87
BRANCH  75  98
ATOM     98  C   UNL     1     -13.731   6.503  -9.192  1.00  0.00     0.023 A 
ATOM     99  C   UNL     1     -13.912   6.111 -10.530  1.00  0.00     0.012 A 
ATOM    100  C   UNL     1     -14.268   7.761  -8.816  1.00  0.00     0.148 A 
ATOM    101  C   UNL     1     -14.666   6.877 -11.423  1.00  0.00     0.002 A 
ATOM    102  C   UNL     1     -14.912   8.575  -9.737  1.00  0.00     0.091 A 
ATOM    103  F   UNL     1     -14.214   8.166  -7.544  1.00  0.00    -0.205 F 
ATOM    104  C   UNL     1     -15.154   8.117 -11.032  1.00  0.00     0.022 A 
BRANCH 102 105
ATOM    105  S   UNL     1     -15.364  10.276  -9.362  1.00  0.00     0.127 S 
ATOM    106  O   UNL     1     -14.762  10.994 -10.487  1.00  0.00    -0.237 OA
ATOM    107  O   UNL     1     -16.823  10.209  -9.389  1.00  0.00    -0.237 OA
ATOM    108  O   UNL     1     -14.765  10.576  -8.070  1.00  0.00    -0.744 OA
ENDBRANCH 102 105
ENDBRANCH  75  98
ENDBRANCH  49  50
ENDBRANCH  41  44
ENDBRANCH  39  40
ENDBRANCH  38  39
ENDBRANCH   1  38
TORSDOF 18
