REMARK SMILES CC(C)n1c2c(c3ccccc31)[C@@H](c1ccccc1)N(CC(=O)NCCCNC(=O)c1ccc(-c3c4nc(c(-c5cccc(S(=O)(=O)[O-])c5F)c5ccc([nH]5)c(-c5cccc(S(=O)(=O)[O-])c5F)c5nc(c(-c6cccc(S(=O)(=O)[O-])c6F)c6ccc3[nH]6)C=C5)C=C4)cc1)C2=O
REMARK SMILES IDX 26 1 25 2 24 3 22 4 23 5 21 7 20 8 4 9 5 10 12 11 6 12 94 13
REMARK SMILES IDX 7 14 11 15 13 16 95 17 8 18 10 19 9 20 2 21 1 22 3 23 14 24
REMARK SMILES IDX 15 25 19 26 16 27 18 28 17 29 27 30 28 31 29 32 30 34 31 35
REMARK SMILES IDX 32 36 93 37 33 38 92 39 34 40 35 41 36 42 86 43 37 44 91 45
REMARK SMILES IDX 85 46 87 47 38 48 90 49 84 50 83 51 39 53 71 54 51 55 70 56
REMARK SMILES IDX 52 57 55 58 69 59 88 60 53 61 54 62 68 64 89 65 56 66 40 67
REMARK SMILES IDX 41 68 49 69 42 70 44 71 50 72 43 73 45 74 46 75 47 76 48 77
REMARK SMILES IDX 72 78 73 79 81 80 74 81 76 82 82 83 75 84 77 85 78 86 79 87
REMARK SMILES IDX 80 88 57 89 58 90 66 91 59 92 61 93 67 94 60 95 62 96 63 97
REMARK SMILES IDX 64 98 65 99
REMARK H PARENT 24 6 28 33 87 52 55 63
REMARK Flexibility Score: inf
ROOT
ATOM      1  C   UNL     1      -2.220  -2.004   4.990  1.00  0.00     0.042 C 
ENDROOT
BRANCH   1   2
ATOM      2  C   UNL     1      -2.433  -3.512   4.830  1.00  0.00     0.117 C 
BRANCH   2   3
ATOM      3  N   UNL     1      -3.836  -3.854   4.651  1.00  0.00    -0.354 N 
ATOM      4  C   UNL     1      -4.493  -4.254   3.524  1.00  0.00     0.239 C 
ATOM      5  O   UNL     1      -5.714  -4.426   3.588  1.00  0.00    -0.273 OA
ATOM      6  H   UNL     1      -4.392  -3.786   5.460  1.00  0.00     0.163 HD
BRANCH   4   7
ATOM      7  C   UNL     1      -3.743  -4.431   2.200  1.00  0.00     0.220 C 
BRANCH   7   8
ATOM      8  N   UNL     1      -3.375  -3.150   1.630  1.00  0.00    -0.317 N 
ATOM      9  N   UNL     1      -1.328  -0.225   1.431  1.00  0.00    -0.334 N 
ATOM     10  C   UNL     1      -2.148  -1.312   1.413  1.00  0.00     0.114 A 
ATOM     11  C   UNL     1      -2.143   0.912   1.438  1.00  0.00     0.049 A 
ATOM     12  C   UNL     1      -3.455  -0.914   1.379  1.00  0.00     0.018 A 
ATOM     13  C   UNL     1      -2.047  -2.728   1.532  1.00  0.00     0.272 C 
ATOM     14  C   UNL     1      -3.489   0.483   1.457  1.00  0.00     0.006 A 
ATOM     15  C   UNL     1      -1.841   2.284   1.437  1.00  0.00     0.027 A 
ATOM     16  C   UNL     1      -4.372  -2.081   1.360  1.00  0.00     0.150 C 
ATOM     17  O   UNL     1      -1.044  -3.414   1.656  1.00  0.00    -0.267 OA
ATOM     18  C   UNL     1      -4.529   1.427   1.528  1.00  0.00     0.011 A 
ATOM     19  C   UNL     1      -2.893   3.205   1.512  1.00  0.00     0.002 A 
ATOM     20  C   UNL     1      -4.218   2.787   1.565  1.00  0.00     0.001 A 
BRANCH   9  21
ATOM     21  C   UNL     1       0.135  -0.308   1.450  1.00  0.00     0.082 C 
ATOM     22  C   UNL     1       0.712  -0.129   0.048  1.00  0.00     0.031 C 
ATOM     23  C   UNL     1       0.822   0.603   2.469  1.00  0.00     0.031 C 
ENDBRANCH   9  21
BRANCH  16  24
ATOM     24  C   UNL     1      -4.997  -2.227  -0.022  1.00  0.00    -0.021 A 
ATOM     25  C   UNL     1      -5.968  -3.230  -0.210  1.00  0.00     0.006 A 
ATOM     26  C   UNL     1      -4.644  -1.458  -1.149  1.00  0.00     0.006 A 
ATOM     27  C   UNL     1      -6.526  -3.478  -1.468  1.00  0.00     0.000 A 
ATOM     28  C   UNL     1      -5.218  -1.690  -2.402  1.00  0.00     0.000 A 
ATOM     29  C   UNL     1      -6.150  -2.708  -2.564  1.00  0.00     0.000 A 
ENDBRANCH  16  24
ENDBRANCH   7   8
ENDBRANCH   4   7
ENDBRANCH   2   3
ENDBRANCH   1   2
BRANCH   1  30
ATOM     30  C   UNL     1      -2.853  -1.423   6.253  1.00  0.00     0.118 C 
BRANCH  30  31
ATOM     31  N   UNL     1      -2.408  -2.065   7.470  1.00  0.00    -0.352 N 
ATOM     32  C   UNL     1      -1.406  -1.853   8.370  1.00  0.00     0.251 C 
ATOM     33  H   UNL     1      -2.963  -2.843   7.706  1.00  0.00     0.163 HD
ATOM     34  O   UNL     1      -1.425  -2.590   9.359  1.00  0.00    -0.269 OA
BRANCH  32  35
ATOM     35  C   UNL     1      -0.284  -0.891   8.207  1.00  0.00     0.039 A 
ATOM     36  C   UNL     1      -0.097  -0.028   7.126  1.00  0.00     0.014 A 
ATOM     37  C   UNL     1       0.716  -0.968   9.195  1.00  0.00     0.014 A 
ATOM     38  C   UNL     1       1.128   0.604   6.947  1.00  0.00     0.010 A 
ATOM     39  C   UNL     1       1.927  -0.317   9.036  1.00  0.00     0.010 A 
ATOM     40  C   UNL     1       2.159   0.385   7.862  1.00  0.00    -0.014 A 
BRANCH  40  41
ATOM     41  C   UNL     1       3.481   0.913   7.557  1.00  0.00     0.031 A 
ATOM     42  C   UNL     1       3.553   2.397   7.449  1.00  0.00     0.074 A 
ATOM     43  C   UNL     1       4.561   0.110   7.459  1.00  0.00     0.049 A 
ATOM     44  N   UNL     1       3.815   3.111   6.402  1.00  0.00    -0.248 NA
ATOM     45  C   UNL     1       3.143   3.182   8.625  1.00  0.00     0.031 C 
ATOM     46  C   UNL     1       4.677  -1.316   7.793  1.00  0.00     0.029 A 
ATOM     47  N   UNL     1       5.842   0.444   7.149  1.00  0.00    -0.354 N 
ATOM     48  C   UNL     1       3.809   4.435   6.840  1.00  0.00     0.074 A 
ATOM     49  C   UNL     1       3.245   4.430   8.166  1.00  0.00     0.031 C 
ATOM     50  C   UNL     1       5.984  -1.638   7.931  1.00  0.00     0.029 A 
ATOM     51  C   UNL     1       6.790  -0.497   7.543  1.00  0.00     0.049 A 
ATOM     52  H   UNL     1       6.079   1.280   6.687  1.00  0.00     0.167 HD
ATOM     53  C   UNL     1       4.458   5.430   6.176  1.00  0.00     0.034 A 
ATOM     54  C   UNL     1       8.130  -0.294   7.617  1.00  0.00     0.034 A 
ATOM     55  C   UNL     1       4.836   5.049   4.846  1.00  0.00     0.049 A 
ATOM     56  C   UNL     1       8.427   0.857   6.729  1.00  0.00     0.074 A 
ATOM     57  C   UNL     1       4.158   4.720   3.691  1.00  0.00     0.029 A 
ATOM     58  N   UNL     1       6.117   4.585   4.676  1.00  0.00    -0.354 N 
ATOM     59  N   UNL     1       8.238   0.840   5.439  1.00  0.00    -0.248 NA
ATOM     60  C   UNL     1       8.508   2.173   7.340  1.00  0.00     0.031 C 
ATOM     61  C   UNL     1       4.916   3.660   3.112  1.00  0.00     0.029 A 
ATOM     62  C   UNL     1       6.036   3.446   3.919  1.00  0.00     0.049 A 
ATOM     63  H   UNL     1       6.939   4.994   5.031  1.00  0.00     0.167 HD
ATOM     64  C   UNL     1       7.742   2.102   5.147  1.00  0.00     0.074 A 
ATOM     65  C   UNL     1       8.011   2.905   6.339  1.00  0.00     0.031 C 
ATOM     66  C   UNL     1       6.907   2.305   4.087  1.00  0.00     0.034 A 
BRANCH  53  67
ATOM     67  C   UNL     1       5.050   6.636   6.852  1.00  0.00     0.023 A 
ATOM     68  C   UNL     1       5.334   7.779   6.078  1.00  0.00     0.012 A 
ATOM     69  C   UNL     1       5.574   6.588   8.164  1.00  0.00     0.148 A 
ATOM     70  C   UNL     1       6.104   8.829   6.591  1.00  0.00     0.002 A 
ATOM     71  C   UNL     1       6.287   7.658   8.689  1.00  0.00     0.091 A 
ATOM     72  F   UNL     1       5.487   5.450   8.863  1.00  0.00    -0.205 F 
ATOM     73  C   UNL     1       6.570   8.775   7.900  1.00  0.00     0.022 A 
BRANCH  71  74
ATOM     74  S   UNL     1       6.908   7.645  10.375  1.00  0.00     0.127 S 
ATOM     75  O   UNL     1       8.343   7.491  10.154  1.00  0.00    -0.237 OA
ATOM     76  O   UNL     1       6.491   8.963  10.854  1.00  0.00    -0.237 OA
ATOM     77  O   UNL     1       6.235   6.530  11.027  1.00  0.00    -0.744 OA
ENDBRANCH  71  74
ENDBRANCH  53  67
BRANCH  54  78
ATOM     78  C   UNL     1       9.094  -0.723   8.668  1.00  0.00     0.023 A 
ATOM     79  C   UNL     1      10.477  -0.554   8.436  1.00  0.00     0.012 A 
ATOM     80  C   UNL     1       8.675  -0.980   9.993  1.00  0.00     0.148 A 
ATOM     81  C   UNL     1      11.400  -0.572   9.491  1.00  0.00     0.002 A 
ATOM     82  C   UNL     1       9.598  -1.006  11.038  1.00  0.00     0.091 A 
ATOM     83  F   UNL     1       7.367  -1.099  10.247  1.00  0.00    -0.205 F 
ATOM     84  C   UNL     1      10.958  -0.782  10.793  1.00  0.00     0.022 A 
BRANCH  82  85
ATOM     85  S   UNL     1       9.103  -1.262  12.748  1.00  0.00     0.127 S 
ATOM     86  O   UNL     1      10.066  -2.270  13.195  1.00  0.00    -0.237 OA
ATOM     87  O   UNL     1       9.297   0.066  13.323  1.00  0.00    -0.237 OA
ATOM     88  O   UNL     1       7.725  -1.735  12.696  1.00  0.00    -0.744 OA
ENDBRANCH  82  85
ENDBRANCH  54  78
BRANCH  66  89
ATOM     89  C   UNL     1       6.685   1.155   3.137  1.00  0.00     0.023 A 
ATOM     90  C   UNL     1       5.917   0.024   3.492  1.00  0.00     0.012 A 
ATOM     91  C   UNL     1       7.096   1.308   1.805  1.00  0.00     0.148 A 
ATOM     92  C   UNL     1       5.571  -0.936   2.535  1.00  0.00     0.002 A 
ATOM     93  C   UNL     1       6.723   0.370   0.851  1.00  0.00     0.091 A 
ATOM     94  F   UNL     1       7.805   2.402   1.488  1.00  0.00    -0.205 F 
ATOM     95  C   UNL     1       5.964  -0.756   1.211  1.00  0.00     0.022 A 
BRANCH  93  96
ATOM     96  S   UNL     1       7.103   0.589  -0.888  1.00  0.00     0.127 S 
ATOM     97  O   UNL     1       8.013  -0.525  -1.145  1.00  0.00    -0.237 OA
ATOM     98  O   UNL     1       5.783   0.458  -1.507  1.00  0.00    -0.237 OA
ATOM     99  O   UNL     1       7.695   1.915  -1.012  1.00  0.00    -0.744 OA
ENDBRANCH  93  96
ENDBRANCH  66  89
ENDBRANCH  40  41
ENDBRANCH  32  35
ENDBRANCH  30  31
ENDBRANCH   1  30
TORSDOF 16
