REMARK SMILES CCCC[C@H](C(=O)NCCCNC(=O)c1ccc(-c2c3nc(c(-c4cccc(S(=O)(=O)[O-])c4F)c4ccc([nH]4)c(-c4cccc(S(=O)(=O)[O-])c4F)c4nc(c(-c5cccc(S(=O)(=O)[O-])c5F)c5ccc2[nH]5)C=C4)C=C3)cc1)[C@H](O)c1ccc(C(F)(F)F)cc1
REMARK SMILES IDX 10 1 9 2 8 3 6 4 7 5 5 7 4 8 3 9 2 10 1 11 78 12 80 13 81 14
REMARK SMILES IDX 89 15 82 16 88 17 83 18 84 19 85 20 86 21 87 22 79 23 11 25
REMARK SMILES IDX 12 26 13 27 14 29 15 30 16 31 77 32 17 33 76 34 18 35 19 36
REMARK SMILES IDX 20 37 70 38 21 39 75 40 69 41 71 42 22 43 74 44 68 45 67 46
REMARK SMILES IDX 23 48 55 49 35 50 54 51 36 52 39 53 53 54 72 55 37 56 38 57
REMARK SMILES IDX 52 59 73 60 40 61 24 62 25 63 33 64 26 65 28 66 34 67 27 68
REMARK SMILES IDX 29 69 30 70 31 71 32 72 56 73 57 74 65 75 58 76 60 77 66 78
REMARK SMILES IDX 59 79 61 80 62 81 63 82 64 83 41 84 42 85 50 86 43 87 45 88
REMARK SMILES IDX 51 89 44 90 46 91 47 92 48 93 49 94
REMARK H PARENT 8 6 79 24 12 28 71 47 39 58
REMARK Flexibility Score: inf
ROOT
ATOM      1  C   UNL     1      -0.326  -5.910  -4.244  1.00  0.00     0.042 C 
ENDROOT
BRANCH   1   2
ATOM      2  C   UNL     1      -1.402  -5.408  -3.303  1.00  0.00     0.117 C 
BRANCH   2   3
ATOM      3  N   UNL     1      -1.197  -5.848  -1.938  1.00  0.00    -0.356 N 
ATOM      4  C   UNL     1      -1.182  -5.196  -0.756  1.00  0.00     0.226 C 
ATOM      5  O   UNL     1      -1.156  -5.917   0.250  1.00  0.00    -0.275 OA
ATOM      6  H   UNL     1      -1.036  -6.816  -1.856  1.00  0.00     0.163 HD
BRANCH   4   7
ATOM      7  C   UNL     1      -1.135  -3.682  -0.576  1.00  0.00     0.111 C 
BRANCH   7   8
ATOM      8  C   UNL     1       0.350  -3.256  -0.388  1.00  0.00     0.016 C 
BRANCH   8   9
ATOM      9  C   UNL     1       1.245  -3.098  -1.624  1.00  0.00     0.001 C 
BRANCH   9  10
ATOM     10  C   UNL     1       1.087  -1.828  -2.466  1.00  0.00    -0.003 C 
ATOM     11  C   UNL     1       1.266  -0.526  -1.699  1.00  0.00     0.004 C 
ENDBRANCH   9  10
ENDBRANCH   8   9
ENDBRANCH   7   8
BRANCH   7  12
ATOM     12  C   UNL     1      -2.001  -2.743  -1.438  1.00  0.00     0.157 C 
BRANCH  12  13
ATOM     13  C   UNL     1      -3.513  -2.947  -1.510  1.00  0.00    -0.019 A 
ATOM     14  C   UNL     1      -4.339  -1.839  -1.784  1.00  0.00     0.007 A 
ATOM     15  C   UNL     1      -4.141  -4.196  -1.416  1.00  0.00     0.007 A 
ATOM     16  C   UNL     1      -5.728  -1.962  -1.888  1.00  0.00     0.013 A 
ATOM     17  C   UNL     1      -5.530  -4.329  -1.542  1.00  0.00     0.013 A 
ATOM     18  C   UNL     1      -6.340  -3.212  -1.760  1.00  0.00     0.056 A 
BRANCH  18  19
ATOM     19  C   UNL     1      -7.840  -3.332  -1.819  1.00  0.00     0.416 C 
ATOM     20  F   UNL     1      -8.442  -2.790  -0.723  1.00  0.00    -0.166 F 
ATOM     21  F   UNL     1      -8.383  -2.695  -2.893  1.00  0.00    -0.166 F 
ATOM     22  F   UNL     1      -8.284  -4.619  -1.886  1.00  0.00    -0.166 F 
ENDBRANCH  18  19
ENDBRANCH  12  13
BRANCH  12  23
ATOM     23  O   UNL     1      -1.780  -1.393  -0.980  1.00  0.00    -0.388 OA
ATOM     24  H   UNL     1      -2.116  -1.300  -0.074  1.00  0.00     0.211 HD
ENDBRANCH  12  23
ENDBRANCH   7  12
ENDBRANCH   4   7
ENDBRANCH   2   3
ENDBRANCH   1   2
BRANCH   1  25
ATOM     25  C   UNL     1      -0.343  -7.417  -4.434  1.00  0.00     0.118 C 
BRANCH  25  26
ATOM     26  N   UNL     1      -1.559  -7.883  -5.092  1.00  0.00    -0.352 N 
ATOM     27  C   UNL     1      -1.718  -8.440  -6.337  1.00  0.00     0.251 C 
ATOM     28  H   UNL     1      -2.386  -7.785  -4.566  1.00  0.00     0.163 HD
ATOM     29  O   UNL     1      -2.846  -8.568  -6.811  1.00  0.00    -0.269 OA
BRANCH  27  30
ATOM     30  C   UNL     1      -0.532  -8.868  -7.106  1.00  0.00     0.039 A 
ATOM     31  C   UNL     1      -0.460  -8.591  -8.472  1.00  0.00     0.014 A 
ATOM     32  C   UNL     1       0.518  -9.529  -6.465  1.00  0.00     0.014 A 
ATOM     33  C   UNL     1       0.701  -8.914  -9.178  1.00  0.00     0.010 A 
ATOM     34  C   UNL     1       1.711  -9.742  -7.140  1.00  0.00     0.010 A 
ATOM     35  C   UNL     1       1.811  -9.455  -8.508  1.00  0.00    -0.014 A 
BRANCH  35  36
ATOM     36  C   UNL     1       3.085  -9.742  -9.214  1.00  0.00     0.031 A 
ATOM     37  C   UNL     1       3.629 -11.147  -9.236  1.00  0.00     0.074 A 
ATOM     38  C   UNL     1       3.795  -8.729  -9.749  1.00  0.00     0.049 A 
ATOM     39  N   UNL     1       4.757 -11.586  -9.730  1.00  0.00    -0.248 NA
ATOM     40  C   UNL     1       2.816 -12.191  -8.587  1.00  0.00     0.031 C 
ATOM     41  C   UNL     1       3.413  -7.315  -9.714  1.00  0.00     0.029 A 
ATOM     42  N   UNL     1       5.000  -8.729 -10.404  1.00  0.00    -0.354 N 
ATOM     43  C   UNL     1       4.807 -12.939  -9.417  1.00  0.00     0.074 A 
ATOM     44  C   UNL     1       3.619 -13.242  -8.652  1.00  0.00     0.031 C 
ATOM     45  C   UNL     1       4.358  -6.588 -10.330  1.00  0.00     0.029 A 
ATOM     46  C   UNL     1       5.430  -7.474 -10.770  1.00  0.00     0.049 A 
ATOM     47  H   UNL     1       5.510  -9.550 -10.594  1.00  0.00     0.167 HD
ATOM     48  C   UNL     1       5.740 -13.856  -9.764  1.00  0.00     0.034 A 
ATOM     49  C   UNL     1       6.565  -7.083 -11.381  1.00  0.00     0.034 A 
ATOM     50  C   UNL     1       6.895 -13.557 -10.564  1.00  0.00     0.049 A 
ATOM     51  C   UNL     1       7.567  -8.128 -11.789  1.00  0.00     0.074 A 
ATOM     52  C   UNL     1       7.854 -14.428 -11.048  1.00  0.00     0.029 A 
ATOM     53  N   UNL     1       7.252 -12.287 -10.991  1.00  0.00    -0.354 N 
ATOM     54  N   UNL     1       7.520  -9.428 -11.620  1.00  0.00    -0.248 NA
ATOM     55  C   UNL     1       8.761  -7.659 -12.506  1.00  0.00     0.031 C 
ATOM     56  C   UNL     1       8.810 -13.679 -11.741  1.00  0.00     0.029 A 
ATOM     57  C   UNL     1       8.424 -12.348 -11.724  1.00  0.00     0.049 A 
ATOM     58  H   UNL     1       6.747 -11.464 -10.802  1.00  0.00     0.167 HD
ATOM     59  C   UNL     1       8.655  -9.934 -12.242  1.00  0.00     0.074 A 
ATOM     60  C   UNL     1       9.359  -8.803 -12.809  1.00  0.00     0.031 C 
ATOM     61  C   UNL     1       9.084 -11.218 -12.325  1.00  0.00     0.034 A 
BRANCH  48  62
ATOM     62  C   UNL     1       5.524 -15.280  -9.322  1.00  0.00     0.023 A 
ATOM     63  C   UNL     1       4.483 -16.041  -9.895  1.00  0.00     0.012 A 
ATOM     64  C   UNL     1       6.384 -15.885  -8.385  1.00  0.00     0.148 A 
ATOM     65  C   UNL     1       4.278 -17.366  -9.516  1.00  0.00     0.002 A 
ATOM     66  C   UNL     1       6.205 -17.222  -8.050  1.00  0.00     0.091 A 
ATOM     67  F   UNL     1       7.354 -15.142  -7.835  1.00  0.00    -0.205 F 
ATOM     68  C   UNL     1       5.145 -17.960  -8.604  1.00  0.00     0.022 A 
BRANCH  66  69
ATOM     69  S   UNL     1       7.316 -18.104  -6.948  1.00  0.00     0.127 S 
ATOM     70  O   UNL     1       6.453 -18.347  -5.793  1.00  0.00    -0.237 OA
ATOM     71  O   UNL     1       7.638 -19.297  -7.730  1.00  0.00    -0.237 OA
ATOM     72  O   UNL     1       8.440 -17.210  -6.708  1.00  0.00    -0.744 OA
ENDBRANCH  66  69
ENDBRANCH  48  62
BRANCH  49  73
ATOM     73  C   UNL     1       6.789  -5.643 -11.694  1.00  0.00     0.023 A 
ATOM     74  C   UNL     1       6.776  -5.214 -13.036  1.00  0.00     0.012 A 
ATOM     75  C   UNL     1       6.999  -4.695 -10.674  1.00  0.00     0.148 A 
ATOM     76  C   UNL     1       7.007  -3.876 -13.358  1.00  0.00     0.002 A 
ATOM     77  C   UNL     1       7.171  -3.355 -10.998  1.00  0.00     0.091 A 
ATOM     78  F   UNL     1       7.016  -5.123  -9.403  1.00  0.00    -0.205 F 
ATOM     79  C   UNL     1       7.196  -2.946 -12.340  1.00  0.00     0.022 A 
BRANCH  77  80
ATOM     80  S   UNL     1       7.289  -2.069  -9.749  1.00  0.00     0.127 S 
ATOM     81  O   UNL     1       8.686  -1.661  -9.871  1.00  0.00    -0.237 OA
ATOM     82  O   UNL     1       6.315  -1.090 -10.232  1.00  0.00    -0.237 OA
ATOM     83  O   UNL     1       6.923  -2.708  -8.492  1.00  0.00    -0.744 OA
ENDBRANCH  77  80
ENDBRANCH  49  73
BRANCH  61  84
ATOM     84  C   UNL     1      10.348 -11.483 -13.098  1.00  0.00     0.023 A 
ATOM     85  C   UNL     1      11.594 -11.092 -12.570  1.00  0.00     0.012 A 
ATOM     86  C   UNL     1      10.303 -12.190 -14.316  1.00  0.00     0.148 A 
ATOM     87  C   UNL     1      12.773 -11.368 -13.260  1.00  0.00     0.002 A 
ATOM     88  C   UNL     1      11.486 -12.510 -14.971  1.00  0.00     0.091 A 
ATOM     89  F   UNL     1       9.106 -12.539 -14.809  1.00  0.00    -0.205 F 
ATOM     90  C   UNL     1      12.720 -12.087 -14.452  1.00  0.00     0.022 A 
BRANCH  88  91
ATOM     91  S   UNL     1      11.522 -13.520 -16.455  1.00  0.00     0.127 S 
ATOM     92  O   UNL     1      11.906 -12.541 -17.471  1.00  0.00    -0.237 OA
ATOM     93  O   UNL     1      12.555 -14.504 -16.134  1.00  0.00    -0.237 OA
ATOM     94  O   UNL     1      10.182 -14.074 -16.599  1.00  0.00    -0.744 OA
ENDBRANCH  88  91
ENDBRANCH  61  84
ENDBRANCH  35  36
ENDBRANCH  27  30
ENDBRANCH  25  26
ENDBRANCH   1  25
TORSDOF 20
