REMARK SMILES Cc1cc(NC(=O)c2ccc(Br)nc2)sc1C(=O)NCCCNC(=O)c1ccc(-c2c3nc(c(-c4cccc(S(=O)(=O)[O-])c4F)c4ccc([nH]4)c(-c4cccc(S(=O)(=O)[O-])c4F)c4nc(c(-c5cccc(S(=O)(=O)[O-])c5F)c5ccc2[nH]5)C=C4)C=C3)cc1
REMARK SMILES IDX 21 1 20 2 19 3 17 4 18 5 16 7 1 8 2 9 3 10 4 11 15 12 5 13
REMARK SMILES IDX 6 14 7 16 8 17 9 18 14 19 10 20 13 21 11 22 12 23 22 24
REMARK SMILES IDX 23 25 24 26 25 28 26 29 27 30 88 31 28 32 87 33 29 34 30 35
REMARK SMILES IDX 31 36 81 37 32 38 86 39 80 40 82 41 33 42 85 43 79 44 78 45
REMARK SMILES IDX 34 47 66 48 46 49 65 50 47 51 50 52 64 53 83 54 48 55 49 56
REMARK SMILES IDX 63 58 84 59 51 60 35 61 36 62 44 63 37 64 39 65 45 66 38 67
REMARK SMILES IDX 40 68 41 69 42 70 43 71 67 72 68 73 76 74 69 75 71 76 77 77
REMARK SMILES IDX 70 78 72 79 73 80 74 81 75 82 52 83 53 84 61 85 54 86 56 87
REMARK SMILES IDX 62 88 55 89 57 90 58 91 59 92 60 93
REMARK H PARENT 19 6 5 15 23 27 82 46 50 57
REMARK Flexibility Score: inf
ROOT
ATOM      1  C   UNL     1       3.745  -2.721   0.699  1.00  0.00     0.042 C 
ENDROOT
BRANCH   1   2
ATOM      2  C   UNL     1       2.852  -2.685  -0.536  1.00  0.00     0.118 C 
BRANCH   2   3
ATOM      3  N   UNL     1       1.480  -2.997  -0.224  1.00  0.00    -0.351 N 
ATOM      4  C   UNL     1       0.358  -2.235  -0.023  1.00  0.00     0.261 C 
ATOM      5  O   UNL     1      -0.675  -2.918   0.007  1.00  0.00    -0.268 OA
ATOM      6  H   UNL     1       1.313  -3.964  -0.135  1.00  0.00     0.163 HD
BRANCH   4   7
ATOM      7  C   UNL     1       0.334  -0.776   0.152  1.00  0.00     0.097 A 
ATOM      8  C   UNL     1       2.723   0.307   0.523  1.00  0.00     0.046 C 
ATOM      9  C   UNL     1       1.237   0.247   0.460  1.00  0.00    -0.025 A 
ATOM     10  C   UNL     1       0.538   1.446   0.816  1.00  0.00     0.042 A 
ATOM     11  C   UNL     1      -0.714   1.482   0.283  1.00  0.00     0.096 A 
ATOM     12  S   UNL     1      -1.271  -0.068  -0.058  1.00  0.00    -0.112 S 
BRANCH  11  13
ATOM     13  N   UNL     1      -1.558   2.527  -0.003  1.00  0.00    -0.313 N 
ATOM     14  C   UNL     1      -1.182   3.851  -0.153  1.00  0.00     0.257 C 
ATOM     15  H   UNL     1      -2.514   2.316  -0.112  1.00  0.00     0.171 HD
ATOM     16  O   UNL     1      -2.015   4.748  -0.241  1.00  0.00    -0.269 OA
BRANCH  14  17
ATOM     17  C   UNL     1       0.247   4.207  -0.288  1.00  0.00     0.058 A 
ATOM     18  C   UNL     1       1.053   3.656  -1.290  1.00  0.00     0.018 A 
ATOM     19  C   UNL     1       0.840   5.015   0.668  1.00  0.00     0.126 A 
ATOM     20  C   UNL     1       2.431   3.866  -1.244  1.00  0.00     0.037 A 
ATOM     21  N   UNL     1       2.176   5.241   0.724  1.00  0.00    -0.249 NA
ATOM     22  C   UNL     1       2.945   4.647  -0.217  1.00  0.00     0.106 A 
ATOM     23  Br  UNL     1       4.825   4.856  -0.088  1.00  0.00    -0.029 Br
ENDBRANCH  14  17
ENDBRANCH  11  13
ENDBRANCH   4   7
ENDBRANCH   2   3
ENDBRANCH   1   2
BRANCH   1  24
ATOM     24  C   UNL     1       4.362  -4.078   0.993  1.00  0.00     0.118 C 
BRANCH  24  25
ATOM     25  N   UNL     1       5.368  -4.434   0.003  1.00  0.00    -0.352 N 
ATOM     26  C   UNL     1       6.726  -4.588   0.128  1.00  0.00     0.251 C 
ATOM     27  H   UNL     1       5.017  -4.590  -0.904  1.00  0.00     0.163 HD
ATOM     28  O   UNL     1       7.412  -4.621  -0.892  1.00  0.00    -0.269 OA
BRANCH  26  29
ATOM     29  C   UNL     1       7.370  -4.714   1.458  1.00  0.00     0.039 A 
ATOM     30  C   UNL     1       8.660  -4.203   1.634  1.00  0.00     0.014 A 
ATOM     31  C   UNL     1       6.744  -5.383   2.513  1.00  0.00     0.014 A 
ATOM     32  C   UNL     1       9.299  -4.327   2.871  1.00  0.00     0.010 A 
ATOM     33  C   UNL     1       7.340  -5.419   3.770  1.00  0.00     0.010 A 
ATOM     34  C   UNL     1       8.632  -4.913   3.958  1.00  0.00    -0.014 A 
BRANCH  34  35
ATOM     35  C   UNL     1       9.272  -5.025   5.294  1.00  0.00     0.031 A 
ATOM     36  C   UNL     1       9.511  -6.380   5.909  1.00  0.00     0.074 A 
ATOM     37  C   UNL     1       9.557  -3.907   5.990  1.00  0.00     0.049 A 
ATOM     38  N   UNL     1       9.990  -6.677   7.089  1.00  0.00    -0.248 NA
ATOM     39  C   UNL     1       9.131  -7.555   5.106  1.00  0.00     0.031 C 
ATOM     40  C   UNL     1       9.295  -2.539   5.537  1.00  0.00     0.029 A 
ATOM     41  N   UNL     1      10.103  -3.743   7.238  1.00  0.00    -0.354 N 
ATOM     42  C   UNL     1       9.932  -8.063   7.185  1.00  0.00     0.074 A 
ATOM     43  C   UNL     1       9.335  -8.547   5.960  1.00  0.00     0.031 C 
ATOM     44  C   UNL     1       9.683  -1.677   6.489  1.00  0.00     0.029 A 
ATOM     45  C   UNL     1      10.193  -2.428   7.632  1.00  0.00     0.049 A 
ATOM     46  H   UNL     1      10.402  -4.495   7.799  1.00  0.00     0.167 HD
ATOM     47  C   UNL     1      10.366  -8.865   8.187  1.00  0.00     0.034 A 
ATOM     48  C   UNL     1      10.629  -1.889   8.787  1.00  0.00     0.034 A 
ATOM     49  C   UNL     1      11.004  -8.380   9.381  1.00  0.00     0.049 A 
ATOM     50  C   UNL     1      11.154  -2.799   9.863  1.00  0.00     0.074 A 
ATOM     51  C   UNL     1      11.560  -9.110  10.416  1.00  0.00     0.029 A 
ATOM     52  N   UNL     1      11.166  -7.041   9.702  1.00  0.00    -0.354 N 
ATOM     53  N   UNL     1      11.233  -4.108   9.869  1.00  0.00    -0.248 NA
ATOM     54  C   UNL     1      11.685  -2.158  11.074  1.00  0.00     0.031 C 
ATOM     55  C   UNL     1      12.040  -8.210  11.374  1.00  0.00     0.029 A 
ATOM     56  C   UNL     1      11.808  -6.921  10.922  1.00  0.00     0.049 A 
ATOM     57  H   UNL     1      10.868  -6.287   9.144  1.00  0.00     0.167 HD
ATOM     58  C   UNL     1      11.854  -4.446  11.066  1.00  0.00     0.074 A 
ATOM     59  C   UNL     1      12.149  -3.202  11.748  1.00  0.00     0.031 C 
ATOM     60  C   UNL     1      12.140  -5.675  11.563  1.00  0.00     0.034 A 
BRANCH  47  61
ATOM     61  C   UNL     1      10.217 -10.354   8.008  1.00  0.00     0.023 A 
ATOM     62  C   UNL     1      11.018 -11.024   7.060  1.00  0.00     0.012 A 
ATOM     63  C   UNL     1       9.329 -11.099   8.809  1.00  0.00     0.148 A 
ATOM     64  C   UNL     1      10.910 -12.403   6.883  1.00  0.00     0.002 A 
ATOM     65  C   UNL     1       9.261 -12.480   8.660  1.00  0.00     0.091 A 
ATOM     66  F   UNL     1       8.560 -10.444   9.691  1.00  0.00    -0.205 F 
ATOM     67  C   UNL     1      10.040 -13.131   7.689  1.00  0.00     0.022 A 
BRANCH  65  68
ATOM     68  S   UNL     1       8.231 -13.519   9.702  1.00  0.00     0.127 S 
ATOM     69  O   UNL     1       7.194 -13.943   8.763  1.00  0.00    -0.237 OA
ATOM     70  O   UNL     1       9.163 -14.575  10.100  1.00  0.00    -0.237 OA
ATOM     71  O   UNL     1       7.777 -12.668  10.793  1.00  0.00    -0.744 OA
ENDBRANCH  65  68
ENDBRANCH  47  61
BRANCH  48  72
ATOM     72  C   UNL     1      10.649  -0.408   8.953  1.00  0.00     0.023 A 
ATOM     73  C   UNL     1      11.884   0.269   8.970  1.00  0.00     0.012 A 
ATOM     74  C   UNL     1       9.457   0.335   9.053  1.00  0.00     0.148 A 
ATOM     75  C   UNL     1      11.933   1.656   9.117  1.00  0.00     0.002 A 
ATOM     76  C   UNL     1       9.511   1.721   9.141  1.00  0.00     0.091 A 
ATOM     77  F   UNL     1       8.293  -0.329   9.043  1.00  0.00    -0.205 F 
ATOM     78  C   UNL     1      10.748   2.382   9.191  1.00  0.00     0.022 A 
BRANCH  76  79
ATOM     79  S   UNL     1       8.036   2.746   9.105  1.00  0.00     0.127 S 
ATOM     80  O   UNL     1       7.983   3.242  10.477  1.00  0.00    -0.237 OA
ATOM     81  O   UNL     1       8.390   3.747   8.099  1.00  0.00    -0.237 OA
ATOM     82  O   UNL     1       6.951   1.857   8.709  1.00  0.00    -0.744 OA
ENDBRANCH  76  79
ENDBRANCH  48  72
BRANCH  60  83
ATOM     83  C   UNL     1      12.842  -5.742  12.894  1.00  0.00     0.023 A 
ATOM     84  C   UNL     1      12.140  -5.427  14.074  1.00  0.00     0.012 A 
ATOM     85  C   UNL     1      14.176  -6.187  12.979  1.00  0.00     0.148 A 
ATOM     86  C   UNL     1      12.766  -5.522  15.316  1.00  0.00     0.002 A 
ATOM     87  C   UNL     1      14.776  -6.329  14.223  1.00  0.00     0.091 A 
ATOM     88  F   UNL     1      14.832  -6.463  11.842  1.00  0.00    -0.205 F 
ATOM     89  C   UNL     1      14.078  -5.984  15.392  1.00  0.00     0.022 A 
BRANCH  87  90
ATOM     90  S   UNL     1      16.427  -7.009  14.423  1.00  0.00     0.127 S 
ATOM     91  O   UNL     1      17.198  -5.820  14.780  1.00  0.00    -0.237 OA
ATOM     92  O   UNL     1      16.239  -7.965  15.514  1.00  0.00    -0.237 OA
ATOM     93  O   UNL     1      16.768  -7.614  13.143  1.00  0.00    -0.744 OA
ENDBRANCH  87  90
ENDBRANCH  60  83
ENDBRANCH  34  35
ENDBRANCH  26  29
ENDBRANCH  24  25
ENDBRANCH   1  24
TORSDOF 15
