REMARK SMILES C[NH2+][C@]1(C(=O)NCCCNC(=O)c2ccc(-c3c4nc(c(-c5cccc(S(=O)(=O)[O-])c5F)c5ccc([nH]5)c(-c5cccc(S(=O)(=O)[O-])c5F)c5nc(c(-c6cccc(S(=O)(=O)[O-])c6F)c6ccc3[nH]6)C=C5)C=C4)cc2)CCC[C@@H]1CCOC[C@@H]1CCCO1
REMARK SMILES IDX 7 1 6 2 4 3 5 4 3 6 76 7 79 8 77 9 78 10 2 11 1 12 80 15
REMARK SMILES IDX 81 16 82 17 83 18 84 19 85 20 88 21 86 22 87 23 8 24 9 25
REMARK SMILES IDX 10 26 11 27 12 29 13 30 14 31 75 32 15 33 74 34 16 35 17 36
REMARK SMILES IDX 18 37 68 38 19 39 73 40 67 41 69 42 20 43 72 44 66 45 65 46
REMARK SMILES IDX 21 48 53 49 33 50 52 51 34 52 37 53 51 54 70 55 35 56 36 57
REMARK SMILES IDX 50 59 71 60 38 61 22 62 23 63 31 64 24 65 26 66 32 67 25 68
REMARK SMILES IDX 27 69 28 70 29 71 30 72 54 73 55 74 63 75 56 76 58 77 64 78
REMARK SMILES IDX 57 79 59 80 60 81 61 82 62 83 39 84 40 85 48 86 41 87 43 88
REMARK SMILES IDX 49 89 42 90 44 91 45 92 46 93 47 94
REMARK H PARENT 6 5 2 13 2 14 10 28 69 47 37 58
REMARK Flexibility Score: inf
ROOT
ATOM      1  C   UNL     1       0.405   0.086  -4.006  1.00  0.00     0.118 C 
ENDROOT
BRANCH   1   2
ATOM      2  N   UNL     1       1.034   0.157  -2.700  1.00  0.00    -0.351 N 
ATOM      3  C   UNL     1       0.585   0.273  -1.420  1.00  0.00     0.281 C 
ATOM      4  O   UNL     1       1.495   0.189  -0.587  1.00  0.00    -0.268 OA
ATOM      5  H   UNL     1       2.016   0.109  -2.751  1.00  0.00     0.163 HD
BRANCH   3   6
ATOM      6  C   UNL     1      -0.930   0.436  -1.040  1.00  0.00     0.178 C 
ATOM      7  C   UNL     1      -1.593   1.638  -1.752  1.00  0.00     0.079 C 
ATOM      8  C   UNL     1      -1.787  -0.751  -1.576  1.00  0.00     0.063 C 
ATOM      9  C   UNL     1      -3.070   1.266  -1.949  1.00  0.00     0.008 C 
ATOM     10  C   UNL     1      -3.219  -0.193  -1.510  1.00  0.00     0.011 C 
BRANCH   6  11
ATOM     11  N   UNL     1      -1.243   0.659   0.410  1.00  0.00    -0.336 N 
ATOM     12  C   UNL     1      -0.167   0.731   1.375  1.00  0.00     0.331 C 
ATOM     13  H   UNL     1      -1.752   1.541   0.470  1.00  0.00     0.346 HD
ATOM     14  H   UNL     1      -1.744  -0.188   0.677  1.00  0.00     0.346 HD
ENDBRANCH   6  11
BRANCH   8  15
ATOM     15  C   UNL     1      -1.563  -2.104  -0.880  1.00  0.00     0.039 C 
BRANCH  15  16
ATOM     16  C   UNL     1      -2.164  -3.317  -1.610  1.00  0.00     0.161 C 
BRANCH  16  17
ATOM     17  O   UNL     1      -1.289  -3.972  -2.517  1.00  0.00    -0.379 OA
BRANCH  17  18
ATOM     18  C   UNL     1      -1.029  -3.413  -3.801  1.00  0.00     0.192 C 
BRANCH  18  19
ATOM     19  C   UNL     1      -2.184  -3.344  -4.820  1.00  0.00     0.144 C 
ATOM     20  C   UNL     1      -3.108  -2.146  -4.689  1.00  0.00     0.037 C 
ATOM     21  O   UNL     1      -3.003  -4.524  -4.774  1.00  0.00    -0.376 OA
ATOM     22  C   UNL     1      -4.453  -2.683  -5.092  1.00  0.00     0.031 C 
ATOM     23  C   UNL     1      -4.371  -4.125  -4.647  1.00  0.00     0.160 C 
ENDBRANCH  18  19
ENDBRANCH  17  18
ENDBRANCH  16  17
ENDBRANCH  15  16
ENDBRANCH   8  15
ENDBRANCH   3   6
ENDBRANCH   1   2
BRANCH   1  24
ATOM     24  C   UNL     1       0.933   1.122  -4.979  1.00  0.00     0.042 C 
BRANCH  24  25
ATOM     25  C   UNL     1       2.433   1.030  -5.220  1.00  0.00     0.118 C 
BRANCH  25  26
ATOM     26  N   UNL     1       2.858  -0.256  -5.764  1.00  0.00    -0.352 N 
ATOM     27  C   UNL     1       3.441  -0.559  -6.976  1.00  0.00     0.251 C 
ATOM     28  H   UNL     1       2.704  -1.028  -5.174  1.00  0.00     0.163 HD
ATOM     29  O   UNL     1       3.581  -1.725  -7.311  1.00  0.00    -0.269 OA
BRANCH  27  30
ATOM     30  C   UNL     1       3.867   0.536  -7.876  1.00  0.00     0.039 A 
ATOM     31  C   UNL     1       3.597   0.442  -9.243  1.00  0.00     0.014 A 
ATOM     32  C   UNL     1       4.506   1.665  -7.364  1.00  0.00     0.014 A 
ATOM     33  C   UNL     1       3.889   1.523 -10.078  1.00  0.00     0.010 A 
ATOM     34  C   UNL     1       4.682   2.780  -8.170  1.00  0.00     0.010 A 
ATOM     35  C   UNL     1       4.390   2.720  -9.540  1.00  0.00    -0.014 A 
BRANCH  35  36
ATOM     36  C   UNL     1       4.631   3.920 -10.380  1.00  0.00     0.031 A 
ATOM     37  C   UNL     1       6.011   4.520 -10.452  1.00  0.00     0.074 A 
ATOM     38  C   UNL     1       3.595   4.532 -10.989  1.00  0.00     0.049 A 
ATOM     39  N   UNL     1       6.405   5.614 -11.049  1.00  0.00    -0.248 NA
ATOM     40  C   UNL     1       7.084   3.820  -9.722  1.00  0.00     0.031 C 
ATOM     41  C   UNL     1       2.196   4.101 -10.922  1.00  0.00     0.029 A 
ATOM     42  N   UNL     1       3.554   5.666 -11.761  1.00  0.00    -0.354 N 
ATOM     43  C   UNL     1       7.750   5.758 -10.728  1.00  0.00     0.074 A 
ATOM     44  C   UNL     1       8.095   4.665  -9.848  1.00  0.00     0.031 C 
ATOM     45  C   UNL     1       1.438   4.952 -11.632  1.00  0.00     0.029 A 
ATOM     46  C   UNL     1       2.287   6.008 -12.174  1.00  0.00     0.049 A 
ATOM     47  H   UNL     1       4.356   6.186 -11.996  1.00  0.00     0.167 HD
ATOM     48  C   UNL     1       8.630   6.694 -11.153  1.00  0.00     0.034 A 
ATOM     49  C   UNL     1       1.856   7.057 -12.902  1.00  0.00     0.034 A 
ATOM     50  C   UNL     1       8.296   7.745 -12.075  1.00  0.00     0.049 A 
ATOM     51  C   UNL     1       2.864   8.053 -13.409  1.00  0.00     0.074 A 
ATOM     52  C   UNL     1       9.134   8.682 -12.650  1.00  0.00     0.029 A 
ATOM     53  N   UNL     1       7.020   7.999 -12.553  1.00  0.00    -0.354 N 
ATOM     54  N   UNL     1       4.162   8.079 -13.227  1.00  0.00    -0.248 NA
ATOM     55  C   UNL     1       2.355   9.143 -14.254  1.00  0.00     0.031 C 
ATOM     56  C   UNL     1       8.359   9.523 -13.456  1.00  0.00     0.029 A 
ATOM     57  C   UNL     1       7.044   9.085 -13.409  1.00  0.00     0.049 A 
ATOM     58  H   UNL     1       6.215   7.483 -12.318  1.00  0.00     0.167 HD
ATOM     59  C   UNL     1       4.630   9.160 -13.966  1.00  0.00     0.074 A 
ATOM     60  C   UNL     1       3.477   9.752 -14.613  1.00  0.00     0.031 C 
ATOM     61  C   UNL     1       5.896   9.627 -14.090  1.00  0.00     0.034 A 
BRANCH  48  62
ATOM     62  C   UNL     1      10.053   6.592 -10.666  1.00  0.00     0.023 A 
ATOM     63  C   UNL     1      10.871   5.535 -11.115  1.00  0.00     0.012 A 
ATOM     64  C   UNL     1      10.594   7.567  -9.806  1.00  0.00     0.148 A 
ATOM     65  C   UNL     1      12.192   5.425 -10.682  1.00  0.00     0.002 A 
ATOM     66  C   UNL     1      11.927   7.479  -9.420  1.00  0.00     0.091 A 
ATOM     67  F   UNL     1       9.796   8.552  -9.372  1.00  0.00    -0.205 F 
ATOM     68  C   UNL     1      12.722   6.402  -9.845  1.00  0.00     0.022 A 
BRANCH  66  69
ATOM     69  S   UNL     1      12.728   8.731  -8.412  1.00  0.00     0.127 S 
ATOM     70  O   UNL     1      12.922   8.016  -7.152  1.00  0.00    -0.237 OA
ATOM     71  O   UNL     1      13.957   8.988  -9.163  1.00  0.00    -0.237 OA
ATOM     72  O   UNL     1      11.804   9.855  -8.357  1.00  0.00    -0.744 OA
ENDBRANCH  66  69
ENDBRANCH  48  62
BRANCH  49  73
ATOM     73  C   UNL     1       0.413   7.181 -13.255  1.00  0.00     0.023 A 
ATOM     74  C   UNL     1       0.010   6.989 -14.591  1.00  0.00     0.012 A 
ATOM     75  C   UNL     1      -0.562   7.462 -12.279  1.00  0.00     0.148 A 
ATOM     76  C   UNL     1      -1.331   7.112 -14.956  1.00  0.00     0.002 A 
ATOM     77  C   UNL     1      -1.903   7.527 -12.638  1.00  0.00     0.091 A 
ATOM     78  F   UNL     1      -0.158   7.649 -11.014  1.00  0.00    -0.205 F 
ATOM     79  C   UNL     1      -2.288   7.372 -13.979  1.00  0.00     0.022 A 
BRANCH  77  80
ATOM     80  S   UNL     1      -3.217   7.724 -11.429  1.00  0.00     0.127 S 
ATOM     81  O   UNL     1      -3.692   9.074 -11.721  1.00  0.00    -0.237 OA
ATOM     82  O   UNL     1      -4.138   6.651 -11.807  1.00  0.00    -0.237 OA
ATOM     83  O   UNL     1      -2.586   7.542 -10.129  1.00  0.00    -0.744 OA
ENDBRANCH  77  80
ENDBRANCH  49  73
BRANCH  61  84
ATOM     84  C   UNL     1       6.122  10.809 -14.996  1.00  0.00     0.023 A 
ATOM     85  C   UNL     1       5.687  12.091 -14.605  1.00  0.00     0.012 A 
ATOM     86  C   UNL     1       6.837  10.657 -16.200  1.00  0.00     0.148 A 
ATOM     87  C   UNL     1       5.932  13.198 -15.416  1.00  0.00     0.002 A 
ATOM     88  C   UNL     1       7.123  11.773 -16.977  1.00  0.00     0.091 A 
ATOM     89  F   UNL     1       7.226   9.426 -16.562  1.00  0.00    -0.205 F 
ATOM     90  C   UNL     1       6.660  13.042 -16.593  1.00  0.00     0.022 A 
BRANCH  88  91
ATOM     91  S   UNL     1       8.140  11.681 -18.454  1.00  0.00     0.127 S 
ATOM     92  O   UNL     1       7.150  11.884 -19.510  1.00  0.00    -0.237 OA
ATOM     93  O   UNL     1       9.066  12.799 -18.262  1.00  0.00    -0.237 OA
ATOM     94  O   UNL     1       8.768  10.367 -18.429  1.00  0.00    -0.744 OA
ENDBRANCH  88  91
ENDBRANCH  61  84
ENDBRANCH  35  36
ENDBRANCH  27  30
ENDBRANCH  25  26
ENDBRANCH  24  25
ENDBRANCH   1  24
TORSDOF 19
