REMARK SMILES O=C(NCCCNC(=O)[C@H]1CCCC[C@H]1C(=O)N1CCN(S(=O)(=O)c2ccc(F)cc2)CC1)c1ccc(-c2c3nc(c(-c4cccc(S(=O)(=O)[O-])c4F)c4ccc([nH]4)c(-c4cccc(S(=O)(=O)[O-])c4F)c4nc(c(-c5cccc(S(=O)(=O)[O-])c5F)c5ccc2[nH]5)C=C4)C=C3)cc1
REMARK SMILES IDX 5 1 4 2 3 3 1 4 2 5 34 7 35 8 96 9 36 10 95 11 37 12 38 13
REMARK SMILES IDX 39 14 89 15 40 16 94 17 88 18 90 19 41 20 93 21 87 22 86 23
REMARK SMILES IDX 42 25 74 26 54 27 73 28 55 29 58 30 72 31 91 32 56 33 57 34
REMARK SMILES IDX 71 36 92 37 59 38 43 39 44 40 52 41 45 42 47 43 53 44 46 45
REMARK SMILES IDX 48 46 49 47 50 48 51 49 75 50 76 51 84 52 77 53 79 54 85 55
REMARK SMILES IDX 78 56 80 57 81 58 82 59 83 60 60 61 61 62 69 63 62 64 64 65
REMARK SMILES IDX 70 66 63 67 65 68 66 69 67 70 68 71 6 72 7 73 8 74 9 76
REMARK SMILES IDX 10 77 11 78 15 79 12 80 14 81 13 82 16 83 17 84 18 85 19 86
REMARK SMILES IDX 33 87 20 88 32 89 21 90 22 91 23 92 24 93 25 94 26 95 31 96
REMARK SMILES IDX 27 97 30 98 28 99 29 100
REMARK H PARENT 3 6 90 24 58 35 7 75
REMARK Flexibility Score: inf
ROOT
ATOM      1  C   UNL     1       7.407  -1.367  -1.033  1.00  0.00     0.042 C 
ENDROOT
BRANCH   1   2
ATOM      2  C   UNL     1       8.858  -1.726  -0.691  1.00  0.00     0.118 C 
BRANCH   2   3
ATOM      3  N   UNL     1       9.769  -0.597  -0.575  1.00  0.00    -0.352 N 
ATOM      4  O   UNL     1      11.457   0.662   0.205  1.00  0.00    -0.269 OA
ATOM      5  C   UNL     1      10.847  -0.406   0.271  1.00  0.00     0.251 C 
ATOM      6  H   UNL     1       9.590   0.146  -1.196  1.00  0.00     0.163 HD
BRANCH   5   7
ATOM      7  C   UNL     1      11.279  -1.421   1.276  1.00  0.00     0.039 A 
ATOM      8  C   UNL     1      11.490  -2.756   0.936  1.00  0.00     0.014 A 
ATOM      9  C   UNL     1      11.599  -1.016   2.575  1.00  0.00     0.014 A 
ATOM     10  C   UNL     1      11.897  -3.703   1.890  1.00  0.00     0.010 A 
ATOM     11  C   UNL     1      12.039  -1.951   3.531  1.00  0.00     0.010 A 
ATOM     12  C   UNL     1      12.157  -3.314   3.209  1.00  0.00    -0.014 A 
BRANCH  12  13
ATOM     13  C   UNL     1      12.506  -4.324   4.253  1.00  0.00     0.031 A 
ATOM     14  C   UNL     1      11.505  -4.667   5.329  1.00  0.00     0.074 A 
ATOM     15  C   UNL     1      13.707  -4.938   4.263  1.00  0.00     0.049 A 
ATOM     16  N   UNL     1      11.625  -5.490   6.341  1.00  0.00    -0.248 NA
ATOM     17  C   UNL     1      10.195  -3.999   5.255  1.00  0.00     0.031 C 
ATOM     18  C   UNL     1      14.778  -4.715   3.293  1.00  0.00     0.029 A 
ATOM     19  N   UNL     1      14.238  -5.863   5.136  1.00  0.00    -0.354 N 
ATOM     20  C   UNL     1      10.425  -5.416   7.039  1.00  0.00     0.074 A 
ATOM     21  C   UNL     1       9.589  -4.464   6.339  1.00  0.00     0.031 C 
ATOM     22  C   UNL     1      15.841  -5.465   3.632  1.00  0.00     0.029 A 
ATOM     23  C   UNL     1      15.543  -6.204   4.859  1.00  0.00     0.049 A 
ATOM     24  H   UNL     1      13.731  -6.244   5.889  1.00  0.00     0.167 HD
ATOM     25  C   UNL     1      10.040  -6.091   8.148  1.00  0.00     0.034 A 
ATOM     26  C   UNL     1      16.408  -7.004   5.519  1.00  0.00     0.034 A 
ATOM     27  C   UNL     1      10.842  -7.069   8.832  1.00  0.00     0.049 A 
ATOM     28  C   UNL     1      15.962  -7.726   6.767  1.00  0.00     0.074 A 
ATOM     29  C   UNL     1      10.499  -7.839   9.932  1.00  0.00     0.029 A 
ATOM     30  N   UNL     1      12.141  -7.410   8.497  1.00  0.00    -0.354 N 
ATOM     31  N   UNL     1      14.781  -7.740   7.334  1.00  0.00    -0.248 NA
ATOM     32  C   UNL     1      16.960  -8.566   7.452  1.00  0.00     0.031 C 
ATOM     33  C   UNL     1      11.598  -8.630  10.274  1.00  0.00     0.029 A 
ATOM     34  C   UNL     1      12.619  -8.367   9.376  1.00  0.00     0.049 A 
ATOM     35  H   UNL     1      12.650  -7.028   7.745  1.00  0.00     0.167 HD
ATOM     36  C   UNL     1      14.885  -8.604   8.421  1.00  0.00     0.074 A 
ATOM     37  C   UNL     1      16.239  -9.115   8.423  1.00  0.00     0.031 C 
ATOM     38  C   UNL     1      13.946  -8.927   9.342  1.00  0.00     0.034 A 
BRANCH  25  39
ATOM     39  C   UNL     1       8.655  -5.843   8.685  1.00  0.00     0.023 A 
ATOM     40  C   UNL     1       7.552  -6.436   8.040  1.00  0.00     0.012 A 
ATOM     41  C   UNL     1       8.460  -5.132   9.885  1.00  0.00     0.148 A 
ATOM     42  C   UNL     1       6.271  -6.314   8.574  1.00  0.00     0.002 A 
ATOM     43  C   UNL     1       7.185  -5.046  10.431  1.00  0.00     0.091 A 
ATOM     44  F   UNL     1       9.524  -4.569  10.474  1.00  0.00    -0.205 F 
ATOM     45  C   UNL     1       6.089  -5.630   9.774  1.00  0.00     0.022 A 
BRANCH  43  46
ATOM     46  S   UNL     1       6.853  -4.254  12.009  1.00  0.00     0.127 S 
ATOM     47  O   UNL     1       6.061  -3.095  11.596  1.00  0.00    -0.237 OA
ATOM     48  O   UNL     1       6.096  -5.287  12.717  1.00  0.00    -0.237 OA
ATOM     49  O   UNL     1       8.152  -3.943  12.587  1.00  0.00    -0.744 OA
ENDBRANCH  43  46
ENDBRANCH  25  39
BRANCH  26  50
ATOM     50  C   UNL     1      17.789  -7.204   4.989  1.00  0.00     0.023 A 
ATOM     51  C   UNL     1      18.153  -8.458   4.460  1.00  0.00     0.012 A 
ATOM     52  C   UNL     1      18.735  -6.159   4.985  1.00  0.00     0.148 A 
ATOM     53  C   UNL     1      19.436  -8.674   3.955  1.00  0.00     0.002 A 
ATOM     54  C   UNL     1      19.994  -6.365   4.430  1.00  0.00     0.091 A 
ATOM     55  F   UNL     1      18.383  -4.982   5.521  1.00  0.00    -0.205 F 
ATOM     56  C   UNL     1      20.351  -7.625   3.928  1.00  0.00     0.022 A 
BRANCH  54  57
ATOM     57  S   UNL     1      21.189  -5.037   4.238  1.00  0.00     0.127 S 
ATOM     58  O   UNL     1      22.181  -5.378   5.255  1.00  0.00    -0.237 OA
ATOM     59  O   UNL     1      21.635  -5.228   2.857  1.00  0.00    -0.237 OA
ATOM     60  O   UNL     1      20.446  -3.806   4.463  1.00  0.00    -0.744 OA
ENDBRANCH  54  57
ENDBRANCH  26  50
BRANCH  38  61
ATOM     61  C   UNL     1      14.311  -9.892  10.441  1.00  0.00     0.023 A 
ATOM     62  C   UNL     1      15.116  -9.452  11.510  1.00  0.00     0.012 A 
ATOM     63  C   UNL     1      13.743 -11.182  10.490  1.00  0.00     0.148 A 
ATOM     64  C   UNL     1      15.358 -10.282  12.605  1.00  0.00     0.002 A 
ATOM     65  C   UNL     1      13.953 -11.988  11.605  1.00  0.00     0.091 A 
ATOM     66  F   UNL     1      12.990 -11.588   9.457  1.00  0.00    -0.205 F 
ATOM     67  C   UNL     1      14.766 -11.541  12.659  1.00  0.00     0.022 A 
BRANCH  65  68
ATOM     68  S   UNL     1      13.152 -13.584  11.811  1.00  0.00     0.127 S 
ATOM     69  O   UNL     1      14.278 -14.504  11.666  1.00  0.00    -0.237 OA
ATOM     70  O   UNL     1      12.614 -13.489  13.169  1.00  0.00    -0.237 OA
ATOM     71  O   UNL     1      12.142 -13.666  10.765  1.00  0.00    -0.744 OA
ENDBRANCH  65  68
ENDBRANCH  38  61
ENDBRANCH  12  13
ENDBRANCH   5   7
ENDBRANCH   2   3
ENDBRANCH   1   2
BRANCH   1  72
ATOM     72  C   UNL     1       7.021  -1.127  -2.500  1.00  0.00     0.117 C 
BRANCH  72  73
ATOM     73  N   UNL     1       7.692  -1.910  -3.528  1.00  0.00    -0.356 N 
ATOM     74  C   UNL     1       7.248  -2.897  -4.358  1.00  0.00     0.223 C 
ATOM     75  H   UNL     1       8.643  -1.685  -3.646  1.00  0.00     0.163 HD
ATOM     76  O   UNL     1       7.845  -3.032  -5.433  1.00  0.00    -0.275 OA
BRANCH  74  77
ATOM     77  C   UNL     1       6.122  -3.853  -3.962  1.00  0.00     0.091 C 
ATOM     78  C   UNL     1       5.397  -4.390  -5.229  1.00  0.00     0.014 C 
ATOM     79  C   UNL     1       6.470  -4.966  -2.931  1.00  0.00     0.091 C 
ATOM     80  C   UNL     1       5.795  -5.800  -5.657  1.00  0.00     0.001 C 
ATOM     81  C   UNL     1       6.478  -6.445  -3.380  1.00  0.00     0.014 C 
ATOM     82  C   UNL     1       5.546  -6.771  -4.522  1.00  0.00     0.001 C 
BRANCH  79  83
ATOM     83  C   UNL     1       7.677  -4.808  -1.999  1.00  0.00     0.226 C 
ATOM     84  O   UNL     1       7.459  -4.540  -0.812  1.00  0.00    -0.275 OA
ATOM     85  N   UNL     1       8.964  -5.128  -2.436  1.00  0.00    -0.340 N 
ATOM     86  C   UNL     1       9.966  -5.311  -1.383  1.00  0.00     0.136 C 
ATOM     87  C   UNL     1       9.462  -4.787  -3.771  1.00  0.00     0.136 C 
ATOM     88  C   UNL     1      11.330  -5.850  -1.840  1.00  0.00     0.124 C 
ATOM     89  C   UNL     1      10.834  -5.343  -4.155  1.00  0.00     0.124 C 
ATOM     90  N   UNL     1      11.841  -5.156  -3.077  1.00  0.00    -0.194 NA
BRANCH  90  91
ATOM     91  S   UNL     1      12.449  -3.588  -2.775  1.00  0.00     0.243 S 
ATOM     92  O   UNL     1      11.329  -2.704  -2.553  1.00  0.00    -0.207 OA
ATOM     93  O   UNL     1      13.483  -3.723  -1.772  1.00  0.00    -0.207 OA
BRANCH  91  94
ATOM     94  C   UNL     1      13.215  -3.015  -4.273  1.00  0.00     0.082 A 
ATOM     95  C   UNL     1      12.422  -2.353  -5.224  1.00  0.00     0.025 A 
ATOM     96  C   UNL     1      14.610  -2.983  -4.371  1.00  0.00     0.025 A 
ATOM     97  C   UNL     1      13.027  -1.690  -6.291  1.00  0.00     0.040 A 
ATOM     98  C   UNL     1      15.209  -2.307  -5.437  1.00  0.00     0.040 A 
ATOM     99  C   UNL     1      14.414  -1.669  -6.385  1.00  0.00     0.123 A 
ATOM    100  F   UNL     1      14.992  -0.997  -7.390  1.00  0.00    -0.207 F 
ENDBRANCH  91  94
ENDBRANCH  90  91
ENDBRANCH  79  83
ENDBRANCH  74  77
ENDBRANCH  72  73
ENDBRANCH   1  72
TORSDOF 16
