REMARK SMILES CC(C)[C@@H](CNC(=O)[C@@H]1CC[C@@H]2CCCC[C@@H]2[NH2+]1)C(=O)NCCCNC(=O)c1ccc(-c2c3nc(c(-c4cccc(S(=O)(=O)[O-])c4F)c4ccc([nH]4)c(-c4cccc(S(=O)(=O)[O-])c4F)c4nc(c(-c5cccc(S(=O)(=O)[O-])c5F)c5ccc2[nH]5)C=C4)C=C3)cc1
REMARK SMILES IDX 23 1 22 2 21 3 19 4 20 5 4 7 2 8 1 9 3 10 5 11 6 12 7 13
REMARK SMILES IDX 8 15 9 16 10 17 18 18 11 19 17 20 12 23 16 24 13 25 15 26
REMARK SMILES IDX 14 27 24 28 25 29 26 30 27 32 28 33 29 34 90 35 30 36 89 37
REMARK SMILES IDX 31 38 32 39 33 40 83 41 34 42 88 43 82 44 84 45 35 46 87 47
REMARK SMILES IDX 81 48 80 49 36 51 68 52 48 53 67 54 49 55 52 56 66 57 85 58
REMARK SMILES IDX 50 59 51 60 65 62 86 63 53 64 37 65 38 66 46 67 39 68 41 69
REMARK SMILES IDX 47 70 40 71 42 72 43 73 44 74 45 75 69 76 70 77 78 78 71 79
REMARK SMILES IDX 73 80 79 81 72 82 74 83 75 84 76 85 77 86 54 87 55 88 63 89
REMARK SMILES IDX 56 90 58 91 64 92 57 93 59 94 60 95 61 96 62 97
REMARK H PARENT 21 6 6 14 18 21 18 22 25 31 84 50 52 61
REMARK Flexibility Score: inf
ROOT
ATOM      1  C   UNL     1       1.247  -2.867  -4.506  1.00  0.00     0.042 C 
ENDROOT
BRANCH   1   2
ATOM      2  C   UNL     1       0.107  -2.230  -3.752  1.00  0.00     0.117 C 
BRANCH   2   3
ATOM      3  N   UNL     1      -0.614  -3.178  -2.922  1.00  0.00    -0.356 N 
ATOM      4  C   UNL     1      -0.997  -3.100  -1.625  1.00  0.00     0.225 C 
ATOM      5  O   UNL     1      -1.728  -3.992  -1.183  1.00  0.00    -0.275 OA
ATOM      6  H   UNL     1      -0.867  -4.014  -3.376  1.00  0.00     0.163 HD
BRANCH   4   7
ATOM      7  C   UNL     1      -0.608  -1.929  -0.739  1.00  0.00     0.100 C 
BRANCH   7   8
ATOM      8  C   UNL     1       0.919  -1.732  -0.544  1.00  0.00    -0.003 C 
ATOM      9  C   UNL     1       1.264  -0.487   0.276  1.00  0.00     0.008 C 
ATOM     10  C   UNL     1       1.518  -2.971   0.145  1.00  0.00     0.008 C 
ENDBRANCH   7   8
BRANCH   7  11
ATOM     11  C   UNL     1      -1.515  -0.734  -1.077  1.00  0.00     0.129 C 
BRANCH  11  12
ATOM     12  N   UNL     1      -1.312  -0.053  -2.339  1.00  0.00    -0.350 N 
ATOM     13  C   UNL     1      -2.171   0.567  -3.201  1.00  0.00     0.278 C 
ATOM     14  H   UNL     1      -0.372  -0.035  -2.633  1.00  0.00     0.163 HD
ATOM     15  O   UNL     1      -1.669   0.937  -4.269  1.00  0.00    -0.268 OA
BRANCH  13  16
ATOM     16  C   UNL     1      -3.679   0.785  -2.904  1.00  0.00     0.272 C 
ATOM     17  C   UNL     1      -4.265   1.870  -3.834  1.00  0.00     0.076 C 
ATOM     18  N   UNL     1      -4.013   1.129  -1.505  1.00  0.00    -0.333 N 
ATOM     19  C   UNL     1      -3.809   3.279  -3.432  1.00  0.00     0.016 C 
ATOM     20  C   UNL     1      -3.605   2.458  -1.039  1.00  0.00     0.186 C 
ATOM     21  H   UNL     1      -3.567   0.439  -0.901  1.00  0.00     0.347 HD
ATOM     22  H   UNL     1      -5.033   1.133  -1.466  1.00  0.00     0.347 HD
ATOM     23  C   UNL     1      -4.152   3.555  -1.961  1.00  0.00     0.048 C 
ATOM     24  C   UNL     1      -2.098   2.583  -0.761  1.00  0.00     0.065 C 
ATOM     25  C   UNL     1      -3.677   4.931  -1.476  1.00  0.00     0.010 C 
ATOM     26  C   UNL     1      -1.584   3.979  -0.453  1.00  0.00     0.006 C 
ATOM     27  C   UNL     1      -2.159   5.037  -1.379  1.00  0.00     0.001 C 
ENDBRANCH  13  16
ENDBRANCH  11  12
ENDBRANCH   7  11
ENDBRANCH   4   7
ENDBRANCH   2   3
ENDBRANCH   1   2
BRANCH   1  28
ATOM     28  C   UNL     1       0.749  -3.828  -5.562  1.00  0.00     0.118 C 
BRANCH  28  29
ATOM     29  N   UNL     1       0.008  -3.161  -6.633  1.00  0.00    -0.352 N 
ATOM     30  C   UNL     1       0.344  -2.990  -7.956  1.00  0.00     0.251 C 
ATOM     31  H   UNL     1      -0.859  -2.778  -6.368  1.00  0.00     0.163 HD
ATOM     32  O   UNL     1      -0.332  -2.269  -8.686  1.00  0.00    -0.269 OA
BRANCH  30  33
ATOM     33  C   UNL     1       1.550  -3.659  -8.473  1.00  0.00     0.039 A 
ATOM     34  C   UNL     1       2.472  -2.941  -9.234  1.00  0.00     0.014 A 
ATOM     35  C   UNL     1       1.812  -4.977  -8.103  1.00  0.00     0.014 A 
ATOM     36  C   UNL     1       3.706  -3.520  -9.534  1.00  0.00     0.010 A 
ATOM     37  C   UNL     1       3.092  -5.478  -8.253  1.00  0.00     0.010 A 
ATOM     38  C   UNL     1       4.048  -4.772  -8.995  1.00  0.00    -0.014 A 
BRANCH  38  39
ATOM     39  C   UNL     1       5.381  -5.392  -9.202  1.00  0.00     0.031 A 
ATOM     40  C   UNL     1       5.467  -6.785  -9.774  1.00  0.00     0.074 A 
ATOM     41  C   UNL     1       6.493  -4.769  -8.759  1.00  0.00     0.049 A 
ATOM     42  N   UNL     1       6.511  -7.561  -9.904  1.00  0.00    -0.248 NA
ATOM     43  C   UNL     1       4.203  -7.419 -10.198  1.00  0.00     0.031 C 
ATOM     44  C   UNL     1       6.531  -3.473  -8.075  1.00  0.00     0.029 A 
ATOM     45  N   UNL     1       7.808  -5.162  -8.789  1.00  0.00    -0.354 N 
ATOM     46  C   UNL     1       6.019  -8.784 -10.346  1.00  0.00     0.074 A 
ATOM     47  C   UNL     1       4.582  -8.668 -10.415  1.00  0.00     0.031 C 
ATOM     48  C   UNL     1       7.803  -3.173  -7.765  1.00  0.00     0.029 A 
ATOM     49  C   UNL     1       8.668  -4.265  -8.198  1.00  0.00     0.049 A 
ATOM     50  H   UNL     1       8.108  -6.006  -9.196  1.00  0.00     0.167 HD
ATOM     51  C   UNL     1       6.704  -9.892 -10.707  1.00  0.00     0.034 A 
ATOM     52  C   UNL     1      10.004  -4.319  -8.024  1.00  0.00     0.034 A 
ATOM     53  C   UNL     1       8.137  -9.957 -10.751  1.00  0.00     0.049 A 
ATOM     54  C   UNL     1      10.754  -5.509  -8.562  1.00  0.00     0.074 A 
ATOM     55  C   UNL     1       8.935 -10.969 -11.251  1.00  0.00     0.029 A 
ATOM     56  N   UNL     1       8.983  -8.963 -10.289  1.00  0.00    -0.354 N 
ATOM     57  N   UNL     1      10.284  -6.579  -9.157  1.00  0.00    -0.248 NA
ATOM     58  C   UNL     1      12.219  -5.482  -8.445  1.00  0.00     0.031 C 
ATOM     59  C   UNL     1      10.270 -10.590 -11.079  1.00  0.00     0.029 A 
ATOM     60  C   UNL     1      10.299  -9.337 -10.487  1.00  0.00     0.049 A 
ATOM     61  H   UNL     1       8.691  -8.117  -9.879  1.00  0.00     0.167 HD
ATOM     62  C   UNL     1      11.394  -7.336  -9.513  1.00  0.00     0.074 A 
ATOM     63  C   UNL     1      12.561  -6.589  -9.090  1.00  0.00     0.031 C 
ATOM     64  C   UNL     1      11.444  -8.549 -10.116  1.00  0.00     0.034 A 
BRANCH  51  65
ATOM     65  C   UNL     1       5.918 -11.092 -11.162  1.00  0.00     0.023 A 
ATOM     66  C   UNL     1       5.242 -11.058 -12.400  1.00  0.00     0.012 A 
ATOM     67  C   UNL     1       5.895 -12.272 -10.395  1.00  0.00     0.148 A 
ATOM     68  C   UNL     1       4.527 -12.166 -12.850  1.00  0.00     0.002 A 
ATOM     69  C   UNL     1       5.220 -13.389 -10.874  1.00  0.00     0.091 A 
ATOM     70  F   UNL     1       6.522 -12.278  -9.210  1.00  0.00    -0.205 F 
ATOM     71  C   UNL     1       4.526 -13.334 -12.094  1.00  0.00     0.022 A 
BRANCH  69  72
ATOM     72  S   UNL     1       5.229 -14.968 -10.017  1.00  0.00     0.127 S 
ATOM     73  O   UNL     1       3.841 -15.067  -9.567  1.00  0.00    -0.237 OA
ATOM     74  O   UNL     1       5.589 -15.896 -11.089  1.00  0.00    -0.237 OA
ATOM     75  O   UNL     1       6.221 -14.847  -8.959  1.00  0.00    -0.744 OA
ENDBRANCH  69  72
ENDBRANCH  51  65
BRANCH  52  76
ATOM     76  C   UNL     1      10.724  -3.181  -7.385  1.00  0.00     0.023 A 
ATOM     77  C   UNL     1      11.551  -2.357  -8.174  1.00  0.00     0.012 A 
ATOM     78  C   UNL     1      10.577  -2.892  -6.015  1.00  0.00     0.148 A 
ATOM     79  C   UNL     1      12.249  -1.291  -7.604  1.00  0.00     0.002 A 
ATOM     80  C   UNL     1      11.232  -1.794  -5.464  1.00  0.00     0.091 A 
ATOM     81  F   UNL     1       9.796  -3.691  -5.275  1.00  0.00    -0.205 F 
ATOM     82  C   UNL     1      12.082  -1.004  -6.252  1.00  0.00     0.022 A 
BRANCH  80  83
ATOM     83  S   UNL     1      10.963  -1.275  -3.765  1.00  0.00     0.127 S 
ATOM     84  O   UNL     1      12.186  -1.735  -3.113  1.00  0.00    -0.237 OA
ATOM     85  O   UNL     1      10.847   0.178  -3.903  1.00  0.00    -0.237 OA
ATOM     86  O   UNL     1       9.731  -1.933  -3.350  1.00  0.00    -0.744 OA
ENDBRANCH  80  83
ENDBRANCH  52  76
BRANCH  64  87
ATOM     87  C   UNL     1      12.801  -9.137 -10.391  1.00  0.00     0.023 A 
ATOM     88  C   UNL     1      13.561  -9.662  -9.328  1.00  0.00     0.012 A 
ATOM     89  C   UNL     1      13.276  -9.255 -11.711  1.00  0.00     0.148 A 
ATOM     90  C   UNL     1      14.789 -10.273  -9.573  1.00  0.00     0.002 A 
ATOM     91  C   UNL     1      14.478  -9.909 -11.953  1.00  0.00     0.091 A 
ATOM     92  F   UNL     1      12.544  -8.732 -12.706  1.00  0.00    -0.205 F 
ATOM     93  C   UNL     1      15.241 -10.408 -10.884  1.00  0.00     0.022 A 
BRANCH  91  94
ATOM     94  S   UNL     1      15.083 -10.217 -13.615  1.00  0.00     0.127 S 
ATOM     95  O   UNL     1      16.166  -9.242 -13.723  1.00  0.00    -0.237 OA
ATOM     96  O   UNL     1      15.523 -11.611 -13.533  1.00  0.00    -0.237 OA
ATOM     97  O   UNL     1      13.948  -9.996 -14.501  1.00  0.00    -0.744 OA
ENDBRANCH  91  94
ENDBRANCH  64  87
ENDBRANCH  38  39
ENDBRANCH  30  33
ENDBRANCH  28  29
ENDBRANCH   1  28
TORSDOF 17
