REMARK SMILES O=C(CNc1nc(-c2ccccc2)c(-c2ccccc2)s1)NCCCNC(=O)c1ccc(-c2c3nc(c(-c4cccc(S(=O)(=O)[O-])c4F)c4ccc([nH]4)c(-c4cccc(S(=O)(=O)[O-])c4F)c4nc(c(-c5cccc(S(=O)(=O)[O-])c5F)c5ccc2[nH]5)C=C4)C=C3)cc1
REMARK SMILES IDX 24 1 23 2 22 3 1 4 2 5 3 7 4 8 5 10 6 11 21 12 7 13 14 14
REMARK SMILES IDX 8 15 9 16 13 17 10 18 12 19 11 20 15 21 16 22 20 23 17 24
REMARK SMILES IDX 19 25 18 26 25 27 26 28 27 29 28 31 29 32 30 33 91 34 31 35
REMARK SMILES IDX 90 36 32 37 33 38 34 39 84 40 35 41 89 42 83 43 85 44 36 45
REMARK SMILES IDX 88 46 82 47 81 48 37 50 69 51 49 52 68 53 50 54 53 55 67 56
REMARK SMILES IDX 86 57 51 58 52 59 66 61 87 62 54 63 38 64 39 65 47 66 40 67
REMARK SMILES IDX 42 68 48 69 41 70 43 71 44 72 45 73 46 74 70 75 71 76 79 77
REMARK SMILES IDX 72 78 74 79 80 80 73 81 75 82 76 83 77 84 78 85 55 86 56 87
REMARK SMILES IDX 64 88 57 89 59 90 65 91 58 92 60 93 61 94 62 95 63 96
REMARK H PARENT 22 6 4 9 26 30 85 49 53 60
REMARK Flexibility Score: inf
ROOT
ATOM      1  C   UNL     1       2.389   2.436  -2.275  1.00  0.00     0.042 C 
ENDROOT
BRANCH   1   2
ATOM      2  C   UNL     1       2.090   0.954  -2.086  1.00  0.00     0.117 C 
BRANCH   2   3
ATOM      3  N   UNL     1       2.757   0.389  -0.932  1.00  0.00    -0.355 N 
ATOM      4  O   UNL     1       0.876  -0.004   0.345  1.00  0.00    -0.273 OA
ATOM      5  C   UNL     1       2.091  -0.071   0.192  1.00  0.00     0.239 C 
ATOM      6  H   UNL     1       3.740   0.328  -0.947  1.00  0.00     0.163 HD
BRANCH   5   7
ATOM      7  C   UNL     1       3.036  -0.688   1.237  1.00  0.00     0.215 C 
BRANCH   7   8
ATOM      8  N   UNL     1       3.985  -1.556   0.551  1.00  0.00    -0.352 N 
ATOM      9  H   UNL     1       3.661  -2.144  -0.169  1.00  0.00     0.163 HD
BRANCH   8  10
ATOM     10  C   UNL     1       5.290  -1.575   0.871  1.00  0.00     0.184 A 
ATOM     11  N   UNL     1       5.810  -1.174   2.005  1.00  0.00    -0.220 NA
ATOM     12  S   UNL     1       6.418  -2.142  -0.296  1.00  0.00    -0.096 S 
ATOM     13  C   UNL     1       7.193  -1.285   1.957  1.00  0.00     0.091 A 
ATOM     14  C   UNL     1       7.712  -1.748   0.756  1.00  0.00     0.064 A 
BRANCH  13  15
ATOM     15  C   UNL     1       8.020  -0.980   3.114  1.00  0.00     0.002 A 
ATOM     16  C   UNL     1       9.036  -0.017   3.044  1.00  0.00     0.010 A 
ATOM     17  C   UNL     1       7.860  -1.725   4.289  1.00  0.00     0.010 A 
ATOM     18  C   UNL     1       9.907   0.166   4.119  1.00  0.00     0.001 A 
ATOM     19  C   UNL     1       8.736  -1.543   5.362  1.00  0.00     0.001 A 
ATOM     20  C   UNL     1       9.764  -0.605   5.272  1.00  0.00     0.000 A 
ENDBRANCH  13  15
BRANCH  14  21
ATOM     21  C   UNL     1       9.091  -1.970   0.326  1.00  0.00    -0.006 A 
ATOM     22  C   UNL     1       9.624  -1.246  -0.750  1.00  0.00     0.009 A 
ATOM     23  C   UNL     1       9.917  -2.864   1.021  1.00  0.00     0.009 A 
ATOM     24  C   UNL     1      10.960  -1.409  -1.120  1.00  0.00     0.001 A 
ATOM     25  C   UNL     1      11.253  -3.025   0.650  1.00  0.00     0.001 A 
ATOM     26  C   UNL     1      11.774  -2.297  -0.418  1.00  0.00     0.000 A 
ENDBRANCH  14  21
ENDBRANCH   8  10
ENDBRANCH   7   8
ENDBRANCH   5   7
ENDBRANCH   2   3
ENDBRANCH   1   2
BRANCH   1  27
ATOM     27  C   UNL     1       3.859   2.770  -2.519  1.00  0.00     0.118 C 
BRANCH  27  28
ATOM     28  N   UNL     1       4.386   2.203  -3.755  1.00  0.00    -0.352 N 
ATOM     29  C   UNL     1       5.035   2.811  -4.802  1.00  0.00     0.251 C 
ATOM     30  H   UNL     1       4.256   1.233  -3.854  1.00  0.00     0.163 HD
ATOM     31  O   UNL     1       5.288   2.153  -5.812  1.00  0.00    -0.269 OA
BRANCH  29  32
ATOM     32  C   UNL     1       5.413   4.242  -4.745  1.00  0.00     0.039 A 
ATOM     33  C   UNL     1       5.226   5.032  -5.885  1.00  0.00     0.014 A 
ATOM     34  C   UNL     1       5.967   4.808  -3.594  1.00  0.00     0.014 A 
ATOM     35  C   UNL     1       5.531   6.396  -5.847  1.00  0.00     0.010 A 
ATOM     36  C   UNL     1       6.195   6.183  -3.534  1.00  0.00     0.010 A 
ATOM     37  C   UNL     1       5.984   6.993  -4.660  1.00  0.00    -0.014 A 
BRANCH  37  38
ATOM     38  C   UNL     1       6.223   8.460  -4.574  1.00  0.00     0.031 A 
ATOM     39  C   UNL     1       7.597   8.995  -4.264  1.00  0.00     0.074 A 
ATOM     40  C   UNL     1       5.186   9.314  -4.694  1.00  0.00     0.049 A 
ATOM     41  N   UNL     1       7.981  10.235  -4.096  1.00  0.00    -0.248 NA
ATOM     42  C   UNL     1       8.676   8.008  -4.098  1.00  0.00     0.031 C 
ATOM     43  C   UNL     1       3.792   8.925  -4.922  1.00  0.00     0.029 A 
ATOM     44  N   UNL     1       5.137  10.684  -4.613  1.00  0.00    -0.354 N 
ATOM     45  C   UNL     1       9.330  10.176  -3.769  1.00  0.00     0.074 A 
ATOM     46  C   UNL     1       9.692   8.776  -3.731  1.00  0.00     0.031 C 
ATOM     47  C   UNL     1       3.029  10.028  -4.967  1.00  0.00     0.029 A 
ATOM     48  C   UNL     1       3.867  11.200  -4.735  1.00  0.00     0.049 A 
ATOM     49  H   UNL     1       5.935  11.245  -4.481  1.00  0.00     0.167 HD
ATOM     50  C   UNL     1      10.198  11.193  -3.547  1.00  0.00     0.034 A 
ATOM     51  C   UNL     1       3.422  12.470  -4.655  1.00  0.00     0.034 A 
ATOM     52  C   UNL     1       9.846  12.586  -3.618  1.00  0.00     0.049 A 
ATOM     53  C   UNL     1       4.410  13.582  -4.428  1.00  0.00     0.074 A 
ATOM     54  C   UNL     1      10.674  13.688  -3.495  1.00  0.00     0.029 A 
ATOM     55  N   UNL     1       8.563  13.071  -3.817  1.00  0.00    -0.354 N 
ATOM     56  N   UNL     1       5.711  13.514  -4.279  1.00  0.00    -0.248 NA
ATOM     57  C   UNL     1       3.875  14.951  -4.393  1.00  0.00     0.031 C 
ATOM     58  C   UNL     1       9.885  14.840  -3.583  1.00  0.00     0.029 A 
ATOM     59  C   UNL     1       8.572  14.456  -3.803  1.00  0.00     0.049 A 
ATOM     60  H   UNL     1       7.763  12.513  -3.948  1.00  0.00     0.167 HD
ATOM     61  C   UNL     1       6.152  14.828  -4.170  1.00  0.00     0.074 A 
ATOM     62  C   UNL     1       4.983  15.673  -4.293  1.00  0.00     0.031 C 
ATOM     63  C   UNL     1       7.412  15.291  -3.975  1.00  0.00     0.034 A 
BRANCH  50  64
ATOM     64  C   UNL     1      11.632  10.838  -3.244  1.00  0.00     0.023 A 
ATOM     65  C   UNL     1      12.449  10.302  -4.261  1.00  0.00     0.012 A 
ATOM     66  C   UNL     1      12.189  11.092  -1.975  1.00  0.00     0.148 A 
ATOM     67  C   UNL     1      13.784   9.987  -4.010  1.00  0.00     0.002 A 
ATOM     68  C   UNL     1      13.533  10.821  -1.746  1.00  0.00     0.091 A 
ATOM     69  F   UNL     1      11.394  11.587  -1.015  1.00  0.00    -0.205 F 
ATOM     70  C   UNL     1      14.328  10.256  -2.757  1.00  0.00     0.022 A 
BRANCH  68  71
ATOM     71  S   UNL     1      14.351  11.206  -0.194  1.00  0.00     0.127 S 
ATOM     72  O   UNL     1      14.605   9.870   0.344  1.00  0.00    -0.237 OA
ATOM     73  O   UNL     1      15.546  11.919  -0.646  1.00  0.00    -0.237 OA
ATOM     74  O   UNL     1      13.411  12.016   0.567  1.00  0.00    -0.744 OA
ENDBRANCH  68  71
ENDBRANCH  50  64
BRANCH  51  75
ATOM     75  C   UNL     1       1.973  12.767  -4.842  1.00  0.00     0.023 A 
ATOM     76  C   UNL     1       1.548  13.454  -5.996  1.00  0.00     0.012 A 
ATOM     77  C   UNL     1       1.015  12.361  -3.893  1.00  0.00     0.148 A 
ATOM     78  C   UNL     1       0.201  13.764  -6.184  1.00  0.00     0.002 A 
ATOM     79  C   UNL     1      -0.332  12.623  -4.114  1.00  0.00     0.091 A 
ATOM     80  F   UNL     1       1.440  11.717  -2.797  1.00  0.00    -0.205 F 
ATOM     81  C   UNL     1      -0.740  13.341  -5.249  1.00  0.00     0.022 A 
BRANCH  79  82
ATOM     82  S   UNL     1      -1.625  12.005  -3.032  1.00  0.00     0.127 S 
ATOM     83  O   UNL     1      -2.126  13.239  -2.430  1.00  0.00    -0.237 OA
ATOM     84  O   UNL     1      -2.536  11.370  -3.985  1.00  0.00    -0.237 OA
ATOM     85  O   UNL     1      -0.968  11.080  -2.120  1.00  0.00    -0.744 OA
ENDBRANCH  79  82
ENDBRANCH  51  75
BRANCH  63  86
ATOM     86  C   UNL     1       7.610  16.785  -3.923  1.00  0.00     0.023 A 
ATOM     87  C   UNL     1       7.154  17.520  -2.811  1.00  0.00     0.012 A 
ATOM     88  C   UNL     1       8.317  17.448  -4.947  1.00  0.00     0.148 A 
ATOM     89  C   UNL     1       7.367  18.896  -2.736  1.00  0.00     0.002 A 
ATOM     90  C   UNL     1       8.572  18.809  -4.839  1.00  0.00     0.091 A 
ATOM     91  F   UNL     1       8.729  16.734  -6.005  1.00  0.00    -0.205 F 
ATOM     92  C   UNL     1       8.086  19.538  -3.742  1.00  0.00     0.022 A 
BRANCH  90  93
ATOM     93  S   UNL     1       9.574  19.701  -6.034  1.00  0.00     0.127 S 
ATOM     94  O   UNL     1       8.575  20.541  -6.693  1.00  0.00    -0.237 OA
ATOM     95  O   UNL     1      10.509  20.426  -5.173  1.00  0.00    -0.237 OA
ATOM     96  O   UNL     1      10.191  18.688  -6.880  1.00  0.00    -0.744 OA
ENDBRANCH  90  93
ENDBRANCH  63  86
ENDBRANCH  37  38
ENDBRANCH  29  32
ENDBRANCH  27  28
ENDBRANCH   1  27
TORSDOF 17
