REMARK SMILES CN(CC1CCC1)C(=O)N(CC(=O)NCCCNC(=O)c1ccc(-c2c3nc(c(-c4cccc(S(=O)(=O)[O-])c4F)c4ccc([nH]4)c(-c4cccc(S(=O)(=O)[O-])c4F)c4nc(c(-c5cccc(S(=O)(=O)[O-])c5F)c5ccc2[nH]5)C=C4)C=C3)cc1)C(C)(C)C
REMARK SMILES IDX 15 1 14 2 12 3 13 4 11 6 10 7 8 8 9 9 2 10 1 11 3 12 4 13
REMARK SMILES IDX 5 14 7 15 6 16 84 17 85 18 86 19 87 20 16 21 17 22 18 23
REMARK SMILES IDX 19 24 20 26 21 27 22 28 83 29 23 30 82 31 24 32 25 33 26 34
REMARK SMILES IDX 76 35 27 36 81 37 75 38 77 39 28 40 80 41 74 42 73 43 29 45
REMARK SMILES IDX 61 46 41 47 60 48 42 49 45 50 59 51 78 52 43 53 44 54 58 56
REMARK SMILES IDX 79 57 46 58 30 59 31 60 39 61 32 62 34 63 40 64 33 65 35 66
REMARK SMILES IDX 36 67 37 68 38 69 62 70 63 71 71 72 64 73 66 74 72 75 65 76
REMARK SMILES IDX 67 77 68 78 69 79 70 80 47 81 48 82 56 83 49 84 51 85 57 86
REMARK SMILES IDX 50 87 52 88 53 89 54 90 55 91
REMARK H PARENT 14 5 18 25 77 44 45 55
REMARK Flexibility Score: inf
ROOT
ATOM      1  C   UNL     1      -2.010   3.407  -1.399  1.00  0.00     0.117 C 
ENDROOT
BRANCH   1   2
ATOM      2  N   UNL     1      -2.364   3.506  -2.807  1.00  0.00    -0.354 N 
ATOM      3  C   UNL     1      -1.874   2.853  -3.893  1.00  0.00     0.239 C 
ATOM      4  O   UNL     1      -2.590   2.853  -4.904  1.00  0.00    -0.273 OA
ATOM      5  H   UNL     1      -3.078   4.154  -3.005  1.00  0.00     0.163 HD
BRANCH   3   6
ATOM      6  C   UNL     1      -0.599   1.996  -3.875  1.00  0.00     0.221 C 
BRANCH   6   7
ATOM      7  N   UNL     1       0.553   2.388  -3.063  1.00  0.00    -0.311 N 
BRANCH   7   8
ATOM      8  C   UNL     1       0.985   1.724  -1.914  1.00  0.00     0.320 C 
ATOM      9  O   UNL     1       1.794   2.285  -1.165  1.00  0.00    -0.248 OA
BRANCH   8  10
ATOM     10  N   UNL     1       0.515   0.468  -1.519  1.00  0.00    -0.327 N 
ATOM     11  C   UNL     1       0.927   0.097  -0.163  1.00  0.00     0.148 C 
BRANCH  10  12
ATOM     12  C   UNL     1       0.008  -0.670  -2.308  1.00  0.00     0.124 C 
BRANCH  12  13
ATOM     13  C   UNL     1      -1.518  -0.834  -2.176  1.00  0.00     0.008 C 
ATOM     14  C   UNL     1      -2.247  -1.845  -1.224  1.00  0.00     0.005 C 
ATOM     15  C   UNL     1      -2.343   0.243  -1.438  1.00  0.00     0.005 C 
ATOM     16  C   UNL     1      -3.397  -0.812  -1.133  1.00  0.00     0.001 C 
ENDBRANCH  12  13
ENDBRANCH  10  12
ENDBRANCH   8  10
ENDBRANCH   7   8
BRANCH   7  17
ATOM     17  C   UNL     1       1.199   3.740  -3.414  1.00  0.00     0.037 C 
ATOM     18  C   UNL     1       0.838   4.841  -2.390  1.00  0.00     0.034 C 
ATOM     19  C   UNL     1       2.739   3.629  -3.502  1.00  0.00     0.034 C 
ATOM     20  C   UNL     1       0.765   4.304  -4.800  1.00  0.00     0.034 C 
ENDBRANCH   7  17
ENDBRANCH   6   7
ENDBRANCH   3   6
ENDBRANCH   1   2
BRANCH   1  21
ATOM     21  C   UNL     1      -2.322   4.648  -0.599  1.00  0.00     0.042 C 
BRANCH  21  22
ATOM     22  C   UNL     1      -3.808   4.960  -0.594  1.00  0.00     0.118 C 
BRANCH  22  23
ATOM     23  N   UNL     1      -4.638   3.903  -0.005  1.00  0.00    -0.352 N 
ATOM     24  C   UNL     1      -5.324   3.858   1.187  1.00  0.00     0.251 C 
ATOM     25  H   UNL     1      -4.717   3.090  -0.554  1.00  0.00     0.163 HD
ATOM     26  O   UNL     1      -5.840   2.808   1.563  1.00  0.00    -0.269 OA
BRANCH  24  27
ATOM     27  C   UNL     1      -5.407   5.073   2.021  1.00  0.00     0.039 A 
ATOM     28  C   UNL     1      -5.262   4.990   3.406  1.00  0.00     0.014 A 
ATOM     29  C   UNL     1      -5.556   6.313   1.409  1.00  0.00     0.014 A 
ATOM     30  C   UNL     1      -5.165   6.167   4.153  1.00  0.00     0.010 A 
ATOM     31  C   UNL     1      -5.252   7.460   2.117  1.00  0.00     0.010 A 
ATOM     32  C   UNL     1      -5.100   7.413   3.507  1.00  0.00    -0.014 A 
BRANCH  32  33
ATOM     33  C   UNL     1      -4.928   8.692   4.243  1.00  0.00     0.031 A 
ATOM     34  C   UNL     1      -5.911   9.818   4.018  1.00  0.00     0.074 A 
ATOM     35  C   UNL     1      -3.844   8.883   5.021  1.00  0.00     0.049 A 
ATOM     36  N   UNL     1      -5.881  11.044   4.471  1.00  0.00    -0.248 NA
ATOM     37  C   UNL     1      -7.047   9.554   3.113  1.00  0.00     0.031 C 
ATOM     38  C   UNL     1      -2.759   7.919   5.228  1.00  0.00     0.029 A 
ATOM     39  N   UNL     1      -3.465   9.968   5.771  1.00  0.00    -0.354 N 
ATOM     40  C   UNL     1      -6.944  11.699   3.861  1.00  0.00     0.074 A 
ATOM     41  C   UNL     1      -7.555  10.764   2.948  1.00  0.00     0.031 C 
ATOM     42  C   UNL     1      -1.860   8.440   6.078  1.00  0.00     0.029 A 
ATOM     43  C   UNL     1      -2.281   9.786   6.449  1.00  0.00     0.049 A 
ATOM     44  H   UNL     1      -3.991  10.798   5.821  1.00  0.00     0.167 HD
ATOM     45  C   UNL     1      -7.415  12.949   4.080  1.00  0.00     0.034 A 
ATOM     46  C   UNL     1      -1.616  10.614   7.279  1.00  0.00     0.034 A 
ATOM     47  C   UNL     1      -6.866  13.838   5.063  1.00  0.00     0.049 A 
ATOM     48  C   UNL     1      -2.210  11.964   7.579  1.00  0.00     0.074 A 
ATOM     49  C   UNL     1      -7.331  15.078   5.458  1.00  0.00     0.029 A 
ATOM     50  N   UNL     1      -5.734  13.571   5.816  1.00  0.00    -0.354 N 
ATOM     51  N   UNL     1      -3.313  12.502   7.117  1.00  0.00    -0.248 NA
ATOM     52  C   UNL     1      -1.489  12.805   8.544  1.00  0.00     0.031 C 
ATOM     53  C   UNL     1      -6.467  15.570   6.440  1.00  0.00     0.029 A 
ATOM     54  C   UNL     1      -5.480  14.625   6.674  1.00  0.00     0.049 A 
ATOM     55  H   UNL     1      -5.190  12.753   5.751  1.00  0.00     0.167 HD
ATOM     56  C   UNL     1      -3.436  13.729   7.759  1.00  0.00     0.074 A 
ATOM     57  C   UNL     1      -2.310  13.840   8.663  1.00  0.00     0.031 C 
ATOM     58  C   UNL     1      -4.383  14.687   7.604  1.00  0.00     0.034 A 
BRANCH  45  59
ATOM     59  C   UNL     1      -8.628  13.388   3.301  1.00  0.00     0.023 A 
ATOM     60  C   UNL     1      -9.878  12.785   3.558  1.00  0.00     0.012 A 
ATOM     61  C   UNL     1      -8.544  14.418   2.345  1.00  0.00     0.148 A 
ATOM     62  C   UNL     1     -11.014  13.166   2.845  1.00  0.00     0.002 A 
ATOM     63  C   UNL     1      -9.691  14.830   1.676  1.00  0.00     0.091 A 
ATOM     64  F   UNL     1      -7.346  14.966   2.098  1.00  0.00    -0.205 F 
ATOM     65  C   UNL     1     -10.922  14.195   1.913  1.00  0.00     0.022 A 
BRANCH  63  66
ATOM     66  S   UNL     1      -9.700  16.202   0.517  1.00  0.00     0.127 S 
ATOM     67  O   UNL     1      -9.947  15.516  -0.751  1.00  0.00    -0.237 OA
ATOM     68  O   UNL     1     -10.822  17.005   1.004  1.00  0.00    -0.237 OA
ATOM     69  O   UNL     1      -8.397  16.840   0.638  1.00  0.00    -0.744 OA
ENDBRANCH  63  66
ENDBRANCH  45  59
BRANCH  46  70
ATOM     70  C   UNL     1      -0.367  10.157   7.953  1.00  0.00     0.023 A 
ATOM     71  C   UNL     1      -0.384   9.913   9.341  1.00  0.00     0.012 A 
ATOM     72  C   UNL     1       0.826   9.946   7.236  1.00  0.00     0.148 A 
ATOM     73  C   UNL     1       0.772   9.507  10.009  1.00  0.00     0.002 A 
ATOM     74  C   UNL     1       1.960   9.488   7.898  1.00  0.00     0.091 A 
ATOM     75  F   UNL     1       0.826  10.190   5.918  1.00  0.00    -0.205 F 
ATOM     76  C   UNL     1       1.941   9.286   9.287  1.00  0.00     0.022 A 
BRANCH  74  77
ATOM     77  S   UNL     1       3.473   9.055   7.031  1.00  0.00     0.127 S 
ATOM     78  O   UNL     1       4.367  10.138   7.431  1.00  0.00    -0.237 OA
ATOM     79  O   UNL     1       3.789   7.748   7.610  1.00  0.00    -0.237 OA
ATOM     80  O   UNL     1       3.116   9.015   5.619  1.00  0.00    -0.744 OA
ENDBRANCH  74  77
ENDBRANCH  46  70
BRANCH  58  81
ATOM     81  C   UNL     1      -4.266  15.924   8.452  1.00  0.00     0.023 A 
ATOM     82  C   UNL     1      -3.259  16.869   8.176  1.00  0.00     0.012 A 
ATOM     83  C   UNL     1      -5.204  16.185   9.470  1.00  0.00     0.148 A 
ATOM     84  C   UNL     1      -3.165  18.040   8.925  1.00  0.00     0.002 A 
ATOM     85  C   UNL     1      -5.136  17.379  10.176  1.00  0.00     0.091 A 
ATOM     86  F   UNL     1      -6.145  15.265   9.725  1.00  0.00    -0.205 F 
ATOM     87  C   UNL     1      -4.109  18.301   9.915  1.00  0.00     0.022 A 
BRANCH  85  88
ATOM     88  S   UNL     1      -6.369  17.845  11.396  1.00  0.00     0.127 S 
ATOM     89  O   UNL     1      -5.626  17.688  12.645  1.00  0.00    -0.237 OA
ATOM     90  O   UNL     1      -6.660  19.231  11.029  1.00  0.00    -0.237 OA
ATOM     91  O   UNL     1      -7.484  16.925  11.211  1.00  0.00    -0.744 OA
ENDBRANCH  85  88
ENDBRANCH  58  81
ENDBRANCH  32  33
ENDBRANCH  24  27
ENDBRANCH  22  23
ENDBRANCH  21  22
ENDBRANCH   1  21
TORSDOF 19
