REMARK SMILES N#Cc1cc2c(nc1N1CC[NH+]([C@H](C(=O)NCCCNC(=O)c3ccc(-c4c5nc(c(-c6cccc(S(=O)(=O)[O-])c6F)c6ccc([nH]6)c(-c6cccc(S(=O)(=O)[O-])c6F)c6nc(c(-c7cccc(S(=O)(=O)[O-])c7F)c7ccc4[nH]7)C=C6)C=C5)cc3)c3c[nH]c4cc(Cl)ccc34)CC1)CCCC2
REMARK SMILES IDX 18 1 17 2 16 3 14 4 15 5 13 7 12 8 9 9 10 10 97 11 11 12
REMARK SMILES IDX 96 13 8 15 3 16 4 17 5 18 7 19 6 20 101 21 98 22 100 23
REMARK SMILES IDX 99 24 2 25 1 26 86 27 87 28 95 29 88 30 89 31 94 32 90 34
REMARK SMILES IDX 93 35 91 36 92 37 19 38 20 39 21 40 22 42 23 43 24 44 85 45
REMARK SMILES IDX 25 46 84 47 26 48 27 49 28 50 78 51 29 52 83 53 77 54 79 55
REMARK SMILES IDX 30 56 82 57 76 58 75 59 31 61 63 62 43 63 62 64 44 65 47 66
REMARK SMILES IDX 61 67 80 68 45 69 46 70 60 72 81 73 48 74 32 75 33 76 41 77
REMARK SMILES IDX 34 78 36 79 42 80 35 81 37 82 38 83 39 84 40 85 64 86 65 87
REMARK SMILES IDX 73 88 66 89 68 90 74 91 67 92 69 93 70 94 71 95 72 96 49 97
REMARK SMILES IDX 50 98 58 99 51 100 53 101 59 102 52 103 54 104 55 105 56 106
REMARK SMILES IDX 57 107
REMARK H PARENT 16 6 12 14 88 33 20 41 79 60 47 71
REMARK Flexibility Score: inf
ROOT
ATOM      1  C   UNL     1      -0.188  -6.699   2.968  1.00  0.00     0.042 C 
ENDROOT
BRANCH   1   2
ATOM      2  C   UNL     1       0.064  -6.405   1.466  1.00  0.00     0.118 C 
BRANCH   2   3
ATOM      3  N   UNL     1       0.736  -5.151   1.114  1.00  0.00    -0.351 N 
ATOM      4  C   UNL     1       1.949  -4.842   0.530  1.00  0.00     0.283 C 
ATOM      5  O   UNL     1       2.043  -3.652   0.192  1.00  0.00    -0.268 OA
ATOM      6  H   UNL     1       0.206  -4.354   1.344  1.00  0.00     0.163 HD
BRANCH   4   7
ATOM      7  C   UNL     1       3.127  -5.893   0.316  1.00  0.00     0.307 C 
BRANCH   7   8
ATOM      8  N   UNL     1       4.100  -5.352  -0.683  1.00  0.00    -0.318 N 
ATOM      9  N   UNL     1       6.807  -5.259  -1.678  1.00  0.00    -0.344 N 
ATOM     10  C   UNL     1       5.834  -5.969  -2.482  1.00  0.00     0.179 C 
ATOM     11  C   UNL     1       6.313  -4.054  -1.028  1.00  0.00     0.179 C 
ATOM     12  C   UNL     1       4.609  -6.365  -1.621  1.00  0.00     0.284 C 
ATOM     13  C   UNL     1       5.073  -4.376  -0.165  1.00  0.00     0.284 C 
ATOM     14  H   UNL     1       3.542  -4.745  -1.284  1.00  0.00     0.349 HD
BRANCH   9  15
ATOM     15  C   UNL     1       8.017  -5.793  -1.333  1.00  0.00     0.147 A 
ATOM     16  C   UNL     1       8.239  -6.595  -0.212  1.00  0.00     0.095 A 
ATOM     17  C   UNL     1       9.548  -6.871   0.196  1.00  0.00     0.029 A 
ATOM     18  C   UNL     1      10.605  -6.536  -0.639  1.00  0.00    -0.025 A 
ATOM     19  N   UNL     1       9.043  -5.475  -2.151  1.00  0.00    -0.234 NA
ATOM     20  C   UNL     1      10.295  -5.892  -1.835  1.00  0.00     0.046 A 
ATOM     21  C   UNL     1      12.016  -6.889  -0.261  1.00  0.00     0.037 C 
ATOM     22  C   UNL     1      11.316  -5.780  -2.935  1.00  0.00     0.056 C 
ATOM     23  C   UNL     1      12.914  -7.056  -1.483  1.00  0.00     0.005 C 
ATOM     24  C   UNL     1      12.752  -5.872  -2.431  1.00  0.00     0.007 C 
BRANCH  16  25
ATOM     25  C   UNL     1       7.204  -7.361   0.381  1.00  0.00     0.103 C 
ATOM     26  N   UNL     1       6.434  -8.147   0.778  1.00  0.00    -0.192 NA
ENDBRANCH  16  25
ENDBRANCH   9  15
ENDBRANCH   7   8
BRANCH   7  27
ATOM     27  C   UNL     1       3.753  -6.457   1.658  1.00  0.00     0.044 A 
ATOM     28  C   UNL     1       2.858  -6.819   2.666  1.00  0.00     0.094 A 
ATOM     29  C   UNL     1       4.720  -5.914   2.611  1.00  0.00     0.009 A 
ATOM     30  N   UNL     1       2.707  -5.499   3.171  1.00  0.00    -0.361 N 
ATOM     31  C   UNL     1       3.966  -4.976   3.309  1.00  0.00     0.047 A 
ATOM     32  C   UNL     1       5.852  -6.361   3.334  1.00  0.00     0.012 A 
ATOM     33  H   UNL     1       1.859  -5.046   3.382  1.00  0.00     0.166 HD
ATOM     34  C   UNL     1       4.439  -4.051   4.228  1.00  0.00     0.047 A 
ATOM     35  C   UNL     1       6.303  -5.605   4.434  1.00  0.00     0.021 A 
ATOM     36  C   UNL     1       5.643  -4.433   4.816  1.00  0.00     0.043 A 
ATOM     37  Cl  UNL     1       6.197  -3.545   6.184  1.00  0.00    -0.084 Cl
ENDBRANCH   7  27
ENDBRANCH   4   7
ENDBRANCH   2   3
ENDBRANCH   1   2
BRANCH   1  38
ATOM     38  C   UNL     1      -0.330  -5.501   3.914  1.00  0.00     0.118 C 
BRANCH  38  39
ATOM     39  N   UNL     1      -1.643  -5.435   4.511  1.00  0.00    -0.352 N 
ATOM     40  C   UNL     1      -2.078  -5.961   5.702  1.00  0.00     0.251 C 
ATOM     41  H   UNL     1      -2.321  -4.946   3.991  1.00  0.00     0.163 HD
ATOM     42  O   UNL     1      -3.285  -6.107   5.879  1.00  0.00    -0.269 OA
BRANCH  40  43
ATOM     43  C   UNL     1      -1.121  -6.364   6.762  1.00  0.00     0.039 A 
ATOM     44  C   UNL     1      -1.349  -7.564   7.441  1.00  0.00     0.014 A 
ATOM     45  C   UNL     1      -0.064  -5.536   7.159  1.00  0.00     0.014 A 
ATOM     46  C   UNL     1      -0.515  -7.941   8.497  1.00  0.00     0.010 A 
ATOM     47  C   UNL     1       0.809  -5.947   8.172  1.00  0.00     0.010 A 
ATOM     48  C   UNL     1       0.582  -7.144   8.868  1.00  0.00    -0.014 A 
BRANCH  48  49
ATOM     49  C   UNL     1       1.469  -7.554   9.993  1.00  0.00     0.031 A 
ATOM     50  C   UNL     1       1.554  -6.724  11.248  1.00  0.00     0.074 A 
ATOM     51  C   UNL     1       2.213  -8.674   9.885  1.00  0.00     0.049 A 
ATOM     52  N   UNL     1       2.252  -6.941  12.335  1.00  0.00    -0.248 NA
ATOM     53  C   UNL     1       0.764  -5.482  11.287  1.00  0.00     0.031 C 
ATOM     54  C   UNL     1       2.257  -9.543   8.708  1.00  0.00     0.029 A 
ATOM     55  N   UNL     1       3.077  -9.271  10.770  1.00  0.00    -0.354 N 
ATOM     56  C   UNL     1       2.001  -5.861  13.174  1.00  0.00     0.074 A 
ATOM     57  C   UNL     1       1.120  -4.967  12.456  1.00  0.00     0.031 C 
ATOM     58  C   UNL     1       3.083 -10.573   8.952  1.00  0.00     0.029 A 
ATOM     59  C   UNL     1       3.659 -10.421  10.286  1.00  0.00     0.049 A 
ATOM     60  H   UNL     1       3.263  -8.911  11.668  1.00  0.00     0.167 HD
ATOM     61  C   UNL     1       2.434  -5.648  14.440  1.00  0.00     0.034 A 
ATOM     62  C   UNL     1       4.554 -11.259  10.847  1.00  0.00     0.034 A 
ATOM     63  C   UNL     1       3.289  -6.551  15.164  1.00  0.00     0.049 A 
ATOM     64  C   UNL     1       5.032 -10.992  12.249  1.00  0.00     0.074 A 
ATOM     65  C   UNL     1       3.734  -6.448  16.470  1.00  0.00     0.029 A 
ATOM     66  N   UNL     1       3.837  -7.715  14.646  1.00  0.00    -0.354 N 
ATOM     67  N   UNL     1       4.678 -10.036  13.073  1.00  0.00    -0.248 NA
ATOM     68  C   UNL     1       6.009 -11.936  12.813  1.00  0.00     0.031 C 
ATOM     69  C   UNL     1       4.586  -7.526  16.728  1.00  0.00     0.029 A 
ATOM     70  C   UNL     1       4.632  -8.328  15.600  1.00  0.00     0.049 A 
ATOM     71  H   UNL     1       3.684  -8.055  13.735  1.00  0.00     0.167 HD
ATOM     72  C   UNL     1       5.362 -10.279  14.259  1.00  0.00     0.074 A 
ATOM     73  C   UNL     1       6.133 -11.488  14.056  1.00  0.00     0.031 C 
ATOM     74  C   UNL     1       5.363  -9.556  15.407  1.00  0.00     0.034 A 
BRANCH  61  75
ATOM     75  C   UNL     1       1.949  -4.412  15.159  1.00  0.00     0.023 A 
ATOM     76  C   UNL     1       0.597  -4.322  15.551  1.00  0.00     0.012 A 
ATOM     77  C   UNL     1       2.843  -3.389  15.532  1.00  0.00     0.148 A 
ATOM     78  C   UNL     1       0.137  -3.224  16.276  1.00  0.00     0.002 A 
ATOM     79  C   UNL     1       2.388  -2.322  16.300  1.00  0.00     0.091 A 
ATOM     80  F   UNL     1       4.122  -3.482  15.140  1.00  0.00    -0.205 F 
ATOM     81  C   UNL     1       1.034  -2.232  16.661  1.00  0.00     0.022 A 
BRANCH  79  82
ATOM     82  S   UNL     1       3.477  -1.039  16.929  1.00  0.00     0.127 S 
ATOM     83  O   UNL     1       2.989   0.139  16.213  1.00  0.00    -0.237 OA
ATOM     84  O   UNL     1       3.171  -1.053  18.359  1.00  0.00    -0.237 OA
ATOM     85  O   UNL     1       4.831  -1.454  16.589  1.00  0.00    -0.744 OA
ENDBRANCH  79  82
ENDBRANCH  61  75
BRANCH  62  86
ATOM     86  C   UNL     1       5.006 -12.469  10.099  1.00  0.00     0.023 A 
ATOM     87  C   UNL     1       4.620 -13.746  10.550  1.00  0.00     0.012 A 
ATOM     88  C   UNL     1       5.773 -12.361   8.922  1.00  0.00     0.148 A 
ATOM     89  C   UNL     1       5.006 -14.894   9.857  1.00  0.00     0.002 A 
ATOM     90  C   UNL     1       6.103 -13.504   8.203  1.00  0.00     0.091 A 
ATOM     91  F   UNL     1       6.140 -11.138   8.515  1.00  0.00    -0.205 F 
ATOM     92  C   UNL     1       5.736 -14.773   8.677  1.00  0.00     0.022 A 
BRANCH  90  93
ATOM     93  S   UNL     1       6.922 -13.440   6.605  1.00  0.00     0.127 S 
ATOM     94  O   UNL     1       8.186 -14.117   6.889  1.00  0.00    -0.237 OA
ATOM     95  O   UNL     1       5.993 -14.196   5.766  1.00  0.00    -0.237 OA
ATOM     96  O   UNL     1       7.030 -12.027   6.271  1.00  0.00    -0.744 OA
ENDBRANCH  90  93
ENDBRANCH  62  86
BRANCH  74  97
ATOM     97  C   UNL     1       6.206 -10.046  16.558  1.00  0.00     0.023 A 
ATOM     98  C   UNL     1       7.611  -9.965  16.482  1.00  0.00     0.012 A 
ATOM     99  C   UNL     1       5.604 -10.474  17.760  1.00  0.00     0.148 A 
ATOM    100  C   UNL     1       8.403 -10.326  17.572  1.00  0.00     0.002 A 
ATOM    101  C   UNL     1       6.397 -10.776  18.860  1.00  0.00     0.091 A 
ATOM    102  F   UNL     1       4.266 -10.557  17.809  1.00  0.00    -0.205 F 
ATOM    103  C   UNL     1       7.797 -10.716  18.764  1.00  0.00     0.022 A 
BRANCH 101 104
ATOM    104  S   UNL     1       5.709 -11.180  20.470  1.00  0.00     0.127 S 
ATOM    105  O   UNL     1       6.113 -12.577  20.624  1.00  0.00    -0.237 OA
ATOM    106  O   UNL     1       6.410 -10.243  21.348  1.00  0.00    -0.237 OA
ATOM    107  O   UNL     1       4.274 -10.959  20.365  1.00  0.00    -0.744 OA
ENDBRANCH 101 104
ENDBRANCH  74  97
ENDBRANCH  48  49
ENDBRANCH  40  43
ENDBRANCH  38  39
ENDBRANCH   1  38
TORSDOF 17
