REMARK SMILES CSc1nc(O)nc(C)c1C(=O)N1C[C@@H](O)C[C@@H]1C(=O)NCCCNC(=O)c1ccc(-c2c3nc(c(-c4cccc(S(=O)(=O)[O-])c4F)c4ccc([nH]4)c(-c4cccc(S(=O)(=O)[O-])c4F)c4nc(c(-c5cccc(S(=O)(=O)[O-])c5F)c5ccc2[nH]5)C=C4)C=C3)cc1
REMARK SMILES IDX 23 1 22 2 21 3 19 4 20 5 18 7 13 8 14 9 15 10 17 11 11 12
REMARK SMILES IDX 12 13 10 14 3 15 4 16 5 17 8 18 7 19 9 20 2 21 1 22 6 23
REMARK SMILES IDX 16 25 24 27 25 28 26 29 27 31 28 32 29 33 90 34 30 35 89 36
REMARK SMILES IDX 31 37 32 38 33 39 83 40 34 41 88 42 82 43 84 44 35 45 87 46
REMARK SMILES IDX 81 47 80 48 36 50 68 51 48 52 67 53 49 54 52 55 66 56 85 57
REMARK SMILES IDX 50 58 51 59 65 61 86 62 53 63 37 64 38 65 46 66 39 67 41 68
REMARK SMILES IDX 47 69 40 70 42 71 43 72 44 73 45 74 69 75 70 76 78 77 71 78
REMARK SMILES IDX 73 79 79 80 72 81 74 82 75 83 76 84 77 85 54 86 55 87 63 88
REMARK SMILES IDX 56 89 58 90 64 91 57 92 59 93 60 94 61 95 62 96
REMARK H PARENT 21 6 6 24 16 26 25 30 84 49 52 60
REMARK Flexibility Score: inf
ROOT
ATOM      1  C   UNL     1       6.759  -2.313  -0.084  1.00  0.00     0.042 C 
ENDROOT
BRANCH   1   2
ATOM      2  C   UNL     1       5.244  -2.418  -0.199  1.00  0.00     0.117 C 
BRANCH   2   3
ATOM      3  N   UNL     1       4.578  -1.154   0.071  1.00  0.00    -0.354 N 
ATOM      4  C   UNL     1       3.786  -0.379  -0.723  1.00  0.00     0.242 C 
ATOM      5  O   UNL     1       3.506   0.747  -0.300  1.00  0.00    -0.273 OA
ATOM      6  H   UNL     1       4.724  -0.798   0.977  1.00  0.00     0.163 HD
BRANCH   4   7
ATOM      7  C   UNL     1       3.343  -0.869  -2.115  1.00  0.00     0.177 C 
ATOM      8  N   UNL     1       2.303  -0.009  -2.709  1.00  0.00    -0.324 N 
ATOM      9  C   UNL     1       1.454  -0.842  -3.536  1.00  0.00     0.152 C 
ATOM     10  C   UNL     1       1.310  -2.104  -2.708  1.00  0.00     0.136 C 
ATOM     11  C   UNL     1       2.706  -2.275  -2.111  1.00  0.00     0.069 C 
BRANCH   8  12
ATOM     12  C   UNL     1       2.623   1.246  -3.189  1.00  0.00     0.259 C 
ATOM     13  O   UNL     1       3.389   1.356  -4.143  1.00  0.00    -0.269 OA
BRANCH  12  14
ATOM     14  C   UNL     1       1.981   2.448  -2.555  1.00  0.00     0.093 A 
ATOM     15  C   UNL     1       0.796   2.458  -1.806  1.00  0.00     0.116 A 
ATOM     16  N   UNL     1       0.214   3.597  -1.351  1.00  0.00    -0.188 NA
ATOM     17  C   UNL     1       0.832   4.727  -1.645  1.00  0.00     0.315 A 
ATOM     18  C   UNL     1       2.555   3.716  -2.740  1.00  0.00     0.058 A 
ATOM     19  N   UNL     1       1.969   4.866  -2.309  1.00  0.00    -0.200 NA
ATOM     20  C   UNL     1       3.855   3.961  -3.455  1.00  0.00     0.068 C 
BRANCH  15  21
ATOM     21  S   UNL     1      -0.250   1.064  -1.410  1.00  0.00    -0.109 SA
ATOM     22  C   UNL     1       0.230   0.826   0.317  1.00  0.00     0.092 C 
ENDBRANCH  15  21
BRANCH  17  23
ATOM     23  O   UNL     1       0.235   5.891  -1.284  1.00  0.00    -0.479 OA
ATOM     24  H   UNL     1      -0.574   5.876  -0.811  1.00  0.00     0.297 HD
ENDBRANCH  17  23
ENDBRANCH  12  14
ENDBRANCH   8  12
BRANCH  10  25
ATOM     25  O   UNL     1       0.920  -3.238  -3.461  1.00  0.00    -0.391 OA
ATOM     26  H   UNL     1       1.572  -3.402  -4.160  1.00  0.00     0.211 HD
ENDBRANCH  10  25
ENDBRANCH   4   7
ENDBRANCH   2   3
ENDBRANCH   1   2
BRANCH   1  27
ATOM     27  C   UNL     1       7.263  -1.859   1.282  1.00  0.00     0.118 C 
BRANCH  27  28
ATOM     28  N   UNL     1       6.948  -2.804   2.343  1.00  0.00    -0.352 N 
ATOM     29  C   UNL     1       7.803  -3.502   3.161  1.00  0.00     0.251 C 
ATOM     30  H   UNL     1       5.989  -2.967   2.495  1.00  0.00     0.163 HD
ATOM     31  O   UNL     1       7.369  -4.386   3.895  1.00  0.00    -0.269 OA
BRANCH  29  32
ATOM     32  C   UNL     1       9.248  -3.198   3.136  1.00  0.00     0.039 A 
ATOM     33  C   UNL     1      10.159  -4.247   2.980  1.00  0.00     0.014 A 
ATOM     34  C   UNL     1       9.699  -1.880   3.258  1.00  0.00     0.014 A 
ATOM     35  C   UNL     1      11.523  -3.966   2.882  1.00  0.00     0.010 A 
ATOM     36  C   UNL     1      11.053  -1.597   3.107  1.00  0.00     0.010 A 
ATOM     37  C   UNL     1      11.976  -2.638   2.921  1.00  0.00    -0.014 A 
BRANCH  37  38
ATOM     38  C   UNL     1      13.415  -2.316   2.781  1.00  0.00     0.031 A 
ATOM     39  C   UNL     1      14.181  -1.778   3.955  1.00  0.00     0.074 A 
ATOM     40  C   UNL     1      14.014  -2.439   1.580  1.00  0.00     0.049 A 
ATOM     41  N   UNL     1      15.431  -1.403   4.018  1.00  0.00    -0.248 NA
ATOM     42  C   UNL     1      13.443  -1.626   5.221  1.00  0.00     0.031 C 
ATOM     43  C   UNL     1      13.360  -2.890   0.351  1.00  0.00     0.029 A 
ATOM     44  N   UNL     1      15.304  -2.174   1.193  1.00  0.00    -0.354 N 
ATOM     45  C   UNL     1      15.625  -0.949   5.315  1.00  0.00     0.074 A 
ATOM     46  C   UNL     1      14.359  -1.071   6.003  1.00  0.00     0.031 C 
ATOM     47  C   UNL     1      14.252  -2.872  -0.653  1.00  0.00     0.029 A 
ATOM     48  C   UNL     1      15.535  -2.394  -0.144  1.00  0.00     0.049 A 
ATOM     49  H   UNL     1      15.998  -1.856   1.815  1.00  0.00     0.167 HD
ATOM     50  C   UNL     1      16.764  -0.501   5.891  1.00  0.00     0.034 A 
ATOM     51  C   UNL     1      16.654  -2.232  -0.876  1.00  0.00     0.034 A 
ATOM     52  C   UNL     1      18.033  -0.430   5.226  1.00  0.00     0.049 A 
ATOM     53  C   UNL     1      17.914  -1.760  -0.205  1.00  0.00     0.074 A 
ATOM     54  C   UNL     1      19.260  -0.074   5.756  1.00  0.00     0.029 A 
ATOM     55  N   UNL     1      18.241  -0.719   3.887  1.00  0.00    -0.354 N 
ATOM     56  N   UNL     1      18.111  -1.468   1.057  1.00  0.00    -0.248 NA
ATOM     57  C   UNL     1      19.110  -1.620  -1.049  1.00  0.00     0.031 C 
ATOM     58  C   UNL     1      20.212  -0.144   4.734  1.00  0.00     0.029 A 
ATOM     59  C   UNL     1      19.576  -0.545   3.570  1.00  0.00     0.049 A 
ATOM     60  H   UNL     1      17.542  -1.006   3.256  1.00  0.00     0.167 HD
ATOM     61  C   UNL     1      19.455  -1.131   1.165  1.00  0.00     0.074 A 
ATOM     62  C   UNL     1      20.029  -1.267  -0.157  1.00  0.00     0.031 C 
ATOM     63  C   UNL     1      20.144  -0.731   2.261  1.00  0.00     0.034 A 
BRANCH  50  64
ATOM     64  C   UNL     1      16.709  -0.124   7.344  1.00  0.00     0.023 A 
ATOM     65  C   UNL     1      16.732  -1.146   8.314  1.00  0.00     0.012 A 
ATOM     66  C   UNL     1      16.714   1.223   7.749  1.00  0.00     0.148 A 
ATOM     67  C   UNL     1      16.749  -0.832   9.671  1.00  0.00     0.002 A 
ATOM     68  C   UNL     1      16.759   1.529   9.104  1.00  0.00     0.091 A 
ATOM     69  F   UNL     1      16.674   2.174   6.805  1.00  0.00    -0.205 F 
ATOM     70  C   UNL     1      16.772   0.504  10.065  1.00  0.00     0.022 A 
BRANCH  68  71
ATOM     71  S   UNL     1      16.839   3.214   9.720  1.00  0.00     0.127 S 
ATOM     72  O   UNL     1      15.550   3.340  10.400  1.00  0.00    -0.237 OA
ATOM     73  O   UNL     1      17.997   3.160  10.611  1.00  0.00    -0.237 OA
ATOM     74  O   UNL     1      17.006   4.064   8.549  1.00  0.00    -0.744 OA
ENDBRANCH  68  71
ENDBRANCH  50  64
BRANCH  51  75
ATOM     75  C   UNL     1      16.643  -2.603  -2.317  1.00  0.00     0.023 A 
ATOM     76  C   UNL     1      17.239  -3.815  -2.713  1.00  0.00     0.012 A 
ATOM     77  C   UNL     1      15.990  -1.806  -3.276  1.00  0.00     0.148 A 
ATOM     78  C   UNL     1      17.195  -4.224  -4.046  1.00  0.00     0.002 A 
ATOM     79  C   UNL     1      15.916  -2.238  -4.596  1.00  0.00     0.091 A 
ATOM     80  F   UNL     1      15.430  -0.658  -2.870  1.00  0.00    -0.205 F 
ATOM     81  C   UNL     1      16.527  -3.442  -4.984  1.00  0.00     0.022 A 
BRANCH  79  82
ATOM     82  S   UNL     1      14.993  -1.355  -5.858  1.00  0.00     0.127 S 
ATOM     83  O   UNL     1      16.047  -1.001  -6.807  1.00  0.00    -0.237 OA
ATOM     84  O   UNL     1      14.066  -2.387  -6.323  1.00  0.00    -0.237 OA
ATOM     85  O   UNL     1      14.362  -0.233  -5.178  1.00  0.00    -0.744 OA
ENDBRANCH  79  82
ENDBRANCH  51  75
BRANCH  63  86
ATOM     86  C   UNL     1      21.603  -0.408   2.103  1.00  0.00     0.023 A 
ATOM     87  C   UNL     1      21.974   0.848   1.587  1.00  0.00     0.012 A 
ATOM     88  C   UNL     1      22.593  -1.282   2.592  1.00  0.00     0.148 A 
ATOM     89  C   UNL     1      23.314   1.231   1.558  1.00  0.00     0.002 A 
ATOM     90  C   UNL     1      23.924  -0.881   2.590  1.00  0.00     0.091 A 
ATOM     91  F   UNL     1      22.211  -2.476   3.069  1.00  0.00    -0.205 F 
ATOM     92  C   UNL     1      24.286   0.374   2.070  1.00  0.00     0.022 A 
BRANCH  90  93
ATOM     93  S   UNL     1      25.238  -1.879   3.298  1.00  0.00     0.127 S 
ATOM     94  O   UNL     1      26.003  -2.252   2.109  1.00  0.00    -0.237 OA
ATOM     95  O   UNL     1      25.909  -0.926   4.182  1.00  0.00    -0.237 OA
ATOM     96  O   UNL     1      24.581  -2.984   3.984  1.00  0.00    -0.744 OA
ENDBRANCH  90  93
ENDBRANCH  63  86
ENDBRANCH  37  38
ENDBRANCH  29  32
ENDBRANCH  27  28
ENDBRANCH   1  27
TORSDOF 18
