REMARK SMILES O=C(C[C@H]1CN(S(=O)(=O)c2cc(F)cc(F)c2)CCO1)NCCCNC(=O)c1ccc(-c2c3nc(c(-c4cccc(S(=O)(=O)[O-])c4F)c4ccc([nH]4)c(-c4cccc(S(=O)(=O)[O-])c4F)c4nc(c(-c5cccc(S(=O)(=O)[O-])c5F)c5ccc2[nH]5)C=C4)C=C3)cc1
REMARK SMILES IDX 23 1 22 2 21 3 1 4 2 5 3 7 4 8 5 9 20 10 6 11 19 12 18 13
REMARK SMILES IDX 7 14 8 15 9 16 10 17 11 18 17 19 12 20 15 21 13 22 14 23
REMARK SMILES IDX 16 24 24 25 25 26 26 27 27 29 28 30 29 31 90 32 30 33 89 34
REMARK SMILES IDX 31 35 32 36 33 37 83 38 34 39 88 40 82 41 84 42 35 43 87 44
REMARK SMILES IDX 81 45 80 46 36 48 68 49 48 50 67 51 49 52 52 53 66 54 85 55
REMARK SMILES IDX 50 56 51 57 65 59 86 60 53 61 37 62 38 63 46 64 39 65 41 66
REMARK SMILES IDX 47 67 40 68 42 69 43 70 44 71 45 72 69 73 70 74 78 75 71 76
REMARK SMILES IDX 73 77 79 78 72 79 74 80 75 81 76 82 77 83 54 84 55 85 63 86
REMARK SMILES IDX 56 87 58 88 64 89 57 90 59 91 60 92 61 93 62 94
REMARK H PARENT 21 6 25 28 84 47 52 58
REMARK Flexibility Score: inf
ROOT
ATOM      1  C   UNL     1       6.709   1.619  -3.453  1.00  0.00     0.042 C 
ENDROOT
BRANCH   1   2
ATOM      2  C   UNL     1       6.935   0.300  -2.726  1.00  0.00     0.117 C 
BRANCH   2   3
ATOM      3  N   UNL     1       5.880  -0.073  -1.812  1.00  0.00    -0.356 N 
ATOM      4  O   UNL     1       4.281  -0.415  -3.408  1.00  0.00    -0.275 OA
ATOM      5  C   UNL     1       4.647  -0.497  -2.238  1.00  0.00     0.222 C 
ATOM      6  H   UNL     1       6.052  -0.021  -0.844  1.00  0.00     0.163 HD
BRANCH   5   7
ATOM      7  C   UNL     1       3.698  -0.938  -1.140  1.00  0.00     0.133 C 
BRANCH   7   8
ATOM      8  C   UNL     1       4.224  -1.760   0.053  1.00  0.00     0.142 C 
ATOM      9  C   UNL     1       3.509  -3.111   0.308  1.00  0.00     0.135 C 
ATOM     10  O   UNL     1       5.652  -1.853   0.178  1.00  0.00    -0.375 OA
ATOM     11  N   UNL     1       4.113  -4.287  -0.388  1.00  0.00    -0.193 NA
ATOM     12  C   UNL     1       6.221  -2.963  -0.535  1.00  0.00     0.177 C 
ATOM     13  C   UNL     1       5.592  -4.290  -0.109  1.00  0.00     0.131 C 
BRANCH  11  14
ATOM     14  S   UNL     1       3.739  -4.624  -2.018  1.00  0.00     0.243 S 
ATOM     15  O   UNL     1       3.939  -3.415  -2.784  1.00  0.00    -0.207 OA
ATOM     16  O   UNL     1       4.456  -5.832  -2.359  1.00  0.00    -0.207 OA
BRANCH  14  17
ATOM     17  C   UNL     1       2.007  -5.010  -2.100  1.00  0.00     0.088 A 
ATOM     18  C   UNL     1       1.040  -4.032  -1.855  1.00  0.00     0.061 A 
ATOM     19  C   UNL     1       1.615  -6.266  -2.577  1.00  0.00     0.061 A 
ATOM     20  C   UNL     1      -0.306  -4.343  -2.009  1.00  0.00     0.127 A 
ATOM     21  C   UNL     1       0.262  -6.534  -2.765  1.00  0.00     0.127 A 
ATOM     22  F   UNL     1      -1.228  -3.415  -1.723  1.00  0.00    -0.207 F 
ATOM     23  C   UNL     1      -0.709  -5.588  -2.468  1.00  0.00     0.078 A 
ATOM     24  F   UNL     1      -0.110  -7.721  -3.260  1.00  0.00    -0.207 F 
ENDBRANCH  14  17
ENDBRANCH  11  14
ENDBRANCH   7   8
ENDBRANCH   5   7
ENDBRANCH   2   3
ENDBRANCH   1   2
BRANCH   1  25
ATOM     25  C   UNL     1       6.308   2.787  -2.560  1.00  0.00     0.118 C 
BRANCH  25  26
ATOM     26  N   UNL     1       7.253   3.043  -1.482  1.00  0.00    -0.352 N 
ATOM     27  C   UNL     1       7.826   4.219  -1.067  1.00  0.00     0.251 C 
ATOM     28  H   UNL     1       7.522   2.247  -0.969  1.00  0.00     0.163 HD
ATOM     29  O   UNL     1       8.684   4.191  -0.187  1.00  0.00    -0.269 OA
BRANCH  27  30
ATOM     30  C   UNL     1       7.438   5.510  -1.680  1.00  0.00     0.039 A 
ATOM     31  C   UNL     1       8.440   6.444  -1.962  1.00  0.00     0.014 A 
ATOM     32  C   UNL     1       6.102   5.820  -1.948  1.00  0.00     0.014 A 
ATOM     33  C   UNL     1       8.108   7.664  -2.557  1.00  0.00     0.010 A 
ATOM     34  C   UNL     1       5.781   7.006  -2.605  1.00  0.00     0.010 A 
ATOM     35  C   UNL     1       6.778   7.947  -2.902  1.00  0.00    -0.014 A 
BRANCH  35  36
ATOM     36  C   UNL     1       6.408   9.229  -3.553  1.00  0.00     0.031 A 
ATOM     37  C   UNL     1       5.527  10.214  -2.833  1.00  0.00     0.074 A 
ATOM     38  C   UNL     1       6.799   9.474  -4.819  1.00  0.00     0.049 A 
ATOM     39  N   UNL     1       5.067  11.367  -3.248  1.00  0.00    -0.248 NA
ATOM     40  C   UNL     1       5.079   9.845  -1.480  1.00  0.00     0.031 C 
ATOM     41  C   UNL     1       7.579   8.560  -5.656  1.00  0.00     0.029 A 
ATOM     42  N   UNL     1       6.572  10.556  -5.632  1.00  0.00    -0.354 N 
ATOM     43  C   UNL     1       4.247  11.838  -2.231  1.00  0.00     0.074 A 
ATOM     44  C   UNL     1       4.247  10.835  -1.189  1.00  0.00     0.031 C 
ATOM     45  C   UNL     1       7.771   9.123  -6.861  1.00  0.00     0.029 A 
ATOM     46  C   UNL     1       7.119  10.429  -6.887  1.00  0.00     0.049 A 
ATOM     47  H   UNL     1       6.065  11.350  -5.343  1.00  0.00     0.167 HD
ATOM     48  C   UNL     1       3.583  13.015  -2.151  1.00  0.00     0.034 A 
ATOM     49  C   UNL     1       7.107  11.276  -7.936  1.00  0.00     0.034 A 
ATOM     50  C   UNL     1       3.642  14.042  -3.155  1.00  0.00     0.049 A 
ATOM     51  C   UNL     1       6.444  12.618  -7.784  1.00  0.00     0.074 A 
ATOM     52  C   UNL     1       3.079  15.306  -3.129  1.00  0.00     0.029 A 
ATOM     53  N   UNL     1       4.316  13.928  -4.360  1.00  0.00    -0.354 N 
ATOM     54  N   UNL     1       5.813  13.114  -6.747  1.00  0.00    -0.248 NA
ATOM     55  C   UNL     1       6.529  13.537  -8.930  1.00  0.00     0.031 C 
ATOM     56  C   UNL     1       3.419  15.959  -4.319  1.00  0.00     0.029 A 
ATOM     57  C   UNL     1       4.193  15.101  -5.084  1.00  0.00     0.049 A 
ATOM     58  H   UNL     1       4.809  13.130  -4.658  1.00  0.00     0.167 HD
ATOM     59  C   UNL     1       5.460  14.412  -7.099  1.00  0.00     0.074 A 
ATOM     60  C   UNL     1       5.964  14.632  -8.440  1.00  0.00     0.031 C 
ATOM     61  C   UNL     1       4.765  15.330  -6.386  1.00  0.00     0.034 A 
BRANCH  48  62
ATOM     62  C   UNL     1       2.801  13.288  -0.895  1.00  0.00     0.023 A 
ATOM     63  C   UNL     1       3.496  13.611   0.289  1.00  0.00     0.012 A 
ATOM     64  C   UNL     1       1.393  13.273  -0.887  1.00  0.00     0.148 A 
ATOM     65  C   UNL     1       2.805  13.882   1.468  1.00  0.00     0.002 A 
ATOM     66  C   UNL     1       0.709  13.581   0.285  1.00  0.00     0.091 A 
ATOM     67  F   UNL     1       0.748  12.938  -2.014  1.00  0.00    -0.205 F 
ATOM     68  C   UNL     1       1.413  13.877   1.464  1.00  0.00     0.022 A 
BRANCH  66  69
ATOM     69  S   UNL     1      -1.084  13.664   0.356  1.00  0.00     0.127 S 
ATOM     70  O   UNL     1      -1.415  12.390   0.990  1.00  0.00    -0.237 OA
ATOM     71  O   UNL     1      -1.311  14.840   1.198  1.00  0.00    -0.237 OA
ATOM     72  O   UNL     1      -1.527  13.818  -1.023  1.00  0.00    -0.744 OA
ENDBRANCH  66  69
ENDBRANCH  48  62
BRANCH  49  73
ATOM     73  C   UNL     1       7.846  10.922  -9.180  1.00  0.00     0.023 A 
ATOM     74  C   UNL     1       9.056  11.584  -9.467  1.00  0.00     0.012 A 
ATOM     75  C   UNL     1       7.388   9.919 -10.055  1.00  0.00     0.148 A 
ATOM     76  C   UNL     1       9.783  11.273 -10.616  1.00  0.00     0.002 A 
ATOM     77  C   UNL     1       8.142   9.580 -11.174  1.00  0.00     0.091 A 
ATOM     78  F   UNL     1       6.226   9.312  -9.776  1.00  0.00    -0.205 F 
ATOM     79  C   UNL     1       9.332  10.265 -11.463  1.00  0.00     0.022 A 
BRANCH  77  80
ATOM     80  S   UNL     1       7.694   8.209 -12.246  1.00  0.00     0.127 S 
ATOM     81  O   UNL     1       7.085   8.901 -13.378  1.00  0.00    -0.237 OA
ATOM     82  O   UNL     1       8.994   7.597 -12.525  1.00  0.00    -0.237 OA
ATOM     83  O   UNL     1       6.803   7.376 -11.449  1.00  0.00    -0.744 OA
ENDBRANCH  77  80
ENDBRANCH  49  73
BRANCH  61  84
ATOM     84  C   UNL     1       4.530  16.675  -7.018  1.00  0.00     0.023 A 
ATOM     85  C   UNL     1       3.555  16.806  -8.025  1.00  0.00     0.012 A 
ATOM     86  C   UNL     1       5.210  17.819  -6.557  1.00  0.00     0.148 A 
ATOM     87  C   UNL     1       3.276  18.054  -8.582  1.00  0.00     0.002 A 
ATOM     88  C   UNL     1       4.898  19.066  -7.089  1.00  0.00     0.091 A 
ATOM     89  F   UNL     1       6.152  17.672  -5.614  1.00  0.00    -0.205 F 
ATOM     90  C   UNL     1       3.938  19.184  -8.106  1.00  0.00     0.022 A 
BRANCH  88  91
ATOM     91  S   UNL     1       5.647  20.575  -6.463  1.00  0.00     0.127 S 
ATOM     92  O   UNL     1       6.725  20.796  -7.423  1.00  0.00    -0.237 OA
ATOM     93  O   UNL     1       4.546  21.537  -6.550  1.00  0.00    -0.237 OA
ATOM     94  O   UNL     1       6.062  20.267  -5.101  1.00  0.00    -0.744 OA
ENDBRANCH  88  91
ENDBRANCH  61  84
ENDBRANCH  35  36
ENDBRANCH  27  30
ENDBRANCH  25  26
ENDBRANCH   1  25
TORSDOF 16
