REMARK SMILES CN(C(=O)N[C@](C)(C(=O)NCCCNC(=O)c1ccc(-c2c3nc(c(-c4cccc(S(=O)(=O)[O-])c4F)c4ccc([nH]4)c(-c4cccc(S(=O)(=O)[O-])c4F)c4nc(c(-c5cccc(S(=O)(=O)[O-])c5F)c5ccc2[nH]5)C=C4)C=C3)cc1)C(F)(F)F)[C@@H]1CCC[N@@H+](C)C1
REMARK SMILES IDX 12 1 11 2 10 3 8 4 9 5 6 7 7 8 5 9 3 10 4 11 2 13 1 14 84 15
REMARK SMILES IDX 89 16 88 17 87 18 90 19 86 21 85 22 80 23 81 24 82 25 83 26
REMARK SMILES IDX 13 27 14 28 15 29 16 31 17 32 18 33 79 34 19 35 78 36 20 37
REMARK SMILES IDX 21 38 22 39 72 40 23 41 77 42 71 43 73 44 24 45 76 46 70 47
REMARK SMILES IDX 69 48 25 50 57 51 37 52 56 53 38 54 41 55 55 56 74 57 39 58
REMARK SMILES IDX 40 59 54 61 75 62 42 63 26 64 27 65 35 66 28 67 30 68 36 69
REMARK SMILES IDX 29 70 31 71 32 72 33 73 34 74 58 75 59 76 67 77 60 78 62 79
REMARK SMILES IDX 68 80 61 81 63 82 64 83 65 84 66 85 43 86 44 87 52 88 45 89
REMARK SMILES IDX 47 90 53 91 46 92 48 93 49 94 50 95 51 96
REMARK H PARENT 10 6 5 12 88 20 14 30 73 49 41 60
REMARK Flexibility Score: inf
ROOT
ATOM      1  C   UNL     1      -0.917   1.052   6.864  1.00  0.00     0.042 C 
ENDROOT
BRANCH   1   2
ATOM      2  C   UNL     1       0.372   0.233   6.919  1.00  0.00     0.117 C 
BRANCH   2   3
ATOM      3  N   UNL     1       0.141  -1.191   6.714  1.00  0.00    -0.354 N 
ATOM      4  C   UNL     1       0.369  -2.061   5.686  1.00  0.00     0.255 C 
ATOM      5  O   UNL     1       0.098  -3.234   5.960  1.00  0.00    -0.272 OA
ATOM      6  H   UNL     1      -0.273  -1.625   7.494  1.00  0.00     0.163 HD
BRANCH   4   7
ATOM      7  C   UNL     1       1.050  -1.647   4.344  1.00  0.00     0.213 C 
ATOM      8  C   UNL     1       0.313  -0.483   3.671  1.00  0.00     0.056 C 
BRANCH   7   9
ATOM      9  N   UNL     1       2.413  -1.244   4.817  1.00  0.00    -0.316 N 
ATOM     10  C   UNL     1       3.668  -0.985   4.458  1.00  0.00     0.318 C 
ATOM     11  O   UNL     1       4.330  -0.630   5.436  1.00  0.00    -0.249 OA
ATOM     12  H   UNL     1       2.358  -1.121   5.792  1.00  0.00     0.166 HD
BRANCH  10  13
ATOM     13  N   UNL     1       4.190  -1.129   3.213  1.00  0.00    -0.319 N 
ATOM     14  C   UNL     1       3.434  -1.425   2.018  1.00  0.00     0.149 C 
BRANCH  13  15
ATOM     15  C   UNL     1       5.652  -0.952   2.971  1.00  0.00     0.141 C 
ATOM     16  C   UNL     1       6.817   2.416   4.335  1.00  0.00     0.332 C 
ATOM     17  N   UNL     1       6.452   1.006   4.349  1.00  0.00    -0.336 N 
ATOM     18  C   UNL     1       7.479   0.183   4.990  1.00  0.00     0.262 C 
ATOM     19  C   UNL     1       6.126   0.521   3.007  1.00  0.00     0.287 C 
ATOM     20  H   UNL     1       5.607   0.919   4.914  1.00  0.00     0.347 HD
ATOM     21  C   UNL     1       7.109  -1.301   5.078  1.00  0.00     0.064 C 
ATOM     22  C   UNL     1       6.583  -1.881   3.767  1.00  0.00     0.037 C 
ENDBRANCH  13  15
ENDBRANCH  10  13
ENDBRANCH   7   9
BRANCH   7  23
ATOM     23  C   UNL     1       0.929  -2.914   3.460  1.00  0.00     0.420 C 
ATOM     24  F   UNL     1      -0.320  -3.443   3.477  1.00  0.00    -0.168 F 
ATOM     25  F   UNL     1       1.149  -2.641   2.148  1.00  0.00    -0.168 F 
ATOM     26  F   UNL     1       1.803  -3.885   3.807  1.00  0.00    -0.168 F 
ENDBRANCH   7  23
ENDBRANCH   4   7
ENDBRANCH   2   3
ENDBRANCH   1   2
BRANCH   1  27
ATOM     27  C   UNL     1      -2.022   0.583   7.806  1.00  0.00     0.118 C 
BRANCH  27  28
ATOM     28  N   UNL     1      -1.671   0.709   9.211  1.00  0.00    -0.352 N 
ATOM     29  C   UNL     1      -2.266   1.449  10.207  1.00  0.00     0.251 C 
ATOM     30  H   UNL     1      -0.887   0.184   9.494  1.00  0.00     0.163 HD
ATOM     31  O   UNL     1      -1.718   1.538  11.300  1.00  0.00    -0.269 OA
BRANCH  29  32
ATOM     32  C   UNL     1      -3.543   2.157   9.959  1.00  0.00     0.039 A 
ATOM     33  C   UNL     1      -3.688   3.464  10.432  1.00  0.00     0.014 A 
ATOM     34  C   UNL     1      -4.598   1.542   9.280  1.00  0.00     0.014 A 
ATOM     35  C   UNL     1      -4.861   4.175  10.164  1.00  0.00     0.010 A 
ATOM     36  C   UNL     1      -5.729   2.280   8.939  1.00  0.00     0.010 A 
ATOM     37  C   UNL     1      -5.877   3.603   9.381  1.00  0.00    -0.014 A 
BRANCH  37  38
ATOM     38  C   UNL     1      -7.083   4.384   8.998  1.00  0.00     0.031 A 
ATOM     39  C   UNL     1      -8.456   3.932   9.416  1.00  0.00     0.074 A 
ATOM     40  C   UNL     1      -6.950   5.456   8.190  1.00  0.00     0.049 A 
ATOM     41  N   UNL     1      -9.619   4.462   9.136  1.00  0.00    -0.248 NA
ATOM     42  C   UNL     1      -8.537   2.709  10.230  1.00  0.00     0.031 C 
ATOM     43  C   UNL     1      -5.685   5.945   7.639  1.00  0.00     0.029 A 
ATOM     44  N   UNL     1      -7.891   6.308   7.666  1.00  0.00    -0.354 N 
ATOM     45  C   UNL     1     -10.569   3.618   9.699  1.00  0.00     0.074 A 
ATOM     46  C   UNL     1      -9.847   2.524  10.312  1.00  0.00     0.031 C 
ATOM     47  C   UNL     1      -5.927   7.006   6.855  1.00  0.00     0.029 A 
ATOM     48  C   UNL     1      -7.365   7.253   6.817  1.00  0.00     0.049 A 
ATOM     49  H   UNL     1      -8.851   6.247   7.878  1.00  0.00     0.167 HD
ATOM     50  C   UNL     1     -11.917   3.749   9.722  1.00  0.00     0.034 A 
ATOM     51  C   UNL     1      -7.969   8.202   6.074  1.00  0.00     0.034 A 
ATOM     52  C   UNL     1     -12.629   4.855   9.141  1.00  0.00     0.049 A 
ATOM     53  C   UNL     1      -9.462   8.358   6.154  1.00  0.00     0.074 A 
ATOM     54  C   UNL     1     -13.981   5.139   9.212  1.00  0.00     0.029 A 
ATOM     55  N   UNL     1     -12.054   5.846   8.360  1.00  0.00    -0.354 N 
ATOM     56  N   UNL     1     -10.328   7.655   6.843  1.00  0.00    -0.248 NA
ATOM     57  C   UNL     1     -10.058   9.461   5.386  1.00  0.00     0.031 C 
ATOM     58  C   UNL     1     -14.231   6.276   8.435  1.00  0.00     0.029 A 
ATOM     59  C   UNL     1     -13.027   6.728   7.919  1.00  0.00     0.049 A 
ATOM     60  H   UNL     1     -11.095   5.913   8.150  1.00  0.00     0.167 HD
ATOM     61  C   UNL     1     -11.566   8.244   6.614  1.00  0.00     0.074 A 
ATOM     62  C   UNL     1     -11.334   9.377   5.742  1.00  0.00     0.031 C 
ATOM     63  C   UNL     1     -12.785   7.872   7.077  1.00  0.00     0.034 A 
BRANCH  50  64
ATOM     64  C   UNL     1     -12.713   2.676  10.423  1.00  0.00     0.023 A 
ATOM     65  C   UNL     1     -12.639   2.546  11.825  1.00  0.00     0.012 A 
ATOM     66  C   UNL     1     -13.568   1.825   9.696  1.00  0.00     0.148 A 
ATOM     67  C   UNL     1     -13.367   1.557  12.487  1.00  0.00     0.002 A 
ATOM     68  C   UNL     1     -14.329   0.876  10.368  1.00  0.00     0.091 A 
ATOM     69  F   UNL     1     -13.611   1.948   8.361  1.00  0.00    -0.205 F 
ATOM     70  C   UNL     1     -14.219   0.730  11.760  1.00  0.00     0.022 A 
BRANCH  68  71
ATOM     71  S   UNL     1     -15.519  -0.178   9.531  1.00  0.00     0.127 S 
ATOM     72  O   UNL     1     -14.851  -1.478   9.586  1.00  0.00    -0.237 OA
ATOM     73  O   UNL     1     -16.695  -0.060  10.394  1.00  0.00    -0.237 OA
ATOM     74  O   UNL     1     -15.686   0.384   8.198  1.00  0.00    -0.744 OA
ENDBRANCH  68  71
ENDBRANCH  50  64
BRANCH  51  75
ATOM     75  C   UNL     1      -7.143   9.101   5.220  1.00  0.00     0.023 A 
ATOM     76  C   UNL     1      -6.983  10.453   5.579  1.00  0.00     0.012 A 
ATOM     77  C   UNL     1      -6.470   8.605   4.087  1.00  0.00     0.148 A 
ATOM     78  C   UNL     1      -6.186  11.302   4.809  1.00  0.00     0.002 A 
ATOM     79  C   UNL     1      -5.631   9.441   3.359  1.00  0.00     0.091 A 
ATOM     80  F   UNL     1      -6.643   7.317   3.760  1.00  0.00    -0.205 F 
ATOM     81  C   UNL     1      -5.501  10.794   3.708  1.00  0.00     0.022 A 
BRANCH  79  82
ATOM     82  S   UNL     1      -4.601   8.841   2.016  1.00  0.00     0.127 S 
ATOM     83  O   UNL     1      -5.183   9.525   0.864  1.00  0.00    -0.237 OA
ATOM     84  O   UNL     1      -3.278   9.321   2.416  1.00  0.00    -0.237 OA
ATOM     85  O   UNL     1      -4.742   7.391   2.024  1.00  0.00    -0.744 OA
ENDBRANCH  79  82
ENDBRANCH  51  75
BRANCH  63  86
ATOM     86  C   UNL     1     -13.972   8.711   6.677  1.00  0.00     0.023 A 
ATOM     87  C   UNL     1     -14.446   8.675   5.350  1.00  0.00     0.012 A 
ATOM     88  C   UNL     1     -14.662   9.479   7.636  1.00  0.00     0.148 A 
ATOM     89  C   UNL     1     -15.566   9.418   4.977  1.00  0.00     0.002 A 
ATOM     90  C   UNL     1     -15.808  10.174   7.270  1.00  0.00     0.091 A 
ATOM     91  F   UNL     1     -14.186   9.514   8.889  1.00  0.00    -0.205 F 
ATOM     92  C   UNL     1     -16.253  10.156   5.938  1.00  0.00     0.022 A 
BRANCH  90  93
ATOM     93  S   UNL     1     -16.814  11.071   8.458  1.00  0.00     0.127 S 
ATOM     94  O   UNL     1     -16.556  12.459   8.078  1.00  0.00    -0.237 OA
ATOM     95  O   UNL     1     -18.161  10.592   8.146  1.00  0.00    -0.237 OA
ATOM     96  O   UNL     1     -16.323  10.684   9.774  1.00  0.00    -0.744 OA
ENDBRANCH  90  93
ENDBRANCH  63  86
ENDBRANCH  37  38
ENDBRANCH  29  32
ENDBRANCH  27  28
ENDBRANCH   1  27
TORSDOF 17
