REMARK SMILES O=C(COc1ccc(Br)cc1)NC(=S)Nc1ccc(Cl)cc1C(=O)NCCCNC(=O)c1ccc(-c2c3nc(c(-c4cccc(S(=O)(=O)[O-])c4F)c4ccc([nH]4)c(-c4cccc(S(=O)(=O)[O-])c4F)c4nc(c(-c5cccc(S(=O)(=O)[O-])c5F)c5ccc2[nH]5)C=C4)C=C3)cc1
REMARK SMILES IDX 23 1 24 2 25 3 22 5 16 6 17 7 18 8 21 9 19 10 20 11 15 12
REMARK SMILES IDX 13 14 14 15 12 16 1 17 2 18 3 20 4 21 5 22 6 23 11 24 7 25
REMARK SMILES IDX 10 26 8 27 9 28 26 29 27 30 28 31 29 32 30 33 31 35 32 36
REMARK SMILES IDX 33 37 94 38 34 39 93 40 35 41 36 42 37 43 87 44 38 45 92 46
REMARK SMILES IDX 86 47 88 48 39 49 91 50 85 51 84 52 40 54 72 55 52 56 71 57
REMARK SMILES IDX 53 58 56 59 70 60 89 61 54 62 55 63 69 65 90 66 57 67 41 68
REMARK SMILES IDX 42 69 50 70 43 71 45 72 51 73 44 74 46 75 47 76 48 77 49 78
REMARK SMILES IDX 73 79 74 80 82 81 75 82 77 83 83 84 76 85 78 86 79 87 80 88
REMARK SMILES IDX 81 89 58 90 59 91 67 92 60 93 62 94 68 95 61 96 63 97 64 98
REMARK SMILES IDX 65 99 66 100
REMARK H PARENT 25 4 15 13 12 19 29 34 88 53 56 64
REMARK Flexibility Score: inf
ROOT
ATOM      1  C   UNL     1      -1.493  -2.505   0.351  1.00  0.00     0.253 C 
ATOM      2  O   UNL     1      -2.648  -2.682   0.759  1.00  0.00    -0.269 OA
ATOM      3  N   UNL     1      -0.662  -3.590   0.476  1.00  0.00    -0.352 N 
ATOM      4  H   UNL     1      -1.078  -4.362   0.925  1.00  0.00     0.163 HD
ENDROOT
BRANCH   1   5
ATOM      5  C   UNL     1      -1.153  -1.145  -0.190  1.00  0.00     0.064 A 
ATOM      6  C   UNL     1      -0.206  -0.751  -1.159  1.00  0.00     0.053 A 
ATOM      7  C   UNL     1      -0.127   0.597  -1.578  1.00  0.00     0.028 A 
ATOM      8  C   UNL     1      -0.894   1.584  -0.972  1.00  0.00     0.023 A 
ATOM      9  C   UNL     1      -1.904  -0.110   0.421  1.00  0.00     0.036 A 
ATOM     10  C   UNL     1      -1.756   1.229   0.053  1.00  0.00     0.041 A 
ATOM     11  Cl  UNL     1      -2.637   2.455   0.879  1.00  0.00    -0.084 Cl
BRANCH   6  12
ATOM     12  N   UNL     1       0.732  -1.606  -1.749  1.00  0.00    -0.332 N 
ATOM     13  H   UNL     1       0.374  -2.411  -2.188  1.00  0.00     0.169 HD
BRANCH  12  14
ATOM     14  C   UNL     1       2.087  -1.449  -1.783  1.00  0.00     0.177 C 
ATOM     15  S   UNL     1       2.973  -2.370  -2.863  1.00  0.00    -0.040 S 
BRANCH  14  16
ATOM     16  N   UNL     1       2.781  -0.644  -0.900  1.00  0.00    -0.300 N 
ATOM     17  O   UNL     1       1.357   0.054   0.832  1.00  0.00    -0.271 OA
ATOM     18  C   UNL     1       2.446   0.068   0.266  1.00  0.00     0.264 C 
ATOM     19  H   UNL     1       3.730  -0.545  -1.143  1.00  0.00     0.172 HD
BRANCH  18  20
ATOM     20  C   UNL     1       3.608   0.847   0.890  1.00  0.00     0.329 C 
BRANCH  20  21
ATOM     21  O   UNL     1       4.388   0.110   1.826  1.00  0.00    -0.484 OA
BRANCH  21  22
ATOM     22  C   UNL     1       3.709  -0.150   2.989  1.00  0.00     0.120 A 
ATOM     23  C   UNL     1       2.838  -1.238   3.061  1.00  0.00     0.047 A 
ATOM     24  C   UNL     1       3.975   0.608   4.128  1.00  0.00     0.047 A 
ATOM     25  C   UNL     1       2.169  -1.527   4.250  1.00  0.00     0.019 A 
ATOM     26  C   UNL     1       3.328   0.303   5.331  1.00  0.00     0.019 A 
ATOM     27  C   UNL     1       2.420  -0.756   5.382  1.00  0.00     0.018 A 
ATOM     28  Br  UNL     1       1.540  -1.171   7.003  1.00  0.00    -0.051 Br
ENDBRANCH  21  22
ENDBRANCH  20  21
ENDBRANCH  18  20
ENDBRANCH  14  16
ENDBRANCH  12  14
ENDBRANCH   6  12
ENDBRANCH   1   5
BRANCH   3  29
ATOM     29  C   UNL     1       0.705  -3.813   0.075  1.00  0.00     0.118 C 
BRANCH  29  30
ATOM     30  C   UNL     1       1.496  -4.824   0.885  1.00  0.00     0.042 C 
BRANCH  30  31
ATOM     31  C   UNL     1       0.919  -6.228   0.954  1.00  0.00     0.118 C 
BRANCH  31  32
ATOM     32  N   UNL     1       0.861  -6.926  -0.325  1.00  0.00    -0.352 N 
ATOM     33  C   UNL     1       1.657  -7.894  -0.894  1.00  0.00     0.251 C 
ATOM     34  H   UNL     1       0.105  -6.652  -0.892  1.00  0.00     0.163 HD
ATOM     35  O   UNL     1       1.408  -8.255  -2.046  1.00  0.00    -0.269 OA
BRANCH  33  36
ATOM     36  C   UNL     1       2.821  -8.482  -0.186  1.00  0.00     0.039 A 
ATOM     37  C   UNL     1       3.965  -8.816  -0.922  1.00  0.00     0.014 A 
ATOM     38  C   UNL     1       2.804  -8.736   1.183  1.00  0.00     0.014 A 
ATOM     39  C   UNL     1       5.103  -9.310  -0.272  1.00  0.00     0.010 A 
ATOM     40  C   UNL     1       3.976  -9.092   1.845  1.00  0.00     0.010 A 
ATOM     41  C   UNL     1       5.139  -9.401   1.128  1.00  0.00    -0.014 A 
BRANCH  41  42
ATOM     42  C   UNL     1       6.367  -9.816   1.862  1.00  0.00     0.031 A 
ATOM     43  C   UNL     1       6.332 -10.983   2.818  1.00  0.00     0.074 A 
ATOM     44  C   UNL     1       7.489  -9.073   1.761  1.00  0.00     0.049 A 
ATOM     45  N   UNL     1       7.274 -11.433   3.607  1.00  0.00    -0.248 NA
ATOM     46  C   UNL     1       5.059 -11.714   2.938  1.00  0.00     0.031 C 
ATOM     47  C   UNL     1       7.629  -7.856   0.958  1.00  0.00     0.029 A 
ATOM     48  N   UNL     1       8.716  -9.213   2.363  1.00  0.00    -0.354 N 
ATOM     49  C   UNL     1       6.692 -12.453   4.353  1.00  0.00     0.074 A 
ATOM     50  C   UNL     1       5.306 -12.530   3.952  1.00  0.00     0.031 C 
ATOM     51  C   UNL     1       8.869  -7.366   1.112  1.00  0.00     0.029 A 
ATOM     52  C   UNL     1       9.603  -8.208   2.050  1.00  0.00     0.049 A 
ATOM     53  H   UNL     1       8.940  -9.962   2.962  1.00  0.00     0.167 HD
ATOM     54  C   UNL     1       7.263 -13.275   5.266  1.00  0.00     0.034 A 
ATOM     55  C   UNL     1      10.861  -7.979   2.476  1.00  0.00     0.034 A 
ATOM     56  C   UNL     1       8.657 -13.240   5.617  1.00  0.00     0.049 A 
ATOM     57  C   UNL     1      11.501  -8.955   3.425  1.00  0.00     0.074 A 
ATOM     58  C   UNL     1       9.361 -14.111   6.428  1.00  0.00     0.029 A 
ATOM     59  N   UNL     1       9.556 -12.277   5.188  1.00  0.00    -0.354 N 
ATOM     60  N   UNL     1      10.985 -10.027   3.976  1.00  0.00    -0.248 NA
ATOM     61  C   UNL     1      12.906  -8.714   3.780  1.00  0.00     0.031 C 
ATOM     62  C   UNL     1      10.680 -13.653   6.518  1.00  0.00     0.029 A 
ATOM     63  C   UNL     1      10.806 -12.519   5.731  1.00  0.00     0.049 A 
ATOM     64  H   UNL     1       9.338 -11.530   4.584  1.00  0.00     0.167 HD
ATOM     65  C   UNL     1      12.009 -10.603   4.720  1.00  0.00     0.074 A 
ATOM     66  C   UNL     1      13.181  -9.775   4.526  1.00  0.00     0.031 C 
ATOM     67  C   UNL     1      11.976 -11.711   5.501  1.00  0.00     0.034 A 
BRANCH  54  68
ATOM     68  C   UNL     1       6.387 -14.315   5.919  1.00  0.00     0.023 A 
ATOM     69  C   UNL     1       5.889 -15.394   5.159  1.00  0.00     0.012 A 
ATOM     70  C   UNL     1       6.091 -14.250   7.295  1.00  0.00     0.148 A 
ATOM     71  C   UNL     1       5.074 -16.362   5.743  1.00  0.00     0.002 A 
ATOM     72  C   UNL     1       5.321 -15.247   7.882  1.00  0.00     0.091 A 
ATOM     73  F   UNL     1       6.554 -13.209   8.001  1.00  0.00    -0.205 F 
ATOM     74  C   UNL     1       4.798 -16.294   7.106  1.00  0.00     0.022 A 
BRANCH  72  75
ATOM     75  S   UNL     1       4.983 -15.297   9.646  1.00  0.00     0.127 S 
ATOM     76  O   UNL     1       3.566 -14.941   9.685  1.00  0.00    -0.237 OA
ATOM     77  O   UNL     1       5.269 -16.694   9.974  1.00  0.00    -0.237 OA
ATOM     78  O   UNL     1       5.889 -14.334  10.255  1.00  0.00    -0.744 OA
ENDBRANCH  72  75
ENDBRANCH  54  68
BRANCH  55  79
ATOM     79  C   UNL     1      11.613  -6.803   1.954  1.00  0.00     0.023 A 
ATOM     80  C   UNL     1      12.677  -7.001   1.053  1.00  0.00     0.012 A 
ATOM     81  C   UNL     1      11.243  -5.489   2.303  1.00  0.00     0.148 A 
ATOM     82  C   UNL     1      13.378  -5.913   0.530  1.00  0.00     0.002 A 
ATOM     83  C   UNL     1      11.906  -4.408   1.732  1.00  0.00     0.091 A 
ATOM     84  F   UNL     1      10.232  -5.322   3.167  1.00  0.00    -0.205 F 
ATOM     85  C   UNL     1      12.986  -4.618   0.860  1.00  0.00     0.022 A 
BRANCH  83  86
ATOM     86  S   UNL     1      11.380  -2.709   1.984  1.00  0.00     0.127 S 
ATOM     87  O   UNL     1      12.494  -2.161   2.754  1.00  0.00    -0.237 OA
ATOM     88  O   UNL     1      11.281  -2.218   0.609  1.00  0.00    -0.237 OA
ATOM     89  O   UNL     1      10.107  -2.789   2.686  1.00  0.00    -0.744 OA
ENDBRANCH  83  86
ENDBRANCH  55  79
BRANCH  67  90
ATOM     90  C   UNL     1      13.253 -12.118   6.191  1.00  0.00     0.023 A 
ATOM     91  C   UNL     1      13.746 -11.354   7.267  1.00  0.00     0.012 A 
ATOM     92  C   UNL     1      13.924 -13.299   5.816  1.00  0.00     0.148 A 
ATOM     93  C   UNL     1      14.907 -11.740   7.936  1.00  0.00     0.002 A 
ATOM     94  C   UNL     1      15.051 -13.704   6.520  1.00  0.00     0.091 A 
ATOM     95  F   UNL     1      13.450 -14.003   4.777  1.00  0.00    -0.205 F 
ATOM     96  C   UNL     1      15.552 -12.919   7.571  1.00  0.00     0.022 A 
BRANCH  94  97
ATOM     97  S   UNL     1      15.886 -15.259   6.186  1.00  0.00     0.127 S 
ATOM     98  O   UNL     1      17.118 -14.803   5.544  1.00  0.00    -0.237 OA
ATOM     99  O   UNL     1      16.066 -15.810   7.529  1.00  0.00    -0.237 OA
ATOM    100  O   UNL     1      14.985 -16.024   5.335  1.00  0.00    -0.744 OA
ENDBRANCH  94  97
ENDBRANCH  67  90
ENDBRANCH  41  42
ENDBRANCH  33  36
ENDBRANCH  31  32
ENDBRANCH  30  31
ENDBRANCH  29  30
ENDBRANCH   3  29
TORSDOF 19
