REMARK SMILES Cc1cc(=O)c(Oc2ccc(C(=O)NCCCNC(=O)c3ccc(-c4c5nc(c(-c6cccc(S(=O)(=O)[O-])c6F)c6ccc([nH]6)c(-c6cccc(S(=O)(=O)[O-])c6F)c6nc(c(-c7cccc(S(=O)(=O)[O-])c7F)c7ccc4[nH]7)C=C6)C=C5)cc3)cc2)c(-c2ccc(S(C)(=O)=O)cc2)o1
REMARK SMILES IDX 15 1 14 2 12 3 13 4 11 6 8 7 9 8 85 9 10 10 84 11 7 12 6 13
REMARK SMILES IDX 1 14 2 15 3 16 97 17 4 18 86 19 5 20 87 21 88 22 96 23 89 24
REMARK SMILES IDX 95 25 90 26 91 27 92 28 93 29 94 30 16 31 17 32 18 33 19 34
REMARK SMILES IDX 20 36 21 37 22 38 83 39 23 40 82 41 24 42 25 43 26 44 76 45
REMARK SMILES IDX 27 46 81 47 75 48 77 49 28 50 80 51 74 52 73 53 29 55 61 56
REMARK SMILES IDX 41 57 60 58 42 59 45 60 59 61 78 62 43 63 44 64 58 66 79 67
REMARK SMILES IDX 46 68 30 69 31 70 39 71 32 72 34 73 40 74 33 75 35 76 36 77
REMARK SMILES IDX 37 78 38 79 62 80 63 81 71 82 64 83 66 84 72 85 65 86 67 87
REMARK SMILES IDX 68 88 69 89 70 90 47 91 48 92 56 93 49 94 51 95 57 96 50 97
REMARK SMILES IDX 52 98 53 99 54 100 55 101
REMARK H PARENT 14 5 18 35 77 54 45 65
REMARK Flexibility Score: inf
ROOT
ATOM      1  C   UNL     1      -5.166   1.266  -8.300  1.00  0.00     0.118 C 
ENDROOT
BRANCH   1   2
ATOM      2  N   UNL     1      -4.116   2.135  -8.810  1.00  0.00    -0.352 N 
ATOM      3  C   UNL     1      -2.764   1.948  -8.984  1.00  0.00     0.251 C 
ATOM      4  O   UNL     1      -2.132   2.791  -9.620  1.00  0.00    -0.269 OA
ATOM      5  H   UNL     1      -4.434   3.026  -9.083  1.00  0.00     0.163 HD
BRANCH   3   6
ATOM      6  C   UNL     1      -2.018   0.847  -8.320  1.00  0.00     0.040 A 
ATOM      7  C   UNL     1      -0.780  -0.799  -6.457  1.00  0.00     0.127 A 
ATOM      8  C   UNL     1      -0.077   0.281  -6.973  1.00  0.00     0.048 A 
ATOM      9  C   UNL     1      -1.970  -1.205  -7.057  1.00  0.00     0.048 A 
ATOM     10  C   UNL     1      -0.718   1.134  -7.874  1.00  0.00     0.017 A 
ATOM     11  C   UNL     1      -2.563  -0.402  -8.030  1.00  0.00     0.017 A 
BRANCH   7  12
ATOM     12  O   UNL     1      -0.322  -1.548  -5.416  1.00  0.00    -0.449 OA
BRANCH  12  13
ATOM     13  C   UNL     1      -0.121  -1.041  -4.137  1.00  0.00     0.217 A 
ATOM     14  C   UNL     1       0.886   0.073  -0.081  1.00  0.00     0.088 C 
ATOM     15  C   UNL     1       0.542  -0.428  -1.447  1.00  0.00     0.105 A 
ATOM     16  C   UNL     1       0.706  -1.701  -1.812  1.00  0.00     0.098 A 
ATOM     17  O   UNL     1       0.023   0.524  -2.294  1.00  0.00    -0.457 OA
ATOM     18  C   UNL     1       0.387  -2.089  -3.192  1.00  0.00     0.228 A 
ATOM     19  C   UNL     1      -0.328   0.193  -3.601  1.00  0.00     0.180 A 
ATOM     20  O   UNL     1       0.549  -3.258  -3.534  1.00  0.00    -0.285 OA
BRANCH  19  21
ATOM     21  C   UNL     1      -0.913   1.381  -4.251  1.00  0.00     0.021 A 
ATOM     22  C   UNL     1      -0.093   2.475  -4.579  1.00  0.00     0.013 A 
ATOM     23  C   UNL     1      -2.291   1.465  -4.497  1.00  0.00     0.013 A 
ATOM     24  C   UNL     1      -0.626   3.601  -5.214  1.00  0.00     0.021 A 
ATOM     25  C   UNL     1      -2.832   2.597  -5.115  1.00  0.00     0.021 A 
ATOM     26  C   UNL     1      -1.996   3.654  -5.481  1.00  0.00     0.067 A 
BRANCH  26  27
ATOM     27  S   UNL     1      -2.656   5.055  -6.358  1.00  0.00     0.175 S 
ATOM     28  C   UNL     1      -2.766   6.308  -5.111  1.00  0.00     0.163 C 
ATOM     29  O   UNL     1      -1.653   5.476  -7.316  1.00  0.00    -0.224 OA
ATOM     30  O   UNL     1      -4.008   4.724  -6.777  1.00  0.00    -0.224 OA
ENDBRANCH  26  27
ENDBRANCH  19  21
ENDBRANCH  12  13
ENDBRANCH   7  12
ENDBRANCH   3   6
ENDBRANCH   1   2
BRANCH   1  31
ATOM     31  C   UNL     1      -6.251   1.950  -7.484  1.00  0.00     0.042 C 
BRANCH  31  32
ATOM     32  C   UNL     1      -6.978   3.090  -8.173  1.00  0.00     0.118 C 
BRANCH  32  33
ATOM     33  N   UNL     1      -7.753   2.670  -9.335  1.00  0.00    -0.352 N 
ATOM     34  C   UNL     1      -9.101   2.443  -9.508  1.00  0.00     0.251 C 
ATOM     35  H   UNL     1      -7.214   2.520 -10.145  1.00  0.00     0.163 HD
ATOM     36  O   UNL     1      -9.491   1.957 -10.567  1.00  0.00    -0.269 OA
BRANCH  34  37
ATOM     37  C   UNL     1     -10.072   2.724  -8.424  1.00  0.00     0.039 A 
ATOM     38  C   UNL     1      -9.941   3.841  -7.606  1.00  0.00     0.014 A 
ATOM     39  C   UNL     1     -11.142   1.846  -8.215  1.00  0.00     0.014 A 
ATOM     40  C   UNL     1     -10.698   3.943  -6.445  1.00  0.00     0.010 A 
ATOM     41  C   UNL     1     -11.994   2.026  -7.117  1.00  0.00     0.010 A 
ATOM     42  C   UNL     1     -11.734   3.035  -6.179  1.00  0.00    -0.014 A 
BRANCH  42  43
ATOM     43  C   UNL     1     -12.520   3.172  -4.921  1.00  0.00     0.031 A 
ATOM     44  C   UNL     1     -12.574   2.053  -3.910  1.00  0.00     0.074 A 
ATOM     45  C   UNL     1     -13.151   4.336  -4.660  1.00  0.00     0.049 A 
ATOM     46  N   UNL     1     -13.195   2.020  -2.759  1.00  0.00    -0.248 NA
ATOM     47  C   UNL     1     -11.842   0.813  -4.222  1.00  0.00     0.031 C 
ATOM     48  C   UNL     1     -13.196   5.491  -5.560  1.00  0.00     0.029 A 
ATOM     49  N   UNL     1     -13.863   4.748  -3.561  1.00  0.00    -0.354 N 
ATOM     50  C   UNL     1     -12.971   0.752  -2.235  1.00  0.00     0.074 A 
ATOM     51  C   UNL     1     -12.155   0.038  -3.191  1.00  0.00     0.031 C 
ATOM     52  C   UNL     1     -13.861   6.490  -4.965  1.00  0.00     0.029 A 
ATOM     53  C   UNL     1     -14.352   6.028  -3.672  1.00  0.00     0.049 A 
ATOM     54  H   UNL     1     -14.011   4.181  -2.770  1.00  0.00     0.167 HD
ATOM     55  C   UNL     1     -13.392   0.235  -1.057  1.00  0.00     0.034 A 
ATOM     56  C   UNL     1     -15.132   6.752  -2.845  1.00  0.00     0.034 A 
ATOM     57  C   UNL     1     -14.155   0.959  -0.079  1.00  0.00     0.049 A 
ATOM     58  C   UNL     1     -15.577   6.156  -1.544  1.00  0.00     0.074 A 
ATOM     59  C   UNL     1     -14.573   0.526   1.168  1.00  0.00     0.029 A 
ATOM     60  N   UNL     1     -14.616   2.256  -0.230  1.00  0.00    -0.354 N 
ATOM     61  N   UNL     1     -15.287   4.982  -1.040  1.00  0.00    -0.248 NA
ATOM     62  C   UNL     1     -16.444   6.982  -0.691  1.00  0.00     0.031 C 
ATOM     63  C   UNL     1     -15.304   1.556   1.764  1.00  0.00     0.029 A 
ATOM     64  C   UNL     1     -15.320   2.636   0.898  1.00  0.00     0.049 A 
ATOM     65  H   UNL     1     -14.465   2.822  -1.021  1.00  0.00     0.167 HD
ATOM     66  C   UNL     1     -15.923   4.931   0.193  1.00  0.00     0.074 A 
ATOM     67  C   UNL     1     -16.600   6.199   0.370  1.00  0.00     0.031 C 
ATOM     68  C   UNL     1     -15.952   3.915   1.086  1.00  0.00     0.034 A 
BRANCH  55  69
ATOM     69  C   UNL     1     -13.006  -1.177  -0.711  1.00  0.00     0.023 A 
ATOM     70  C   UNL     1     -11.719  -1.436  -0.202  1.00  0.00     0.012 A 
ATOM     71  C   UNL     1     -13.964  -2.210  -0.742  1.00  0.00     0.148 A 
ATOM     72  C   UNL     1     -11.390  -2.704   0.276  1.00  0.00     0.002 A 
ATOM     73  C   UNL     1     -13.638  -3.463  -0.238  1.00  0.00     0.091 A 
ATOM     74  F   UNL     1     -15.180  -1.936  -1.235  1.00  0.00    -0.205 F 
ATOM     75  C   UNL     1     -12.351  -3.712   0.270  1.00  0.00     0.022 A 
BRANCH  73  76
ATOM     76  S   UNL     1     -14.817  -4.815  -0.145  1.00  0.00     0.127 S 
ATOM     77  O   UNL     1     -14.188  -5.813  -1.010  1.00  0.00    -0.237 OA
ATOM     78  O   UNL     1     -14.795  -5.142   1.280  1.00  0.00    -0.237 OA
ATOM     79  O   UNL     1     -16.081  -4.285  -0.636  1.00  0.00    -0.744 OA
ENDBRANCH  73  76
ENDBRANCH  55  69
BRANCH  56  80
ATOM     80  C   UNL     1     -15.523   8.130  -3.243  1.00  0.00     0.023 A 
ATOM     81  C   UNL     1     -14.918   9.235  -2.617  1.00  0.00     0.012 A 
ATOM     82  C   UNL     1     -16.430   8.342  -4.300  1.00  0.00     0.148 A 
ATOM     83  C   UNL     1     -15.213  10.533  -3.037  1.00  0.00     0.002 A 
ATOM     84  C   UNL     1     -16.686   9.633  -4.742  1.00  0.00     0.091 A 
ATOM     85  F   UNL     1     -16.991   7.270  -4.876  1.00  0.00    -0.205 F 
ATOM     86  C   UNL     1     -16.086  10.731  -4.105  1.00  0.00     0.022 A 
BRANCH  84  87
ATOM     87  S   UNL     1     -17.709   9.980  -6.176  1.00  0.00     0.127 S 
ATOM     88  O   UNL     1     -18.814  10.726  -5.578  1.00  0.00    -0.237 OA
ATOM     89  O   UNL     1     -16.801  10.777  -7.002  1.00  0.00    -0.237 OA
ATOM     90  O   UNL     1     -18.060   8.684  -6.737  1.00  0.00    -0.744 OA
ENDBRANCH  84  87
ENDBRANCH  56  80
BRANCH  68  91
ATOM     91  C   UNL     1     -16.721   4.112   2.362  1.00  0.00     0.023 A 
ATOM     92  C   UNL     1     -18.122   3.981   2.353  1.00  0.00     0.012 A 
ATOM     93  C   UNL     1     -16.042   4.283   3.584  1.00  0.00     0.148 A 
ATOM     94  C   UNL     1     -18.840   4.019   3.547  1.00  0.00     0.002 A 
ATOM     95  C   UNL     1     -16.760   4.285   4.772  1.00  0.00     0.091 A 
ATOM     96  F   UNL     1     -14.707   4.409   3.560  1.00  0.00    -0.205 F 
ATOM     97  C   UNL     1     -18.159   4.157   4.755  1.00  0.00     0.022 A 
BRANCH  95  98
ATOM     98  S   UNL     1     -15.970   4.387   6.382  1.00  0.00     0.127 S 
ATOM     99  O   UNL     1     -16.470   5.668   6.878  1.00  0.00    -0.237 OA
ATOM    100  O   UNL     1     -16.511   3.213   7.066  1.00  0.00    -0.237 OA
ATOM    101  O   UNL     1     -14.535   4.341   6.133  1.00  0.00    -0.744 OA
ENDBRANCH  95  98
ENDBRANCH  68  91
ENDBRANCH  42  43
ENDBRANCH  34  37
ENDBRANCH  32  33
ENDBRANCH  31  32
ENDBRANCH   1  31
TORSDOF 17
