REMARK SMILES C=CC[N@@H+](CC(=O)NCCCNC(=O)c1ccc(-c2c3nc(c(-c4cccc(S(=O)(=O)[O-])c4F)c4ccc([nH]4)c(-c4cccc(S(=O)(=O)[O-])c4F)c4nc(c(-c5cccc(S(=O)(=O)[O-])c5F)c5ccc2[nH]5)C=C4)C=C3)cc1)C1CCCCC1
REMARK SMILES IDX 10 1 9 2 8 3 6 4 7 5 5 7 4 8 3 10 2 11 1 12 78 13 79 14
REMARK SMILES IDX 83 15 80 16 82 17 81 18 11 19 12 20 13 21 14 23 15 24 16 25
REMARK SMILES IDX 77 26 17 27 76 28 18 29 19 30 20 31 70 32 21 33 75 34 69 35
REMARK SMILES IDX 71 36 22 37 74 38 68 39 67 40 23 42 55 43 35 44 54 45 36 46
REMARK SMILES IDX 39 47 53 48 72 49 37 50 38 51 52 53 73 54 40 55 24 56 25 57
REMARK SMILES IDX 33 58 26 59 28 60 34 61 27 62 29 63 30 64 31 65 32 66 56 67
REMARK SMILES IDX 57 68 65 69 58 70 60 71 66 72 59 73 61 74 62 75 63 76 64 77
REMARK SMILES IDX 41 78 42 79 50 80 43 81 45 82 51 83 44 84 46 85 47 86 48 87
REMARK SMILES IDX 49 88
REMARK H PARENT 8 6 4 9 12 22 71 41 39 52
REMARK Flexibility Score: inf
ROOT
ATOM      1  C   UNL     1      -1.891   0.784  -1.643  1.00  0.00     0.042 C 
ENDROOT
BRANCH   1   2
ATOM      2  C   UNL     1      -3.121   1.137  -0.808  1.00  0.00     0.118 C 
BRANCH   2   3
ATOM      3  N   UNL     1      -3.811  -0.044  -0.329  1.00  0.00    -0.351 N 
ATOM      4  C   UNL     1      -3.886  -0.600   0.911  1.00  0.00     0.275 C 
ATOM      5  O   UNL     1      -4.707  -1.518   1.040  1.00  0.00    -0.269 OA
ATOM      6  H   UNL     1      -4.313  -0.530  -1.023  1.00  0.00     0.163 HD
BRANCH   4   7
ATOM      7  C   UNL     1      -3.098  -0.083   2.124  1.00  0.00     0.364 C 
BRANCH   7   8
ATOM      8  N   UNL     1      -1.663  -0.396   2.202  1.00  0.00    -0.321 N 
ATOM      9  H   UNL     1      -1.570  -0.393   3.217  1.00  0.00     0.349 HD
BRANCH   8  10
ATOM     10  C   UNL     1      -0.789   0.663   1.709  1.00  0.00     0.291 C 
BRANCH  10  11
ATOM     11  C   UNL     1       0.696   0.487   1.822  1.00  0.00     0.025 C 
ATOM     12  C   UNL     1       1.496   0.185   0.789  1.00  0.00     0.010 C 
ENDBRANCH  10  11
ENDBRANCH   8  10
BRANCH   8  13
ATOM     13  C   UNL     1      -1.162  -1.779   2.181  1.00  0.00     0.184 C 
ATOM     14  C   UNL     1      -0.411  -2.044   3.510  1.00  0.00     0.065 C 
ATOM     15  C   UNL     1      -2.182  -2.919   1.975  1.00  0.00     0.065 C 
ATOM     16  C   UNL     1       0.267  -3.413   3.523  1.00  0.00     0.006 C 
ATOM     17  C   UNL     1      -1.530  -4.304   2.018  1.00  0.00     0.006 C 
ATOM     18  C   UNL     1      -0.739  -4.531   3.297  1.00  0.00     0.000 C 
ENDBRANCH   8  13
ENDBRANCH   7   8
ENDBRANCH   4   7
ENDBRANCH   2   3
ENDBRANCH   1   2
BRANCH   1  19
ATOM     19  C   UNL     1      -2.196   0.251  -3.036  1.00  0.00     0.118 C 
BRANCH  19  20
ATOM     20  N   UNL     1      -2.651   1.287  -3.949  1.00  0.00    -0.352 N 
ATOM     21  C   UNL     1      -2.021   1.903  -5.003  1.00  0.00     0.251 C 
ATOM     22  H   UNL     1      -3.569   1.602  -3.782  1.00  0.00     0.163 HD
ATOM     23  O   UNL     1      -2.555   2.892  -5.506  1.00  0.00    -0.269 OA
BRANCH  21  24
ATOM     24  C   UNL     1      -0.720   1.425  -5.536  1.00  0.00     0.039 A 
ATOM     25  C   UNL     1       0.196   2.373  -6.008  1.00  0.00     0.014 A 
ATOM     26  C   UNL     1      -0.409   0.068  -5.644  1.00  0.00     0.014 A 
ATOM     27  C   UNL     1       1.429   1.965  -6.532  1.00  0.00     0.010 A 
ATOM     28  C   UNL     1       0.856  -0.333  -6.077  1.00  0.00     0.010 A 
ATOM     29  C   UNL     1       1.785   0.607  -6.545  1.00  0.00    -0.014 A 
BRANCH  29  30
ATOM     30  C   UNL     1       3.111   0.157  -7.052  1.00  0.00     0.031 A 
ATOM     31  C   UNL     1       3.202  -0.782  -8.230  1.00  0.00     0.074 A 
ATOM     32  C   UNL     1       4.236   0.525  -6.404  1.00  0.00     0.049 A 
ATOM     33  N   UNL     1       4.262  -1.324  -8.772  1.00  0.00    -0.248 NA
ATOM     34  C   UNL     1       1.937  -1.188  -8.867  1.00  0.00     0.031 C 
ATOM     35  C   UNL     1       4.286   1.358  -5.200  1.00  0.00     0.029 A 
ATOM     36  N   UNL     1       5.554   0.219  -6.647  1.00  0.00    -0.354 N 
ATOM     37  C   UNL     1       3.793  -2.166  -9.775  1.00  0.00     0.074 A 
ATOM     38  C   UNL     1       2.350  -2.082  -9.754  1.00  0.00     0.031 C 
ATOM     39  C   UNL     1       5.563   1.492  -4.809  1.00  0.00     0.029 A 
ATOM     40  C   UNL     1       6.423   0.734  -5.712  1.00  0.00     0.049 A 
ATOM     41  H   UNL     1       5.849  -0.318  -7.418  1.00  0.00     0.167 HD
ATOM     42  C   UNL     1       4.498  -2.920 -10.651  1.00  0.00     0.034 A 
ATOM     43  C   UNL     1       7.759   0.601  -5.586  1.00  0.00     0.034 A 
ATOM     44  C   UNL     1       5.934  -2.951 -10.719  1.00  0.00     0.049 A 
ATOM     45  C   UNL     1       8.519  -0.190  -6.617  1.00  0.00     0.074 A 
ATOM     46  C   UNL     1       6.735  -3.589 -11.649  1.00  0.00     0.029 A 
ATOM     47  N   UNL     1       6.783  -2.327  -9.820  1.00  0.00    -0.354 N 
ATOM     48  N   UNL     1       8.064  -0.826  -7.668  1.00  0.00    -0.248 NA
ATOM     49  C   UNL     1       9.981  -0.249  -6.467  1.00  0.00     0.031 C 
ATOM     50  C   UNL     1       8.071  -3.372 -11.298  1.00  0.00     0.029 A 
ATOM     51  C   UNL     1       8.100  -2.576 -10.165  1.00  0.00     0.049 A 
ATOM     52  H   UNL     1       6.492  -1.786  -9.051  1.00  0.00     0.167 HD
ATOM     53  C   UNL     1       9.183  -1.331  -8.322  1.00  0.00     0.074 A 
ATOM     54  C   UNL     1      10.339  -0.903  -7.564  1.00  0.00     0.031 C 
ATOM     55  C   UNL     1       9.246  -2.095  -9.439  1.00  0.00     0.034 A 
BRANCH  42  56
ATOM     56  C   UNL     1       3.736  -3.739 -11.661  1.00  0.00     0.023 A 
ATOM     57  C   UNL     1       3.105  -3.097 -12.745  1.00  0.00     0.012 A 
ATOM     58  C   UNL     1       3.736  -5.147 -11.594  1.00  0.00     0.148 A 
ATOM     59  C   UNL     1       2.467  -3.841 -13.736  1.00  0.00     0.002 A 
ATOM     60  C   UNL     1       3.135  -5.883 -12.608  1.00  0.00     0.091 A 
ATOM     61  F   UNL     1       4.328  -5.737 -10.546  1.00  0.00    -0.205 F 
ATOM     62  C   UNL     1       2.493  -5.232 -13.675  1.00  0.00     0.022 A 
BRANCH  60  63
ATOM     63  S   UNL     1       3.183  -7.678 -12.668  1.00  0.00     0.127 S 
ATOM     64  O   UNL     1       1.776  -8.017 -12.464  1.00  0.00    -0.237 OA
ATOM     65  O   UNL     1       3.681  -7.926 -14.021  1.00  0.00    -0.237 OA
ATOM     66  O   UNL     1       4.083  -8.094 -11.600  1.00  0.00    -0.744 OA
ENDBRANCH  60  63
ENDBRANCH  42  56
BRANCH  43  67
ATOM     67  C   UNL     1       8.476   1.272  -4.463  1.00  0.00     0.023 A 
ATOM     68  C   UNL     1       9.344   2.347  -4.734  1.00  0.00     0.012 A 
ATOM     69  C   UNL     1       8.299   0.854  -3.130  1.00  0.00     0.148 A 
ATOM     70  C   UNL     1      10.055   2.965  -3.705  1.00  0.00     0.002 A 
ATOM     71  C   UNL     1       8.965   1.513  -2.102  1.00  0.00     0.091 A 
ATOM     72  F   UNL     1       7.483  -0.182  -2.889  1.00  0.00    -0.205 F 
ATOM     73  C   UNL     1       9.858   2.556  -2.389  1.00  0.00     0.022 A 
BRANCH  71  74
ATOM     74  S   UNL     1       8.656   1.137  -0.373  1.00  0.00     0.127 S 
ATOM     75  O   UNL     1       9.834   0.349  -0.022  1.00  0.00    -0.237 OA
ATOM     76  O   UNL     1       8.604   2.471   0.227  1.00  0.00    -0.237 OA
ATOM     77  O   UNL     1       7.382   0.428  -0.354  1.00  0.00    -0.744 OA
ENDBRANCH  71  74
ENDBRANCH  43  67
BRANCH  55  78
ATOM     78  C   UNL     1      10.608  -2.494  -9.942  1.00  0.00     0.023 A 
ATOM     79  C   UNL     1      11.355  -3.464  -9.245  1.00  0.00     0.012 A 
ATOM     80  C   UNL     1      11.110  -1.969 -11.149  1.00  0.00     0.148 A 
ATOM     81  C   UNL     1      12.597  -3.880  -9.724  1.00  0.00     0.002 A 
ATOM     82  C   UNL     1      12.325  -2.425 -11.646  1.00  0.00     0.091 A 
ATOM     83  F   UNL     1      10.391  -1.035 -11.789  1.00  0.00    -0.205 F 
ATOM     84  C   UNL     1      13.075  -3.371 -10.929  1.00  0.00     0.022 A 
BRANCH  82  85
ATOM     85  S   UNL     1      12.972  -1.899 -13.238  1.00  0.00     0.127 S 
ATOM     86  O   UNL     1      14.073  -1.025 -12.837  1.00  0.00    -0.237 OA
ATOM     87  O   UNL     1      13.387  -3.166 -13.839  1.00  0.00    -0.237 OA
ATOM     88  O   UNL     1      11.867  -1.240 -13.921  1.00  0.00    -0.744 OA
ENDBRANCH  82  85
ENDBRANCH  55  78
ENDBRANCH  29  30
ENDBRANCH  21  24
ENDBRANCH  19  20
ENDBRANCH   1  19
TORSDOF 17
