REMARK SMILES Cc1ccc(NC(=O)C[NH+]2CCN(c3ccc(C(=O)NCCCNC(=O)c4ccc(-c5c6nc(c(-c7cccc(S(=O)(=O)[O-])c7F)c7ccc([nH]7)c(-c7cccc(S(=O)(=O)[O-])c7F)c7nc(c(-c8cccc(S(=O)(=O)[O-])c8F)c8ccc5[nH]8)C=C7)C=C6)cc4)cc3NS(C)(=O)=O)CC2)cc1
REMARK SMILES IDX 21 1 20 2 18 3 19 4 17 6 14 7 15 8 91 9 16 10 90 11 13 12
REMARK SMILES IDX 10 13 11 14 98 15 12 17 97 18 9 19 7 20 6 21 8 23 5 24 1 25
REMARK SMILES IDX 2 26 3 27 100 28 4 29 99 30 92 31 93 33 94 34 95 35 96 36
REMARK SMILES IDX 22 37 23 38 24 39 25 40 26 42 27 43 28 44 89 45 29 46 88 47
REMARK SMILES IDX 30 48 31 49 32 50 82 51 33 52 87 53 81 54 83 55 34 56 86 57
REMARK SMILES IDX 80 58 79 59 35 61 67 62 47 63 66 64 48 65 51 66 65 67 84 68
REMARK SMILES IDX 49 69 50 70 64 72 85 73 52 74 36 75 37 76 45 77 38 78 40 79
REMARK SMILES IDX 46 80 39 81 41 82 42 83 43 84 44 85 68 86 69 87 77 88 70 89
REMARK SMILES IDX 72 90 78 91 71 92 73 93 74 94 75 95 76 96 53 97 54 98 62 99
REMARK SMILES IDX 55 100 57 101 63 102 56 103 58 104 59 105 60 106 61 107
REMARK H PARENT 20 5 10 16 6 22 92 32 24 41 83 60 51 71
REMARK Flexibility Score: inf
ROOT
ATOM      1  C   UNL     1       6.039  -5.133  -1.663  1.00  0.00     0.118 C 
ENDROOT
BRANCH   1   2
ATOM      2  N   UNL     1       6.476  -4.159  -0.677  1.00  0.00    -0.352 N 
ATOM      3  C   UNL     1       5.761  -3.301   0.121  1.00  0.00     0.251 C 
ATOM      4  O   UNL     1       6.382  -2.523   0.843  1.00  0.00    -0.269 OA
ATOM      5  H   UNL     1       7.452  -4.106  -0.562  1.00  0.00     0.163 HD
BRANCH   3   6
ATOM      6  C   UNL     1       4.269  -3.287   0.166  1.00  0.00     0.042 A 
ATOM      7  C   UNL     1       1.455  -3.154   0.350  1.00  0.00     0.062 A 
ATOM      8  C   UNL     1       2.085  -3.702  -0.769  1.00  0.00     0.029 A 
ATOM      9  C   UNL     1       2.259  -2.702   1.443  1.00  0.00     0.073 A 
ATOM     10  C   UNL     1       3.456  -3.717  -0.871  1.00  0.00     0.016 A 
ATOM     11  C   UNL     1       3.654  -2.773   1.318  1.00  0.00     0.042 A 
BRANCH   7  12
ATOM     12  N   UNL     1       0.057  -2.960   0.206  1.00  0.00    -0.359 N 
ATOM     13  N   UNL     1      -2.560  -2.900  -1.076  1.00  0.00    -0.324 N 
ATOM     14  C   UNL     1      -1.478  -2.146  -1.720  1.00  0.00     0.284 C 
ATOM     15  C   UNL     1      -1.963  -4.213  -0.738  1.00  0.00     0.284 C 
ATOM     16  H   UNL     1      -3.362  -2.979  -1.701  1.00  0.00     0.348 HD
ATOM     17  C   UNL     1      -0.207  -1.969  -0.883  1.00  0.00     0.178 C 
ATOM     18  C   UNL     1      -0.759  -4.199   0.245  1.00  0.00     0.178 C 
BRANCH  13  19
ATOM     19  C   UNL     1      -3.097  -2.229   0.142  1.00  0.00     0.364 C 
BRANCH  19  20
ATOM     20  C   UNL     1      -3.898  -0.943  -0.155  1.00  0.00     0.279 C 
ATOM     21  N   UNL     1      -3.402   0.332  -0.024  1.00  0.00    -0.321 N 
ATOM     22  H   UNL     1      -4.056   1.037  -0.233  1.00  0.00     0.170 HD
ATOM     23  O   UNL     1      -5.057  -1.027  -0.589  1.00  0.00    -0.268 OA
BRANCH  21  24
ATOM     24  C   UNL     1      -2.143   0.822   0.350  1.00  0.00     0.041 A 
ATOM     25  C   UNL     1       2.065   1.178  -0.032  1.00  0.00     0.044 C 
ATOM     26  C   UNL     1       0.611   1.318   0.330  1.00  0.00    -0.051 A 
ATOM     27  C   UNL     1       0.028   0.482   1.283  1.00  0.00     0.005 A 
ATOM     28  C   UNL     1      -0.236   2.111  -0.435  1.00  0.00     0.005 A 
ATOM     29  C   UNL     1      -1.349   0.244   1.323  1.00  0.00     0.026 A 
ATOM     30  C   UNL     1      -1.616   1.875  -0.410  1.00  0.00     0.026 A 
ENDBRANCH  21  24
ENDBRANCH  19  20
ENDBRANCH  13  19
ENDBRANCH   7  12
BRANCH   9  31
ATOM     31  N   UNL     1       1.617  -2.161   2.613  1.00  0.00    -0.282 N 
ATOM     32  H   UNL     1       0.632  -2.168   2.599  1.00  0.00     0.180 HD
BRANCH  31  33
ATOM     33  S   UNL     1       2.317  -1.522   3.999  1.00  0.00     0.229 S 
ATOM     34  C   UNL     1       2.282   0.248   3.741  1.00  0.00     0.183 C 
ATOM     35  O   UNL     1       1.375  -1.785   5.061  1.00  0.00    -0.207 OA
ATOM     36  O   UNL     1       3.705  -1.918   4.143  1.00  0.00    -0.207 OA
ENDBRANCH  31  33
ENDBRANCH   9  31
ENDBRANCH   3   6
ENDBRANCH   1   2
BRANCH   1  37
ATOM     37  C   UNL     1       5.734  -4.441  -2.988  1.00  0.00     0.042 C 
BRANCH  37  38
ATOM     38  C   UNL     1       6.945  -4.294  -3.861  1.00  0.00     0.118 C 
BRANCH  38  39
ATOM     39  N   UNL     1       7.114  -5.410  -4.759  1.00  0.00    -0.352 N 
ATOM     40  C   UNL     1       7.930  -5.499  -5.868  1.00  0.00     0.251 C 
ATOM     41  H   UNL     1       6.579  -6.210  -4.554  1.00  0.00     0.163 HD
ATOM     42  O   UNL     1       7.727  -6.407  -6.667  1.00  0.00    -0.269 OA
BRANCH  40  43
ATOM     43  C   UNL     1       9.132  -4.629  -5.960  1.00  0.00     0.039 A 
ATOM     44  C   UNL     1      10.320  -5.304  -6.255  1.00  0.00     0.014 A 
ATOM     45  C   UNL     1       9.173  -3.374  -5.362  1.00  0.00     0.014 A 
ATOM     46  C   UNL     1      11.487  -4.919  -5.621  1.00  0.00     0.010 A 
ATOM     47  C   UNL     1      10.291  -3.048  -4.644  1.00  0.00     0.010 A 
ATOM     48  C   UNL     1      11.401  -3.894  -4.699  1.00  0.00    -0.014 A 
BRANCH  48  49
ATOM     49  C   UNL     1      12.447  -3.525  -3.780  1.00  0.00     0.031 A 
ATOM     50  C   UNL     1      13.418  -2.540  -4.256  1.00  0.00     0.074 A 
ATOM     51  C   UNL     1      12.194  -3.792  -2.481  1.00  0.00     0.049 A 
ATOM     52  N   UNL     1      14.402  -2.116  -3.555  1.00  0.00    -0.248 NA
ATOM     53  C   UNL     1      13.356  -1.945  -5.594  1.00  0.00     0.031 C 
ATOM     54  C   UNL     1      12.600  -3.055  -1.295  1.00  0.00     0.029 A 
ATOM     55  N   UNL     1      11.544  -4.912  -1.966  1.00  0.00    -0.354 N 
ATOM     56  C   UNL     1      14.815  -0.950  -4.157  1.00  0.00     0.074 A 
ATOM     57  C   UNL     1      14.293  -0.999  -5.495  1.00  0.00     0.031 C 
ATOM     58  C   UNL     1      12.414  -3.829  -0.209  1.00  0.00     0.029 A 
ATOM     59  C   UNL     1      12.081  -5.160  -0.691  1.00  0.00     0.049 A 
ATOM     60  H   UNL     1      10.839  -5.434  -2.413  1.00  0.00     0.167 HD
ATOM     61  C   UNL     1      15.362   0.005  -3.363  1.00  0.00     0.034 A 
ATOM     62  C   UNL     1      12.871  -6.269  -0.520  1.00  0.00     0.034 A 
ATOM     63  C   UNL     1      15.648  -0.552  -2.029  1.00  0.00     0.049 A 
ATOM     64  C   UNL     1      14.339  -5.917  -0.305  1.00  0.00     0.074 A 
ATOM     65  C   UNL     1      15.058  -0.410  -0.786  1.00  0.00     0.029 A 
ATOM     66  N   UNL     1      16.464  -1.680  -1.943  1.00  0.00    -0.354 N 
ATOM     67  N   UNL     1      14.833  -4.714  -0.431  1.00  0.00    -0.248 NA
ATOM     68  C   UNL     1      15.360  -6.877   0.105  1.00  0.00     0.031 C 
ATOM     69  C   UNL     1      15.415  -1.555  -0.004  1.00  0.00     0.029 A 
ATOM     70  C   UNL     1      16.262  -2.359  -0.750  1.00  0.00     0.049 A 
ATOM     71  H   UNL     1      17.101  -1.958  -2.640  1.00  0.00     0.167 HD
ATOM     72  C   UNL     1      16.189  -4.725  -0.255  1.00  0.00     0.074 A 
ATOM     73  C   UNL     1      16.455  -6.096   0.157  1.00  0.00     0.031 C 
ATOM     74  C   UNL     1      16.968  -3.623  -0.507  1.00  0.00     0.034 A 
BRANCH  61  75
ATOM     75  C   UNL     1      15.461   1.480  -3.702  1.00  0.00     0.023 A 
ATOM     76  C   UNL     1      16.169   2.288  -2.787  1.00  0.00     0.012 A 
ATOM     77  C   UNL     1      14.845   2.161  -4.787  1.00  0.00     0.148 A 
ATOM     78  C   UNL     1      16.265   3.677  -2.933  1.00  0.00     0.002 A 
ATOM     79  C   UNL     1      15.002   3.538  -4.972  1.00  0.00     0.091 A 
ATOM     80  F   UNL     1      14.013   1.512  -5.607  1.00  0.00    -0.205 F 
ATOM     81  C   UNL     1      15.700   4.302  -4.035  1.00  0.00     0.022 A 
BRANCH  79  82
ATOM     82  S   UNL     1      14.347   4.413  -6.409  1.00  0.00     0.127 S 
ATOM     83  O   UNL     1      13.301   5.246  -5.814  1.00  0.00    -0.237 OA
ATOM     84  O   UNL     1      15.515   5.155  -6.884  1.00  0.00    -0.237 OA
ATOM     85  O   UNL     1      13.871   3.389  -7.331  1.00  0.00    -0.744 OA
ENDBRANCH  79  82
ENDBRANCH  61  75
BRANCH  62  86
ATOM     86  C   UNL     1      12.327  -7.436  -1.302  1.00  0.00     0.023 A 
ATOM     87  C   UNL     1      10.996  -7.819  -0.985  1.00  0.00     0.012 A 
ATOM     88  C   UNL     1      12.830  -7.756  -2.576  1.00  0.00     0.148 A 
ATOM     89  C   UNL     1      10.123  -8.263  -1.981  1.00  0.00     0.002 A 
ATOM     90  C   UNL     1      11.959  -8.238  -3.556  1.00  0.00     0.091 A 
ATOM     91  F   UNL     1      14.124  -7.527  -2.834  1.00  0.00    -0.205 F 
ATOM     92  C   UNL     1      10.593  -8.419  -3.280  1.00  0.00     0.022 A 
BRANCH  90  93
ATOM     93  S   UNL     1      12.531  -8.557  -5.231  1.00  0.00     0.127 S 
ATOM     94  O   UNL     1      12.952  -9.952  -5.138  1.00  0.00    -0.237 OA
ATOM     95  O   UNL     1      11.329  -8.343  -6.036  1.00  0.00    -0.237 OA
ATOM     96  O   UNL     1      13.586  -7.582  -5.462  1.00  0.00    -0.744 OA
ENDBRANCH  90  93
ENDBRANCH  62  86
BRANCH  74  97
ATOM     97  C   UNL     1      18.491  -3.621  -0.581  1.00  0.00     0.023 A 
ATOM     98  C   UNL     1      19.249  -4.797  -0.729  1.00  0.00     0.012 A 
ATOM     99  C   UNL     1      19.214  -2.398  -0.653  1.00  0.00     0.148 A 
ATOM    100  C   UNL     1      20.642  -4.774  -0.866  1.00  0.00     0.002 A 
ATOM    101  C   UNL     1      20.576  -2.377  -0.936  1.00  0.00     0.091 A 
ATOM    102  F   UNL     1      18.593  -1.233  -0.421  1.00  0.00    -0.205 F 
ATOM    103  C   UNL     1      21.304  -3.563  -0.999  1.00  0.00     0.022 A 
BRANCH 101 104
ATOM    104  S   UNL     1      21.405  -0.850  -1.403  1.00  0.00     0.127 S 
ATOM    105  O   UNL     1      22.046  -0.458  -0.151  1.00  0.00    -0.237 OA
ATOM    106  O   UNL     1      22.329  -1.306  -2.445  1.00  0.00    -0.237 OA
ATOM    107  O   UNL     1      20.350   0.030  -1.889  1.00  0.00    -0.744 OA
ENDBRANCH 101 104
ENDBRANCH  74  97
ENDBRANCH  48  49
ENDBRANCH  40  43
ENDBRANCH  38  39
ENDBRANCH  37  38
ENDBRANCH   1  37
TORSDOF 19
