REMARK SMILES CCC[C@@H](C(=O)NCCCNC(=O)c1ccc(-c2c3nc(c(-c4cccc(S(=O)(=O)[O-])c4F)c4ccc([nH]4)c(-c4cccc(S(=O)(=O)[O-])c4F)c4nc(c(-c5cccc(S(=O)(=O)[O-])c5F)c5ccc2[nH]5)C=C4)C=C3)cc1)n1nc(/C=C/c2ccc(OC)cc2)ccc1=O
REMARK SMILES IDX 8 1 7 2 5 3 6 4 4 6 3 7 2 8 1 9 77 10 78 11 92 12 79 13
REMARK SMILES IDX 91 14 93 15 90 16 80 17 81 18 82 19 83 20 89 21 84 22 88 23
REMARK SMILES IDX 85 24 86 25 87 26 9 27 10 28 11 29 12 30 13 32 14 33 15 34
REMARK SMILES IDX 76 35 16 36 75 37 17 38 18 39 19 40 69 41 20 42 74 43 68 44
REMARK SMILES IDX 70 45 21 46 73 47 67 48 66 49 22 51 54 52 34 53 53 54 35 55
REMARK SMILES IDX 38 56 52 57 71 58 36 59 37 60 51 62 72 63 39 64 23 65 24 66
REMARK SMILES IDX 32 67 25 68 27 69 33 70 26 71 28 72 29 73 30 74 31 75 55 76
REMARK SMILES IDX 56 77 64 78 57 79 59 80 65 81 58 82 60 83 61 84 62 85 63 86
REMARK SMILES IDX 40 87 41 88 49 89 42 90 44 91 50 92 43 93 45 94 46 95 47 96
REMARK SMILES IDX 48 97
REMARK H PARENT 7 5 11 31 70 50 38 61
REMARK Flexibility Score: inf
ROOT
ATOM      1  C   UNL     1      -1.549  -0.354  -0.489  1.00  0.00     0.117 C 
ENDROOT
BRANCH   1   2
ATOM      2  N   UNL     1      -1.838  -0.102  -1.884  1.00  0.00    -0.354 N 
ATOM      3  C   UNL     1      -1.016   0.075  -2.958  1.00  0.00     0.245 C 
ATOM      4  O   UNL     1      -1.601   0.339  -4.017  1.00  0.00    -0.273 OA
ATOM      5  H   UNL     1      -2.798  -0.049  -2.095  1.00  0.00     0.163 HD
BRANCH   3   6
ATOM      6  C   UNL     1       0.532  -0.080  -2.855  1.00  0.00     0.200 C 
BRANCH   6   7
ATOM      7  C   UNL     1       1.304   1.162  -2.349  1.00  0.00     0.037 C 
BRANCH   7   8
ATOM      8  C   UNL     1       1.434   1.411  -0.850  1.00  0.00    -0.001 C 
ATOM      9  C   UNL     1       2.080   0.299  -0.042  1.00  0.00     0.004 C 
ENDBRANCH   7   8
ENDBRANCH   6   7
BRANCH   6  10
ATOM     10  N   UNL     1       0.966  -0.391  -4.245  1.00  0.00    -0.217 N 
ATOM     11  N   UNL     1       1.254   0.696  -5.048  1.00  0.00    -0.170 NA
ATOM     12  C   UNL     1       0.936  -1.694  -4.712  1.00  0.00     0.267 A 
ATOM     13  C   UNL     1       1.477   0.502  -6.310  1.00  0.00     0.084 A 
ATOM     14  C   UNL     1       1.226  -1.869  -6.154  1.00  0.00     0.075 A 
ATOM     15  O   UNL     1       0.697  -2.686  -4.028  1.00  0.00    -0.268 OA
ATOM     16  C   UNL     1       1.472  -0.825  -6.950  1.00  0.00     0.036 A 
BRANCH  13  17
ATOM     17  C   UNL     1       1.798   1.707  -7.126  1.00  0.00     0.031 C 
ATOM     18  C   UNL     1       2.001   1.784  -8.449  1.00  0.00     0.010 C 
BRANCH  18  19
ATOM     19  C   UNL     1       2.402   3.041  -9.097  1.00  0.00    -0.025 A 
ATOM     20  C   UNL     1       1.825   3.417 -10.313  1.00  0.00     0.012 A 
ATOM     21  C   UNL     1       3.414   3.846  -8.556  1.00  0.00     0.012 A 
ATOM     22  C   UNL     1       2.242   4.585 -10.961  1.00  0.00     0.047 A 
ATOM     23  C   UNL     1       3.829   5.015  -9.205  1.00  0.00     0.047 A 
ATOM     24  C   UNL     1       3.241   5.391 -10.411  1.00  0.00     0.118 A 
BRANCH  24  25
ATOM     25  O   UNL     1       3.562   6.499 -11.146  1.00  0.00    -0.497 OA
ATOM     26  C   UNL     1       4.460   7.424 -10.545  1.00  0.00     0.278 C 
ENDBRANCH  24  25
ENDBRANCH  18  19
ENDBRANCH  13  17
ENDBRANCH   6  10
ENDBRANCH   3   6
ENDBRANCH   1   2
BRANCH   1  27
ATOM     27  C   UNL     1      -1.823   0.887   0.355  1.00  0.00     0.042 C 
BRANCH  27  28
ATOM     28  C   UNL     1      -3.290   1.125   0.674  1.00  0.00     0.118 C 
BRANCH  28  29
ATOM     29  N   UNL     1      -3.801   0.205   1.675  1.00  0.00    -0.352 N 
ATOM     30  C   UNL     1      -4.341   0.452   2.915  1.00  0.00     0.251 C 
ATOM     31  H   UNL     1      -3.753  -0.746   1.426  1.00  0.00     0.163 HD
ATOM     32  O   UNL     1      -4.545  -0.498   3.668  1.00  0.00    -0.269 OA
BRANCH  30  33
ATOM     33  C   UNL     1      -4.658   1.831   3.363  1.00  0.00     0.039 A 
ATOM     34  C   UNL     1      -4.473   2.152   4.712  1.00  0.00     0.014 A 
ATOM     35  C   UNL     1      -5.173   2.798   2.495  1.00  0.00     0.014 A 
ATOM     36  C   UNL     1      -4.755   3.442   5.172  1.00  0.00     0.010 A 
ATOM     37  C   UNL     1      -5.357   4.109   2.933  1.00  0.00     0.010 A 
ATOM     38  C   UNL     1      -5.170   4.444   4.280  1.00  0.00    -0.014 A 
BRANCH  38  39
ATOM     39  C   UNL     1      -5.412   5.835   4.751  1.00  0.00     0.031 A 
ATOM     40  C   UNL     1      -6.776   6.465   4.626  1.00  0.00     0.074 A 
ATOM     41  C   UNL     1      -4.385   6.557   5.242  1.00  0.00     0.049 A 
ATOM     42  N   UNL     1      -7.170   7.658   4.995  1.00  0.00    -0.248 NA
ATOM     43  C   UNL     1      -7.830   5.667   3.978  1.00  0.00     0.031 C 
ATOM     44  C   UNL     1      -2.995   6.100   5.327  1.00  0.00     0.029 A 
ATOM     45  N   UNL     1      -4.344   7.832   5.749  1.00  0.00    -0.354 N 
ATOM     46  C   UNL     1      -8.497   7.764   4.596  1.00  0.00     0.074 A 
ATOM     47  C   UNL     1      -8.832   6.531   3.919  1.00  0.00     0.031 C 
ATOM     48  C   UNL     1      -2.245   7.071   5.871  1.00  0.00     0.029 A 
ATOM     49  C   UNL     1      -3.090   8.227   6.153  1.00  0.00     0.049 A 
ATOM     50  H   UNL     1      -5.138   8.410   5.818  1.00  0.00     0.167 HD
ATOM     51  C   UNL     1      -9.371   8.779   4.802  1.00  0.00     0.034 A 
ATOM     52  C   UNL     1      -2.666   9.386   6.694  1.00  0.00     0.034 A 
ATOM     53  C   UNL     1      -9.049   9.986   5.517  1.00  0.00     0.049 A 
ATOM     54  C   UNL     1      -3.671  10.469   6.977  1.00  0.00     0.074 A 
ATOM     55  C   UNL     1      -9.886  11.033   5.859  1.00  0.00     0.029 A 
ATOM     56  N   UNL     1      -7.789  10.310   5.995  1.00  0.00    -0.354 N 
ATOM     57  N   UNL     1      -4.962  10.479   6.745  1.00  0.00    -0.248 NA
ATOM     58  C   UNL     1      -3.170  11.682   7.638  1.00  0.00     0.031 C 
ATOM     59  C   UNL     1      -9.127  12.001   6.526  1.00  0.00     0.029 A 
ATOM     60  C   UNL     1      -7.823  11.542   6.625  1.00  0.00     0.049 A 
ATOM     61  H   UNL     1      -6.988   9.746   5.901  1.00  0.00     0.167 HD
ATOM     62  C   UNL     1      -5.433  11.680   7.261  1.00  0.00     0.074 A 
ATOM     63  C   UNL     1      -4.292  12.359   7.843  1.00  0.00     0.031 C 
ATOM     64  C   UNL     1      -6.691  12.185   7.242  1.00  0.00     0.034 A 
BRANCH  51  65
ATOM     65  C   UNL     1     -10.783   8.603   4.300  1.00  0.00     0.023 A 
ATOM     66  C   UNL     1     -11.636   7.677   4.934  1.00  0.00     0.012 A 
ATOM     67  C   UNL     1     -11.284   9.390   3.244  1.00  0.00     0.148 A 
ATOM     68  C   UNL     1     -12.952   7.508   4.504  1.00  0.00     0.002 A 
ATOM     69  C   UNL     1     -12.611   9.251   2.852  1.00  0.00     0.091 A 
ATOM     70  F   UNL     1     -10.455  10.252   2.639  1.00  0.00    -0.205 F 
ATOM     71  C   UNL     1     -13.442   8.302   3.471  1.00  0.00     0.022 A 
BRANCH  69  72
ATOM     72  S   UNL     1     -13.363  10.282   1.587  1.00  0.00     0.127 S 
ATOM     73  O   UNL     1     -13.534   9.329   0.492  1.00  0.00    -0.237 OA
ATOM     74  O   UNL     1     -14.608  10.700   2.231  1.00  0.00    -0.237 OA
ATOM     75  O   UNL     1     -12.418  11.361   1.335  1.00  0.00    -0.744 OA
ENDBRANCH  69  72
ENDBRANCH  51  65
BRANCH  52  76
ATOM     76  C   UNL     1      -1.236   9.546   7.082  1.00  0.00     0.023 A 
ATOM     77  C   UNL     1      -0.889   9.586   8.447  1.00  0.00     0.012 A 
ATOM     78  C   UNL     1      -0.218   9.628   6.113  1.00  0.00     0.148 A 
ATOM     79  C   UNL     1       0.442   9.738   8.840  1.00  0.00     0.002 A 
ATOM     80  C   UNL     1       1.111   9.721   6.511  1.00  0.00     0.091 A 
ATOM     81  F   UNL     1      -0.568   9.600   4.820  1.00  0.00    -0.205 F 
ATOM     82  C   UNL     1       1.442   9.795   7.873  1.00  0.00     0.022 A 
BRANCH  80  83
ATOM     83  S   UNL     1       2.472   9.661   5.341  1.00  0.00     0.127 S 
ATOM     84  O   UNL     1       2.953  11.039   5.368  1.00  0.00    -0.237 OA
ATOM     85  O   UNL     1       3.365   8.683   5.963  1.00  0.00    -0.237 OA
ATOM     86  O   UNL     1       1.886   9.218   4.082  1.00  0.00    -0.744 OA
ENDBRANCH  80  83
ENDBRANCH  52  76
BRANCH  64  87
ATOM     87  C   UNL     1      -6.913  13.522   7.900  1.00  0.00     0.023 A 
ATOM     88  C   UNL     1      -6.407  14.693   7.301  1.00  0.00     0.012 A 
ATOM     89  C   UNL     1      -7.666  13.624   9.087  1.00  0.00     0.148 A 
ATOM     90  C   UNL     1      -6.608  15.938   7.896  1.00  0.00     0.002 A 
ATOM     91  C   UNL     1      -7.907  14.873   9.646  1.00  0.00     0.091 A 
ATOM     92  F   UNL     1      -8.124  12.498   9.654  1.00  0.00    -0.205 F 
ATOM     93  C   UNL     1      -7.366  16.029   9.060  1.00  0.00     0.022 A 
BRANCH  91  94
ATOM     94  S   UNL     1      -8.953  15.090  11.090  1.00  0.00     0.127 S 
ATOM     95  O   UNL     1      -7.965  15.317  12.143  1.00  0.00    -0.237 OA
ATOM     96  O   UNL     1      -9.742  16.269  10.730  1.00  0.00    -0.237 OA
ATOM     97  O   UNL     1      -9.727  13.862  11.207  1.00  0.00    -0.744 OA
ENDBRANCH  91  94
ENDBRANCH  64  87
ENDBRANCH  38  39
ENDBRANCH  30  33
ENDBRANCH  28  29
ENDBRANCH  27  28
ENDBRANCH   1  27
TORSDOF 19
