REMARK SMILES CN(C)c1cccc(C(C)(C)C(=O)NCCCNC(=O)c2ccc(-c3c4nc(c(-c5cccc(S(=O)(=O)[O-])c5F)c5ccc([nH]5)c(-c5cccc(S(=O)(=O)[O-])c5F)c5nc(c(-c6cccc(S(=O)(=O)[O-])c6F)c6ccc3[nH]6)C=C5)C=C4)cc2)c1
REMARK SMILES IDX 16 1 15 2 14 3 12 4 13 5 9 7 10 8 11 9 8 10 4 11 5 12 84 13
REMARK SMILES IDX 6 14 7 15 2 16 1 17 3 18 17 19 18 20 19 21 20 23 21 24 22 25
REMARK SMILES IDX 83 26 23 27 82 28 24 29 25 30 26 31 76 32 27 33 81 34 75 35
REMARK SMILES IDX 77 36 28 37 80 38 74 39 73 40 29 42 61 43 41 44 60 45 42 46
REMARK SMILES IDX 45 47 59 48 78 49 43 50 44 51 58 53 79 54 46 55 30 56 31 57
REMARK SMILES IDX 39 58 32 59 34 60 40 61 33 62 35 63 36 64 37 65 38 66 62 67
REMARK SMILES IDX 63 68 71 69 64 70 66 71 72 72 65 73 67 74 68 75 69 76 70 77
REMARK SMILES IDX 47 78 48 79 56 80 49 81 51 82 57 83 50 84 52 85 53 86 54 87
REMARK SMILES IDX 55 88
REMARK H PARENT 14 6 18 22 77 41 45 52
REMARK Flexibility Score: inf
ROOT
ATOM      1  C   UNL     1       7.731  -4.873  -1.398  1.00  0.00     0.042 C 
ENDROOT
BRANCH   1   2
ATOM      2  C   UNL     1       7.109  -4.781  -0.011  1.00  0.00     0.117 C 
BRANCH   2   3
ATOM      3  N   UNL     1       6.304  -3.580   0.140  1.00  0.00    -0.355 N 
ATOM      4  C   UNL     1       4.971  -3.337   0.288  1.00  0.00     0.230 C 
ATOM      5  O   UNL     1       4.713  -2.131   0.337  1.00  0.00    -0.274 OA
ATOM      6  H   UNL     1       6.844  -2.756   0.134  1.00  0.00     0.163 HD
BRANCH   4   7
ATOM      7  C   UNL     1       3.914  -4.479   0.430  1.00  0.00     0.068 C 
ATOM      8  C   UNL     1       4.302  -5.275   1.704  1.00  0.00     0.026 C 
ATOM      9  C   UNL     1       3.944  -5.347  -0.848  1.00  0.00     0.026 C 
BRANCH   7  10
ATOM     10  C   UNL     1       2.419  -4.062   0.631  1.00  0.00    -0.031 A 
ATOM     11  C   UNL     1       0.607  -2.385   0.872  1.00  0.00     0.036 A 
ATOM     12  C   UNL     1      -0.289  -3.423   1.149  1.00  0.00     0.026 A 
ATOM     13  C   UNL     1       1.944  -2.738   0.592  1.00  0.00     0.030 A 
ATOM     14  C   UNL     1       0.125  -4.751   1.142  1.00  0.00     0.002 A 
ATOM     15  C   UNL     1       1.458  -5.063   0.889  1.00  0.00     0.005 A 
BRANCH  11  16
ATOM     16  N   UNL     1       0.177  -1.056   0.897  1.00  0.00    -0.378 N 
ATOM     17  C   UNL     1       0.878  -0.057   0.102  1.00  0.00     0.143 C 
ATOM     18  C   UNL     1      -0.470  -0.611   2.124  1.00  0.00     0.143 C 
ENDBRANCH  11  16
ENDBRANCH   7  10
ENDBRANCH   4   7
ENDBRANCH   2   3
ENDBRANCH   1   2
BRANCH   1  19
ATOM     19  C   UNL     1       8.640  -3.702  -1.746  1.00  0.00     0.118 C 
BRANCH  19  20
ATOM     20  N   UNL     1       9.773  -3.579  -0.836  1.00  0.00    -0.352 N 
ATOM     21  C   UNL     1      11.116  -3.728  -1.081  1.00  0.00     0.251 C 
ATOM     22  H   UNL     1       9.540  -3.356   0.094  1.00  0.00     0.163 HD
ATOM     23  O   UNL     1      11.904  -3.788  -0.138  1.00  0.00    -0.269 OA
BRANCH  21  24
ATOM     24  C   UNL     1      11.608  -3.835  -2.469  1.00  0.00     0.039 A 
ATOM     25  C   UNL     1      12.576  -4.793  -2.777  1.00  0.00     0.014 A 
ATOM     26  C   UNL     1      11.111  -2.994  -3.468  1.00  0.00     0.014 A 
ATOM     27  C   UNL     1      12.991  -4.956  -4.101  1.00  0.00     0.010 A 
ATOM     28  C   UNL     1      11.453  -3.221  -4.796  1.00  0.00     0.010 A 
ATOM     29  C   UNL     1      12.402  -4.199  -5.127  1.00  0.00    -0.014 A 
BRANCH  29  30
ATOM     30  C   UNL     1      12.754  -4.418  -6.553  1.00  0.00     0.031 A 
ATOM     31  C   UNL     1      13.352  -3.301  -7.366  1.00  0.00     0.074 A 
ATOM     32  C   UNL     1      12.450  -5.593  -7.141  1.00  0.00     0.049 A 
ATOM     33  N   UNL     1      13.656  -3.278  -8.637  1.00  0.00    -0.248 NA
ATOM     34  C   UNL     1      13.616  -2.032  -6.665  1.00  0.00     0.031 C 
ATOM     35  C   UNL     1      11.800  -6.727  -6.480  1.00  0.00     0.029 A 
ATOM     36  N   UNL     1      12.622  -6.019  -8.434  1.00  0.00    -0.354 N 
ATOM     37  C   UNL     1      14.111  -1.991  -8.897  1.00  0.00     0.074 A 
ATOM     38  C   UNL     1      14.007  -1.249  -7.660  1.00  0.00     0.031 C 
ATOM     39  C   UNL     1      11.636  -7.720  -7.368  1.00  0.00     0.029 A 
ATOM     40  C   UNL     1      12.131  -7.283  -8.668  1.00  0.00     0.049 A 
ATOM     41  H   UNL     1      13.056  -5.472  -9.128  1.00  0.00     0.167 HD
ATOM     42  C   UNL     1      14.599  -1.479 -10.051  1.00  0.00     0.034 A 
ATOM     43  C   UNL     1      12.073  -8.003  -9.806  1.00  0.00     0.034 A 
ATOM     44  C   UNL     1      14.733  -2.230 -11.270  1.00  0.00     0.049 A 
ATOM     45  C   UNL     1      12.640  -7.418 -11.070  1.00  0.00     0.074 A 
ATOM     46  C   UNL     1      15.293  -1.829 -12.469  1.00  0.00     0.029 A 
ATOM     47  N   UNL     1      14.293  -3.532 -11.449  1.00  0.00    -0.354 N 
ATOM     48  N   UNL     1      13.207  -6.251 -11.258  1.00  0.00    -0.248 NA
ATOM     49  C   UNL     1      12.592  -8.262 -12.273  1.00  0.00     0.031 C 
ATOM     50  C   UNL     1      15.160  -2.877 -13.385  1.00  0.00     0.029 A 
ATOM     51  C   UNL     1      14.554  -3.946 -12.744  1.00  0.00     0.049 A 
ATOM     52  H   UNL     1      13.858  -4.082 -10.757  1.00  0.00     0.167 HD
ATOM     53  C   UNL     1      13.616  -6.234 -12.586  1.00  0.00     0.074 A 
ATOM     54  C   UNL     1      13.250  -7.517 -13.151  1.00  0.00     0.031 C 
ATOM     55  C   UNL     1      14.229  -5.243 -13.279  1.00  0.00     0.034 A 
BRANCH  42  56
ATOM     56  C   UNL     1      15.067  -0.046 -10.040  1.00  0.00     0.023 A 
ATOM     57  C   UNL     1      16.234   0.302  -9.329  1.00  0.00     0.012 A 
ATOM     58  C   UNL     1      14.388   0.944 -10.778  1.00  0.00     0.148 A 
ATOM     59  C   UNL     1      16.695   1.618  -9.319  1.00  0.00     0.002 A 
ATOM     60  C   UNL     1      14.882   2.243 -10.804  1.00  0.00     0.091 A 
ATOM     61  F   UNL     1      13.270   0.599 -11.433  1.00  0.00    -0.205 F 
ATOM     62  C   UNL     1      16.027   2.584 -10.064  1.00  0.00     0.022 A 
BRANCH  60  63
ATOM     63  S   UNL     1      14.143   3.543 -11.798  1.00  0.00     0.127 S 
ATOM     64  O   UNL     1      13.586   4.420 -10.770  1.00  0.00    -0.237 OA
ATOM     65  O   UNL     1      15.305   4.089 -12.501  1.00  0.00    -0.237 OA
ATOM     66  O   UNL     1      13.165   2.888 -12.656  1.00  0.00    -0.744 OA
ENDBRANCH  60  63
ENDBRANCH  42  56
BRANCH  43  67
ATOM     67  C   UNL     1      11.503  -9.381  -9.789  1.00  0.00     0.023 A 
ATOM     68  C   UNL     1      12.356 -10.485  -9.981  1.00  0.00     0.012 A 
ATOM     69  C   UNL     1      10.131  -9.604  -9.564  1.00  0.00     0.148 A 
ATOM     70  C   UNL     1      11.848 -11.785  -9.986  1.00  0.00     0.002 A 
ATOM     71  C   UNL     1       9.641 -10.904  -9.512  1.00  0.00     0.091 A 
ATOM     72  F   UNL     1       9.335  -8.540  -9.391  1.00  0.00    -0.205 F 
ATOM     73  C   UNL     1      10.494 -11.995  -9.742  1.00  0.00     0.022 A 
BRANCH  71  74
ATOM     74  S   UNL     1       7.939 -11.276  -9.075  1.00  0.00     0.127 S 
ATOM     75  O   UNL     1       7.412 -11.792 -10.336  1.00  0.00    -0.237 OA
ATOM     76  O   UNL     1       8.112 -12.278  -8.023  1.00  0.00    -0.237 OA
ATOM     77  O   UNL     1       7.365 -10.019  -8.617  1.00  0.00    -0.744 OA
ENDBRANCH  71  74
ENDBRANCH  43  67
BRANCH  55  78
ATOM     78  C   UNL     1      14.590  -5.513 -14.717  1.00  0.00     0.023 A 
ATOM     79  C   UNL     1      13.580  -5.580 -15.697  1.00  0.00     0.012 A 
ATOM     80  C   UNL     1      15.940  -5.620 -15.106  1.00  0.00     0.148 A 
ATOM     81  C   UNL     1      13.907  -5.784 -17.037  1.00  0.00     0.002 A 
ATOM     82  C   UNL     1      16.261  -5.768 -16.449  1.00  0.00     0.091 A 
ATOM     83  F   UNL     1      16.885  -5.569 -14.156  1.00  0.00    -0.205 F 
ATOM     84  C   UNL     1      15.245  -5.865 -17.415  1.00  0.00     0.022 A 
BRANCH  82  85
ATOM     85  S   UNL     1      17.957  -5.782 -17.041  1.00  0.00     0.127 S 
ATOM     86  O   UNL     1      18.112  -7.171 -17.468  1.00  0.00    -0.237 OA
ATOM     87  O   UNL     1      17.910  -4.809 -18.133  1.00  0.00    -0.237 OA
ATOM     88  O   UNL     1      18.782  -5.382 -15.909  1.00  0.00    -0.744 OA
ENDBRANCH  82  85
ENDBRANCH  55  78
ENDBRANCH  29  30
ENDBRANCH  21  24
ENDBRANCH  19  20
ENDBRANCH   1  19
TORSDOF 15
