REMARK SMILES C[C@@H](C(=O)NCCCNC(=O)c1ccc(-c2c3nc(c(-c4cccc(S(=O)(=O)[O-])c4F)c4ccc([nH]4)c(-c4cccc(S(=O)(=O)[O-])c4F)c4nc(c(-c5cccc(S(=O)(=O)[O-])c5F)c5ccc2[nH]5)C=C4)C=C3)cc1)c1ccc(-c2cccc(OC(=O)NC3CC3)c2)c(F)c1
REMARK SMILES IDX 6 1 5 2 3 3 4 4 2 6 1 7 75 8 76 9 94 10 77 11 92 12 78 13
REMARK SMILES IDX 93 14 79 15 80 16 91 17 81 18 83 19 82 20 84 21 85 22 86 23
REMARK SMILES IDX 87 24 88 26 89 27 90 28 7 29 8 30 9 31 10 32 11 34 12 35
REMARK SMILES IDX 13 36 74 37 14 38 73 39 15 40 16 41 17 42 67 43 18 44 72 45
REMARK SMILES IDX 66 46 68 47 19 48 71 49 65 50 64 51 20 53 52 54 32 55 51 56
REMARK SMILES IDX 33 57 36 58 50 59 69 60 34 61 35 62 49 64 70 65 37 66 21 67
REMARK SMILES IDX 22 68 30 69 23 70 25 71 31 72 24 73 26 74 27 75 28 76 29 77
REMARK SMILES IDX 53 78 54 79 62 80 55 81 57 82 63 83 56 84 58 85 59 86 60 87
REMARK SMILES IDX 61 88 38 89 39 90 47 91 40 92 42 93 48 94 41 95 43 96 44 97
REMARK SMILES IDX 45 98 46 99
REMARK H PARENT 5 5 87 25 9 33 68 52 36 63
REMARK Flexibility Score: inf
ROOT
ATOM      1  C   UNL     1       3.568   1.964   0.031  1.00  0.00     0.117 C 
ENDROOT
BRANCH   1   2
ATOM      2  N   UNL     1       2.484   2.498  -0.770  1.00  0.00    -0.356 N 
ATOM      3  C   UNL     1       1.176   2.117  -0.854  1.00  0.00     0.227 C 
ATOM      4  O   UNL     1       0.512   2.639  -1.752  1.00  0.00    -0.274 OA
ATOM      5  H   UNL     1       2.730   3.258  -1.346  1.00  0.00     0.163 HD
BRANCH   3   6
ATOM      6  C   UNL     1       0.584   1.141   0.182  1.00  0.00     0.105 C 
ATOM      7  C   UNL     1       1.114  -0.279  -0.053  1.00  0.00     0.023 C 
BRANCH   6   8
ATOM      8  C   UNL     1      -0.947   1.207   0.233  1.00  0.00    -0.033 A 
ATOM      9  C   UNL     1      -1.596   2.449   0.364  1.00  0.00     0.005 A 
ATOM     10  C   UNL     1      -1.747   0.058   0.181  1.00  0.00     0.044 A 
ATOM     11  C   UNL     1      -2.993   2.540   0.408  1.00  0.00     0.012 A 
ATOM     12  C   UNL     1      -3.133   0.153   0.241  1.00  0.00     0.131 A 
ATOM     13  C   UNL     1      -3.782   1.386   0.359  1.00  0.00     0.018 A 
ATOM     14  F   UNL     1      -3.844  -0.985   0.202  1.00  0.00    -0.206 F 
BRANCH  13  15
ATOM     15  C   UNL     1      -5.235   1.446   0.521  1.00  0.00    -0.012 A 
ATOM     16  C   UNL     1      -6.069   2.087  -0.406  1.00  0.00     0.009 A 
ATOM     17  C   UNL     1      -5.815   0.827   1.639  1.00  0.00     0.056 A 
ATOM     18  C   UNL     1      -7.454   2.094  -0.223  1.00  0.00     0.004 A 
ATOM     19  C   UNL     1      -7.190   0.835   1.822  1.00  0.00     0.133 A 
ATOM     20  C   UNL     1      -8.016   1.467   0.891  1.00  0.00     0.047 A 
BRANCH  19  21
ATOM     21  O   UNL     1      -7.844   0.226   2.919  1.00  0.00    -0.410 OA
BRANCH  21  22
ATOM     22  C   UNL     1      -7.249  -0.595   3.873  1.00  0.00     0.412 C 
ATOM     23  O   UNL     1      -6.053  -0.855   3.973  1.00  0.00    -0.224 OA
ATOM     24  N   UNL     1      -8.131  -1.150   4.761  1.00  0.00    -0.318 N 
ATOM     25  H   UNL     1      -7.735  -1.778   5.408  1.00  0.00     0.167 HD
BRANCH  24  26
ATOM     26  C   UNL     1      -9.534  -0.956   4.890  1.00  0.00     0.085 C 
ATOM     27  C   UNL     1     -10.497  -0.586   3.798  1.00  0.00     0.027 C 
ATOM     28  C   UNL     1     -10.457  -1.995   4.304  1.00  0.00     0.027 C 
ENDBRANCH  24  26
ENDBRANCH  21  22
ENDBRANCH  19  21
ENDBRANCH  13  15
ENDBRANCH   6   8
ENDBRANCH   3   6
ENDBRANCH   1   2
BRANCH   1  29
ATOM     29  C   UNL     1       4.457   1.031  -0.791  1.00  0.00     0.042 C 
BRANCH  29  30
ATOM     30  C   UNL     1       5.167   1.714  -1.955  1.00  0.00     0.118 C 
BRANCH  30  31
ATOM     31  N   UNL     1       6.115   2.727  -1.513  1.00  0.00    -0.352 N 
ATOM     32  C   UNL     1       7.481   2.768  -1.641  1.00  0.00     0.251 C 
ATOM     33  H   UNL     1       5.715   3.499  -1.052  1.00  0.00     0.163 HD
ATOM     34  O   UNL     1       8.122   3.608  -1.015  1.00  0.00    -0.269 OA
BRANCH  32  35
ATOM     35  C   UNL     1       8.182   1.792  -2.505  1.00  0.00     0.039 A 
ATOM     36  C   UNL     1       9.338   1.174  -2.020  1.00  0.00     0.014 A 
ATOM     37  C   UNL     1       7.707   1.485  -3.783  1.00  0.00     0.014 A 
ATOM     38  C   UNL     1       9.965   0.184  -2.781  1.00  0.00     0.010 A 
ATOM     39  C   UNL     1       8.291   0.448  -4.508  1.00  0.00     0.010 A 
ATOM     40  C   UNL     1       9.416  -0.225  -4.008  1.00  0.00    -0.014 A 
BRANCH  40  41
ATOM     41  C   UNL     1       9.952  -1.406  -4.733  1.00  0.00     0.031 A 
ATOM     42  C   UNL     1      10.531  -1.267  -6.115  1.00  0.00     0.074 A 
ATOM     43  C   UNL     1       9.817  -2.629  -4.179  1.00  0.00     0.049 A 
ATOM     44  N   UNL     1      10.971  -2.202  -6.917  1.00  0.00    -0.248 NA
ATOM     45  C   UNL     1      10.611   0.091  -6.678  1.00  0.00     0.031 C 
ATOM     46  C   UNL     1       9.204  -2.903  -2.877  1.00  0.00     0.029 A 
ATOM     47  N   UNL     1      10.149  -3.875  -4.654  1.00  0.00    -0.354 N 
ATOM     48  C   UNL     1      11.342  -1.556  -8.090  1.00  0.00     0.074 A 
ATOM     49  C   UNL     1      11.070  -0.148  -7.900  1.00  0.00     0.031 C 
ATOM     50  C   UNL     1       9.194  -4.228  -2.662  1.00  0.00     0.029 A 
ATOM     51  C   UNL     1       9.757  -4.903  -3.826  1.00  0.00     0.049 A 
ATOM     52  H   UNL     1      10.623  -4.019  -5.505  1.00  0.00     0.167 HD
ATOM     53  C   UNL     1      11.873  -2.088  -9.216  1.00  0.00     0.034 A 
ATOM     54  C   UNL     1       9.810  -6.239  -3.996  1.00  0.00     0.034 A 
ATOM     55  C   UNL     1      12.176  -3.484  -9.388  1.00  0.00     0.049 A 
ATOM     56  C   UNL     1      10.415  -6.793  -5.258  1.00  0.00     0.074 A 
ATOM     57  C   UNL     1      12.823  -4.095 -10.448  1.00  0.00     0.029 A 
ATOM     58  N   UNL     1      11.830  -4.488  -8.499  1.00  0.00    -0.354 N 
ATOM     59  N   UNL     1      10.942  -6.150  -6.271  1.00  0.00    -0.248 NA
ATOM     60  C   UNL     1      10.455  -8.257  -5.390  1.00  0.00     0.031 C 
ATOM     61  C   UNL     1      12.823  -5.474 -10.225  1.00  0.00     0.029 A 
ATOM     62  C   UNL     1      12.214  -5.718  -9.005  1.00  0.00     0.049 A 
ATOM     63  H   UNL     1      11.377  -4.348  -7.636  1.00  0.00     0.167 HD
ATOM     64  C   UNL     1      11.398  -7.130  -7.146  1.00  0.00     0.074 A 
ATOM     65  C   UNL     1      11.118  -8.408  -6.528  1.00  0.00     0.031 C 
ATOM     66  C   UNL     1      11.975  -6.984  -8.363  1.00  0.00     0.034 A 
BRANCH  53  67
ATOM     67  C   UNL     1      12.200  -1.167 -10.361  1.00  0.00     0.023 A 
ATOM     68  C   UNL     1      13.324  -0.321 -10.279  1.00  0.00     0.012 A 
ATOM     69  C   UNL     1      11.472  -1.240 -11.566  1.00  0.00     0.148 A 
ATOM     70  C   UNL     1      13.712   0.448 -11.376  1.00  0.00     0.002 A 
ATOM     71  C   UNL     1      11.891  -0.505 -12.667  1.00  0.00     0.091 A 
ATOM     72  F   UNL     1      10.398  -2.041 -11.614  1.00  0.00    -0.205 F 
ATOM     73  C   UNL     1      13.005   0.345 -12.572  1.00  0.00     0.022 A 
BRANCH  71  74
ATOM     74  S   UNL     1      11.103  -0.630 -14.277  1.00  0.00     0.127 S 
ATOM     75  O   UNL     1      10.562   0.719 -14.445  1.00  0.00    -0.237 OA
ATOM     76  O   UNL     1      12.235  -0.946 -15.146  1.00  0.00    -0.237 OA
ATOM     77  O   UNL     1      10.106  -1.685 -14.159  1.00  0.00    -0.744 OA
ENDBRANCH  71  74
ENDBRANCH  53  67
BRANCH  54  78
ATOM     78  C   UNL     1       9.278  -7.157  -2.947  1.00  0.00     0.023 A 
ATOM     79  C   UNL     1      10.159  -8.005  -2.249  1.00  0.00     0.012 A 
ATOM     80  C   UNL     1       7.901  -7.208  -2.654  1.00  0.00     0.148 A 
ATOM     81  C   UNL     1       9.674  -8.922  -1.316  1.00  0.00     0.002 A 
ATOM     82  C   UNL     1       7.432  -8.078  -1.677  1.00  0.00     0.091 A 
ATOM     83  F   UNL     1       7.074  -6.405  -3.337  1.00  0.00    -0.205 F 
ATOM     84  C   UNL     1       8.313  -8.954  -1.024  1.00  0.00     0.022 A 
BRANCH  82  85
ATOM     85  S   UNL     1       5.718  -8.081  -1.143  1.00  0.00     0.127 S 
ATOM     86  O   UNL     1       5.219  -9.314  -1.746  1.00  0.00    -0.237 OA
ATOM     87  O   UNL     1       5.854  -8.117   0.314  1.00  0.00    -0.237 OA
ATOM     88  O   UNL     1       5.147  -6.843  -1.657  1.00  0.00    -0.744 OA
ENDBRANCH  82  85
ENDBRANCH  54  78
BRANCH  66  89
ATOM     89  C   UNL     1      12.367  -8.233  -9.108  1.00  0.00     0.023 A 
ATOM     90  C   UNL     1      11.368  -9.059  -9.662  1.00  0.00     0.012 A 
ATOM     91  C   UNL     1      13.723  -8.548  -9.323  1.00  0.00     0.148 A 
ATOM     92  C   UNL     1      11.713 -10.195 -10.393  1.00  0.00     0.002 A 
ATOM     93  C   UNL     1      14.059  -9.652 -10.096  1.00  0.00     0.091 A 
ATOM     94  F   UNL     1      14.657  -7.757  -8.776  1.00  0.00    -0.205 F 
ATOM     95  C   UNL     1      13.056 -10.485 -10.620  1.00  0.00     0.022 A 
BRANCH  93  96
ATOM     96  S   UNL     1      15.757 -10.055 -10.523  1.00  0.00     0.127 S 
ATOM     97  O   UNL     1      15.954 -11.314  -9.806  1.00  0.00    -0.237 OA
ATOM     98  O   UNL     1      15.685 -10.187 -11.978  1.00  0.00    -0.237 OA
ATOM     99  O   UNL     1      16.568  -8.941 -10.052  1.00  0.00    -0.744 OA
ENDBRANCH  93  96
ENDBRANCH  66  89
ENDBRANCH  40  41
ENDBRANCH  32  35
ENDBRANCH  30  31
ENDBRANCH  29  30
ENDBRANCH   1  29
TORSDOF 18
