REMARK SMILES C[C@@H](C(=O)NCCCNC(=O)c1ccc(-c2c3nc(c(-c4cccc(S(=O)(=O)[O-])c4F)c4ccc([nH]4)c(-c4cccc(S(=O)(=O)[O-])c4F)c4nc(c(-c5cccc(S(=O)(=O)[O-])c5F)c5ccc2[nH]5)C=C4)C=C3)cc1)c1ccc(C[C@H]2CCC[C@H]2O)cc1-c1ccc(O)cc1
REMARK SMILES IDX 6 1 5 2 3 3 4 4 2 6 1 7 75 8 76 9 87 10 77 11 86 12 78 13
REMARK SMILES IDX 88 14 89 15 94 16 90 17 93 18 91 19 92 20 79 22 80 23 81 24
REMARK SMILES IDX 84 25 82 26 83 27 85 28 7 30 8 31 9 32 10 33 11 35 12 36
REMARK SMILES IDX 13 37 74 38 14 39 73 40 15 41 16 42 17 43 67 44 18 45 72 46
REMARK SMILES IDX 66 47 68 48 19 49 71 50 65 51 64 52 20 54 52 55 32 56 51 57
REMARK SMILES IDX 33 58 36 59 50 60 69 61 34 62 35 63 49 65 70 66 37 67 21 68
REMARK SMILES IDX 22 69 30 70 23 71 25 72 31 73 24 74 26 75 27 76 28 77 29 78
REMARK SMILES IDX 53 79 54 80 62 81 55 82 57 83 63 84 56 85 58 86 59 87 60 88
REMARK SMILES IDX 61 89 38 90 39 91 47 92 40 93 42 94 48 95 41 96 43 97 44 98
REMARK SMILES IDX 45 99 46 100
REMARK H PARENT 5 5 92 21 85 29 9 34 68 53 36 64
REMARK Flexibility Score: inf
ROOT
ATOM      1  C   UNL     1       3.708  -0.433  -1.747  1.00  0.00     0.117 C 
ENDROOT
BRANCH   1   2
ATOM      2  N   UNL     1       2.698  -1.337  -2.258  1.00  0.00    -0.356 N 
ATOM      3  C   UNL     1       1.356  -1.160  -2.397  1.00  0.00     0.227 C 
ATOM      4  O   UNL     1       0.838  -1.788  -3.325  1.00  0.00    -0.274 OA
ATOM      5  H   UNL     1       3.035  -2.215  -2.549  1.00  0.00     0.163 HD
BRANCH   3   6
ATOM      6  C   UNL     1       0.582  -0.129  -1.566  1.00  0.00     0.106 C 
ATOM      7  C   UNL     1       0.954   0.073  -0.091  1.00  0.00     0.023 C 
BRANCH   6   8
ATOM      8  C   UNL     1      -0.947  -0.289  -1.617  1.00  0.00    -0.028 A 
ATOM      9  C   UNL     1      -1.670   0.887  -1.905  1.00  0.00     0.005 A 
ATOM     10  C   UNL     1      -1.665  -1.475  -1.302  1.00  0.00    -0.014 A 
ATOM     11  C   UNL     1      -3.056   0.928  -1.817  1.00  0.00     0.004 A 
ATOM     12  C   UNL     1      -3.068  -1.382  -1.156  1.00  0.00     0.012 A 
ATOM     13  C   UNL     1      -3.765  -0.181  -1.364  1.00  0.00    -0.047 A 
BRANCH  10  14
ATOM     14  C   UNL     1      -1.055  -2.822  -1.232  1.00  0.00    -0.018 A 
ATOM     15  C   UNL     1      -1.252  -3.713  -2.306  1.00  0.00     0.012 A 
ATOM     16  C   UNL     1      -0.260  -3.260  -0.163  1.00  0.00     0.012 A 
ATOM     17  C   UNL     1      -0.613  -4.954  -2.350  1.00  0.00     0.047 A 
ATOM     18  C   UNL     1       0.403  -4.495  -0.213  1.00  0.00     0.047 A 
ATOM     19  C   UNL     1       0.233  -5.324  -1.316  1.00  0.00     0.115 A 
BRANCH  19  20
ATOM     20  O   UNL     1       0.885  -6.515  -1.424  1.00  0.00    -0.508 OA
ATOM     21  H   UNL     1       0.753  -7.056  -2.178  1.00  0.00     0.293 HD
ENDBRANCH  19  20
ENDBRANCH  10  14
BRANCH  13  22
ATOM     22  C   UNL     1      -5.246  -0.076  -1.098  1.00  0.00     0.041 C 
BRANCH  22  23
ATOM     23  C   UNL     1      -5.682   0.465   0.277  1.00  0.00     0.022 C 
ATOM     24  C   UNL     1      -5.102  -0.265   1.500  1.00  0.00     0.007 C 
ATOM     25  C   UNL     1      -5.476   1.958   0.584  1.00  0.00     0.117 C 
ATOM     26  C   UNL     1      -5.044   0.772   2.626  1.00  0.00     0.003 C 
ATOM     27  C   UNL     1      -5.728   2.025   2.086  1.00  0.00     0.032 C 
BRANCH  25  28
ATOM     28  O   UNL     1      -4.175   2.453   0.327  1.00  0.00    -0.393 OA
ATOM     29  H   UNL     1      -3.531   1.960   0.860  1.00  0.00     0.210 HD
ENDBRANCH  25  28
ENDBRANCH  22  23
ENDBRANCH  13  22
ENDBRANCH   6   8
ENDBRANCH   3   6
ENDBRANCH   1   2
BRANCH   1  30
ATOM     30  C   UNL     1       4.453  -0.994  -0.540  1.00  0.00     0.042 C 
BRANCH  30  31
ATOM     31  C   UNL     1       5.118  -2.348  -0.778  1.00  0.00     0.118 C 
BRANCH  31  32
ATOM     32  N   UNL     1       6.041  -2.337  -1.903  1.00  0.00    -0.352 N 
ATOM     33  C   UNL     1       7.389  -2.584  -1.958  1.00  0.00     0.251 C 
ATOM     34  H   UNL     1       5.629  -2.115  -2.769  1.00  0.00     0.163 HD
ATOM     35  O   UNL     1       7.998  -2.334  -2.996  1.00  0.00    -0.269 OA
BRANCH  33  36
ATOM     36  C   UNL     1       8.116  -3.131  -0.791  1.00  0.00     0.039 A 
ATOM     37  C   UNL     1       9.400  -2.648  -0.520  1.00  0.00     0.014 A 
ATOM     38  C   UNL     1       7.572  -4.142   0.005  1.00  0.00     0.014 A 
ATOM     39  C   UNL     1      10.112  -3.140   0.576  1.00  0.00     0.010 A 
ATOM     40  C   UNL     1       8.251  -4.575   1.143  1.00  0.00     0.010 A 
ATOM     41  C   UNL     1       9.532  -4.088   1.435  1.00  0.00    -0.014 A 
BRANCH  41  42
ATOM     42  C   UNL     1      10.255  -4.562   2.644  1.00  0.00     0.031 A 
ATOM     43  C   UNL     1      10.650  -6.008   2.787  1.00  0.00     0.074 A 
ATOM     44  C   UNL     1      10.500  -3.697   3.648  1.00  0.00     0.049 A 
ATOM     45  N   UNL     1      11.282  -6.595   3.771  1.00  0.00    -0.248 NA
ATOM     46  C   UNL     1      10.262  -6.920   1.698  1.00  0.00     0.031 C 
ATOM     47  C   UNL     1      10.082  -2.294   3.675  1.00  0.00     0.029 A 
ATOM     48  N   UNL     1      11.140  -3.875   4.849  1.00  0.00    -0.354 N 
ATOM     49  C   UNL     1      11.344  -7.942   3.435  1.00  0.00     0.074 A 
ATOM     50  C   UNL     1      10.649  -8.094   2.175  1.00  0.00     0.031 C 
ATOM     51  C   UNL     1      10.485  -1.736   4.828  1.00  0.00     0.029 A 
ATOM     52  C   UNL     1      11.172  -2.744   5.630  1.00  0.00     0.049 A 
ATOM     53  H   UNL     1      11.539  -4.731   5.125  1.00  0.00     0.167 HD
ATOM     54  C   UNL     1      11.955  -8.956   4.094  1.00  0.00     0.034 A 
ATOM     55  C   UNL     1      11.699  -2.537   6.853  1.00  0.00     0.034 A 
ATOM     56  C   UNL     1      12.686  -8.795   5.323  1.00  0.00     0.049 A 
ATOM     57  C   UNL     1      12.433  -3.661   7.531  1.00  0.00     0.074 A 
ATOM     58  C   UNL     1      13.411  -9.742   6.025  1.00  0.00     0.029 A 
ATOM     59  N   UNL     1      12.786  -7.609   6.034  1.00  0.00    -0.354 N 
ATOM     60  N   UNL     1      12.627  -4.889   7.114  1.00  0.00    -0.248 NA
ATOM     61  C   UNL     1      13.060  -3.360   8.825  1.00  0.00     0.031 C 
ATOM     62  C   UNL     1      13.940  -9.130   7.167  1.00  0.00     0.029 A 
ATOM     63  C   UNL     1      13.558  -7.799   7.168  1.00  0.00     0.049 A 
ATOM     64  H   UNL     1      12.368  -6.757   5.772  1.00  0.00     0.167 HD
ATOM     65  C   UNL     1      13.421  -5.498   8.079  1.00  0.00     0.074 A 
ATOM     66  C   UNL     1      13.697  -4.494   9.086  1.00  0.00     0.031 C 
ATOM     67  C   UNL     1      13.866  -6.778   8.136  1.00  0.00     0.034 A 
BRANCH  54  68
ATOM     68  C   UNL     1      11.921 -10.323   3.459  1.00  0.00     0.023 A 
ATOM     69  C   UNL     1      12.692 -10.565   2.303  1.00  0.00     0.012 A 
ATOM     70  C   UNL     1      11.179 -11.377   4.027  1.00  0.00     0.148 A 
ATOM     71  C   UNL     1      12.699 -11.823   1.703  1.00  0.00     0.002 A 
ATOM     72  C   UNL     1      11.225 -12.640   3.447  1.00  0.00     0.091 A 
ATOM     73  F   UNL     1      10.435 -11.124   5.112  1.00  0.00    -0.205 F 
ATOM     74  C   UNL     1      11.975 -12.862   2.280  1.00  0.00     0.022 A 
BRANCH  72  75
ATOM     75  S   UNL     1      10.388 -14.063   4.157  1.00  0.00     0.127 S 
ATOM     76  O   UNL     1       9.286 -14.257   3.215  1.00  0.00    -0.237 OA
ATOM     77  O   UNL     1      11.426 -15.093   4.100  1.00  0.00    -0.237 OA
ATOM     78  O   UNL     1      10.000 -13.668   5.503  1.00  0.00    -0.744 OA
ENDBRANCH  72  75
ENDBRANCH  54  68
BRANCH  55  79
ATOM     79  C   UNL     1      11.622  -1.184   7.473  1.00  0.00     0.023 A 
ATOM     80  C   UNL     1      12.791  -0.406   7.580  1.00  0.00     0.012 A 
ATOM     81  C   UNL     1      10.398  -0.650   7.916  1.00  0.00     0.148 A 
ATOM     82  C   UNL     1      12.747   0.869   8.147  1.00  0.00     0.002 A 
ATOM     83  C   UNL     1      10.351   0.642   8.428  1.00  0.00     0.091 A 
ATOM     84  F   UNL     1       9.298  -1.411   7.817  1.00  0.00    -0.205 F 
ATOM     85  C   UNL     1      11.527   1.397   8.560  1.00  0.00     0.022 A 
BRANCH  83  86
ATOM     86  S   UNL     1       8.803   1.449   8.851  1.00  0.00     0.127 S 
ATOM     87  O   UNL     1       8.838   1.419  10.310  1.00  0.00    -0.237 OA
ATOM     88  O   UNL     1       8.977   2.775   8.256  1.00  0.00    -0.237 OA
ATOM     89  O   UNL     1       7.761   0.646   8.221  1.00  0.00    -0.744 OA
ENDBRANCH  83  86
ENDBRANCH  55  79
BRANCH  67  90
ATOM     90  C   UNL     1      14.716  -7.165   9.318  1.00  0.00     0.023 A 
ATOM     91  C   UNL     1      14.122  -7.309  10.587  1.00  0.00     0.012 A 
ATOM     92  C   UNL     1      16.088  -7.442   9.161  1.00  0.00     0.148 A 
ATOM     93  C   UNL     1      14.886  -7.688  11.690  1.00  0.00     0.002 A 
ATOM     94  C   UNL     1      16.835  -7.864  10.256  1.00  0.00     0.091 A 
ATOM     95  F   UNL     1      16.642  -7.280   7.951  1.00  0.00    -0.205 F 
ATOM     96  C   UNL     1      16.239  -7.976  11.522  1.00  0.00     0.022 A 
BRANCH  94  97
ATOM     97  S   UNL     1      18.560  -8.344  10.109  1.00  0.00     0.127 S 
ATOM     98  O   UNL     1      19.243  -7.171  10.652  1.00  0.00    -0.237 OA
ATOM     99  O   UNL     1      18.628  -9.536  10.956  1.00  0.00    -0.237 OA
ATOM    100  O   UNL     1      18.780  -8.602   8.692  1.00  0.00    -0.744 OA
ENDBRANCH  94  97
ENDBRANCH  67  90
ENDBRANCH  41  42
ENDBRANCH  33  36
ENDBRANCH  31  32
ENDBRANCH  30  31
ENDBRANCH   1  30
TORSDOF 19
