REMARK SMILES O=C(NCCCNC(=O)c1cccc2c(Br)ccnc12)c1ccc(-c2c3nc(c(-c4cccc(S(=O)(=O)[O-])c4F)c4ccc([nH]4)c(-c4cccc(S(=O)(=O)[O-])c4F)c4nc(c(-c5cccc(S(=O)(=O)[O-])c5F)c5ccc2[nH]5)C=C4)C=C3)cc1
REMARK SMILES IDX 1 1 2 2 3 3 21 5 22 6 83 7 23 8 82 9 24 10 25 11 26 12 76 13
REMARK SMILES IDX 27 14 81 15 75 16 77 17 28 18 80 19 74 20 73 21 29 23 61 24
REMARK SMILES IDX 41 25 60 26 42 27 45 28 59 29 78 30 43 31 44 32 58 34 79 35
REMARK SMILES IDX 46 36 30 37 31 38 39 39 32 40 34 41 40 42 33 43 35 44 36 45
REMARK SMILES IDX 37 46 38 47 62 48 63 49 71 50 64 51 66 52 72 53 65 54 67 55
REMARK SMILES IDX 68 56 69 57 70 58 47 59 48 60 56 61 49 62 51 63 57 64 50 65
REMARK SMILES IDX 52 66 53 67 54 68 55 69 4 70 5 71 6 72 7 73 8 74 9 76 10 77
REMARK SMILES IDX 11 78 20 79 12 80 14 81 19 82 13 83 15 84 18 85 16 86 17 87
REMARK H PARENT 3 4 77 22 45 33 7 75
REMARK Flexibility Score: inf
ROOT
ATOM      1  O   UNL     1       1.264   0.061  -0.016  1.00  0.00    -0.269 OA
ATOM      2  C   UNL     1       2.484  -0.081   0.047  1.00  0.00     0.251 C 
ATOM      3  N   UNL     1       3.260   1.003   0.378  1.00  0.00    -0.352 N 
ATOM      4  H   UNL     1       2.757   1.786   0.698  1.00  0.00     0.163 HD
ENDROOT
BRANCH   2   5
ATOM      5  C   UNL     1       3.087  -1.404  -0.237  1.00  0.00     0.039 A 
ATOM      6  C   UNL     1       2.507  -2.211  -1.223  1.00  0.00     0.014 A 
ATOM      7  C   UNL     1       4.168  -1.890   0.503  1.00  0.00     0.014 A 
ATOM      8  C   UNL     1       3.027  -3.482  -1.483  1.00  0.00     0.010 A 
ATOM      9  C   UNL     1       4.739  -3.119   0.184  1.00  0.00     0.010 A 
ATOM     10  C   UNL     1       4.156  -3.943  -0.790  1.00  0.00    -0.014 A 
BRANCH  10  11
ATOM     11  C   UNL     1       4.698  -5.309  -1.006  1.00  0.00     0.031 A 
ATOM     12  C   UNL     1       4.685  -6.303   0.128  1.00  0.00     0.074 A 
ATOM     13  C   UNL     1       5.247  -5.646  -2.189  1.00  0.00     0.049 A 
ATOM     14  N   UNL     1       5.190  -7.508   0.173  1.00  0.00    -0.248 NA
ATOM     15  C   UNL     1       4.041  -5.880   1.385  1.00  0.00     0.031 C 
ATOM     16  C   UNL     1       5.365  -4.764  -3.352  1.00  0.00     0.029 A 
ATOM     17  N   UNL     1       5.825  -6.821  -2.605  1.00  0.00    -0.354 N 
ATOM     18  C   UNL     1       4.969  -7.964   1.467  1.00  0.00     0.074 A 
ATOM     19  C   UNL     1       4.305  -6.902   2.187  1.00  0.00     0.031 C 
ATOM     20  C   UNL     1       5.960  -5.433  -4.353  1.00  0.00     0.029 A 
ATOM     21  C   UNL     1       6.292  -6.780  -3.897  1.00  0.00     0.049 A 
ATOM     22  H   UNL     1       5.897  -7.617  -2.030  1.00  0.00     0.167 HD
ATOM     23  C   UNL     1       5.259  -9.173   2.000  1.00  0.00     0.034 A 
ATOM     24  C   UNL     1       6.917  -7.722  -4.633  1.00  0.00     0.034 A 
ATOM     25  C   UNL     1       5.835 -10.262   1.264  1.00  0.00     0.049 A 
ATOM     26  C   UNL     1       7.183  -9.074  -4.030  1.00  0.00     0.074 A 
ATOM     27  C   UNL     1       6.085 -11.551   1.700  1.00  0.00     0.029 A 
ATOM     28  N   UNL     1       6.232 -10.198  -0.060  1.00  0.00    -0.354 N 
ATOM     29  N   UNL     1       6.875  -9.515  -2.835  1.00  0.00    -0.248 NA
ATOM     30  C   UNL     1       7.859 -10.065  -4.881  1.00  0.00     0.031 C 
ATOM     31  C   UNL     1       6.632 -12.270   0.634  1.00  0.00     0.029 A 
ATOM     32  C   UNL     1       6.720 -11.427  -0.462  1.00  0.00     0.049 A 
ATOM     33  H   UNL     1       6.175  -9.397  -0.630  1.00  0.00     0.167 HD
ATOM     34  C   UNL     1       7.298 -10.839  -2.797  1.00  0.00     0.074 A 
ATOM     35  C   UNL     1       7.871 -11.134  -4.094  1.00  0.00     0.031 C 
ATOM     36  C   UNL     1       7.232 -11.722  -1.773  1.00  0.00     0.034 A 
BRANCH  23  37
ATOM     37  C   UNL     1       4.880  -9.425   3.432  1.00  0.00     0.023 A 
ATOM     38  C   UNL     1       3.537  -9.719   3.742  1.00  0.00     0.012 A 
ATOM     39  C   UNL     1       5.857  -9.480   4.444  1.00  0.00     0.148 A 
ATOM     40  C   UNL     1       3.170 -10.057   5.043  1.00  0.00     0.002 A 
ATOM     41  C   UNL     1       5.488  -9.848   5.732  1.00  0.00     0.091 A 
ATOM     42  F   UNL     1       7.125  -9.186   4.122  1.00  0.00    -0.205 F 
ATOM     43  C   UNL     1       4.145 -10.132   6.034  1.00  0.00     0.022 A 
BRANCH  41  44
ATOM     44  S   UNL     1       6.670 -10.031   7.072  1.00  0.00     0.127 S 
ATOM     45  O   UNL     1       6.204  -9.017   8.018  1.00  0.00    -0.237 OA
ATOM     46  O   UNL     1       6.440 -11.412   7.494  1.00  0.00    -0.237 OA
ATOM     47  O   UNL     1       7.982  -9.774   6.493  1.00  0.00    -0.744 OA
ENDBRANCH  41  44
ENDBRANCH  23  37
BRANCH  24  48
ATOM     48  C   UNL     1       7.261  -7.438  -6.053  1.00  0.00     0.023 A 
ATOM     49  C   UNL     1       6.478  -8.016  -7.071  1.00  0.00     0.012 A 
ATOM     50  C   UNL     1       8.313  -6.570  -6.399  1.00  0.00     0.148 A 
ATOM     51  C   UNL     1       6.747  -7.745  -8.413  1.00  0.00     0.002 A 
ATOM     52  C   UNL     1       8.551  -6.274  -7.736  1.00  0.00     0.091 A 
ATOM     53  F   UNL     1       9.048  -6.040  -5.411  1.00  0.00    -0.205 F 
ATOM     54  C   UNL     1       7.776  -6.868  -8.745  1.00  0.00     0.022 A 
BRANCH  52  55
ATOM     55  S   UNL     1       9.787  -5.080  -8.261  1.00  0.00     0.127 S 
ATOM     56  O   UNL     1      10.745  -5.931  -8.963  1.00  0.00    -0.237 OA
ATOM     57  O   UNL     1       9.002  -4.195  -9.122  1.00  0.00    -0.237 OA
ATOM     58  O   UNL     1      10.278  -4.456  -7.040  1.00  0.00    -0.744 OA
ENDBRANCH  52  55
ENDBRANCH  24  48
BRANCH  36  59
ATOM     59  C   UNL     1       7.774 -13.107  -1.991  1.00  0.00     0.023 A 
ATOM     60  C   UNL     1       9.162 -13.323  -1.899  1.00  0.00     0.012 A 
ATOM     61  C   UNL     1       6.903 -14.204  -2.136  1.00  0.00     0.148 A 
ATOM     62  C   UNL     1       9.678 -14.616  -1.951  1.00  0.00     0.002 A 
ATOM     63  C   UNL     1       7.423 -15.493  -2.155  1.00  0.00     0.091 A 
ATOM     64  F   UNL     1       5.587 -13.967  -2.227  1.00  0.00    -0.205 F 
ATOM     65  C   UNL     1       8.810 -15.700  -2.066  1.00  0.00     0.022 A 
BRANCH  63  66
ATOM     66  S   UNL     1       6.383 -16.956  -2.219  1.00  0.00     0.127 S 
ATOM     67  O   UNL     1       6.716 -17.500  -3.535  1.00  0.00    -0.237 OA
ATOM     68  O   UNL     1       6.883 -17.740  -1.090  1.00  0.00    -0.237 OA
ATOM     69  O   UNL     1       5.012 -16.485  -2.074  1.00  0.00    -0.744 OA
ENDBRANCH  63  66
ENDBRANCH  36  59
ENDBRANCH  10  11
ENDBRANCH   2   5
BRANCH   3  70
ATOM     70  C   UNL     1       4.704   1.185   0.334  1.00  0.00     0.118 C 
BRANCH  70  71
ATOM     71  C   UNL     1       5.133   2.273  -0.642  1.00  0.00     0.042 C 
BRANCH  71  72
ATOM     72  C   UNL     1       4.606   3.662  -0.316  1.00  0.00     0.118 C 
BRANCH  72  73
ATOM     73  N   UNL     1       5.084   4.170   0.962  1.00  0.00    -0.352 N 
ATOM     74  C   UNL     1       5.804   5.309   1.233  1.00  0.00     0.253 C 
ATOM     75  H   UNL     1       4.858   3.618   1.745  1.00  0.00     0.163 HD
ATOM     76  O   UNL     1       6.083   5.595   2.397  1.00  0.00    -0.269 OA
BRANCH  74  77
ATOM     77  C   UNL     1       6.151   6.230   0.133  1.00  0.00     0.066 A 
ATOM     78  C   UNL     1       5.088   6.833  -0.557  1.00  0.00     0.016 A 
ATOM     79  C   UNL     1       7.495   6.500  -0.159  1.00  0.00     0.084 A 
ATOM     80  C   UNL     1       5.354   7.682  -1.615  1.00  0.00     0.002 A 
ATOM     81  C   UNL     1       7.763   7.396  -1.219  1.00  0.00     0.015 A 
ATOM     82  N   UNL     1       8.500   5.918   0.537  1.00  0.00    -0.255 NA
ATOM     83  C   UNL     1       6.678   7.959  -1.944  1.00  0.00     0.011 A 
ATOM     84  C   UNL     1       9.124   7.678  -1.490  1.00  0.00     0.028 A 
ATOM     85  C   UNL     1       9.780   6.222   0.250  1.00  0.00     0.113 A 
ATOM     86  Br  UNL     1       9.670   8.880  -2.865  1.00  0.00    -0.050 Br
ATOM     87  C   UNL     1      10.143   7.094  -0.746  1.00  0.00     0.036 A 
ENDBRANCH  74  77
ENDBRANCH  72  73
ENDBRANCH  71  72
ENDBRANCH  70  71
ENDBRANCH   3  70
TORSDOF 13
