REMARK SMILES C[C@H](CC(=O)NCCCNC(=O)c1ccc(-c2c3nc(c(-c4cccc(S(=O)(=O)[O-])c4F)c4ccc([nH]4)c(-c4cccc(S(=O)(=O)[O-])c4F)c4nc(c(-c5cccc(S(=O)(=O)[O-])c5F)c5ccc2[nH]5)C=C4)C=C3)cc1)c1ccc(O)cc1
REMARK SMILES IDX 8 1 7 2 6 3 4 4 5 5 3 7 2 8 1 9 76 10 77 11 82 12 78 13
REMARK SMILES IDX 81 14 79 15 80 16 9 18 10 19 11 20 12 22 13 23 14 24 75 25
REMARK SMILES IDX 15 26 74 27 16 28 17 29 18 30 68 31 19 32 73 33 67 34 69 35
REMARK SMILES IDX 20 36 72 37 66 38 65 39 21 41 53 42 33 43 52 44 34 45 37 46
REMARK SMILES IDX 51 47 70 48 35 49 36 50 50 52 71 53 38 54 22 55 23 56 31 57
REMARK SMILES IDX 24 58 26 59 32 60 25 61 27 62 28 63 29 64 30 65 54 66 55 67
REMARK SMILES IDX 63 68 56 69 58 70 64 71 57 72 59 73 60 74 61 75 62 76 39 77
REMARK SMILES IDX 40 78 48 79 41 80 43 81 49 82 42 83 44 84 45 85 46 86 47 87
REMARK H PARENT 6 6 80 17 10 21 69 40 37 51
REMARK Flexibility Score: inf
ROOT
ATOM      1  C   UNL     1       2.665  -1.491   3.705  1.00  0.00     0.042 C 
ENDROOT
BRANCH   1   2
ATOM      2  C   UNL     1       2.686  -0.245   2.817  1.00  0.00     0.117 C 
BRANCH   2   3
ATOM      3  N   UNL     1       3.027  -0.507   1.423  1.00  0.00    -0.356 N 
ATOM      4  C   UNL     1       2.280  -0.456   0.283  1.00  0.00     0.220 C 
ATOM      5  O   UNL     1       2.850  -0.658  -0.792  1.00  0.00    -0.275 OA
ATOM      6  H   UNL     1       3.966  -0.766   1.280  1.00  0.00     0.163 HD
BRANCH   4   7
ATOM      7  C   UNL     1       0.790  -0.182   0.333  1.00  0.00     0.108 C 
BRANCH   7   8
ATOM      8  C   UNL     1      -0.052  -1.472   0.224  1.00  0.00     0.025 C 
ATOM      9  C   UNL     1       0.297  -2.428   1.371  1.00  0.00     0.013 C 
BRANCH   8  10
ATOM     10  C   UNL     1      -1.567  -1.270   0.239  1.00  0.00    -0.044 A 
ATOM     11  C   UNL     1      -2.187  -0.036   0.484  1.00  0.00     0.008 A 
ATOM     12  C   UNL     1      -2.391  -2.405   0.094  1.00  0.00     0.008 A 
ATOM     13  C   UNL     1      -3.572   0.041   0.664  1.00  0.00     0.046 A 
ATOM     14  C   UNL     1      -3.768  -2.336   0.304  1.00  0.00     0.046 A 
ATOM     15  C   UNL     1      -4.344  -1.112   0.610  1.00  0.00     0.115 A 
BRANCH  15  16
ATOM     16  O   UNL     1      -5.675  -1.013   0.888  1.00  0.00    -0.508 OA
ATOM     17  H   UNL     1      -6.049  -0.179   1.093  1.00  0.00     0.293 HD
ENDBRANCH  15  16
ENDBRANCH   8  10
ENDBRANCH   7   8
ENDBRANCH   4   7
ENDBRANCH   2   3
ENDBRANCH   1   2
BRANCH   1  18
ATOM     18  C   UNL     1       3.965  -2.286   3.733  1.00  0.00     0.118 C 
BRANCH  18  19
ATOM     19  N   UNL     1       4.867  -1.801   4.763  1.00  0.00    -0.352 N 
ATOM     20  C   UNL     1       5.141  -2.330   6.003  1.00  0.00     0.251 C 
ATOM     21  H   UNL     1       5.353  -0.974   4.543  1.00  0.00     0.163 HD
ATOM     22  O   UNL     1       5.706  -1.630   6.840  1.00  0.00    -0.269 OA
BRANCH  20  23
ATOM     23  C   UNL     1       4.759  -3.724   6.345  1.00  0.00     0.039 A 
ATOM     24  C   UNL     1       4.267  -3.996   7.626  1.00  0.00     0.014 A 
ATOM     25  C   UNL     1       4.944  -4.774   5.441  1.00  0.00     0.014 A 
ATOM     26  C   UNL     1       3.923  -5.306   7.982  1.00  0.00     0.010 A 
ATOM     27  C   UNL     1       4.529  -6.065   5.771  1.00  0.00     0.010 A 
ATOM     28  C   UNL     1       4.030  -6.350   7.050  1.00  0.00    -0.014 A 
BRANCH  28  29
ATOM     29  C   UNL     1       3.635  -7.744   7.394  1.00  0.00     0.031 A 
ATOM     30  C   UNL     1       4.657  -8.851   7.393  1.00  0.00     0.074 A 
ATOM     31  C   UNL     1       2.340  -8.034   7.631  1.00  0.00     0.049 A 
ATOM     32  N   UNL     1       4.492 -10.130   7.616  1.00  0.00    -0.248 NA
ATOM     33  C   UNL     1       6.044  -8.474   7.077  1.00  0.00     0.031 C 
ATOM     34  C   UNL     1       1.240  -7.070   7.604  1.00  0.00     0.029 A 
ATOM     35  N   UNL     1       1.727  -9.229   7.920  1.00  0.00    -0.354 N 
ATOM     36  C   UNL     1       5.740 -10.714   7.431  1.00  0.00     0.074 A 
ATOM     37  C   UNL     1       6.645  -9.654   7.042  1.00  0.00     0.031 C 
ATOM     38  C   UNL     1       0.090  -7.706   7.879  1.00  0.00     0.029 A 
ATOM     39  C   UNL     1       0.364  -9.128   8.069  1.00  0.00     0.049 A 
ATOM     40  H   UNL     1       2.218 -10.078   8.011  1.00  0.00     0.167 HD
ATOM     41  C   UNL     1       6.111 -12.007   7.599  1.00  0.00     0.034 A 
ATOM     42  C   UNL     1      -0.564 -10.071   8.327  1.00  0.00     0.034 A 
ATOM     43  C   UNL     1       5.221 -13.053   8.026  1.00  0.00     0.049 A 
ATOM     44  C   UNL     1      -0.129 -11.499   8.518  1.00  0.00     0.074 A 
ATOM     45  C   UNL     1       5.518 -14.374   8.314  1.00  0.00     0.029 A 
ATOM     46  N   UNL     1       3.855 -12.902   8.216  1.00  0.00    -0.354 N 
ATOM     47  N   UNL     1       1.081 -12.004   8.492  1.00  0.00    -0.248 NA
ATOM     48  C   UNL     1      -1.184 -12.483   8.801  1.00  0.00     0.031 C 
ATOM     49  C   UNL     1       4.328 -15.027   8.655  1.00  0.00     0.029 A 
ATOM     50  C   UNL     1       3.292 -14.108   8.600  1.00  0.00     0.049 A 
ATOM     51  H   UNL     1       3.359 -12.060   8.096  1.00  0.00     0.167 HD
ATOM     52  C   UNL     1       0.938 -13.355   8.787  1.00  0.00     0.074 A 
ATOM     53  C   UNL     1      -0.476 -13.586   9.006  1.00  0.00     0.031 C 
ATOM     54  C   UNL     1       1.889 -14.319   8.859  1.00  0.00     0.034 A 
BRANCH  41  55
ATOM     55  C   UNL     1       7.562 -12.348   7.366  1.00  0.00     0.023 A 
ATOM     56  C   UNL     1       8.537 -11.891   8.278  1.00  0.00     0.012 A 
ATOM     57  C   UNL     1       7.962 -13.135   6.269  1.00  0.00     0.148 A 
ATOM     58  C   UNL     1       9.889 -12.168   8.075  1.00  0.00     0.002 A 
ATOM     59  C   UNL     1       9.307 -13.446   6.098  1.00  0.00     0.091 A 
ATOM     60  F   UNL     1       7.029 -13.545   5.399  1.00  0.00    -0.205 F 
ATOM     61  C   UNL     1      10.272 -12.951   6.990  1.00  0.00     0.022 A 
BRANCH  59  62
ATOM     62  S   UNL     1       9.885 -14.514   4.774  1.00  0.00     0.127 S 
ATOM     63  O   UNL     1      10.417 -13.543   3.821  1.00  0.00    -0.237 OA
ATOM     64  O   UNL     1      10.901 -15.326   5.447  1.00  0.00    -0.237 OA
ATOM     65  O   UNL     1       8.716 -15.261   4.332  1.00  0.00    -0.744 OA
ENDBRANCH  59  62
ENDBRANCH  41  55
BRANCH  42  66
ATOM     66  C   UNL     1      -1.989  -9.674   8.508  1.00  0.00     0.023 A 
ATOM     67  C   UNL     1      -2.548  -9.710   9.801  1.00  0.00     0.012 A 
ATOM     68  C   UNL     1      -2.773  -9.213   7.433  1.00  0.00     0.148 A 
ATOM     69  C   UNL     1      -3.867  -9.313  10.017  1.00  0.00     0.002 A 
ATOM     70  C   UNL     1      -4.070  -8.769   7.664  1.00  0.00     0.091 A 
ATOM     71  F   UNL     1      -2.224  -9.195   6.210  1.00  0.00    -0.205 F 
ATOM     72  C   UNL     1      -4.624  -8.832   8.952  1.00  0.00     0.022 A 
BRANCH  70  73
ATOM     73  S   UNL     1      -5.080  -8.016   6.383  1.00  0.00     0.127 S 
ATOM     74  O   UNL     1      -6.147  -8.999   6.224  1.00  0.00    -0.237 OA
ATOM     75  O   UNL     1      -5.485  -6.762   7.017  1.00  0.00    -0.237 OA
ATOM     76  O   UNL     1      -4.201  -7.850   5.231  1.00  0.00    -0.744 OA
ENDBRANCH  70  73
ENDBRANCH  42  66
BRANCH  54  77
ATOM     77  C   UNL     1       1.446 -15.717   9.207  1.00  0.00     0.023 A 
ATOM     78  C   UNL     1       0.758 -16.488   8.250  1.00  0.00     0.012 A 
ATOM     79  C   UNL     1       1.779 -16.292  10.449  1.00  0.00     0.148 A 
ATOM     80  C   UNL     1       0.384 -17.802   8.533  1.00  0.00     0.002 A 
ATOM     81  C   UNL     1       1.445 -17.617  10.707  1.00  0.00     0.091 A 
ATOM     82  F   UNL     1       2.418 -15.536  11.353  1.00  0.00    -0.205 F 
ATOM     83  C   UNL     1       0.738 -18.369   9.755  1.00  0.00     0.022 A 
BRANCH  81  84
ATOM     84  S   UNL     1       1.939 -18.461  12.214  1.00  0.00     0.127 S 
ATOM     85  O   UNL     1       0.663 -18.590  12.916  1.00  0.00    -0.237 OA
ATOM     86  O   UNL     1       2.482 -19.719  11.701  1.00  0.00    -0.237 OA
ATOM     87  O   UNL     1       2.920 -17.597  12.856  1.00  0.00    -0.744 OA
ENDBRANCH  81  84
ENDBRANCH  54  77
ENDBRANCH  28  29
ENDBRANCH  20  23
ENDBRANCH  18  19
ENDBRANCH   1  18
TORSDOF 16
