REMARK SMILES C[C@]1(O)CC[C@@H]2[C@H]3CCC4=C/C(=N/OCC(=O)NCCCNC(=O)c5ccc(-c6c7nc(c(-c8cccc(S(=O)(=O)[O-])c8F)c8ccc([nH]8)c(-c8cccc(S(=O)(=O)[O-])c8F)c8nc(c(-c9cccc(S(=O)(=O)[O-])c9F)c9ccc6[nH]9)C=C8)C=C7)cc5)CC[C@@]4(C)[C@@H]3CC[C@]21C
REMARK SMILES IDX 20 1 19 2 18 3 16 4 17 5 15 7 14 8 13 9 1 10 2 11 4 12 95 13
REMARK SMILES IDX 5 14 6 15 94 16 96 17 7 18 93 19 8 20 92 21 9 22 90 23 10 24
REMARK SMILES IDX 89 25 91 26 11 27 88 28 12 29 3 30 21 32 22 33 23 34 24 36
REMARK SMILES IDX 25 37 26 38 87 39 27 40 86 41 28 42 29 43 30 44 80 45 31 46
REMARK SMILES IDX 85 47 79 48 81 49 32 50 84 51 78 52 77 53 33 55 65 56 45 57
REMARK SMILES IDX 64 58 46 59 49 60 63 61 82 62 47 63 48 64 62 66 83 67 50 68
REMARK SMILES IDX 34 69 35 70 43 71 36 72 38 73 44 74 37 75 39 76 40 77 41 78
REMARK SMILES IDX 42 79 66 80 67 81 75 82 68 83 70 84 76 85 69 86 71 87 72 88
REMARK SMILES IDX 73 89 74 90 51 91 52 92 60 93 53 94 55 95 61 96 54 97 56 98
REMARK SMILES IDX 57 99 58 100 59 101
REMARK H PARENT 18 6 3 31 22 35 81 54 49 65
REMARK Flexibility Score: inf
ROOT
ATOM      1  C   UNL     1      -8.782  10.034  -2.787  1.00  0.00     0.042 C 
ENDROOT
BRANCH   1   2
ATOM      2  C   UNL     1      -8.806  10.945  -1.563  1.00  0.00     0.117 C 
BRANCH   2   3
ATOM      3  N   UNL     1      -9.119  10.238  -0.337  1.00  0.00    -0.353 N 
ATOM      4  C   UNL     1      -8.284   9.930   0.700  1.00  0.00     0.260 C 
ATOM      5  O   UNL     1      -8.762   9.353   1.682  1.00  0.00    -0.271 OA
ATOM      6  H   UNL     1     -10.053   9.943  -0.238  1.00  0.00     0.163 HD
BRANCH   4   7
ATOM      7  C   UNL     1      -6.824  10.402   0.679  1.00  0.00     0.363 C 
BRANCH   7   8
ATOM      8  O   UNL     1      -6.001  10.081  -0.428  1.00  0.00    -0.385 OA
BRANCH   8   9
ATOM      9  N   UNL     1      -6.224   8.754  -0.800  1.00  0.00    -0.091 NA
ATOM     10  C   UNL     1       1.140   0.915  -0.236  1.00  0.00     0.042 C 
ATOM     11  C   UNL     1       0.335   1.917   0.622  1.00  0.00     0.068 C 
ATOM     12  C   UNL     1      -0.977   1.200   1.002  1.00  0.00     0.036 C 
ATOM     13  C   UNL     1      -0.131   3.247  -0.103  1.00  0.00    -0.001 C 
ATOM     14  C   UNL     1      -1.922   1.563  -0.145  1.00  0.00     0.007 C 
ATOM     15  C   UNL     1      -1.672   3.054  -0.191  1.00  0.00     0.001 C 
ATOM     16  C   UNL     1      -0.011   4.599   0.648  1.00  0.00     0.010 C 
ATOM     17  C   UNL     1       0.632   3.410  -1.442  1.00  0.00     0.015 C 
ATOM     18  C   UNL     1      -2.303   3.968  -1.225  1.00  0.00    -0.003 C 
ATOM     19  C   UNL     1      -0.736   5.753  -0.121  1.00  0.00     0.005 C 
ATOM     20  C   UNL     1      -3.771   3.623  -1.491  1.00  0.00     0.008 C 
ATOM     21  C   UNL     1      -2.169   5.422  -0.663  1.00  0.00     0.002 C 
ATOM     22  C   UNL     1      -4.398   4.614  -2.463  1.00  0.00     0.032 C 
ATOM     23  C   UNL     1      -2.792   6.487  -1.640  1.00  0.00    -0.008 C 
ATOM     24  C   UNL     1      -4.227   6.034  -1.973  1.00  0.00    -0.062 C 
ATOM     25  C   UNL     1      -2.793   7.879  -0.937  1.00  0.00     0.018 C 
ATOM     26  C   UNL     1      -1.998   6.612  -2.960  1.00  0.00     0.016 C 
ATOM     27  C   UNL     1      -5.315   6.805  -1.811  1.00  0.00     0.027 C 
ATOM     28  C   UNL     1      -3.825   8.841  -1.518  1.00  0.00     0.061 C 
ATOM     29  C   UNL     1      -5.180   8.201  -1.341  1.00  0.00     0.080 C 
BRANCH  11  30
ATOM     30  O   UNL     1       1.100   2.196   1.786  1.00  0.00    -0.390 OA
ATOM     31  H   UNL     1       1.369   1.363   2.205  1.00  0.00     0.211 HD
ENDBRANCH  11  30
ENDBRANCH   8   9
ENDBRANCH   7   8
ENDBRANCH   4   7
ENDBRANCH   2   3
ENDBRANCH   1   2
BRANCH   1  32
ATOM     32  C   UNL     1     -10.106   9.337  -3.085  1.00  0.00     0.118 C 
BRANCH  32  33
ATOM     33  N   UNL     1     -11.186  10.272  -3.381  1.00  0.00    -0.352 N 
ATOM     34  C   UNL     1     -11.973  10.389  -4.499  1.00  0.00     0.251 C 
ATOM     35  H   UNL     1     -11.381  10.920  -2.667  1.00  0.00     0.163 HD
ATOM     36  O   UNL     1     -12.717  11.365  -4.612  1.00  0.00    -0.269 OA
BRANCH  34  37
ATOM     37  C   UNL     1     -11.923   9.375  -5.574  1.00  0.00     0.039 A 
ATOM     38  C   UNL     1     -11.936   9.802  -6.906  1.00  0.00     0.014 A 
ATOM     39  C   UNL     1     -11.884   8.009  -5.283  1.00  0.00     0.014 A 
ATOM     40  C   UNL     1     -11.838   8.865  -7.939  1.00  0.00     0.010 A 
ATOM     41  C   UNL     1     -11.707   7.083  -6.309  1.00  0.00     0.010 A 
ATOM     42  C   UNL     1     -11.683   7.500  -7.649  1.00  0.00    -0.014 A 
BRANCH  42  43
ATOM     43  C   UNL     1     -11.469   6.499  -8.728  1.00  0.00     0.031 A 
ATOM     44  C   UNL     1     -12.454   5.381  -8.941  1.00  0.00     0.074 A 
ATOM     45  C   UNL     1     -10.340   6.547  -9.464  1.00  0.00     0.049 A 
ATOM     46  N   UNL     1     -12.400   4.384  -9.786  1.00  0.00    -0.248 NA
ATOM     47  C   UNL     1     -13.646   5.367  -8.076  1.00  0.00     0.031 C 
ATOM     48  C   UNL     1      -9.272   7.538  -9.310  1.00  0.00     0.029 A 
ATOM     49  N   UNL     1      -9.887   5.728 -10.469  1.00  0.00    -0.354 N 
ATOM     50  C   UNL     1     -13.525   3.608  -9.534  1.00  0.00     0.074 A 
ATOM     51  C   UNL     1     -14.228   4.231  -8.434  1.00  0.00     0.031 C 
ATOM     52  C   UNL     1      -8.295   7.273 -10.191  1.00  0.00     0.029 A 
ATOM     53  C   UNL     1      -8.644   6.073 -10.945  1.00  0.00     0.049 A 
ATOM     54  H   UNL     1     -10.404   4.965 -10.815  1.00  0.00     0.167 HD
ATOM     55  C   UNL     1     -13.950   2.493 -10.176  1.00  0.00     0.034 A 
ATOM     56  C   UNL     1      -7.864   5.484 -11.873  1.00  0.00     0.034 A 
ATOM     57  C   UNL     1     -13.266   1.892 -11.289  1.00  0.00     0.049 A 
ATOM     58  C   UNL     1      -8.367   4.255 -12.581  1.00  0.00     0.074 A 
ATOM     59  C   UNL     1     -13.659   0.808 -12.056  1.00  0.00     0.029 A 
ATOM     60  N   UNL     1     -12.043   2.312 -11.789  1.00  0.00    -0.354 N 
ATOM     61  N   UNL     1      -9.505   3.623 -12.428  1.00  0.00    -0.248 NA
ATOM     62  C   UNL     1      -7.494   3.678 -13.613  1.00  0.00     0.031 C 
ATOM     63  C   UNL     1     -12.656   0.552 -12.997  1.00  0.00     0.029 A 
ATOM     64  C   UNL     1     -11.659   1.501 -12.844  1.00  0.00     0.049 A 
ATOM     65  H   UNL     1     -11.525   3.074 -11.445  1.00  0.00     0.167 HD
ATOM     66  C   UNL     1      -9.502   2.599 -13.369  1.00  0.00     0.074 A 
ATOM     67  C   UNL     1      -8.256   2.708 -14.100  1.00  0.00     0.031 C 
ATOM     68  C   UNL     1     -10.440   1.648 -13.598  1.00  0.00     0.034 A 
BRANCH  55  69
ATOM     69  C   UNL     1     -15.244   1.870  -9.716  1.00  0.00     0.023 A 
ATOM     70  C   UNL     1     -16.464   2.534  -9.961  1.00  0.00     0.012 A 
ATOM     71  C   UNL     1     -15.261   0.603  -9.101  1.00  0.00     0.148 A 
ATOM     72  C   UNL     1     -17.675   1.966  -9.568  1.00  0.00     0.002 A 
ATOM     73  C   UNL     1     -16.476   0.021  -8.755  1.00  0.00     0.091 A 
ATOM     74  F   UNL     1     -14.092  -0.007  -8.860  1.00  0.00    -0.205 F 
ATOM     75  C   UNL     1     -17.682   0.707  -8.975  1.00  0.00     0.022 A 
BRANCH  73  76
ATOM     76  S   UNL     1     -16.599  -1.632  -8.063  1.00  0.00     0.127 S 
ATOM     77  O   UNL     1     -17.032  -1.347  -6.696  1.00  0.00    -0.237 OA
ATOM     78  O   UNL     1     -17.622  -2.244  -8.912  1.00  0.00    -0.237 OA
ATOM     79  O   UNL     1     -15.273  -2.221  -8.187  1.00  0.00    -0.744 OA
ENDBRANCH  73  76
ENDBRANCH  55  69
BRANCH  56  80
ATOM     80  C   UNL     1      -6.544   6.082 -12.227  1.00  0.00     0.023 A 
ATOM     81  C   UNL     1      -6.370   6.672 -13.494  1.00  0.00     0.012 A 
ATOM     82  C   UNL     1      -5.472   6.085 -11.314  1.00  0.00     0.148 A 
ATOM     83  C   UNL     1      -5.141   7.223 -13.859  1.00  0.00     0.002 A 
ATOM     84  C   UNL     1      -4.268   6.685 -11.663  1.00  0.00     0.091 A 
ATOM     85  F   UNL     1      -5.655   5.510 -10.117  1.00  0.00    -0.205 F 
ATOM     86  C   UNL     1      -4.094   7.238 -12.941  1.00  0.00     0.022 A 
BRANCH  84  87
ATOM     87  S   UNL     1      -2.908   6.865 -10.503  1.00  0.00     0.127 S 
ATOM     88  O   UNL     1      -1.907   5.968 -11.074  1.00  0.00    -0.237 OA
ATOM     89  O   UNL     1      -2.598   8.291 -10.623  1.00  0.00    -0.237 OA
ATOM     90  O   UNL     1      -3.440   6.473  -9.205  1.00  0.00    -0.744 OA
ENDBRANCH  84  87
ENDBRANCH  56  80
BRANCH  68  91
ATOM     91  C   UNL     1     -10.187   0.668 -14.715  1.00  0.00     0.023 A 
ATOM     92  C   UNL     1      -9.201  -0.328 -14.571  1.00  0.00     0.012 A 
ATOM     93  C   UNL     1     -10.982   0.690 -15.879  1.00  0.00     0.148 A 
ATOM     94  C   UNL     1      -8.988  -1.265 -15.582  1.00  0.00     0.002 A 
ATOM     95  C   UNL     1     -10.799  -0.279 -16.858  1.00  0.00     0.091 A 
ATOM     96  F   UNL     1     -11.904   1.656 -16.005  1.00  0.00    -0.205 F 
ATOM     97  C   UNL     1      -9.793  -1.248 -16.717  1.00  0.00     0.022 A 
BRANCH  95  98
ATOM     98  S   UNL     1     -11.853  -0.397 -18.308  1.00  0.00     0.127 S 
ATOM     99  O   UNL     1     -10.937   0.006 -19.374  1.00  0.00    -0.237 OA
ATOM    100  O   UNL     1     -12.211  -1.815 -18.314  1.00  0.00    -0.237 OA
ATOM    101  O   UNL     1     -12.969   0.509 -18.071  1.00  0.00    -0.744 OA
ENDBRANCH  95  98
ENDBRANCH  68  91
ENDBRANCH  42  43
ENDBRANCH  34  37
ENDBRANCH  32  33
ENDBRANCH   1  32
TORSDOF 16
