REMARK SMILES C[C@H](c1ccccc1)N1C(=O)c2ccc(C(=O)NCCCNC(=O)c3ccc(-c4c5nc(c(-c6cccc(S(=O)(=O)[O-])c6F)c6ccc([nH]6)c(-c6cccc(S(=O)(=O)[O-])c6F)c6nc(c(-c7cccc(S(=O)(=O)[O-])c7F)c7ccc4[nH]7)C=C6)C=C5)cc3)cc2C1=O
REMARK SMILES IDX 20 1 19 2 18 3 16 4 17 5 15 7 9 8 10 9 90 10 11 11 12 12
REMARK SMILES IDX 89 13 91 14 13 15 88 16 14 17 2 18 1 19 3 20 4 21 8 22 5 23
REMARK SMILES IDX 7 24 6 25 21 26 22 27 23 28 24 30 25 31 26 32 87 33 27 34
REMARK SMILES IDX 86 35 28 36 29 37 30 38 80 39 31 40 85 41 79 42 81 43 32 44
REMARK SMILES IDX 84 45 78 46 77 47 33 49 65 50 45 51 64 52 46 53 49 54 63 55
REMARK SMILES IDX 82 56 47 57 48 58 62 60 83 61 50 62 34 63 35 64 43 65 36 66
REMARK SMILES IDX 38 67 44 68 37 69 39 70 40 71 41 72 42 73 66 74 67 75 75 76
REMARK SMILES IDX 68 77 70 78 76 79 69 80 71 81 72 82 73 83 74 84 51 85 52 86
REMARK SMILES IDX 60 87 53 88 55 89 61 90 54 91 56 92 57 93 58 94 59 95
REMARK H PARENT 18 6 22 29 81 48 49 59
REMARK Flexibility Score: inf
ROOT
ATOM      1  C   UNL     1      -7.721  -1.121   4.400  1.00  0.00     0.042 C 
ENDROOT
BRANCH   1   2
ATOM      2  C   UNL     1      -7.246  -1.561   3.018  1.00  0.00     0.118 C 
BRANCH   2   3
ATOM      3  N   UNL     1      -7.775  -0.751   1.933  1.00  0.00    -0.352 N 
ATOM      4  C   UNL     1      -7.196   0.151   1.081  1.00  0.00     0.251 C 
ATOM      5  O   UNL     1      -7.913   0.754   0.283  1.00  0.00    -0.269 OA
ATOM      6  H   UNL     1      -8.740  -0.875   1.780  1.00  0.00     0.163 HD
BRANCH   4   7
ATOM      7  C   UNL     1      -5.748   0.465   1.102  1.00  0.00     0.040 A 
ATOM      8  N   UNL     1      -1.158   0.100   1.166  1.00  0.00    -0.267 N 
ATOM      9  C   UNL     1      -1.658   1.374   1.147  1.00  0.00     0.262 C 
ATOM     10  C   UNL     1      -2.172  -0.822   1.234  1.00  0.00     0.262 C 
ATOM     11  O   UNL     1      -1.098   2.451   1.221  1.00  0.00    -0.269 OA
ATOM     12  C   UNL     1      -3.108   1.259   1.077  1.00  0.00     0.053 A 
ATOM     13  C   UNL     1      -3.433  -0.080   1.172  1.00  0.00     0.054 A 
ATOM     14  O   UNL     1      -2.110  -2.033   1.338  1.00  0.00    -0.269 OA
ATOM     15  C   UNL     1      -4.064   2.242   0.932  1.00  0.00     0.015 A 
ATOM     16  C   UNL     1      -4.748  -0.515   1.176  1.00  0.00     0.028 A 
ATOM     17  C   UNL     1      -5.398   1.831   0.938  1.00  0.00     0.015 A 
BRANCH   8  18
ATOM     18  C   UNL     1       0.262  -0.261   1.179  1.00  0.00     0.121 C 
ATOM     19  C   UNL     1       0.984   0.257   2.426  1.00  0.00     0.037 C 
BRANCH  18  20
ATOM     20  C   UNL     1       0.967   0.120  -0.121  1.00  0.00    -0.025 A 
ATOM     21  C   UNL     1       1.233   1.456  -0.463  1.00  0.00     0.006 A 
ATOM     22  C   UNL     1       1.347  -0.879  -1.032  1.00  0.00     0.006 A 
ATOM     23  C   UNL     1       1.805   1.790  -1.691  1.00  0.00     0.000 A 
ATOM     24  C   UNL     1       1.948  -0.546  -2.251  1.00  0.00     0.000 A 
ATOM     25  C   UNL     1       2.161   0.789  -2.587  1.00  0.00     0.000 A 
ENDBRANCH  18  20
ENDBRANCH   8  18
ENDBRANCH   4   7
ENDBRANCH   2   3
ENDBRANCH   1   2
BRANCH   1  26
ATOM     26  C   UNL     1      -9.232  -1.121   4.617  1.00  0.00     0.118 C 
BRANCH  26  27
ATOM     27  N   UNL     1      -9.848  -2.421   4.390  1.00  0.00    -0.352 N 
ATOM     28  C   UNL     1     -10.516  -3.270   5.237  1.00  0.00     0.251 C 
ATOM     29  H   UNL     1      -9.771  -2.749   3.465  1.00  0.00     0.163 HD
ATOM     30  O   UNL     1     -10.807  -4.394   4.830  1.00  0.00    -0.269 OA
BRANCH  28  31
ATOM     31  C   UNL     1     -10.882  -2.878   6.620  1.00  0.00     0.039 A 
ATOM     32  C   UNL     1     -10.815  -3.850   7.627  1.00  0.00     0.014 A 
ATOM     33  C   UNL     1     -11.358  -1.602   6.931  1.00  0.00     0.014 A 
ATOM     34  C   UNL     1     -11.172  -3.529   8.941  1.00  0.00     0.010 A 
ATOM     35  C   UNL     1     -11.644  -1.263   8.255  1.00  0.00     0.010 A 
ATOM     36  C   UNL     1     -11.567  -2.224   9.274  1.00  0.00    -0.014 A 
BRANCH  36  37
ATOM     37  C   UNL     1     -11.899  -1.856  10.676  1.00  0.00     0.031 A 
ATOM     38  C   UNL     1     -13.292  -1.415  11.046  1.00  0.00     0.074 A 
ATOM     39  C   UNL     1     -10.927  -1.850  11.611  1.00  0.00     0.049 A 
ATOM     40  N   UNL     1     -13.756  -1.040  12.211  1.00  0.00    -0.248 NA
ATOM     41  C   UNL     1     -14.287  -1.361   9.962  1.00  0.00     0.031 C 
ATOM     42  C   UNL     1      -9.519  -2.169  11.366  1.00  0.00     0.029 A 
ATOM     43  N   UNL     1     -10.970  -1.544  12.948  1.00  0.00    -0.354 N 
ATOM     44  C   UNL     1     -15.079  -0.671  11.995  1.00  0.00     0.074 A 
ATOM     45  C   UNL     1     -15.336  -0.838  10.581  1.00  0.00     0.031 C 
ATOM     46  C   UNL     1      -8.835  -2.049  12.515  1.00  0.00     0.029 A 
ATOM     47  C   UNL     1      -9.748  -1.630  13.575  1.00  0.00     0.049 A 
ATOM     48  H   UNL     1     -11.797  -1.287  13.416  1.00  0.00     0.167 HD
ATOM     49  C   UNL     1     -16.008  -0.265  12.894  1.00  0.00     0.034 A 
ATOM     50  C   UNL     1      -9.402  -1.407  14.858  1.00  0.00     0.034 A 
ATOM     51  C   UNL     1     -15.770  -0.159  14.309  1.00  0.00     0.049 A 
ATOM     52  C   UNL     1     -10.470  -1.036  15.851  1.00  0.00     0.074 A 
ATOM     53  C   UNL     1     -16.672   0.150  15.313  1.00  0.00     0.029 A 
ATOM     54  N   UNL     1     -14.545  -0.364  14.923  1.00  0.00    -0.354 N 
ATOM     55  N   UNL     1     -11.754  -0.861  15.654  1.00  0.00    -0.248 NA
ATOM     56  C   UNL     1     -10.050  -0.876  17.251  1.00  0.00     0.031 C 
ATOM     57  C   UNL     1     -15.988   0.137  16.535  1.00  0.00     0.029 A 
ATOM     58  C   UNL     1     -14.664  -0.190  16.291  1.00  0.00     0.049 A 
ATOM     59  H   UNL     1     -13.711  -0.600  14.454  1.00  0.00     0.167 HD
ATOM     60  C   UNL     1     -12.300  -0.603  16.906  1.00  0.00     0.074 A 
ATOM     61  C   UNL     1     -11.211  -0.669  17.859  1.00  0.00     0.031 C 
ATOM     62  C   UNL     1     -13.584  -0.317  17.235  1.00  0.00     0.034 A 
BRANCH  49  63
ATOM     63  C   UNL     1     -17.396   0.025  12.383  1.00  0.00     0.023 A 
ATOM     64  C   UNL     1     -18.225  -1.049  11.999  1.00  0.00     0.012 A 
ATOM     65  C   UNL     1     -17.901   1.339  12.337  1.00  0.00     0.148 A 
ATOM     66  C   UNL     1     -19.523  -0.818  11.546  1.00  0.00     0.002 A 
ATOM     67  C   UNL     1     -19.210   1.557  11.921  1.00  0.00     0.091 A 
ATOM     68  F   UNL     1     -17.092   2.349  12.684  1.00  0.00    -0.205 F 
ATOM     69  C   UNL     1     -20.018   0.482  11.516  1.00  0.00     0.022 A 
BRANCH  67  70
ATOM     70  S   UNL     1     -19.963   3.189  11.918  1.00  0.00     0.127 S 
ATOM     71  O   UNL     1     -19.969   3.509  10.491  1.00  0.00    -0.237 OA
ATOM     72  O   UNL     1     -21.285   2.924  12.488  1.00  0.00    -0.237 OA
ATOM     73  O   UNL     1     -19.105   4.025  12.746  1.00  0.00    -0.744 OA
ENDBRANCH  67  70
ENDBRANCH  49  63
BRANCH  50  74
ATOM     74  C   UNL     1      -7.994  -1.628  15.293  1.00  0.00     0.023 A 
ATOM     75  C   UNL     1      -7.691  -2.747  16.092  1.00  0.00     0.012 A 
ATOM     76  C   UNL     1      -6.953  -0.770  14.890  1.00  0.00     0.148 A 
ATOM     77  C   UNL     1      -6.381  -2.994  16.505  1.00  0.00     0.002 A 
ATOM     78  C   UNL     1      -5.642  -1.051  15.261  1.00  0.00     0.091 A 
ATOM     79  F   UNL     1      -7.262   0.300  14.143  1.00  0.00    -0.205 F 
ATOM     80  C   UNL     1      -5.356  -2.153  16.080  1.00  0.00     0.022 A 
BRANCH  78  81
ATOM     81  S   UNL     1      -4.250  -0.097  14.643  1.00  0.00     0.127 S 
ATOM     82  O   UNL     1      -3.915   0.728  15.800  1.00  0.00    -0.237 OA
ATOM     83  O   UNL     1      -3.276  -1.143  14.329  1.00  0.00    -0.237 OA
ATOM     84  O   UNL     1      -4.757   0.613  13.476  1.00  0.00    -0.744 OA
ENDBRANCH  78  81
ENDBRANCH  50  74
BRANCH  62  85
ATOM     85  C   UNL     1     -13.894  -0.075  18.689  1.00  0.00     0.023 A 
ATOM     86  C   UNL     1     -13.494   1.134  19.292  1.00  0.00     0.012 A 
ATOM     87  C   UNL     1     -14.637  -1.009  19.437  1.00  0.00     0.148 A 
ATOM     88  C   UNL     1     -13.802   1.396  20.626  1.00  0.00     0.002 A 
ATOM     89  C   UNL     1     -14.977  -0.721  20.754  1.00  0.00     0.091 A 
ATOM     90  F   UNL     1     -14.989  -2.164  18.854  1.00  0.00    -0.205 F 
ATOM     91  C   UNL     1     -14.553   0.475  21.353  1.00  0.00     0.022 A 
BRANCH  89  92
ATOM     92  S   UNL     1     -16.017  -1.816  21.728  1.00  0.00     0.127 S 
ATOM     93  O   UNL     1     -15.030  -2.526  22.538  1.00  0.00    -0.237 OA
ATOM     94  O   UNL     1     -16.855  -0.876  22.474  1.00  0.00    -0.237 OA
ATOM     95  O   UNL     1     -16.745  -2.628  20.762  1.00  0.00    -0.744 OA
ENDBRANCH  89  92
ENDBRANCH  62  85
ENDBRANCH  36  37
ENDBRANCH  28  31
ENDBRANCH  26  27
ENDBRANCH   1  26
TORSDOF 15
