REMARK SMILES Cc1ccc(Cl)c(Nc2ccccc2C(=O)NCCCNC(=O)c2ccc(-c3c4nc(c(-c5cccc(S(=O)(=O)[O-])c5F)c5ccc([nH]5)c(-c5cccc(S(=O)(=O)[O-])c5F)c5nc(c(-c6cccc(S(=O)(=O)[O-])c6F)c6ccc3[nH]6)C=C5)C=C4)cc2)c1Cl
REMARK SMILES IDX 19 1 18 2 17 3 15 4 16 5 14 7 9 8 10 9 11 10 13 11 12 12
REMARK SMILES IDX 8 13 7 15 1 16 2 17 3 18 87 19 4 20 88 21 5 22 6 23 20 24
REMARK SMILES IDX 21 25 22 26 23 28 24 29 25 30 86 31 26 32 85 33 27 34 28 35
REMARK SMILES IDX 29 36 79 37 30 38 84 39 78 40 80 41 31 42 83 43 77 44 76 45
REMARK SMILES IDX 32 47 64 48 44 49 63 50 45 51 48 52 62 53 81 54 46 55 47 56
REMARK SMILES IDX 61 58 82 59 49 60 33 61 34 62 42 63 35 64 37 65 43 66 36 67
REMARK SMILES IDX 38 68 39 69 40 70 41 71 65 72 66 73 74 74 67 75 69 76 75 77
REMARK SMILES IDX 68 78 70 79 71 80 72 81 73 82 50 83 51 84 59 85 52 86 54 87
REMARK SMILES IDX 60 88 53 89 55 90 56 91 57 92 58 93
REMARK H PARENT 17 6 8 14 21 27 80 46 48 57
REMARK Flexibility Score: inf
ROOT
ATOM      1  C   UNL     1      -2.207  -1.421   2.366  1.00  0.00     0.042 C 
ENDROOT
BRANCH   1   2
ATOM      2  C   UNL     1      -0.969  -1.532   1.506  1.00  0.00     0.118 C 
BRANCH   2   3
ATOM      3  N   UNL     1       0.299  -1.583   2.187  1.00  0.00    -0.352 N 
ATOM      4  C   UNL     1       1.486  -2.116   1.739  1.00  0.00     0.253 C 
ATOM      5  O   UNL     1       2.505  -1.843   2.380  1.00  0.00    -0.269 OA
ATOM      6  H   UNL     1       0.319  -1.186   3.088  1.00  0.00     0.163 HD
BRANCH   4   7
ATOM      7  C   UNL     1       1.574  -3.121   0.631  1.00  0.00     0.063 A 
ATOM      8  C   UNL     1       0.968  -3.098  -0.645  1.00  0.00     0.051 A 
ATOM      9  C   UNL     1       1.105  -4.249  -1.459  1.00  0.00     0.027 A 
ATOM     10  C   UNL     1       1.872  -5.350  -1.077  1.00  0.00     0.002 A 
ATOM     11  C   UNL     1       2.373  -4.236   0.986  1.00  0.00     0.016 A 
ATOM     12  C   UNL     1       2.531  -5.333   0.140  1.00  0.00     0.001 A 
BRANCH   8  13
ATOM     13  N   UNL     1       0.300  -2.026  -1.277  1.00  0.00    -0.352 N 
ATOM     14  H   UNL     1      -0.418  -2.329  -1.879  1.00  0.00     0.167 HD
BRANCH  13  15
ATOM     15  C   UNL     1       0.424  -0.615  -1.247  1.00  0.00     0.077 A 
ATOM     16  C   UNL     1       2.795   2.195  -0.147  1.00  0.00     0.046 C 
ATOM     17  C   UNL     1       1.570   1.462  -0.621  1.00  0.00    -0.030 A 
ATOM     18  C   UNL     1       0.366   2.169  -0.756  1.00  0.00     0.006 A 
ATOM     19  C   UNL     1       1.601   0.079  -0.907  1.00  0.00     0.069 A 
ATOM     20  C   UNL     1      -0.783   1.525  -1.198  1.00  0.00     0.023 A 
ATOM     21  Cl  UNL     1       3.148  -0.717  -0.966  1.00  0.00    -0.082 Cl
ATOM     22  C   UNL     1      -0.751   0.155  -1.448  1.00  0.00     0.066 A 
ATOM     23  Cl  UNL     1      -2.241  -0.611  -1.907  1.00  0.00    -0.082 Cl
ENDBRANCH  13  15
ENDBRANCH   8  13
ENDBRANCH   4   7
ENDBRANCH   2   3
ENDBRANCH   1   2
BRANCH   1  24
ATOM     24  C   UNL     1      -2.398  -0.077   3.060  1.00  0.00     0.118 C 
BRANCH  24  25
ATOM     25  N   UNL     1      -2.395   1.092   2.175  1.00  0.00    -0.352 N 
ATOM     26  C   UNL     1      -3.390   1.967   1.785  1.00  0.00     0.251 C 
ATOM     27  H   UNL     1      -1.514   1.291   1.783  1.00  0.00     0.163 HD
ATOM     28  O   UNL     1      -3.139   2.831   0.955  1.00  0.00    -0.269 OA
BRANCH  26  29
ATOM     29  C   UNL     1      -4.761   1.850   2.335  1.00  0.00     0.039 A 
ATOM     30  C   UNL     1      -5.864   2.066   1.500  1.00  0.00     0.014 A 
ATOM     31  C   UNL     1      -4.966   1.519   3.669  1.00  0.00     0.014 A 
ATOM     32  C   UNL     1      -7.158   1.834   1.982  1.00  0.00     0.010 A 
ATOM     33  C   UNL     1      -6.230   1.146   4.101  1.00  0.00     0.010 A 
ATOM     34  C   UNL     1      -7.347   1.314   3.272  1.00  0.00    -0.014 A 
BRANCH  34  35
ATOM     35  C   UNL     1      -8.685   0.946   3.807  1.00  0.00     0.031 A 
ATOM     36  C   UNL     1      -9.155   1.540   5.111  1.00  0.00     0.074 A 
ATOM     37  C   UNL     1      -9.404  -0.029   3.214  1.00  0.00     0.049 A 
ATOM     38  N   UNL     1     -10.187   1.218   5.845  1.00  0.00    -0.248 NA
ATOM     39  C   UNL     1      -8.311   2.595   5.700  1.00  0.00     0.031 C 
ATOM     40  C   UNL     1      -9.008  -0.762   2.009  1.00  0.00     0.029 A 
ATOM     41  N   UNL     1     -10.599  -0.602   3.572  1.00  0.00    -0.354 N 
ATOM     42  C   UNL     1     -10.077   1.977   7.005  1.00  0.00     0.074 A 
ATOM     43  C   UNL     1      -8.849   2.732   6.901  1.00  0.00     0.031 C 
ATOM     44  C   UNL     1      -9.941  -1.686   1.729  1.00  0.00     0.029 A 
ATOM     45  C   UNL     1     -10.982  -1.637   2.750  1.00  0.00     0.049 A 
ATOM     46  H   UNL     1     -11.131  -0.302   4.344  1.00  0.00     0.167 HD
ATOM     47  C   UNL     1     -10.939   2.075   8.046  1.00  0.00     0.034 A 
ATOM     48  C   UNL     1     -12.046  -2.462   2.816  1.00  0.00     0.034 A 
ATOM     49  C   UNL     1     -12.196   1.381   8.103  1.00  0.00     0.049 A 
ATOM     50  C   UNL     1     -13.046  -2.267   3.922  1.00  0.00     0.074 A 
ATOM     51  C   UNL     1     -13.201   1.492   9.045  1.00  0.00     0.029 A 
ATOM     52  N   UNL     1     -12.622   0.448   7.169  1.00  0.00    -0.354 N 
ATOM     53  N   UNL     1     -13.007  -1.428   4.929  1.00  0.00    -0.248 NA
ATOM     54  C   UNL     1     -14.256  -3.101   3.881  1.00  0.00     0.031 C 
ATOM     55  C   UNL     1     -14.231   0.615   8.688  1.00  0.00     0.029 A 
ATOM     56  C   UNL     1     -13.876  -0.026   7.510  1.00  0.00     0.049 A 
ATOM     57  H   UNL     1     -12.107   0.163   6.380  1.00  0.00     0.167 HD
ATOM     58  C   UNL     1     -14.197  -1.609   5.625  1.00  0.00     0.074 A 
ATOM     59  C   UNL     1     -14.945  -2.624   4.910  1.00  0.00     0.031 C 
ATOM     60  C   UNL     1     -14.625  -1.002   6.759  1.00  0.00     0.034 A 
BRANCH  47  61
ATOM     61  C   UNL     1     -10.572   3.018   9.164  1.00  0.00     0.023 A 
ATOM     62  C   UNL     1     -10.541   4.409   8.921  1.00  0.00     0.012 A 
ATOM     63  C   UNL     1     -10.262   2.540  10.452  1.00  0.00     0.148 A 
ATOM     64  C   UNL     1     -10.149   5.300   9.919  1.00  0.00     0.002 A 
ATOM     65  C   UNL     1      -9.923   3.441  11.457  1.00  0.00     0.091 A 
ATOM     66  F   UNL     1     -10.273   1.217  10.666  1.00  0.00    -0.205 F 
ATOM     67  C   UNL     1      -9.848   4.817  11.188  1.00  0.00     0.022 A 
BRANCH  65  68
ATOM     68  S   UNL     1      -9.604   2.924  13.148  1.00  0.00     0.127 S 
ATOM     69  O   UNL     1      -8.147   3.027  13.219  1.00  0.00    -0.237 OA
ATOM     70  O   UNL     1     -10.324   3.935  13.923  1.00  0.00    -0.237 OA
ATOM     71  O   UNL     1     -10.147   1.577  13.261  1.00  0.00    -0.744 OA
ENDBRANCH  65  68
ENDBRANCH  47  61
BRANCH  48  72
ATOM     72  C   UNL     1     -12.248  -3.486   1.752  1.00  0.00     0.023 A 
ATOM     73  C   UNL     1     -13.256  -3.289   0.788  1.00  0.00     0.012 A 
ATOM     74  C   UNL     1     -11.403  -4.607   1.643  1.00  0.00     0.148 A 
ATOM     75  C   UNL     1     -13.433  -4.200  -0.253  1.00  0.00     0.002 A 
ATOM     76  C   UNL     1     -11.549  -5.482   0.572  1.00  0.00     0.091 A 
ATOM     77  F   UNL     1     -10.453  -4.778   2.573  1.00  0.00    -0.205 F 
ATOM     78  C   UNL     1     -12.573  -5.289  -0.368  1.00  0.00     0.022 A 
BRANCH  76  79
ATOM     79  S   UNL     1     -10.405  -6.832   0.261  1.00  0.00     0.127 S 
ATOM     80  O   UNL     1     -11.250  -8.001   0.491  1.00  0.00    -0.237 OA
ATOM     81  O   UNL     1     -10.041  -6.601  -1.137  1.00  0.00    -0.237 OA
ATOM     82  O   UNL     1      -9.311  -6.649   1.206  1.00  0.00    -0.744 OA
ENDBRANCH  76  79
ENDBRANCH  48  72
BRANCH  60  83
ATOM     83  C   UNL     1     -15.979  -1.392   7.290  1.00  0.00     0.023 A 
ATOM     84  C   UNL     1     -16.153  -2.643   7.913  1.00  0.00     0.012 A 
ATOM     85  C   UNL     1     -17.055  -0.484   7.246  1.00  0.00     0.148 A 
ATOM     86  C   UNL     1     -17.386  -2.997   8.459  1.00  0.00     0.002 A 
ATOM     87  C   UNL     1     -18.266  -0.823   7.835  1.00  0.00     0.091 A 
ATOM     88  F   UNL     1     -16.873   0.694   6.631  1.00  0.00    -0.205 F 
ATOM     89  C   UNL     1     -18.438  -2.083   8.431  1.00  0.00     0.022 A 
BRANCH  87  90
ATOM     90  S   UNL     1     -19.642   0.328   7.933  1.00  0.00     0.127 S 
ATOM     91  O   UNL     1     -20.563  -0.224   6.940  1.00  0.00    -0.237 OA
ATOM     92  O   UNL     1     -20.078   0.175   9.321  1.00  0.00    -0.237 OA
ATOM     93  O   UNL     1     -19.090   1.638   7.616  1.00  0.00    -0.744 OA
ENDBRANCH  87  90
ENDBRANCH  60  83
ENDBRANCH  34  35
ENDBRANCH  26  29
ENDBRANCH  24  25
ENDBRANCH   1  24
TORSDOF 15
