REMARK SMILES C=C(CC)C[C@@]1(C(=O)NCCCNC(=O)c2ccc(-c3c4nc(c(-c5cccc(S(=O)(=O)[O-])c5F)c5ccc([nH]5)c(-c5cccc(S(=O)(=O)[O-])c5F)c5nc(c(-c6cccc(S(=O)(=O)[O-])c6F)c6ccc3[nH]6)C=C5)C=C4)cc2)C[C@H]2CC[C@@H]1C2
REMARK SMILES IDX 11 1 10 2 9 3 7 4 8 5 6 7 79 8 83 9 80 10 82 11 84 12 81 13
REMARK SMILES IDX 5 14 2 15 1 16 3 17 4 18 12 19 13 20 14 21 15 23 16 24 17 25
REMARK SMILES IDX 78 26 18 27 77 28 19 29 20 30 21 31 71 32 22 33 76 34 70 35
REMARK SMILES IDX 72 36 23 37 75 38 69 39 68 40 24 42 56 43 36 44 55 45 37 46
REMARK SMILES IDX 40 47 54 48 73 49 38 50 39 51 53 53 74 54 41 55 25 56 26 57
REMARK SMILES IDX 34 58 27 59 29 60 35 61 28 62 30 63 31 64 32 65 33 66 57 67
REMARK SMILES IDX 58 68 66 69 59 70 61 71 67 72 60 73 62 74 63 75 64 76 65 77
REMARK SMILES IDX 42 78 43 79 51 80 44 81 46 82 52 83 45 84 47 85 48 86 49 87
REMARK SMILES IDX 50 88
REMARK H PARENT 9 6 13 22 72 41 40 52
REMARK Flexibility Score: inf
ROOT
ATOM      1  C   UNL     1       1.413  -2.463  -0.866  1.00  0.00     0.042 C 
ENDROOT
BRANCH   1   2
ATOM      2  C   UNL     1       1.513  -2.061  -2.337  1.00  0.00     0.117 C 
BRANCH   2   3
ATOM      3  N   UNL     1       0.580  -0.996  -2.634  1.00  0.00    -0.356 N 
ATOM      4  C   UNL     1       0.644   0.353  -2.574  1.00  0.00     0.226 C 
ATOM      5  O   UNL     1      -0.479   0.883  -2.583  1.00  0.00    -0.274 OA
ATOM      6  H   UNL     1      -0.293  -1.325  -2.949  1.00  0.00     0.163 HD
BRANCH   4   7
ATOM      7  C   UNL     1       1.935   1.229  -2.658  1.00  0.00     0.056 C 
ATOM      8  C   UNL     1       1.584   2.692  -2.207  1.00  0.00     0.021 C 
ATOM      9  C   UNL     1       2.237   1.480  -4.195  1.00  0.00     0.005 C 
ATOM     10  C   UNL     1       1.700   3.525  -3.501  1.00  0.00    -0.010 C 
ATOM     11  C   UNL     1       3.539   2.289  -4.418  1.00  0.00     0.005 C 
ATOM     12  C   UNL     1       1.218   2.560  -4.579  1.00  0.00     0.008 C 
ATOM     13  C   UNL     1       3.190   3.672  -3.849  1.00  0.00     0.004 C 
BRANCH   7  14
ATOM     14  C   UNL     1       3.219   0.711  -1.952  1.00  0.00     0.047 C 
BRANCH  14  15
ATOM     15  C   UNL     1       3.257   0.214  -0.525  1.00  0.00    -0.077 C 
ATOM     16  C   UNL     1       2.300   0.482   0.381  1.00  0.00     0.008 C 
BRANCH  15  17
ATOM     17  C   UNL     1       4.510  -0.559  -0.102  1.00  0.00     0.027 C 
ATOM     18  C   UNL     1       5.007  -1.669  -1.034  1.00  0.00     0.008 C 
ENDBRANCH  15  17
ENDBRANCH  14  15
ENDBRANCH   7  14
ENDBRANCH   4   7
ENDBRANCH   2   3
ENDBRANCH   1   2
BRANCH   1  19
ATOM     19  C   UNL     1       1.010  -3.901  -0.592  1.00  0.00     0.118 C 
BRANCH  19  20
ATOM     20  N   UNL     1       1.850  -4.896  -1.239  1.00  0.00    -0.352 N 
ATOM     21  C   UNL     1       2.496  -6.013  -0.767  1.00  0.00     0.251 C 
ATOM     22  H   UNL     1       1.981  -4.738  -2.201  1.00  0.00     0.163 HD
ATOM     23  O   UNL     1       3.159  -6.669  -1.571  1.00  0.00    -0.269 OA
BRANCH  21  24
ATOM     24  C   UNL     1       2.455  -6.434   0.659  1.00  0.00     0.039 A 
ATOM     25  C   UNL     1       3.534  -7.173   1.163  1.00  0.00     0.014 A 
ATOM     26  C   UNL     1       1.387  -6.152   1.508  1.00  0.00     0.014 A 
ATOM     27  C   UNL     1       3.559  -7.569   2.506  1.00  0.00     0.010 A 
ATOM     28  C   UNL     1       1.478  -6.418   2.872  1.00  0.00     0.010 A 
ATOM     29  C   UNL     1       2.548  -7.161   3.386  1.00  0.00    -0.014 A 
BRANCH  29  30
ATOM     30  C   UNL     1       2.556  -7.526   4.829  1.00  0.00     0.031 A 
ATOM     31  C   UNL     1       1.385  -8.267   5.430  1.00  0.00     0.074 A 
ATOM     32  C   UNL     1       3.567  -7.118   5.623  1.00  0.00     0.049 A 
ATOM     33  N   UNL     1       1.162  -8.593   6.677  1.00  0.00    -0.248 NA
ATOM     34  C   UNL     1       0.298  -8.657   4.514  1.00  0.00     0.031 C 
ATOM     35  C   UNL     1       4.720  -6.325   5.188  1.00  0.00     0.029 A 
ATOM     36  N   UNL     1       3.777  -7.295   6.968  1.00  0.00    -0.354 N 
ATOM     37  C   UNL     1      -0.103  -9.172   6.701  1.00  0.00     0.074 A 
ATOM     38  C   UNL     1      -0.622  -9.103   5.354  1.00  0.00     0.031 C 
ATOM     39  C   UNL     1       5.527  -6.107   6.239  1.00  0.00     0.029 A 
ATOM     40  C   UNL     1       4.933  -6.707   7.429  1.00  0.00     0.049 A 
ATOM     41  H   UNL     1       3.160  -7.795   7.548  1.00  0.00     0.167 HD
ATOM     42  C   UNL     1      -0.761  -9.748   7.735  1.00  0.00     0.034 A 
ATOM     43  C   UNL     1       5.455  -6.654   8.670  1.00  0.00     0.034 A 
ATOM     44  C   UNL     1      -0.215  -9.871   9.059  1.00  0.00     0.049 A 
ATOM     45  C   UNL     1       4.730  -7.341   9.796  1.00  0.00     0.074 A 
ATOM     46  C   UNL     1      -0.755 -10.517  10.157  1.00  0.00     0.029 A 
ATOM     47  N   UNL     1       0.998  -9.336   9.465  1.00  0.00    -0.354 N 
ATOM     48  N   UNL     1       3.602  -8.008   9.766  1.00  0.00    -0.248 NA
ATOM     49  C   UNL     1       5.368  -7.299  11.119  1.00  0.00     0.031 C 
ATOM     50  C   UNL     1       0.121 -10.348  11.235  1.00  0.00     0.029 A 
ATOM     51  C   UNL     1       1.222  -9.629  10.799  1.00  0.00     0.049 A 
ATOM     52  H   UNL     1       1.609  -8.822   8.889  1.00  0.00     0.167 HD
ATOM     53  C   UNL     1       3.415  -8.500  11.053  1.00  0.00     0.074 A 
ATOM     54  C   UNL     1       4.557  -8.067  11.833  1.00  0.00     0.031 C 
ATOM     55  C   UNL     1       2.389  -9.235  11.547  1.00  0.00     0.034 A 
BRANCH  42  56
ATOM     56  C   UNL     1      -2.121 -10.340   7.456  1.00  0.00     0.023 A 
ATOM     57  C   UNL     1      -2.232 -11.479   6.630  1.00  0.00     0.012 A 
ATOM     58  C   UNL     1      -3.286  -9.792   8.028  1.00  0.00     0.148 A 
ATOM     59  C   UNL     1      -3.479 -12.028   6.333  1.00  0.00     0.002 A 
ATOM     60  C   UNL     1      -4.521 -10.377   7.771  1.00  0.00     0.091 A 
ATOM     61  F   UNL     1      -3.169  -8.700   8.797  1.00  0.00    -0.205 F 
ATOM     62  C   UNL     1      -4.621 -11.483   6.911  1.00  0.00     0.022 A 
BRANCH  60  63
ATOM     63  S   UNL     1      -6.043  -9.806   8.535  1.00  0.00     0.127 S 
ATOM     64  O   UNL     1      -6.726  -9.183   7.402  1.00  0.00    -0.237 OA
ATOM     65  O   UNL     1      -6.645 -11.057   8.996  1.00  0.00    -0.237 OA
ATOM     66  O   UNL     1      -5.641  -8.898   9.600  1.00  0.00    -0.744 OA
ENDBRANCH  60  63
ENDBRANCH  42  56
BRANCH  43  67
ATOM     67  C   UNL     1       6.776  -6.000   8.895  1.00  0.00     0.023 A 
ATOM     68  C   UNL     1       7.895  -6.800   9.198  1.00  0.00     0.012 A 
ATOM     69  C   UNL     1       6.940  -4.606   8.776  1.00  0.00     0.148 A 
ATOM     70  C   UNL     1       9.148  -6.222   9.410  1.00  0.00     0.002 A 
ATOM     71  C   UNL     1       8.201  -4.043   8.935  1.00  0.00     0.091 A 
ATOM     72  F   UNL     1       5.862  -3.862   8.493  1.00  0.00    -0.205 F 
ATOM     73  C   UNL     1       9.303  -4.846   9.269  1.00  0.00     0.022 A 
BRANCH  71  74
ATOM     74  S   UNL     1       8.527  -2.299   8.649  1.00  0.00     0.127 S 
ATOM     75  O   UNL     1       8.858  -1.832   9.991  1.00  0.00    -0.237 OA
ATOM     76  O   UNL     1       9.652  -2.353   7.717  1.00  0.00    -0.237 OA
ATOM     77  O   UNL     1       7.298  -1.757   8.078  1.00  0.00    -0.744 OA
ENDBRANCH  71  74
ENDBRANCH  43  67
BRANCH  55  78
ATOM     78  C   UNL     1       2.467  -9.666  12.988  1.00  0.00     0.023 A 
ATOM     79  C   UNL     1       2.289  -8.722  14.018  1.00  0.00     0.012 A 
ATOM     80  C   UNL     1       2.639 -11.025  13.317  1.00  0.00     0.148 A 
ATOM     81  C   UNL     1       2.317  -9.118  15.355  1.00  0.00     0.002 A 
ATOM     82  C   UNL     1       2.612 -11.421  14.649  1.00  0.00     0.091 A 
ATOM     83  F   UNL     1       2.824 -11.906  12.323  1.00  0.00    -0.205 F 
ATOM     84  C   UNL     1       2.466 -10.468  15.669  1.00  0.00     0.022 A 
BRANCH  82  85
ATOM     85  S   UNL     1       2.693 -13.146  15.143  1.00  0.00     0.127 S 
ATOM     86  O   UNL     1       4.024 -13.221  15.743  1.00  0.00    -0.237 OA
ATOM     87  O   UNL     1       1.587 -13.246  16.096  1.00  0.00    -0.237 OA
ATOM     88  O   UNL     1       2.514 -13.923  13.924  1.00  0.00    -0.744 OA
ENDBRANCH  82  85
ENDBRANCH  55  78
ENDBRANCH  29  30
ENDBRANCH  21  24
ENDBRANCH  19  20
ENDBRANCH   1  19
TORSDOF 16
