REMARK SMILES C[C@](O)(C(=O)NCCCNC(=O)c1ccc(-c2c3nc(c(-c4cccc(S(=O)(=O)[O-])c4F)c4ccc([nH]4)c(-c4cccc(S(=O)(=O)[O-])c4F)c4nc(c(-c5cccc(S(=O)(=O)[O-])c5F)c5ccc2[nH]5)C=C4)C=C3)cc1)c1ccc(O)cc1
REMARK SMILES IDX 8 1 7 2 6 3 4 4 5 5 2 7 1 8 76 9 77 10 82 11 78 12 81 13
REMARK SMILES IDX 79 14 80 15 3 17 9 19 10 20 11 21 12 23 13 24 14 25 75 26
REMARK SMILES IDX 15 27 74 28 16 29 17 30 18 31 68 32 19 33 73 34 67 35 69 36
REMARK SMILES IDX 20 37 72 38 66 39 65 40 21 42 53 43 33 44 52 45 34 46 37 47
REMARK SMILES IDX 51 48 70 49 35 50 36 51 50 53 71 54 38 55 22 56 23 57 31 58
REMARK SMILES IDX 24 59 26 60 32 61 25 62 27 63 28 64 29 65 30 66 54 67 55 68
REMARK SMILES IDX 63 69 56 70 58 71 64 72 57 73 59 74 60 75 61 76 62 77 39 78
REMARK SMILES IDX 40 79 48 80 41 81 43 82 49 83 42 84 44 85 45 86 46 87 47 88
REMARK H PARENT 6 6 80 16 3 18 10 22 69 41 37 52
REMARK Flexibility Score: inf
ROOT
ATOM      1  C   UNL     1      -1.159  -2.658  -0.189  1.00  0.00     0.042 C 
ENDROOT
BRANCH   1   2
ATOM      2  C   UNL     1      -0.792  -1.858  -1.433  1.00  0.00     0.117 C 
BRANCH   2   3
ATOM      3  N   UNL     1      -1.435  -0.557  -1.452  1.00  0.00    -0.353 N 
ATOM      4  C   UNL     1      -0.908   0.699  -1.331  1.00  0.00     0.256 C 
ATOM      5  O   UNL     1      -1.736   1.604  -1.190  1.00  0.00    -0.271 OA
ATOM      6  H   UNL     1      -2.412  -0.583  -1.573  1.00  0.00     0.163 HD
BRANCH   4   7
ATOM      7  C   UNL     1       0.645   0.929  -1.375  1.00  0.00     0.165 C 
ATOM      8  C   UNL     1       1.218   0.436  -2.714  1.00  0.00     0.058 C 
BRANCH   7   9
ATOM      9  C   UNL     1       1.097   2.391  -1.195  1.00  0.00    -0.007 A 
ATOM     10  C   UNL     1       2.345   2.668  -0.595  1.00  0.00     0.011 A 
ATOM     11  C   UNL     1       0.371   3.479  -1.708  1.00  0.00     0.011 A 
ATOM     12  C   UNL     1       2.820   3.976  -0.477  1.00  0.00     0.046 A 
ATOM     13  C   UNL     1       0.835   4.792  -1.573  1.00  0.00     0.046 A 
ATOM     14  C   UNL     1       2.056   5.028  -0.956  1.00  0.00     0.115 A 
BRANCH  14  15
ATOM     15  O   UNL     1       2.547   6.292  -0.815  1.00  0.00    -0.508 OA
ATOM     16  H   UNL     1       3.373   6.430  -0.395  1.00  0.00     0.293 HD
ENDBRANCH  14  15
ENDBRANCH   7   9
BRANCH   7  17
ATOM     17  O   UNL     1       1.218   0.151  -0.312  1.00  0.00    -0.376 OA
ATOM     18  H   UNL     1       0.862   0.454   0.538  1.00  0.00     0.212 HD
ENDBRANCH   7  17
ENDBRANCH   4   7
ENDBRANCH   2   3
ENDBRANCH   1   2
BRANCH   1  19
ATOM     19  C   UNL     1      -2.649  -2.932  -0.029  1.00  0.00     0.118 C 
BRANCH  19  20
ATOM     20  N   UNL     1      -3.219  -3.658  -1.155  1.00  0.00    -0.352 N 
ATOM     21  C   UNL     1      -3.896  -4.850  -1.187  1.00  0.00     0.251 C 
ATOM     22  H   UNL     1      -3.100  -3.224  -2.031  1.00  0.00     0.163 HD
ATOM     23  O   UNL     1      -4.144  -5.366  -2.278  1.00  0.00    -0.269 OA
BRANCH  21  24
ATOM     24  C   UNL     1      -4.315  -5.523   0.061  1.00  0.00     0.039 A 
ATOM     25  C   UNL     1      -4.232  -6.917   0.134  1.00  0.00     0.014 A 
ATOM     26  C   UNL     1      -4.823  -4.801   1.145  1.00  0.00     0.014 A 
ATOM     27  C   UNL     1      -4.617  -7.577   1.303  1.00  0.00     0.010 A 
ATOM     28  C   UNL     1      -5.118  -5.452   2.340  1.00  0.00     0.010 A 
ATOM     29  C   UNL     1      -5.043  -6.849   2.426  1.00  0.00    -0.014 A 
BRANCH  29  30
ATOM     30  C   UNL     1      -5.433  -7.539   3.683  1.00  0.00     0.031 A 
ATOM     31  C   UNL     1      -6.840  -7.423   4.210  1.00  0.00     0.074 A 
ATOM     32  C   UNL     1      -4.508  -8.227   4.381  1.00  0.00     0.049 A 
ATOM     33  N   UNL     1      -7.364  -7.956   5.284  1.00  0.00    -0.248 NA
ATOM     34  C   UNL     1      -7.774  -6.575   3.451  1.00  0.00     0.031 C 
ATOM     35  C   UNL     1      -3.091  -8.340   4.027  1.00  0.00     0.029 A 
ATOM     36  N   UNL     1      -4.617  -8.947   5.544  1.00  0.00    -0.354 N 
ATOM     37  C   UNL     1      -8.670  -7.483   5.347  1.00  0.00     0.074 A 
ATOM     38  C   UNL     1      -8.847  -6.585   4.228  1.00  0.00     0.031 C 
ATOM     39  C   UNL     1      -2.468  -9.098   4.943  1.00  0.00     0.029 A 
ATOM     40  C   UNL     1      -3.432  -9.507   5.960  1.00  0.00     0.049 A 
ATOM     41  H   UNL     1      -5.464  -9.053   6.035  1.00  0.00     0.167 HD
ATOM     42  C   UNL     1      -9.647  -7.793   6.233  1.00  0.00     0.034 A 
ATOM     43  C   UNL     1      -3.154 -10.269   7.036  1.00  0.00     0.034 A 
ATOM     44  C   UNL     1      -9.483  -8.723   7.317  1.00  0.00     0.049 A 
ATOM     45  C   UNL     1      -4.273 -10.656   7.965  1.00  0.00     0.074 A 
ATOM     46  C   UNL     1     -10.432  -9.169   8.220  1.00  0.00     0.029 A 
ATOM     47  N   UNL     1      -8.292  -9.349   7.648  1.00  0.00    -0.354 N 
ATOM     48  N   UNL     1      -5.541 -10.327   7.913  1.00  0.00    -0.248 NA
ATOM     49  C   UNL     1      -3.932 -11.559   9.072  1.00  0.00     0.031 C 
ATOM     50  C   UNL     1      -9.808 -10.052   9.109  1.00  0.00     0.029 A 
ATOM     51  C   UNL     1      -8.479 -10.179   8.740  1.00  0.00     0.049 A 
ATOM     52  H   UNL     1      -7.437  -9.223   7.175  1.00  0.00     0.167 HD
ATOM     53  C   UNL     1      -6.156 -11.016   8.952  1.00  0.00     0.074 A 
ATOM     54  C   UNL     1      -5.124 -11.797   9.602  1.00  0.00     0.031 C 
ATOM     55  C   UNL     1      -7.455 -10.994   9.342  1.00  0.00     0.034 A 
BRANCH  42  56
ATOM     56  C   UNL     1     -11.002  -7.162   6.029  1.00  0.00     0.023 A 
ATOM     57  C   UNL     1     -11.796  -7.559   4.933  1.00  0.00     0.012 A 
ATOM     58  C   UNL     1     -11.511  -6.220   6.943  1.00  0.00     0.148 A 
ATOM     59  C   UNL     1     -13.056  -7.000   4.727  1.00  0.00     0.002 A 
ATOM     60  C   UNL     1     -12.789  -5.702   6.758  1.00  0.00     0.091 A 
ATOM     61  F   UNL     1     -10.736  -5.838   7.968  1.00  0.00    -0.205 F 
ATOM     62  C   UNL     1     -13.556  -6.081   5.644  1.00  0.00     0.022 A 
BRANCH  60  63
ATOM     63  S   UNL     1     -13.557  -4.575   7.928  1.00  0.00     0.127 S 
ATOM     64  O   UNL     1     -13.560  -3.323   7.171  1.00  0.00    -0.237 OA
ATOM     65  O   UNL     1     -14.878  -5.178   8.112  1.00  0.00    -0.237 OA
ATOM     66  O   UNL     1     -12.712  -4.589   9.112  1.00  0.00    -0.744 OA
ENDBRANCH  60  63
ENDBRANCH  42  56
BRANCH  43  67
ATOM     67  C   UNL     1      -1.773 -10.792   7.242  1.00  0.00     0.023 A 
ATOM     68  C   UNL     1      -1.520 -12.167   7.069  1.00  0.00     0.012 A 
ATOM     69  C   UNL     1      -0.710  -9.936   7.587  1.00  0.00     0.148 A 
ATOM     70  C   UNL     1      -0.242 -12.687   7.272  1.00  0.00     0.002 A 
ATOM     71  C   UNL     1       0.573 -10.452   7.732  1.00  0.00     0.091 A 
ATOM     72  F   UNL     1      -0.972  -8.633   7.756  1.00  0.00    -0.205 F 
ATOM     73  C   UNL     1       0.806 -11.829   7.594  1.00  0.00     0.022 A 
BRANCH  71  74
ATOM     74  S   UNL     1       2.004  -9.403   8.016  1.00  0.00     0.127 S 
ATOM     75  O   UNL     1       2.340  -9.725   9.402  1.00  0.00    -0.237 OA
ATOM     76  O   UNL     1       2.951  -9.910   7.020  1.00  0.00    -0.237 OA
ATOM     77  O   UNL     1       1.549  -8.044   7.773  1.00  0.00    -0.744 OA
ENDBRANCH  71  74
ENDBRANCH  43  67
BRANCH  55  78
ATOM     78  C   UNL     1      -7.849 -11.879  10.496  1.00  0.00     0.023 A 
ATOM     79  C   UNL     1      -7.424 -11.568  11.803  1.00  0.00     0.012 A 
ATOM     80  C   UNL     1      -8.685 -12.995  10.290  1.00  0.00     0.148 A 
ATOM     81  C   UNL     1      -7.784 -12.379  12.878  1.00  0.00     0.002 A 
ATOM     82  C   UNL     1      -9.083 -13.768  11.373  1.00  0.00     0.091 A 
ATOM     83  F   UNL     1      -9.065 -13.289   9.038  1.00  0.00    -0.205 F 
ATOM     84  C   UNL     1      -8.622 -13.472  12.666  1.00  0.00     0.022 A 
BRANCH  82  85
ATOM     85  S   UNL     1     -10.240 -15.131  11.199  1.00  0.00     0.127 S 
ATOM     86  O   UNL     1      -9.349 -16.288  11.255  1.00  0.00    -0.237 OA
ATOM     87  O   UNL     1     -11.100 -14.965  12.372  1.00  0.00    -0.237 OA
ATOM     88  O   UNL     1     -10.916 -14.917   9.926  1.00  0.00    -0.744 OA
ENDBRANCH  82  85
ENDBRANCH  55  78
ENDBRANCH  29  30
ENDBRANCH  21  24
ENDBRANCH  19  20
ENDBRANCH   1  19
TORSDOF 16
