REMARK SMILES CC[C@](C)(C(=O)NCCCNC(=O)c1ccc(-c2c3nc(c(-c4cccc(S(=O)(=O)[O-])c4F)c4ccc([nH]4)c(-c4cccc(S(=O)(=O)[O-])c4F)c4nc(c(-c5cccc(S(=O)(=O)[O-])c5F)c5ccc2[nH]5)C=C4)C=C3)cc1)n1nnnc1-c1ccco1
REMARK SMILES IDX 9 1 8 2 7 3 5 4 6 5 3 7 4 8 2 9 1 10 77 11 78 12 81 13 79 14
REMARK SMILES IDX 80 15 82 16 83 17 86 18 84 19 85 20 10 21 11 22 12 23 13 25
REMARK SMILES IDX 14 26 15 27 76 28 16 29 75 30 17 31 18 32 19 33 69 34 20 35
REMARK SMILES IDX 74 36 68 37 70 38 21 39 73 40 67 41 66 42 22 44 54 45 34 46
REMARK SMILES IDX 53 47 35 48 38 49 52 50 71 51 36 52 37 53 51 55 72 56 39 57
REMARK SMILES IDX 23 58 24 59 32 60 25 61 27 62 33 63 26 64 28 65 29 66 30 67
REMARK SMILES IDX 31 68 55 69 56 70 64 71 57 72 59 73 65 74 58 75 60 76 61 77
REMARK SMILES IDX 62 78 63 79 40 80 41 81 49 82 42 83 44 84 50 85 43 86 45 87
REMARK SMILES IDX 46 88 47 89 48 90
REMARK H PARENT 7 6 11 24 70 43 38 54
REMARK Flexibility Score: inf
ROOT
ATOM      1  C   UNL     1      -2.704   0.173  -2.884  1.00  0.00     0.042 C 
ENDROOT
BRANCH   1   2
ATOM      2  C   UNL     1      -1.858  -1.089  -2.866  1.00  0.00     0.117 C 
BRANCH   2   3
ATOM      3  N   UNL     1      -0.690  -1.015  -3.725  1.00  0.00    -0.354 N 
ATOM      4  C   UNL     1       0.647  -1.105  -3.459  1.00  0.00     0.247 C 
ATOM      5  O   UNL     1       1.371  -1.185  -4.457  1.00  0.00    -0.272 OA
ATOM      6  H   UNL     1      -0.900  -0.873  -4.676  1.00  0.00     0.163 HD
BRANCH   4   7
ATOM      7  C   UNL     1       1.229  -1.107  -2.014  1.00  0.00     0.142 C 
ATOM      8  C   UNL     1       0.872   0.265  -1.384  1.00  0.00     0.048 C 
BRANCH   7   9
ATOM      9  C   UNL     1       0.656  -2.306  -1.178  1.00  0.00     0.037 C 
ATOM     10  C   UNL     1       0.025  -2.004   0.179  1.00  0.00     0.007 C 
ENDBRANCH   7   9
BRANCH   7  11
ATOM     11  N   UNL     1       2.704  -1.218  -2.145  1.00  0.00    -0.207 N 
ATOM     12  N   UNL     1       3.494  -0.128  -1.986  1.00  0.00    -0.044 NA
ATOM     13  C   UNL     1       3.515  -2.296  -2.436  1.00  0.00     0.218 A 
ATOM     14  N   UNL     1       4.736  -0.547  -2.168  1.00  0.00    -0.023 NA
ATOM     15  N   UNL     1       4.769  -1.890  -2.422  1.00  0.00    -0.105 NA
BRANCH  13  16
ATOM     16  C   UNL     1       3.120  -3.658  -2.574  1.00  0.00     0.172 A 
ATOM     17  C   UNL     1       2.339  -4.263  -3.544  1.00  0.00     0.054 A 
ATOM     18  O   UNL     1       3.426  -4.593  -1.616  1.00  0.00    -0.461 OA
ATOM     19  C   UNL     1       2.121  -5.602  -3.130  1.00  0.00     0.043 A 
ATOM     20  C   UNL     1       2.808  -5.751  -1.951  1.00  0.00     0.196 A 
ENDBRANCH  13  16
ENDBRANCH   7  11
ENDBRANCH   4   7
ENDBRANCH   2   3
ENDBRANCH   1   2
BRANCH   1  21
ATOM     21  C   UNL     1      -3.430   0.413  -4.199  1.00  0.00     0.118 C 
BRANCH  21  22
ATOM     22  N   UNL     1      -4.391  -0.639  -4.513  1.00  0.00    -0.352 N 
ATOM     23  C   UNL     1      -5.760  -0.591  -4.617  1.00  0.00     0.251 C 
ATOM     24  H   UNL     1      -3.995  -1.526  -4.675  1.00  0.00     0.163 HD
ATOM     25  O   UNL     1      -6.393  -1.644  -4.698  1.00  0.00    -0.269 OA
BRANCH  23  26
ATOM     26  C   UNL     1      -6.472   0.705  -4.614  1.00  0.00     0.039 A 
ATOM     27  C   UNL     1      -7.676   0.818  -3.912  1.00  0.00     0.014 A 
ATOM     28  C   UNL     1      -5.965   1.805  -5.308  1.00  0.00     0.014 A 
ATOM     29  C   UNL     1      -8.326   2.054  -3.847  1.00  0.00     0.010 A 
ATOM     30  C   UNL     1      -6.557   3.054  -5.157  1.00  0.00     0.010 A 
ATOM     31  C   UNL     1      -7.750   3.192  -4.433  1.00  0.00    -0.014 A 
BRANCH  31  32
ATOM     32  C   UNL     1      -8.370   4.536  -4.296  1.00  0.00     0.031 A 
ATOM     33  C   UNL     1      -8.798   5.303  -5.519  1.00  0.00     0.074 A 
ATOM     34  C   UNL     1      -8.464   5.105  -3.077  1.00  0.00     0.049 A 
ATOM     35  N   UNL     1      -9.292   6.511  -5.604  1.00  0.00    -0.248 NA
ATOM     36  C   UNL     1      -8.620   4.640  -6.822  1.00  0.00     0.031 C 
ATOM     37  C   UNL     1      -8.010   4.500  -1.823  1.00  0.00     0.029 A 
ATOM     38  N   UNL     1      -8.945   6.333  -2.696  1.00  0.00    -0.354 N 
ATOM     39  C   UNL     1      -9.447   6.766  -6.961  1.00  0.00     0.074 A 
ATOM     40  C   UNL     1      -8.959   5.602  -7.667  1.00  0.00     0.031 C 
ATOM     41  C   UNL     1      -8.243   5.352  -0.812  1.00  0.00     0.029 A 
ATOM     42  C   UNL     1      -8.825   6.578  -1.347  1.00  0.00     0.049 A 
ATOM     43  H   UNL     1      -9.340   6.977  -3.327  1.00  0.00     0.167 HD
ATOM     44  C   UNL     1      -9.975   7.856  -7.567  1.00  0.00     0.034 A 
ATOM     45  C   UNL     1      -9.135   7.672  -0.623  1.00  0.00     0.034 A 
ATOM     46  C   UNL     1     -10.495   8.995  -6.860  1.00  0.00     0.049 A 
ATOM     47  C   UNL     1      -9.748   8.857  -1.317  1.00  0.00     0.074 A 
ATOM     48  C   UNL     1     -11.132  10.109  -7.377  1.00  0.00     0.029 A 
ATOM     49  N   UNL     1     -10.430   9.172  -5.487  1.00  0.00    -0.354 N 
ATOM     50  N   UNL     1     -10.031   9.014  -2.588  1.00  0.00    -0.248 NA
ATOM     51  C   UNL     1     -10.119  10.003  -0.474  1.00  0.00     0.031 C 
ATOM     52  C   UNL     1     -11.420  10.977  -6.319  1.00  0.00     0.029 A 
ATOM     53  C   UNL     1     -11.001  10.384  -5.139  1.00  0.00     0.049 A 
ATOM     54  H   UNL     1     -10.035   8.531  -4.853  1.00  0.00     0.167 HD
ATOM     55  C   UNL     1     -10.648  10.256  -2.691  1.00  0.00     0.074 A 
ATOM     56  C   UNL     1     -10.715  10.801  -1.350  1.00  0.00     0.031 C 
ATOM     57  C   UNL     1     -11.108  10.892  -3.796  1.00  0.00     0.034 A 
BRANCH  44  58
ATOM     58  C   UNL     1     -10.057   7.852  -9.072  1.00  0.00     0.023 A 
ATOM     59  C   UNL     1     -10.965   6.988  -9.720  1.00  0.00     0.012 A 
ATOM     60  C   UNL     1      -9.284   8.743  -9.841  1.00  0.00     0.148 A 
ATOM     61  C   UNL     1     -11.073   6.984 -11.110  1.00  0.00     0.002 A 
ATOM     62  C   UNL     1      -9.434   8.768 -11.223  1.00  0.00     0.091 A 
ATOM     63  F   UNL     1      -8.413   9.543  -9.210  1.00  0.00    -0.205 F 
ATOM     64  C   UNL     1     -10.317   7.881 -11.860  1.00  0.00     0.022 A 
BRANCH  62  65
ATOM     65  S   UNL     1      -8.569   9.942 -12.271  1.00  0.00     0.127 S 
ATOM     66  O   UNL     1      -7.646   9.067 -12.993  1.00  0.00    -0.237 OA
ATOM     67  O   UNL     1      -9.657  10.485 -13.086  1.00  0.00    -0.237 OA
ATOM     68  O   UNL     1      -7.944  10.902 -11.372  1.00  0.00    -0.744 OA
ENDBRANCH  62  65
ENDBRANCH  44  58
BRANCH  45  69
ATOM     69  C   UNL     1      -8.921   7.676   0.852  1.00  0.00     0.023 A 
ATOM     70  C   UNL     1     -10.034   7.674   1.715  1.00  0.00     0.012 A 
ATOM     71  C   UNL     1      -7.625   7.663   1.403  1.00  0.00     0.148 A 
ATOM     72  C   UNL     1      -9.862   7.697   3.099  1.00  0.00     0.002 A 
ATOM     73  C   UNL     1      -7.461   7.626   2.783  1.00  0.00     0.091 A 
ATOM     74  F   UNL     1      -6.579   7.673   0.566  1.00  0.00    -0.205 F 
ATOM     75  C   UNL     1      -8.577   7.663   3.633  1.00  0.00     0.022 A 
BRANCH  73  76
ATOM     76  S   UNL     1      -5.850   7.444   3.556  1.00  0.00     0.127 S 
ATOM     77  O   UNL     1      -5.670   8.750   4.184  1.00  0.00    -0.237 OA
ATOM     78  O   UNL     1      -6.086   6.338   4.486  1.00  0.00    -0.237 OA
ATOM     79  O   UNL     1      -4.927   7.129   2.474  1.00  0.00    -0.744 OA
ENDBRANCH  73  76
ENDBRANCH  45  69
BRANCH  57  80
ATOM     80  C   UNL     1     -11.774  12.230  -3.608  1.00  0.00     0.023 A 
ATOM     81  C   UNL     1     -11.007  13.361  -3.268  1.00  0.00     0.012 A 
ATOM     82  C   UNL     1     -13.156  12.377  -3.845  1.00  0.00     0.148 A 
ATOM     83  C   UNL     1     -11.610  14.611  -3.132  1.00  0.00     0.002 A 
ATOM     84  C   UNL     1     -13.740  13.635  -3.761  1.00  0.00     0.091 A 
ATOM     85  F   UNL     1     -13.871  11.285  -4.151  1.00  0.00    -0.205 F 
ATOM     86  C   UNL     1     -12.972  14.750  -3.391  1.00  0.00     0.022 A 
BRANCH  84  87
ATOM     87  S   UNL     1     -15.463  13.927  -4.175  1.00  0.00     0.127 S 
ATOM     88  O   UNL     1     -16.039  14.214  -2.862  1.00  0.00    -0.237 OA
ATOM     89  O   UNL     1     -15.375  15.081  -5.069  1.00  0.00    -0.237 OA
ATOM     90  O   UNL     1     -15.938  12.704  -4.809  1.00  0.00    -0.744 OA
ENDBRANCH  84  87
ENDBRANCH  57  80
ENDBRANCH  31  32
ENDBRANCH  23  26
ENDBRANCH  21  22
ENDBRANCH   1  21
TORSDOF 16
