REMARK SMILES Cc1cc(Cl)cc2c1O[C@H](C(F)(F)F)C(C(=O)NCCCNC(=O)c1ccc(-c3c4nc(c(-c5cccc(S(=O)(=O)[O-])c5F)c5ccc([nH]5)c(-c5cccc(S(=O)(=O)[O-])c5F)c5nc(c(-c6cccc(S(=O)(=O)[O-])c6F)c6ccc3[nH]6)C=C5)C=C4)cc1)=C2
REMARK SMILES IDX 21 1 20 2 19 3 18 4 16 5 17 6 15 8 1 9 2 10 3 11 8 12 4 13
REMARK SMILES IDX 7 14 9 15 5 16 6 17 88 18 10 19 11 20 12 21 13 22 14 23
REMARK SMILES IDX 22 24 23 25 24 27 25 28 26 29 87 30 27 31 86 32 28 33 29 34
REMARK SMILES IDX 30 35 80 36 31 37 85 38 79 39 81 40 32 41 84 42 78 43 77 44
REMARK SMILES IDX 33 46 65 47 45 48 64 49 46 50 49 51 63 52 82 53 47 54 48 55
REMARK SMILES IDX 62 57 83 58 50 59 34 60 35 61 43 62 36 63 38 64 44 65 37 66
REMARK SMILES IDX 39 67 40 68 41 69 42 70 66 71 67 72 75 73 68 74 70 75 76 76
REMARK SMILES IDX 69 77 71 78 72 79 73 80 74 81 51 82 52 83 60 84 53 85 55 86
REMARK SMILES IDX 61 87 54 88 56 89 57 90 58 91 59 92
REMARK H PARENT 18 7 22 26 81 45 49 56
REMARK Flexibility Score: inf
ROOT
ATOM      1  C   UNL     1       3.194  -7.180   4.665  1.00  0.00     0.118 C 
ENDROOT
BRANCH   1   2
ATOM      2  C   UNL     1       2.861  -5.847   4.008  1.00  0.00     0.042 C 
BRANCH   2   3
ATOM      3  C   UNL     1       3.571  -5.672   2.676  1.00  0.00     0.118 C 
BRANCH   3   4
ATOM      4  N   UNL     1       2.919  -6.412   1.605  1.00  0.00    -0.352 N 
ATOM      5  C   UNL     1       2.180  -6.123   0.508  1.00  0.00     0.251 C 
ATOM      6  O   UNL     1       1.839  -7.098  -0.171  1.00  0.00    -0.270 OA
ATOM      7  H   UNL     1       3.051  -7.382   1.705  1.00  0.00     0.163 HD
BRANCH   5   8
ATOM      8  C   UNL     1       1.782  -4.751   0.082  1.00  0.00     0.067 C 
ATOM      9  C   UNL     1       0.797   0.256  -0.281  1.00  0.00     0.048 C 
ATOM     10  C   UNL     1       0.460  -0.947  -1.115  1.00  0.00    -0.007 A 
ATOM     11  C   UNL     1      -0.220  -0.813  -2.330  1.00  0.00     0.027 A 
ATOM     12  C   UNL     1       0.843  -2.229  -0.697  1.00  0.00     0.131 A 
ATOM     13  C   UNL     1      -0.516  -1.942  -3.095  1.00  0.00     0.042 A 
ATOM     14  C   UNL     1       0.551  -3.362  -1.462  1.00  0.00     0.019 A 
ATOM     15  O   UNL     1       1.473  -2.317   0.512  1.00  0.00    -0.475 OA
ATOM     16  Cl  UNL     1      -1.358  -1.760  -4.586  1.00  0.00    -0.084 Cl
ATOM     17  C   UNL     1      -0.137  -3.215  -2.668  1.00  0.00     0.032 A 
ATOM     18  C   UNL     1       0.949  -4.677  -0.973  1.00  0.00     0.025 C 
ATOM     19  C   UNL     1       2.284  -3.496   0.735  1.00  0.00     0.314 C 
BRANCH  19  20
ATOM     20  C   UNL     1       3.744  -3.177   0.360  1.00  0.00     0.429 C 
ATOM     21  F   UNL     1       4.278  -2.288   1.235  1.00  0.00    -0.167 F 
ATOM     22  F   UNL     1       4.546  -4.269   0.387  1.00  0.00    -0.167 F 
ATOM     23  F   UNL     1       3.861  -2.643  -0.877  1.00  0.00    -0.167 F 
ENDBRANCH  19  20
ENDBRANCH   5   8
ENDBRANCH   3   4
ENDBRANCH   2   3
ENDBRANCH   1   2
BRANCH   1  24
ATOM     24  N   UNL     1       4.616  -7.281   4.992  1.00  0.00    -0.352 N 
ATOM     25  C   UNL     1       5.251  -7.194   6.204  1.00  0.00     0.251 C 
ATOM     26  H   UNL     1       5.209  -7.437   4.222  1.00  0.00     0.163 HD
ATOM     27  O   UNL     1       6.468  -7.016   6.242  1.00  0.00    -0.269 OA
BRANCH  25  28
ATOM     28  C   UNL     1       4.477  -7.316   7.453  1.00  0.00     0.039 A 
ATOM     29  C   UNL     1       4.788  -6.498   8.541  1.00  0.00     0.014 A 
ATOM     30  C   UNL     1       3.454  -8.261   7.551  1.00  0.00     0.014 A 
ATOM     31  C   UNL     1       4.027  -6.589   9.708  1.00  0.00     0.010 A 
ATOM     32  C   UNL     1       2.634  -8.277   8.670  1.00  0.00     0.010 A 
ATOM     33  C   UNL     1       2.925  -7.458   9.768  1.00  0.00    -0.014 A 
BRANCH  33  34
ATOM     34  C   UNL     1       2.073  -7.551  10.977  1.00  0.00     0.031 A 
ATOM     35  C   UNL     1       1.972  -8.854  11.721  1.00  0.00     0.074 A 
ATOM     36  C   UNL     1       1.333  -6.489  11.352  1.00  0.00     0.049 A 
ATOM     37  N   UNL     1       1.236  -9.153  12.759  1.00  0.00    -0.248 NA
ATOM     38  C   UNL     1       2.776  -9.982  11.216  1.00  0.00     0.031 C 
ATOM     39  C   UNL     1       1.293  -5.200  10.659  1.00  0.00     0.029 A 
ATOM     40  N   UNL     1       0.456  -6.332  12.395  1.00  0.00    -0.354 N 
ATOM     41  C   UNL     1       1.466 -10.500  13.010  1.00  0.00     0.074 A 
ATOM     42  C   UNL     1       2.367 -10.978  11.987  1.00  0.00     0.031 C 
ATOM     43  C   UNL     1       0.454  -4.377  11.308  1.00  0.00     0.029 A 
ATOM     44  C   UNL     1      -0.130  -5.089  12.441  1.00  0.00     0.049 A 
ATOM     45  H   UNL     1       0.265  -7.042  13.050  1.00  0.00     0.167 HD
ATOM     46  C   UNL     1       1.002 -11.262  14.027  1.00  0.00     0.034 A 
ATOM     47  C   UNL     1      -1.034  -4.580  13.301  1.00  0.00     0.034 A 
ATOM     48  C   UNL     1       0.150 -10.763  15.071  1.00  0.00     0.049 A 
ATOM     49  C   UNL     1      -1.511  -5.439  14.442  1.00  0.00     0.074 A 
ATOM     50  C   UNL     1      -0.309 -11.428  16.193  1.00  0.00     0.029 A 
ATOM     51  N   UNL     1      -0.368  -9.479  15.124  1.00  0.00    -0.354 N 
ATOM     52  N   UNL     1      -1.167  -6.666  14.749  1.00  0.00    -0.248 NA
ATOM     53  C   UNL     1      -2.473  -4.835  15.375  1.00  0.00     0.031 C 
ATOM     54  C   UNL     1      -1.127 -10.553  16.911  1.00  0.00     0.029 A 
ATOM     55  C   UNL     1      -1.153  -9.333  16.253  1.00  0.00     0.049 A 
ATOM     56  H   UNL     1      -0.202  -8.774  14.456  1.00  0.00     0.167 HD
ATOM     57  C   UNL     1      -1.847  -6.973  15.922  1.00  0.00     0.074 A 
ATOM     58  C   UNL     1      -2.603  -5.792  16.285  1.00  0.00     0.031 C 
ATOM     59  C   UNL     1      -1.859  -8.133  16.624  1.00  0.00     0.034 A 
BRANCH  46  60
ATOM     60  C   UNL     1       1.462 -12.694  14.106  1.00  0.00     0.023 A 
ATOM     61  C   UNL     1       2.801 -12.972  14.452  1.00  0.00     0.012 A 
ATOM     62  C   UNL     1       0.560 -13.760  13.924  1.00  0.00     0.148 A 
ATOM     63  C   UNL     1       3.242 -14.287  14.589  1.00  0.00     0.002 A 
ATOM     64  C   UNL     1       0.995 -15.067  14.111  1.00  0.00     0.091 A 
ATOM     65  F   UNL     1      -0.703 -13.477  13.575  1.00  0.00    -0.205 F 
ATOM     66  C   UNL     1       2.337 -15.332  14.432  1.00  0.00     0.022 A 
BRANCH  64  67
ATOM     67  S   UNL     1      -0.108 -16.482  14.020  1.00  0.00     0.127 S 
ATOM     68  O   UNL     1       0.396 -17.172  12.833  1.00  0.00    -0.237 OA
ATOM     69  O   UNL     1       0.167 -17.165  15.284  1.00  0.00    -0.237 OA
ATOM     70  O   UNL     1      -1.453 -15.939  13.898  1.00  0.00    -0.744 OA
ENDBRANCH  64  67
ENDBRANCH  46  60
BRANCH  47  71
ATOM     71  C   UNL     1      -1.473  -3.162  13.160  1.00  0.00     0.023 A 
ATOM     72  C   UNL     1      -1.057  -2.216  14.116  1.00  0.00     0.012 A 
ATOM     73  C   UNL     1      -2.240  -2.732  12.059  1.00  0.00     0.148 A 
ATOM     74  C   UNL     1      -1.415  -0.873  13.993  1.00  0.00     0.002 A 
ATOM     75  C   UNL     1      -2.543  -1.383  11.911  1.00  0.00     0.091 A 
ATOM     76  F   UNL     1      -2.635  -3.649  11.164  1.00  0.00    -0.205 F 
ATOM     77  C   UNL     1      -2.146  -0.454  12.885  1.00  0.00     0.022 A 
BRANCH  75  78
ATOM     78  S   UNL     1      -3.354  -0.730  10.446  1.00  0.00     0.127 S 
ATOM     79  O   UNL     1      -4.643  -0.302  10.982  1.00  0.00    -0.237 OA
ATOM     80  O   UNL     1      -2.452   0.358  10.065  1.00  0.00    -0.237 OA
ATOM     81  O   UNL     1      -3.400  -1.832   9.495  1.00  0.00    -0.744 OA
ENDBRANCH  75  78
ENDBRANCH  47  71
BRANCH  59  82
ATOM     82  C   UNL     1      -2.707  -8.198  17.868  1.00  0.00     0.023 A 
ATOM     83  C   UNL     1      -4.108  -8.266  17.750  1.00  0.00     0.012 A 
ATOM     84  C   UNL     1      -2.111  -8.322  19.139  1.00  0.00     0.148 A 
ATOM     85  C   UNL     1      -4.907  -8.438  18.880  1.00  0.00     0.002 A 
ATOM     86  C   UNL     1      -2.909  -8.547  20.254  1.00  0.00     0.091 A 
ATOM     87  F   UNL     1      -0.775  -8.241  19.230  1.00  0.00    -0.205 F 
ATOM     88  C   UNL     1      -4.307  -8.594  20.127  1.00  0.00     0.022 A 
BRANCH  86  89
ATOM     89  S   UNL     1      -2.225  -8.872  21.883  1.00  0.00     0.127 S 
ATOM     90  O   UNL     1      -2.607  -7.663  22.612  1.00  0.00    -0.237 OA
ATOM     91  O   UNL     1      -2.946 -10.080  22.285  1.00  0.00    -0.237 OA
ATOM     92  O   UNL     1      -0.793  -9.056  21.691  1.00  0.00    -0.744 OA
ENDBRANCH  86  89
ENDBRANCH  59  82
ENDBRANCH  33  34
ENDBRANCH  25  28
ENDBRANCH   1  24
TORSDOF 14
