REMARK SMILES CCCc1cc(S(F)(F)(F)(F)F)cc2c1O[C@@H](C(F)(F)F)C(C(=O)NCCCNC(=O)c1ccc(-c3c4nc(c(-c5cccc(S(=O)(=O)[O-])c5F)c5ccc([nH]5)c(-c5cccc(S(=O)(=O)[O-])c5F)c5nc(c(-c6cccc(S(=O)(=O)[O-])c6F)c6ccc3[nH]6)C=C5)C=C4)cc1)=C2
REMARK SMILES IDX 27 1 26 2 25 3 23 4 24 5 22 7 4 8 5 9 15 10 6 11 14 12 16 13
REMARK SMILES IDX 13 14 95 15 17 16 3 17 2 18 1 19 7 20 8 21 9 22 10 23 11 24
REMARK SMILES IDX 12 25 18 26 19 27 20 28 21 29 28 30 29 31 30 32 31 34 32 35
REMARK SMILES IDX 33 36 94 37 34 38 93 39 35 40 36 41 37 42 87 43 38 44 92 45
REMARK SMILES IDX 86 46 88 47 39 48 91 49 85 50 84 51 40 53 72 54 52 55 71 56
REMARK SMILES IDX 53 57 56 58 70 59 89 60 54 61 55 62 69 64 90 65 57 66 41 67
REMARK SMILES IDX 42 68 50 69 43 70 45 71 51 72 44 73 46 74 47 75 48 76 49 77
REMARK SMILES IDX 73 78 74 79 82 80 75 81 77 82 83 83 76 84 78 85 79 86 80 87
REMARK SMILES IDX 81 88 58 89 59 90 67 91 60 92 62 93 68 94 61 95 63 96 64 97
REMARK SMILES IDX 65 98 66 99
REMARK H PARENT 25 6 29 33 88 52 56 63
REMARK Flexibility Score: inf
ROOT
ATOM      1  C   UNL     1      -2.253  -2.320   8.979  1.00  0.00     0.042 C 
ENDROOT
BRANCH   1   2
ATOM      2  C   UNL     1      -1.056  -3.000   8.335  1.00  0.00     0.118 C 
BRANCH   2   3
ATOM      3  N   UNL     1      -1.377  -4.410   8.070  1.00  0.00    -0.352 N 
ATOM      4  C   UNL     1      -1.337  -4.926   6.694  1.00  0.00     0.251 C 
ATOM      5  O   UNL     1      -1.615  -6.145   6.465  1.00  0.00    -0.270 OA
ATOM      6  H   UNL     1      -1.619  -5.008   8.813  1.00  0.00     0.163 HD
BRANCH   4   7
ATOM      7  C   UNL     1      -0.964  -4.003   5.546  1.00  0.00     0.067 C 
ATOM      8  C   UNL     1       0.532  -1.668   2.422  1.00  0.00    -0.004 A 
ATOM      9  C   UNL     1       0.658  -0.300   2.581  1.00  0.00     0.032 A 
ATOM     10  C   UNL     1       0.088  -2.418   3.483  1.00  0.00     0.131 A 
ATOM     11  C   UNL     1       0.351   0.301   3.774  1.00  0.00     0.108 A 
ATOM     12  C   UNL     1      -0.248  -1.844   4.696  1.00  0.00     0.019 A 
ATOM     13  O   UNL     1       0.076  -3.785   3.346  1.00  0.00    -0.475 OA
ATOM     14  C   UNL     1      -0.106  -0.467   4.824  1.00  0.00     0.036 A 
ATOM     15  C   UNL     1      -0.671  -2.727   5.770  1.00  0.00     0.025 C 
ATOM     16  C   UNL     1      -0.917  -4.520   4.115  1.00  0.00     0.314 C 
BRANCH   8  17
ATOM     17  C   UNL     1       1.039  -2.308   1.139  1.00  0.00     0.039 C 
BRANCH  17  18
ATOM     18  C   UNL     1       0.532  -1.517  -0.056  1.00  0.00     0.001 C 
ATOM     19  C   UNL     1       1.039  -0.087   0.031  1.00  0.00     0.004 C 
ENDBRANCH  17  18
ENDBRANCH   8  17
BRANCH  11  20
ATOM     20  S   UNL     1       0.545   2.090   3.969  1.00  0.00     0.310 S 
ATOM     21  F   UNL     1      -0.235   2.064   5.350  1.00  0.00    -0.094 F 
ATOM     22  F   UNL     1      -0.852   2.250   3.260  1.00  0.00    -0.094 F 
ATOM     23  F   UNL     1       0.668   3.631   4.138  1.00  0.00    -0.094 F 
ATOM     24  F   UNL     1       1.875   1.901   4.801  1.00  0.00    -0.094 F 
ATOM     25  F   UNL     1       0.380   0.519   3.906  1.00  0.00    -0.094 F 
ENDBRANCH  11  20
BRANCH  16  26
ATOM     26  C   UNL     1      -0.541  -5.993   4.132  1.00  0.00     0.429 C 
ATOM     27  F   UNL     1      -1.446  -6.674   4.829  1.00  0.00    -0.167 F 
ATOM     28  F   UNL     1      -0.502  -6.455   2.885  1.00  0.00    -0.167 F 
ATOM     29  F   UNL     1       0.655  -6.138   4.696  1.00  0.00    -0.167 F 
ENDBRANCH  16  26
ENDBRANCH   4   7
ENDBRANCH   2   3
ENDBRANCH   1   2
BRANCH   1  30
ATOM     30  C   UNL     1      -2.589  -3.018  10.287  1.00  0.00     0.118 C 
BRANCH  30  31
ATOM     31  N   UNL     1      -1.436  -2.941  11.194  1.00  0.00    -0.352 N 
ATOM     32  C   UNL     1      -1.569  -2.275  12.498  1.00  0.00     0.251 C 
ATOM     33  H   UNL     1      -0.574  -3.336  10.929  1.00  0.00     0.163 HD
ATOM     34  O   UNL     1      -0.572  -2.208  13.283  1.00  0.00    -0.269 OA
BRANCH  32  35
ATOM     35  C   UNL     1      -2.900  -1.665  12.907  1.00  0.00     0.039 A 
ATOM     36  C   UNL     1      -2.910  -0.406  13.485  1.00  0.00     0.014 A 
ATOM     37  C   UNL     1      -4.025  -2.345  12.717  1.00  0.00     0.014 A 
ATOM     38  C   UNL     1      -4.139  -0.066  14.097  1.00  0.00     0.010 A 
ATOM     39  C   UNL     1      -5.215  -1.885  13.227  1.00  0.00     0.010 A 
ATOM     40  C   UNL     1      -5.287  -0.676  13.862  1.00  0.00    -0.014 A 
BRANCH  40  41
ATOM     41  C   UNL     1      -6.617  -0.066  14.274  1.00  0.00     0.031 A 
ATOM     42  C   UNL     1      -7.429  -0.772  15.164  1.00  0.00     0.074 A 
ATOM     43  C   UNL     1      -6.942   1.171  13.745  1.00  0.00     0.049 A 
ATOM     44  N   UNL     1      -8.601  -0.389  15.675  1.00  0.00    -0.248 NA
ATOM     45  C   UNL     1      -7.102  -2.101  15.701  1.00  0.00     0.031 C 
ATOM     46  C   UNL     1      -6.124   1.893  12.854  1.00  0.00     0.029 A 
ATOM     47  N   UNL     1      -8.079   1.915  13.970  1.00  0.00    -0.354 N 
ATOM     48  C   UNL     1      -9.069  -1.324  16.505  1.00  0.00     0.074 A 
ATOM     49  C   UNL     1      -8.115  -2.441  16.529  1.00  0.00     0.031 C 
ATOM     50  C   UNL     1      -6.764   3.049  12.537  1.00  0.00     0.029 A 
ATOM     51  C   UNL     1      -7.992   3.070  13.225  1.00  0.00     0.049 A 
ATOM     52  H   UNL     1      -8.825   1.664  14.561  1.00  0.00     0.167 HD
ATOM     53  C   UNL     1     -10.252  -1.287  17.244  1.00  0.00     0.034 A 
ATOM     54  C   UNL     1      -8.921   4.095  13.137  1.00  0.00     0.034 A 
ATOM     55  C   UNL     1     -11.161  -0.242  17.188  1.00  0.00     0.049 A 
ATOM     56  C   UNL     1     -10.133   4.105  13.831  1.00  0.00     0.074 A 
ATOM     57  C   UNL     1     -12.355  -0.186  17.933  1.00  0.00     0.029 A 
ATOM     58  N   UNL     1     -11.085   0.902  16.425  1.00  0.00    -0.354 N 
ATOM     59  N   UNL     1     -10.582   3.189  14.691  1.00  0.00    -0.248 NA
ATOM     60  C   UNL     1     -11.139   5.169  13.720  1.00  0.00     0.031 C 
ATOM     61  C   UNL     1     -12.995   0.971  17.616  1.00  0.00     0.029 A 
ATOM     62  C   UNL     1     -12.212   1.656  16.667  1.00  0.00     0.049 A 
ATOM     63  H   UNL     1     -10.352   1.139  15.812  1.00  0.00     0.167 HD
ATOM     64  C   UNL     1     -11.773   3.553  15.170  1.00  0.00     0.074 A 
ATOM     65  C   UNL     1     -12.152   4.829  14.547  1.00  0.00     0.031 C 
ATOM     66  C   UNL     1     -12.557   2.874  16.104  1.00  0.00     0.034 A 
BRANCH  53  67
ATOM     67  C   UNL     1     -10.562  -2.459  18.161  1.00  0.00     0.023 A 
ATOM     68  C   UNL     1      -9.605  -2.860  19.078  1.00  0.00     0.012 A 
ATOM     69  C   UNL     1     -11.669  -3.166  17.967  1.00  0.00     0.148 A 
ATOM     70  C   UNL     1      -9.774  -4.187  19.541  1.00  0.00     0.002 A 
ATOM     71  C   UNL     1     -11.827  -4.396  18.559  1.00  0.00     0.091 A 
ATOM     72  F   UNL     1     -12.635  -2.679  17.193  1.00  0.00    -0.205 F 
ATOM     73  C   UNL     1     -10.893  -4.881  19.431  1.00  0.00     0.022 A 
BRANCH  71  74
ATOM     74  S   UNL     1     -13.292  -5.388  18.179  1.00  0.00     0.127 S 
ATOM     75  O   UNL     1     -12.861  -6.721  17.564  1.00  0.00    -0.237 OA
ATOM     76  O   UNL     1     -14.079  -5.650  19.465  1.00  0.00    -0.237 OA
ATOM     77  O   UNL     1     -14.281  -4.542  17.069  1.00  0.00    -0.744 OA
ENDBRANCH  71  74
ENDBRANCH  53  67
BRANCH  54  78
ATOM     78  C   UNL     1      -8.603   5.274  12.232  1.00  0.00     0.023 A 
ATOM     79  C   UNL     1      -8.387   6.560  12.701  1.00  0.00     0.012 A 
ATOM     80  C   UNL     1      -8.422   4.968  10.953  1.00  0.00     0.148 A 
ATOM     81  C   UNL     1      -8.259   7.529  11.678  1.00  0.00     0.002 A 
ATOM     82  C   UNL     1      -8.165   5.952  10.028  1.00  0.00     0.091 A 
ATOM     83  F   UNL     1      -8.490   3.699  10.563  1.00  0.00    -0.205 F 
ATOM     84  C   UNL     1      -7.999   7.253  10.413  1.00  0.00     0.022 A 
BRANCH  82  85
ATOM     85  S   UNL     1      -8.045   5.518   8.275  1.00  0.00     0.127 S 
ATOM     86  O   UNL     1      -9.110   6.282   7.486  1.00  0.00    -0.237 OA
ATOM     87  O   UNL     1      -6.656   5.891   7.751  1.00  0.00    -0.237 OA
ATOM     88  O   UNL     1      -8.293   3.836   8.086  1.00  0.00    -0.744 OA
ENDBRANCH  82  85
ENDBRANCH  54  78
BRANCH  66  89
ATOM     89  C   UNL     1     -13.871   3.510  16.529  1.00  0.00     0.023 A 
ATOM     90  C   UNL     1     -14.831   3.768  15.565  1.00  0.00     0.012 A 
ATOM     91  C   UNL     1     -14.076   3.818  17.805  1.00  0.00     0.148 A 
ATOM     92  C   UNL     1     -15.869   4.624  16.003  1.00  0.00     0.002 A 
ATOM     93  C   UNL     1     -15.182   4.541  18.181  1.00  0.00     0.091 A 
ATOM     94  F   UNL     1     -13.202   3.423  18.726  1.00  0.00    -0.205 F 
ATOM     95  C   UNL     1     -16.143   4.882  17.269  1.00  0.00     0.022 A 
BRANCH  93  96
ATOM     96  S   UNL     1     -15.371   5.050  19.907  1.00  0.00     0.127 S 
ATOM     97  O   UNL     1     -15.439   6.577  19.985  1.00  0.00    -0.237 OA
ATOM     98  O   UNL     1     -16.659   4.452  20.477  1.00  0.00    -0.237 OA
ATOM     99  O   UNL     1     -14.033   4.492  20.815  1.00  0.00    -0.744 OA
ENDBRANCH  93  96
ENDBRANCH  66  89
ENDBRANCH  40  41
ENDBRANCH  32  35
ENDBRANCH  30  31
ENDBRANCH   1  30
TORSDOF 17
