REMARK SMILES O=C(NCCCNC(=O)[C@H]1CC[C@@H](CNc2ccccc2[N+](=O)[O-])O1)c1ccc(-c2c3nc(c(-c4cccc(S(=O)(=O)[O-])c4F)c4ccc([nH]4)c(-c4cccc(S(=O)(=O)[O-])c4F)c4nc(c(-c5cccc(S(=O)(=O)[O-])c5F)c5ccc2[nH]5)C=C4)C=C3)cc1
REMARK SMILES IDX 5 1 4 2 3 3 1 4 2 5 26 7 27 8 88 9 28 10 87 11 29 12 30 13
REMARK SMILES IDX 31 14 81 15 32 16 86 17 80 18 82 19 33 20 85 21 79 22 78 23
REMARK SMILES IDX 34 25 66 26 46 27 65 28 47 29 50 30 64 31 83 32 48 33 49 34
REMARK SMILES IDX 63 36 84 37 51 38 35 39 36 40 44 41 37 42 39 43 45 44 38 45
REMARK SMILES IDX 40 46 41 47 42 48 43 49 67 50 68 51 76 52 69 53 71 54 77 55
REMARK SMILES IDX 70 56 72 57 73 58 74 59 75 60 52 61 53 62 61 63 54 64 56 65
REMARK SMILES IDX 62 66 55 67 57 68 58 69 59 70 60 71 6 72 7 73 8 74 9 76
REMARK SMILES IDX 10 77 11 78 25 79 12 80 13 81 14 82 15 83 16 85 17 86 21 87
REMARK SMILES IDX 18 88 20 89 19 90 22 91 23 92 24 93
REMARK H PARENT 3 6 82 24 50 35 7 75 15 84
REMARK Flexibility Score: inf
ROOT
ATOM      1  C   UNL     1       7.145  -2.266  -0.642  1.00  0.00     0.042 C 
ENDROOT
BRANCH   1   2
ATOM      2  C   UNL     1       6.974  -1.280   0.507  1.00  0.00     0.118 C 
BRANCH   2   3
ATOM      3  N   UNL     1       8.245  -0.878   1.098  1.00  0.00    -0.352 N 
ATOM      4  O   UNL     1      10.046   0.407   1.487  1.00  0.00    -0.269 OA
ATOM      5  C   UNL     1       8.883   0.339   1.097  1.00  0.00     0.251 C 
ATOM      6  H   UNL     1       8.723  -1.594   1.576  1.00  0.00     0.163 HD
BRANCH   5   7
ATOM      7  C   UNL     1       8.188   1.548   0.603  1.00  0.00     0.039 A 
ATOM      8  C   UNL     1       6.849   1.782   0.919  1.00  0.00     0.014 A 
ATOM      9  C   UNL     1       8.890   2.469  -0.179  1.00  0.00     0.014 A 
ATOM     10  C   UNL     1       6.166   2.825   0.306  1.00  0.00     0.010 A 
ATOM     11  C   UNL     1       8.226   3.579  -0.710  1.00  0.00     0.010 A 
ATOM     12  C   UNL     1       6.846   3.740  -0.513  1.00  0.00    -0.014 A 
BRANCH  12  13
ATOM     13  C   UNL     1       6.097   4.874  -1.113  1.00  0.00     0.031 A 
ATOM     14  C   UNL     1       5.972   5.024  -2.605  1.00  0.00     0.074 A 
ATOM     15  C   UNL     1       5.510   5.769  -0.294  1.00  0.00     0.049 A 
ATOM     16  N   UNL     1       5.312   5.926  -3.287  1.00  0.00    -0.248 NA
ATOM     17  C   UNL     1       6.685   4.047  -3.443  1.00  0.00     0.031 C 
ATOM     18  C   UNL     1       5.596   5.753   1.169  1.00  0.00     0.029 A 
ATOM     19  N   UNL     1       4.721   6.857  -0.567  1.00  0.00    -0.354 N 
ATOM     20  C   UNL     1       5.568   5.658  -4.627  1.00  0.00     0.074 A 
ATOM     21  C   UNL     1       6.450   4.511  -4.663  1.00  0.00     0.031 C 
ATOM     22  C   UNL     1       4.856   6.754   1.665  1.00  0.00     0.029 A 
ATOM     23  C   UNL     1       4.286   7.515   0.559  1.00  0.00     0.049 A 
ATOM     24  H   UNL     1       4.489   7.139  -1.481  1.00  0.00     0.167 HD
ATOM     25  C   UNL     1       5.098   6.297  -5.726  1.00  0.00     0.034 A 
ATOM     26  C   UNL     1       3.516   8.611   0.691  1.00  0.00     0.034 A 
ATOM     27  C   UNL     1       4.183   7.407  -5.684  1.00  0.00     0.049 A 
ATOM     28  C   UNL     1       2.978   9.275  -0.544  1.00  0.00     0.074 A 
ATOM     29  C   UNL     1       3.590   8.073  -6.743  1.00  0.00     0.029 A 
ATOM     30  N   UNL     1       3.730   8.018  -4.525  1.00  0.00    -0.354 N 
ATOM     31  N   UNL     1       3.125   8.924  -1.798  1.00  0.00    -0.248 NA
ATOM     32  C   UNL     1       2.145  10.468  -0.344  1.00  0.00     0.031 C 
ATOM     33  C   UNL     1       2.794   9.101  -6.223  1.00  0.00     0.029 A 
ATOM     34  C   UNL     1       2.873   9.060  -4.840  1.00  0.00     0.049 A 
ATOM     35  H   UNL     1       3.980   7.751  -3.611  1.00  0.00     0.167 HD
ATOM     36  C   UNL     1       2.377   9.832  -2.537  1.00  0.00     0.074 A 
ATOM     37  C   UNL     1       1.762  10.736  -1.585  1.00  0.00     0.031 C 
ATOM     38  C   UNL     1       2.225   9.918  -3.881  1.00  0.00     0.034 A 
BRANCH  25  39
ATOM     39  C   UNL     1       5.541   5.790  -7.074  1.00  0.00     0.023 A 
ATOM     40  C   UNL     1       5.027   4.573  -7.568  1.00  0.00     0.012 A 
ATOM     41  C   UNL     1       6.424   6.540  -7.876  1.00  0.00     0.148 A 
ATOM     42  C   UNL     1       5.410   4.095  -8.820  1.00  0.00     0.002 A 
ATOM     43  C   UNL     1       6.770   6.076  -9.141  1.00  0.00     0.091 A 
ATOM     44  F   UNL     1       6.924   7.682  -7.384  1.00  0.00    -0.205 F 
ATOM     45  C   UNL     1       6.273   4.850  -9.610  1.00  0.00     0.022 A 
BRANCH  43  46
ATOM     46  S   UNL     1       7.815   7.020 -10.258  1.00  0.00     0.127 S 
ATOM     47  O   UNL     1       9.093   6.324 -10.125  1.00  0.00    -0.237 OA
ATOM     48  O   UNL     1       7.149   6.829 -11.547  1.00  0.00    -0.237 OA
ATOM     49  O   UNL     1       7.786   8.390  -9.763  1.00  0.00    -0.744 OA
ENDBRANCH  43  46
ENDBRANCH  25  39
BRANCH  26  50
ATOM     50  C   UNL     1       3.154   9.096   2.052  1.00  0.00     0.023 A 
ATOM     51  C   UNL     1       1.829   8.950   2.506  1.00  0.00     0.012 A 
ATOM     52  C   UNL     1       4.122   9.641   2.917  1.00  0.00     0.148 A 
ATOM     53  C   UNL     1       1.471   9.355   3.791  1.00  0.00     0.002 A 
ATOM     54  C   UNL     1       3.771   9.990   4.215  1.00  0.00     0.091 A 
ATOM     55  F   UNL     1       5.375   9.782   2.460  1.00  0.00    -0.205 F 
ATOM     56  C   UNL     1       2.443   9.862   4.650  1.00  0.00     0.022 A 
BRANCH  54  57
ATOM     57  S   UNL     1       4.984  10.518   5.431  1.00  0.00     0.127 S 
ATOM     58  O   UNL     1       4.657  11.934   5.582  1.00  0.00    -0.237 OA
ATOM     59  O   UNL     1       4.643   9.680   6.581  1.00  0.00    -0.237 OA
ATOM     60  O   UNL     1       6.283  10.227   4.841  1.00  0.00    -0.744 OA
ENDBRANCH  54  57
ENDBRANCH  26  50
BRANCH  38  61
ATOM     61  C   UNL     1       1.328  11.006  -4.409  1.00  0.00     0.023 A 
ATOM     62  C   UNL     1       1.763  12.346  -4.383  1.00  0.00     0.012 A 
ATOM     63  C   UNL     1       0.083  10.693  -4.987  1.00  0.00     0.148 A 
ATOM     64  C   UNL     1       0.957  13.362  -4.895  1.00  0.00     0.002 A 
ATOM     65  C   UNL     1      -0.695  11.705  -5.537  1.00  0.00     0.091 A 
ATOM     66  F   UNL     1      -0.325   9.415  -4.980  1.00  0.00    -0.205 F 
ATOM     67  C   UNL     1      -0.266  13.041  -5.482  1.00  0.00     0.022 A 
BRANCH  65  68
ATOM     68  S   UNL     1      -2.236  11.365  -6.396  1.00  0.00     0.127 S 
ATOM     69  O   UNL     1      -3.228  11.751  -5.395  1.00  0.00    -0.237 OA
ATOM     70  O   UNL     1      -2.155  12.259  -7.552  1.00  0.00    -0.237 OA
ATOM     71  O   UNL     1      -2.197   9.947  -6.731  1.00  0.00    -0.744 OA
ENDBRANCH  65  68
ENDBRANCH  38  61
ENDBRANCH  12  13
ENDBRANCH   5   7
ENDBRANCH   2   3
ENDBRANCH   1   2
BRANCH   1  72
ATOM     72  C   UNL     1       7.784  -3.582  -0.229  1.00  0.00     0.117 C 
BRANCH  72  73
ATOM     73  N   UNL     1       6.987  -4.299   0.750  1.00  0.00    -0.354 N 
ATOM     74  C   UNL     1       6.292  -5.466   0.606  1.00  0.00     0.249 C 
ATOM     75  H   UNL     1       6.941  -3.886   1.642  1.00  0.00     0.163 HD
ATOM     76  O   UNL     1       5.676  -5.901   1.579  1.00  0.00    -0.272 OA
BRANCH  74  77
ATOM     77  C   UNL     1       6.332  -6.193  -0.750  1.00  0.00     0.207 C 
ATOM     78  C   UNL     1       7.688  -6.848  -0.981  1.00  0.00     0.045 C 
ATOM     79  O   UNL     1       5.364  -7.252  -0.800  1.00  0.00    -0.363 OA
ATOM     80  C   UNL     1       7.495  -8.207  -0.358  1.00  0.00     0.037 C 
ATOM     81  C   UNL     1       6.049  -8.512  -0.719  1.00  0.00     0.138 C 
BRANCH  81  82
ATOM     82  C   UNL     1       5.367  -9.462   0.282  1.00  0.00     0.145 C 
BRANCH  82  83
ATOM     83  N   UNL     1       5.717 -10.839  -0.050  1.00  0.00    -0.377 N 
ATOM     84  H   UNL     1       5.651 -11.081  -1.002  1.00  0.00     0.160 HD
BRANCH  83  85
ATOM     85  C   UNL     1       6.126 -11.847   0.798  1.00  0.00     0.113 A 
ATOM     86  C   UNL     1       6.944 -12.837   0.213  1.00  0.00     0.033 A 
ATOM     87  C   UNL     1       5.921 -11.969   2.181  1.00  0.00     0.292 A 
ATOM     88  C   UNL     1       7.522 -13.874   0.955  1.00  0.00     0.003 A 
ATOM     89  C   UNL     1       6.499 -13.006   2.942  1.00  0.00     0.088 A 
ATOM     90  C   UNL     1       7.305 -13.956   2.324  1.00  0.00     0.007 A 
BRANCH  87  91
ATOM     91  N   UNL     1       5.007 -11.102   2.902  1.00  0.00     0.064 N 
ATOM     92  O   UNL     1       5.455 -10.529   3.907  1.00  0.00    -0.258 OA
ATOM     93  O   UNL     1       3.830 -11.056   2.516  1.00  0.00    -0.258 OA
ENDBRANCH  87  91
ENDBRANCH  83  85
ENDBRANCH  82  83
ENDBRANCH  81  82
ENDBRANCH  74  77
ENDBRANCH  72  73
ENDBRANCH   1  72
TORSDOF 17
