REMARK SMILES CC[C@@H](C)[NH2+][C@H](CN=[N+]=[N-])C(=O)NCCCNC(=O)c1ccc(-c2c3nc(c(-c4cccc(S(=O)(=O)[O-])c4F)c4ccc([nH]4)c(-c4cccc(S(=O)(=O)[O-])c4F)c4nc(c(-c5cccc(S(=O)(=O)[O-])c5F)c5ccc2[nH]5)C=C4)C=C3)cc1
REMARK SMILES IDX 15 1 14 2 13 3 11 4 12 5 6 7 5 8 3 11 4 12 2 13 1 14 7 15
REMARK SMILES IDX 8 16 9 17 10 18 16 19 17 20 18 21 19 23 20 24 21 25 82 26
REMARK SMILES IDX 22 27 81 28 23 29 24 30 25 31 75 32 26 33 80 34 74 35 76 36
REMARK SMILES IDX 27 37 79 38 73 39 72 40 28 42 60 43 40 44 59 45 41 46 44 47
REMARK SMILES IDX 58 48 77 49 42 50 43 51 57 53 78 54 45 55 29 56 30 57 38 58
REMARK SMILES IDX 31 59 33 60 39 61 32 62 34 63 35 64 36 65 37 66 61 67 62 68
REMARK SMILES IDX 70 69 63 70 65 71 71 72 64 73 66 74 67 75 68 76 69 77 46 78
REMARK SMILES IDX 47 79 55 80 48 81 50 82 56 83 49 84 51 85 52 86 53 87 54 88
REMARK H PARENT 13 6 5 9 5 10 17 22 76 41 44 52
REMARK Flexibility Score: inf
ROOT
ATOM      1  C   UNL     1      -2.701  -4.570   2.609  1.00  0.00     0.042 C 
ENDROOT
BRANCH   1   2
ATOM      2  C   UNL     1      -1.893  -4.228   3.849  1.00  0.00     0.118 C 
BRANCH   2   3
ATOM      3  N   UNL     1      -0.692  -5.018   4.000  1.00  0.00    -0.351 N 
ATOM      4  C   UNL     1       0.616  -4.647   3.881  1.00  0.00     0.278 C 
ATOM      5  O   UNL     1       1.465  -5.445   4.299  1.00  0.00    -0.268 OA
ATOM      6  H   UNL     1      -0.840  -5.966   4.222  1.00  0.00     0.163 HD
BRANCH   4   7
ATOM      7  C   UNL     1       1.057  -3.316   3.213  1.00  0.00     0.278 C 
BRANCH   7   8
ATOM      8  N   UNL     1       0.578  -2.161   4.003  1.00  0.00    -0.334 N 
ATOM      9  H   UNL     1       0.061  -2.544   4.794  1.00  0.00     0.347 HD
ATOM     10  H   UNL     1       1.438  -1.647   4.195  1.00  0.00     0.347 HD
BRANCH   8  11
ATOM     11  C   UNL     1      -0.280  -1.141   3.398  1.00  0.00     0.179 C 
ATOM     12  C   UNL     1       0.505  -0.090   2.615  1.00  0.00     0.075 C 
BRANCH  11  13
ATOM     13  C   UNL     1      -1.043  -0.486   4.575  1.00  0.00     0.061 C 
ATOM     14  C   UNL     1      -2.284   0.285   4.144  1.00  0.00     0.010 C 
ENDBRANCH  11  13
ENDBRANCH   8  11
ENDBRANCH   7   8
BRANCH   7  15
ATOM     15  C   UNL     1       0.825  -3.372   1.691  1.00  0.00     0.166 C 
BRANCH  15  16
ATOM     16  N   UNL     1       1.441  -4.573   1.090  1.00  0.00    -0.087 NA
ATOM     17  N   UNL     1       2.653  -4.494   0.823  1.00  0.00     0.001 N 
ATOM     18  N   UNL     1       3.767  -4.404   0.588  1.00  0.00    -0.003 NA
ENDBRANCH  15  16
ENDBRANCH   7  15
ENDBRANCH   4   7
ENDBRANCH   2   3
ENDBRANCH   1   2
BRANCH   1  19
ATOM     19  C   UNL     1      -3.514  -5.845   2.761  1.00  0.00     0.118 C 
BRANCH  19  20
ATOM     20  N   UNL     1      -4.504  -5.751   3.833  1.00  0.00    -0.352 N 
ATOM     21  C   UNL     1      -5.874  -5.806   3.783  1.00  0.00     0.251 C 
ATOM     22  H   UNL     1      -4.127  -5.628   4.735  1.00  0.00     0.163 HD
ATOM     23  O   UNL     1      -6.534  -5.490   4.769  1.00  0.00    -0.269 OA
BRANCH  21  24
ATOM     24  C   UNL     1      -6.548  -6.234   2.542  1.00  0.00     0.039 A 
ATOM     25  C   UNL     1      -7.697  -5.562   2.119  1.00  0.00     0.014 A 
ATOM     26  C   UNL     1      -6.038  -7.296   1.793  1.00  0.00     0.014 A 
ATOM     27  C   UNL     1      -8.290  -5.910   0.904  1.00  0.00     0.010 A 
ATOM     28  C   UNL     1      -6.562  -7.566   0.538  1.00  0.00     0.010 A 
ATOM     29  C   UNL     1      -7.701  -6.886   0.084  1.00  0.00    -0.014 A 
BRANCH  29  30
ATOM     30  C   UNL     1      -8.252  -7.220  -1.252  1.00  0.00     0.031 A 
ATOM     31  C   UNL     1      -8.694  -8.627  -1.548  1.00  0.00     0.074 A 
ATOM     32  C   UNL     1      -8.245  -6.291  -2.228  1.00  0.00     0.049 A 
ATOM     33  N   UNL     1      -9.093  -9.144  -2.680  1.00  0.00    -0.248 NA
ATOM     34  C   UNL     1      -8.646  -9.589  -0.434  1.00  0.00     0.031 C 
ATOM     35  C   UNL     1      -7.762  -4.917  -2.083  1.00  0.00     0.029 A 
ATOM     36  N   UNL     1      -8.619  -6.375  -3.545  1.00  0.00    -0.354 N 
ATOM     37  C   UNL     1      -9.299 -10.495  -2.426  1.00  0.00     0.074 A 
ATOM     38  C   UNL     1      -8.941 -10.725  -1.045  1.00  0.00     0.031 C 
ATOM     39  C   UNL     1      -7.863  -4.289  -3.265  1.00  0.00     0.029 A 
ATOM     40  C   UNL     1      -8.374  -5.226  -4.260  1.00  0.00     0.049 A 
ATOM     41  H   UNL     1      -9.025  -7.180  -3.941  1.00  0.00     0.167 HD
ATOM     42  C   UNL     1      -9.768 -11.453  -3.260  1.00  0.00     0.034 A 
ATOM     43  C   UNL     1      -8.515  -4.963  -5.574  1.00  0.00     0.034 A 
ATOM     44  C   UNL     1     -10.148 -11.209  -4.624  1.00  0.00     0.049 A 
ATOM     45  C   UNL     1      -9.062  -6.033  -6.478  1.00  0.00     0.074 A 
ATOM     46  C   UNL     1     -10.723 -12.085  -5.526  1.00  0.00     0.029 A 
ATOM     47  N   UNL     1      -9.970 -10.006  -5.290  1.00  0.00    -0.354 N 
ATOM     48  N   UNL     1      -9.401  -7.265  -6.183  1.00  0.00    -0.248 NA
ATOM     49  C   UNL     1      -9.278  -5.672  -7.886  1.00  0.00     0.031 C 
ATOM     50  C   UNL     1     -10.850 -11.425  -6.752  1.00  0.00     0.029 A 
ATOM     51  C   UNL     1     -10.404 -10.122  -6.599  1.00  0.00     0.049 A 
ATOM     52  H   UNL     1      -9.591  -9.189  -4.891  1.00  0.00     0.167 HD
ATOM     53  C   UNL     1      -9.903  -7.814  -7.357  1.00  0.00     0.074 A 
ATOM     54  C   UNL     1      -9.835  -6.776  -8.365  1.00  0.00     0.031 C 
ATOM     55  C   UNL     1     -10.371  -9.067  -7.580  1.00  0.00     0.034 A 
BRANCH  42  56
ATOM     56  C   UNL     1      -9.918 -12.847  -2.705  1.00  0.00     0.023 A 
ATOM     57  C   UNL     1     -10.885 -13.110  -1.712  1.00  0.00     0.012 A 
ATOM     58  C   UNL     1      -9.121 -13.903  -3.187  1.00  0.00     0.148 A 
ATOM     59  C   UNL     1     -11.019 -14.387  -1.170  1.00  0.00     0.002 A 
ATOM     60  C   UNL     1      -9.298 -15.185  -2.681  1.00  0.00     0.091 A 
ATOM     61  F   UNL     1      -8.194 -13.633  -4.117  1.00  0.00    -0.205 F 
ATOM     62  C   UNL     1     -10.233 -15.425  -1.660  1.00  0.00     0.022 A 
BRANCH  60  63
ATOM     63  S   UNL     1      -8.397 -16.606  -3.308  1.00  0.00     0.127 S 
ATOM     64  O   UNL     1      -7.502 -16.904  -2.191  1.00  0.00    -0.237 OA
ATOM     65  O   UNL     1      -9.467 -17.583  -3.509  1.00  0.00    -0.237 OA
ATOM     66  O   UNL     1      -7.744 -16.160  -4.531  1.00  0.00    -0.744 OA
ENDBRANCH  60  63
ENDBRANCH  42  56
BRANCH  43  67
ATOM     67  C   UNL     1      -8.156  -3.616  -6.098  1.00  0.00     0.023 A 
ATOM     68  C   UNL     1      -9.170  -2.739  -6.528  1.00  0.00     0.012 A 
ATOM     69  C   UNL     1      -6.816  -3.184  -6.127  1.00  0.00     0.148 A 
ATOM     70  C   UNL     1      -8.853  -1.466  -7.003  1.00  0.00     0.002 A 
ATOM     71  C   UNL     1      -6.512  -1.895  -6.545  1.00  0.00     0.091 A 
ATOM     72  F   UNL     1      -5.866  -4.038  -5.717  1.00  0.00    -0.205 F 
ATOM     73  C   UNL     1      -7.527  -1.040  -7.001  1.00  0.00     0.022 A 
BRANCH  71  74
ATOM     74  S   UNL     1      -4.853  -1.214  -6.446  1.00  0.00     0.127 S 
ATOM     75  O   UNL     1      -4.521  -1.030  -7.856  1.00  0.00    -0.237 OA
ATOM     76  O   UNL     1      -5.082   0.024  -5.699  1.00  0.00    -0.237 OA
ATOM     77  O   UNL     1      -4.058  -2.206  -5.735  1.00  0.00    -0.744 OA
ENDBRANCH  71  74
ENDBRANCH  43  67
BRANCH  55  78
ATOM     78  C   UNL     1     -10.900  -9.387  -8.954  1.00  0.00     0.023 A 
ATOM     79  C   UNL     1     -10.013  -9.543 -10.037  1.00  0.00     0.012 A 
ATOM     80  C   UNL     1     -12.275  -9.635  -9.142  1.00  0.00     0.148 A 
ATOM     81  C   UNL     1     -10.491  -9.916 -11.293  1.00  0.00     0.002 A 
ATOM     82  C   UNL     1     -12.736 -10.059 -10.381  1.00  0.00     0.091 A 
ATOM     83  F   UNL     1     -13.102  -9.465  -8.100  1.00  0.00    -0.205 F 
ATOM     84  C   UNL     1     -11.848 -10.188 -11.461  1.00  0.00     0.022 A 
BRANCH  82  85
ATOM     85  S   UNL     1     -14.445 -10.531 -10.665  1.00  0.00     0.127 S 
ATOM     86  O   UNL     1     -14.894  -9.483 -11.581  1.00  0.00    -0.237 OA
ATOM     87  O   UNL     1     -14.301 -11.853 -11.274  1.00  0.00    -0.237 OA
ATOM     88  O   UNL     1     -15.089 -10.529  -9.359  1.00  0.00    -0.744 OA
ENDBRANCH  82  85
ENDBRANCH  55  78
ENDBRANCH  29  30
ENDBRANCH  21  24
ENDBRANCH  19  20
ENDBRANCH   1  19
TORSDOF 18
