REMARK SMILES C[C@H]1CCc2sc3ncn4nc(/C=C\C(=O)NCCCNC(=O)c5ccc(-c6c7nc(c(-c8cccc(S(=O)(=O)[O-])c8F)c8ccc([nH]8)c(-c8cccc(S(=O)(=O)[O-])c8F)c8nc(c(-c9cccc(S(=O)(=O)[O-])c9F)c9ccc6[nH]9)C=C8)C=C7)cc5)nc4c3c2C1
REMARK SMILES IDX 20 1 19 2 18 3 17 4 15 5 16 6 14 8 13 9 12 10 1 11 2 12 3 13
REMARK SMILES IDX 91 14 4 15 90 16 5 17 89 18 6 19 7 20 88 21 8 22 10 23 87 24
REMARK SMILES IDX 9 25 11 26 21 27 22 28 23 30 24 31 25 32 86 33 26 34 85 35
REMARK SMILES IDX 27 36 28 37 29 38 79 39 30 40 84 41 78 42 80 43 31 44 83 45
REMARK SMILES IDX 77 46 76 47 32 49 64 50 44 51 63 52 45 53 48 54 62 55 81 56
REMARK SMILES IDX 46 57 47 58 61 60 82 61 49 62 33 63 34 64 42 65 35 66 37 67
REMARK SMILES IDX 43 68 36 69 38 70 39 71 40 72 41 73 65 74 66 75 74 76 67 77
REMARK SMILES IDX 69 78 75 79 68 80 70 81 71 82 72 83 73 84 50 85 51 86 59 87
REMARK SMILES IDX 52 88 54 89 60 90 53 91 55 92 56 93 57 94 58 95
REMARK H PARENT 17 7 21 29 80 48 48 59
REMARK Flexibility Score: inf
ROOT
ATOM      1  C   UNL     1       1.360  -4.511   3.668  1.00  0.00     0.118 C 
ENDROOT
BRANCH   1   2
ATOM      2  C   UNL     1       2.861  -4.210   3.655  1.00  0.00     0.042 C 
BRANCH   2   3
ATOM      3  C   UNL     1       3.370  -3.772   2.294  1.00  0.00     0.118 C 
BRANCH   3   4
ATOM      4  N   UNL     1       4.206  -2.591   2.244  1.00  0.00    -0.352 N 
ATOM      5  C   UNL     1       5.459  -2.426   1.738  1.00  0.00     0.244 C 
ATOM      6  O   UNL     1       5.900  -1.291   1.554  1.00  0.00    -0.270 OA
ATOM      7  H   UNL     1       3.807  -1.782   2.637  1.00  0.00     0.163 HD
BRANCH   5   8
ATOM      8  C   UNL     1       6.399  -3.560   1.583  1.00  0.00     0.075 C 
ATOM      9  C   UNL     1       6.330  -4.699   0.877  1.00  0.00     0.057 C 
BRANCH   9  10
ATOM     10  C   UNL     1       5.264  -5.213   0.087  1.00  0.00     0.175 A 
ATOM     11  C   UNL     1       0.693  -1.027  -2.979  1.00  0.00     0.008 C 
ATOM     12  C   UNL     1       0.480  -1.381  -1.510  1.00  0.00    -0.009 C 
ATOM     13  C   UNL     1      -0.970  -1.848  -1.274  1.00  0.00     0.009 C 
ATOM     14  C   UNL     1       1.532  -2.405  -1.021  1.00  0.00     0.041 C 
ATOM     15  C   UNL     1      -1.296  -3.244  -1.816  1.00  0.00     0.047 C 
ATOM     16  C   UNL     1       1.151  -3.827  -1.313  1.00  0.00    -0.020 A 
ATOM     17  C   UNL     1      -0.142  -4.181  -1.657  1.00  0.00     0.011 A 
ATOM     18  C   UNL     1       1.945  -4.998  -1.182  1.00  0.00     0.060 A 
ATOM     19  S   UNL     1      -0.338  -5.862  -1.904  1.00  0.00    -0.120 S 
ATOM     20  C   UNL     1       1.250  -6.188  -1.365  1.00  0.00     0.129 A 
ATOM     21  C   UNL     1       3.346  -5.201  -0.765  1.00  0.00     0.168 A 
ATOM     22  N   UNL     1       1.690  -7.474  -1.139  1.00  0.00    -0.225 NA
ATOM     23  N   UNL     1       3.738  -6.483  -0.515  1.00  0.00    -0.201 N 
ATOM     24  N   UNL     1       4.311  -4.371  -0.451  1.00  0.00    -0.207 NA
ATOM     25  C   UNL     1       2.907  -7.588  -0.675  1.00  0.00     0.227 A 
ATOM     26  N   UNL     1       4.980  -6.526   0.003  1.00  0.00    -0.145 NA
ENDBRANCH   9  10
ENDBRANCH   5   8
ENDBRANCH   3   4
ENDBRANCH   2   3
ENDBRANCH   1   2
BRANCH   1  27
ATOM     27  N   UNL     1       0.899  -5.312   2.530  1.00  0.00    -0.352 N 
ATOM     28  C   UNL     1      -0.321  -5.284   1.885  1.00  0.00     0.251 C 
ATOM     29  H   UNL     1       1.551  -5.960   2.177  1.00  0.00     0.163 HD
ATOM     30  O   UNL     1      -0.718  -6.302   1.327  1.00  0.00    -0.269 OA
BRANCH  28  31
ATOM     31  C   UNL     1      -1.163  -4.068   1.905  1.00  0.00     0.039 A 
ATOM     32  C   UNL     1      -2.552  -4.194   1.827  1.00  0.00     0.014 A 
ATOM     33  C   UNL     1      -0.588  -2.806   2.061  1.00  0.00     0.014 A 
ATOM     34  C   UNL     1      -3.344  -3.083   2.090  1.00  0.00     0.010 A 
ATOM     35  C   UNL     1      -1.363  -1.724   2.428  1.00  0.00     0.010 A 
ATOM     36  C   UNL     1      -2.740  -1.876   2.492  1.00  0.00    -0.014 A 
BRANCH  36  37
ATOM     37  C   UNL     1      -3.519  -0.973   3.338  1.00  0.00     0.031 A 
ATOM     38  C   UNL     1      -4.172  -1.696   4.468  1.00  0.00     0.074 A 
ATOM     39  C   UNL     1      -3.491   0.373   3.348  1.00  0.00     0.049 A 
ATOM     40  N   UNL     1      -5.426  -1.984   4.579  1.00  0.00    -0.248 NA
ATOM     41  C   UNL     1      -3.316  -2.367   5.460  1.00  0.00     0.031 C 
ATOM     42  C   UNL     1      -2.621   1.276   2.598  1.00  0.00     0.029 A 
ATOM     43  N   UNL     1      -4.176   1.216   4.171  1.00  0.00    -0.354 N 
ATOM     44  C   UNL     1      -5.551  -2.675   5.781  1.00  0.00     0.074 A 
ATOM     45  C   UNL     1      -4.218  -3.078   6.139  1.00  0.00     0.031 C 
ATOM     46  C   UNL     1      -2.655   2.501   3.171  1.00  0.00     0.029 A 
ATOM     47  C   UNL     1      -3.662   2.506   4.217  1.00  0.00     0.049 A 
ATOM     48  H   UNL     1      -4.965   0.936   4.688  1.00  0.00     0.167 HD
ATOM     49  C   UNL     1      -6.713  -2.628   6.492  1.00  0.00     0.034 A 
ATOM     50  C   UNL     1      -4.008   3.473   5.102  1.00  0.00     0.034 A 
ATOM     51  C   UNL     1      -7.782  -2.088   5.680  1.00  0.00     0.049 A 
ATOM     52  C   UNL     1      -5.349   3.121   5.631  1.00  0.00     0.074 A 
ATOM     53  C   UNL     1      -8.344  -2.416   4.460  1.00  0.00     0.029 A 
ATOM     54  N   UNL     1      -8.146  -0.783   5.921  1.00  0.00    -0.354 N 
ATOM     55  N   UNL     1      -6.431   3.098   4.903  1.00  0.00    -0.248 NA
ATOM     56  C   UNL     1      -5.423   2.385   6.883  1.00  0.00     0.031 C 
ATOM     57  C   UNL     1      -8.585  -1.163   3.822  1.00  0.00     0.029 A 
ATOM     58  C   UNL     1      -8.236  -0.146   4.715  1.00  0.00     0.049 A 
ATOM     59  H   UNL     1      -8.312  -0.381   6.804  1.00  0.00     0.167 HD
ATOM     60  C   UNL     1      -7.128   1.987   5.358  1.00  0.00     0.074 A 
ATOM     61  C   UNL     1      -6.525   1.667   6.650  1.00  0.00     0.031 C 
ATOM     62  C   UNL     1      -7.920   1.254   4.519  1.00  0.00     0.034 A 
BRANCH  49  63
ATOM     63  C   UNL     1      -6.826  -2.660   8.008  1.00  0.00     0.023 A 
ATOM     64  C   UNL     1      -8.131  -2.531   8.544  1.00  0.00     0.012 A 
ATOM     65  C   UNL     1      -5.757  -2.520   8.920  1.00  0.00     0.148 A 
ATOM     66  C   UNL     1      -8.354  -2.152   9.871  1.00  0.00     0.002 A 
ATOM     67  C   UNL     1      -5.983  -2.212  10.258  1.00  0.00     0.091 A 
ATOM     68  F   UNL     1      -4.494  -2.577   8.502  1.00  0.00    -0.205 F 
ATOM     69  C   UNL     1      -7.277  -1.983  10.728  1.00  0.00     0.022 A 
BRANCH  67  70
ATOM     70  S   UNL     1      -4.631  -2.036  11.431  1.00  0.00     0.127 S 
ATOM     71  O   UNL     1      -4.642  -0.598  11.675  1.00  0.00    -0.237 OA
ATOM     72  O   UNL     1      -5.097  -2.861  12.545  1.00  0.00    -0.237 OA
ATOM     73  O   UNL     1      -3.447  -2.558  10.756  1.00  0.00    -0.744 OA
ENDBRANCH  67  70
ENDBRANCH  49  63
BRANCH  50  74
ATOM     74  C   UNL     1      -3.176   4.541   5.709  1.00  0.00     0.023 A 
ATOM     75  C   UNL     1      -3.802   5.617   6.371  1.00  0.00     0.012 A 
ATOM     76  C   UNL     1      -1.786   4.369   5.893  1.00  0.00     0.148 A 
ATOM     77  C   UNL     1      -3.078   6.465   7.220  1.00  0.00     0.002 A 
ATOM     78  C   UNL     1      -1.069   5.218   6.731  1.00  0.00     0.091 A 
ATOM     79  F   UNL     1      -1.183   3.317   5.324  1.00  0.00    -0.205 F 
ATOM     80  C   UNL     1      -1.714   6.260   7.407  1.00  0.00     0.022 A 
BRANCH  78  81
ATOM     81  S   UNL     1       0.689   4.992   7.041  1.00  0.00     0.127 S 
ATOM     82  O   UNL     1       1.206   6.349   6.861  1.00  0.00    -0.237 OA
ATOM     83  O   UNL     1       0.692   4.513   8.421  1.00  0.00    -0.237 OA
ATOM     84  O   UNL     1       1.149   4.038   6.040  1.00  0.00    -0.744 OA
ENDBRANCH  78  81
ENDBRANCH  50  74
BRANCH  62  85
ATOM     85  C   UNL     1      -8.271   1.816   3.162  1.00  0.00     0.023 A 
ATOM     86  C   UNL     1      -7.293   2.128   2.195  1.00  0.00     0.012 A 
ATOM     87  C   UNL     1      -9.625   1.813   2.779  1.00  0.00     0.148 A 
ATOM     88  C   UNL     1      -7.658   2.437   0.881  1.00  0.00     0.002 A 
ATOM     89  C   UNL     1      -9.979   2.061   1.459  1.00  0.00     0.091 A 
ATOM     90  F   UNL     1     -10.546   1.522   3.711  1.00  0.00    -0.205 F 
ATOM     91  C   UNL     1      -8.999   2.383   0.508  1.00  0.00     0.022 A 
BRANCH  89  92
ATOM     92  S   UNL     1     -11.667   1.850   0.886  1.00  0.00     0.127 S 
ATOM     93  O   UNL     1     -12.105   3.233   0.712  1.00  0.00    -0.237 OA
ATOM     94  O   UNL     1     -11.485   1.104  -0.360  1.00  0.00    -0.237 OA
ATOM     95  O   UNL     1     -12.355   1.101   1.931  1.00  0.00    -0.744 OA
ENDBRANCH  89  92
ENDBRANCH  62  85
ENDBRANCH  36  37
ENDBRANCH  28  31
ENDBRANCH   1  27
TORSDOF 14
