REMARK SMILES O=C(CCc1cc2n(n1)CCCN(c1ccc(C(=O)N3CCCC3)cn1)C2)NCCCNC(=O)c1ccc(-c2c3nc(c(-c4cccc(S(=O)(=O)[O-])c4F)c4ccc([nH]4)c(-c4cccc(S(=O)(=O)[O-])c4F)c4nc(c(-c5cccc(S(=O)(=O)[O-])c5F)c5ccc2[nH]5)C=C4)C=C3)cc1
REMARK SMILES IDX 1 1 2 2 28 3 3 5 4 6 5 7 6 8 9 9 7 10 8 11 27 12 13 13 12 14
REMARK SMILES IDX 14 16 15 17 26 18 16 19 25 20 17 21 18 22 19 23 20 24 21 25
REMARK SMILES IDX 24 26 22 27 23 28 10 29 11 30 29 32 30 33 31 34 32 35 33 36
REMARK SMILES IDX 34 38 35 39 36 40 97 41 37 42 96 43 38 44 39 45 40 46 90 47
REMARK SMILES IDX 41 48 95 49 89 50 91 51 42 52 94 53 88 54 87 55 43 57 75 58
REMARK SMILES IDX 55 59 74 60 56 61 59 62 73 63 92 64 57 65 58 66 72 68 93 69
REMARK SMILES IDX 60 70 44 71 45 72 53 73 46 74 48 75 54 76 47 77 49 78 50 79
REMARK SMILES IDX 51 80 52 81 76 82 77 83 85 84 78 85 80 86 86 87 79 88 81 89
REMARK SMILES IDX 82 90 83 91 84 92 61 93 62 94 70 95 63 96 65 97 71 98 64 99
REMARK SMILES IDX 66 100 67 101 68 102 69 103
REMARK H PARENT 28 4 32 37 91 56 59 67
REMARK Flexibility Score: 90.00
ROOT
ATOM      1  O   UNL     1       0.806  -0.806  -0.209  1.00  0.00    -0.275 OA
ATOM      2  C   UNL     1       1.958  -0.380  -0.201  1.00  0.00     0.220 C 
ATOM      3  N   UNL     1       2.436   0.535  -1.109  1.00  0.00    -0.356 N 
ATOM      4  H   UNL     1       3.337   0.901  -0.958  1.00  0.00     0.163 HD
ENDROOT
BRANCH   2   5
ATOM      5  C   UNL     1       2.991  -0.853   0.816  1.00  0.00     0.106 C 
BRANCH   5   6
ATOM      6  C   UNL     1       3.888  -1.976   0.275  1.00  0.00     0.068 C 
BRANCH   6   7
ATOM      7  C   UNL     1       4.912  -1.570  -0.747  1.00  0.00     0.063 A 
ATOM      8  C   UNL     1       5.890  -2.372  -1.397  1.00  0.00     0.051 A 
ATOM      9  N   UNL     1       4.970  -0.310  -1.185  1.00  0.00    -0.178 NA
ATOM     10  C   UNL     1       6.527  -1.533  -2.294  1.00  0.00     0.058 A 
ATOM     11  N   UNL     1       5.935  -0.316  -2.113  1.00  0.00    -0.267 N 
BRANCH  10  12
ATOM     12  C   UNL     1       7.645  -1.726  -3.285  1.00  0.00     0.173 C 
BRANCH  12  13
ATOM     13  N   UNL     1       8.843  -0.927  -3.021  1.00  0.00    -0.351 N 
BRANCH  13  14
ATOM     14  C   UNL     1       8.685   0.328  -2.292  1.00  0.00     0.120 CG0
ATOM     15  G   UNL     1       7.704   1.238  -3.014  1.00  0.00     0.000 G0
ENDBRANCH  13  14
BRANCH  13  16
ATOM     16  C   UNL     1       9.886  -0.926  -3.949  1.00  0.00     0.128 A 
ATOM     17  C   UNL     1      11.149  -0.492  -3.532  1.00  0.00     0.048 A 
ATOM     18  N   UNL     1       9.662  -1.236  -5.246  1.00  0.00    -0.239 NA
ATOM     19  C   UNL     1      12.162  -0.273  -4.453  1.00  0.00     0.019 A 
ATOM     20  C   UNL     1      10.683  -1.037  -6.135  1.00  0.00     0.127 A 
ATOM     21  C   UNL     1      11.947  -0.584  -5.787  1.00  0.00     0.058 A 
BRANCH  21  22
ATOM     22  C   UNL     1      12.978  -0.288  -6.809  1.00  0.00     0.255 C 
ATOM     23  O   UNL     1      12.615   0.151  -7.898  1.00  0.00    -0.269 OA
ATOM     24  N   UNL     1      14.311  -0.411  -6.456  1.00  0.00    -0.339 N 
ATOM     25  C   UNL     1      14.920  -1.301  -5.479  1.00  0.00     0.120 C 
ATOM     26  C   UNL     1      15.302   0.507  -6.990  1.00  0.00     0.120 C 
ATOM     27  C   UNL     1      16.012  -0.438  -4.877  1.00  0.00     0.023 C 
ATOM     28  C   UNL     1      16.526   0.339  -6.088  1.00  0.00     0.023 C 
ENDBRANCH  21  22
ENDBRANCH  13  16
ENDBRANCH  12  13
ENDBRANCH  10  12
BRANCH  11  29
ATOM     29  C   UNL     1       6.237   0.934  -2.765  1.00  0.00     0.146 C 
BRANCH  29  30
ATOM     30  C   UNL     1       7.704   1.238  -3.014  1.00  0.00     0.045 CG0
ATOM     31  G   UNL     1       8.685   0.328  -2.292  1.00  0.00     0.000 G0
ENDBRANCH  29  30
ENDBRANCH  11  29
ENDBRANCH   6   7
ENDBRANCH   5   6
ENDBRANCH   2   5
BRANCH   3  32
ATOM     32  C   UNL     1       1.708   0.999  -2.274  1.00  0.00     0.117 C 
BRANCH  32  33
ATOM     33  C   UNL     1       1.601   2.519  -2.364  1.00  0.00     0.042 C 
BRANCH  33  34
ATOM     34  C   UNL     1       2.938   3.235  -2.488  1.00  0.00     0.118 C 
BRANCH  34  35
ATOM     35  N   UNL     1       3.499   3.349  -3.825  1.00  0.00    -0.352 N 
ATOM     36  C   UNL     1       4.690   3.922  -4.260  1.00  0.00     0.251 C 
ATOM     37  H   UNL     1       2.946   2.956  -4.539  1.00  0.00     0.163 HD
ATOM     38  O   UNL     1       4.889   3.983  -5.459  1.00  0.00    -0.269 OA
BRANCH  36  39
ATOM     39  C   UNL     1       5.768   4.365  -3.311  1.00  0.00     0.039 A 
ATOM     40  C   UNL     1       7.062   4.613  -3.812  1.00  0.00     0.014 A 
ATOM     41  C   UNL     1       5.582   4.427  -1.936  1.00  0.00     0.014 A 
ATOM     42  C   UNL     1       8.139   4.830  -2.935  1.00  0.00     0.010 A 
ATOM     43  C   UNL     1       6.653   4.472  -1.073  1.00  0.00     0.010 A 
ATOM     44  C   UNL     1       7.932   4.704  -1.560  1.00  0.00    -0.014 A 
BRANCH  44  45
ATOM     45  C   UNL     1       8.934   5.031  -0.545  1.00  0.00     0.031 A 
ATOM     46  C   UNL     1       8.883   6.452  -0.123  1.00  0.00     0.074 A 
ATOM     47  C   UNL     1       9.531   4.118   0.251  1.00  0.00     0.049 A 
ATOM     48  N   UNL     1       9.750   7.382  -0.353  1.00  0.00    -0.248 NA
ATOM     49  C   UNL     1       7.640   6.936   0.511  1.00  0.00     0.031 C 
ATOM     50  C   UNL     1       9.267   2.683   0.236  1.00  0.00     0.029 A 
ATOM     51  N   UNL     1      10.362   4.266   1.330  1.00  0.00    -0.354 N 
ATOM     52  C   UNL     1       9.262   8.474   0.358  1.00  0.00     0.074 A 
ATOM     53  C   UNL     1       7.862   8.247   0.575  1.00  0.00     0.031 C 
ATOM     54  C   UNL     1       9.783   2.103   1.337  1.00  0.00     0.029 A 
ATOM     55  C   UNL     1      10.488   3.112   2.105  1.00  0.00     0.049 A 
ATOM     56  H   UNL     1      10.827   5.108   1.540  1.00  0.00     0.167 HD
ATOM     57  C   UNL     1      10.092   9.259   1.092  1.00  0.00     0.034 A 
ATOM     58  C   UNL     1      11.089   2.970   3.311  1.00  0.00     0.034 A 
ATOM     59  C   UNL     1      11.474   8.983   0.817  1.00  0.00     0.049 A 
ATOM     60  C   UNL     1      12.017   4.104   3.499  1.00  0.00     0.074 A 
ATOM     61  C   UNL     1      12.366   9.206  -0.206  1.00  0.00     0.029 A 
ATOM     62  N   UNL     1      12.015   8.034   1.641  1.00  0.00    -0.354 N 
ATOM     63  N   UNL     1      13.101   4.262   2.794  1.00  0.00    -0.248 NA
ATOM     64  C   UNL     1      11.620   5.251   4.309  1.00  0.00     0.031 C 
ATOM     65  C   UNL     1      13.428   8.273  -0.023  1.00  0.00     0.029 A 
ATOM     66  C   UNL     1      13.153   7.498   1.101  1.00  0.00     0.049 A 
ATOM     67  H   UNL     1      11.636   7.770   2.510  1.00  0.00     0.167 HD
ATOM     68  C   UNL     1      13.242   5.633   2.717  1.00  0.00     0.074 A 
ATOM     69  C   UNL     1      12.455   6.170   3.816  1.00  0.00     0.031 C 
ATOM     70  C   UNL     1      13.659   6.223   1.563  1.00  0.00     0.034 A 
BRANCH  57  71
ATOM     71  C   UNL     1       9.706   9.953   2.378  1.00  0.00     0.023 A 
ATOM     72  C   UNL     1      10.561  10.980   2.827  1.00  0.00     0.012 A 
ATOM     73  C   UNL     1       8.719   9.501   3.284  1.00  0.00     0.148 A 
ATOM     74  C   UNL     1      10.437  11.529   4.107  1.00  0.00     0.002 A 
ATOM     75  C   UNL     1       8.532  10.121   4.513  1.00  0.00     0.091 A 
ATOM     76  F   UNL     1       8.046   8.371   3.040  1.00  0.00    -0.205 F 
ATOM     77  C   UNL     1       9.405  11.119   4.943  1.00  0.00     0.022 A 
BRANCH  75  78
ATOM     78  S   UNL     1       7.154   9.666   5.572  1.00  0.00     0.127 S 
ATOM     79  O   UNL     1       7.787   8.730   6.495  1.00  0.00    -0.237 OA
ATOM     80  O   UNL     1       6.774  10.954   6.154  1.00  0.00    -0.237 OA
ATOM     81  O   UNL     1       6.157   9.110   4.663  1.00  0.00    -0.744 OA
ENDBRANCH  75  78
ENDBRANCH  57  71
BRANCH  58  82
ATOM     82  C   UNL     1      10.924   1.939   4.361  1.00  0.00     0.023 A 
ATOM     83  C   UNL     1      11.999   1.650   5.225  1.00  0.00     0.012 A 
ATOM     84  C   UNL     1       9.655   1.404   4.673  1.00  0.00     0.148 A 
ATOM     85  C   UNL     1      11.813   0.889   6.383  1.00  0.00     0.002 A 
ATOM     86  C   UNL     1       9.476   0.640   5.824  1.00  0.00     0.091 A 
ATOM     87  F   UNL     1       8.614   1.713   3.888  1.00  0.00    -0.205 F 
ATOM     88  C   UNL     1      10.550   0.392   6.688  1.00  0.00     0.022 A 
BRANCH  86  89
ATOM     89  S   UNL     1       7.872  -0.024   6.296  1.00  0.00     0.127 S 
ATOM     90  O   UNL     1       8.211  -1.390   6.695  1.00  0.00    -0.237 OA
ATOM     91  O   UNL     1       7.494   0.859   7.396  1.00  0.00    -0.237 OA
ATOM     92  O   UNL     1       7.046   0.059   5.098  1.00  0.00    -0.744 OA
ENDBRANCH  86  89
ENDBRANCH  58  82
BRANCH  70  93
ATOM     93  C   UNL     1      14.482   5.401   0.616  1.00  0.00     0.023 A 
ATOM     94  C   UNL     1      13.959   4.285  -0.067  1.00  0.00     0.012 A 
ATOM     95  C   UNL     1      15.796   5.814   0.342  1.00  0.00     0.148 A 
ATOM     96  C   UNL     1      14.740   3.581  -0.987  1.00  0.00     0.002 A 
ATOM     97  C   UNL     1      16.554   5.140  -0.607  1.00  0.00     0.091 A 
ATOM     98  F   UNL     1      16.283   6.871   1.010  1.00  0.00    -0.205 F 
ATOM     99  C   UNL     1      16.033   4.017  -1.267  1.00  0.00     0.022 A 
BRANCH  97 100
ATOM    100  S   UNL     1      18.180   5.726  -1.089  1.00  0.00     0.127 S 
ATOM    101  O   UNL     1      19.061   4.836  -0.336  1.00  0.00    -0.237 OA
ATOM    102  O   UNL     1      18.179   5.504  -2.536  1.00  0.00    -0.237 OA
ATOM    103  O   UNL     1      18.220   7.132  -0.705  1.00  0.00    -0.744 OA
ENDBRANCH  97 100
ENDBRANCH  70  93
ENDBRANCH  44  45
ENDBRANCH  36  39
ENDBRANCH  34  35
ENDBRANCH  33  34
ENDBRANCH  32  33
ENDBRANCH   3  32
TORSDOF 17
