REMARK SMILES N#CC1=C(N)N2C(=O)[C@@H](CC(=O)NCCCNC(=O)c3ccc(-c4c5nc(c(-c6cccc(S(=O)(=O)[O-])c6F)c6ccc([nH]6)c(-c6cccc(S(=O)(=O)[O-])c6F)c6nc(c(-c7cccc(S(=O)(=O)[O-])c7F)c7ccc4[nH]7)C=C6)C=C5)cc3)SC2=C(C#N)[C@H]1c1ccc(Cl)cc1
REMARK SMILES IDX 15 1 14 2 13 3 11 4 12 5 10 7 9 8 3 9 4 10 88 11 6 12 85 13
REMARK SMILES IDX 7 14 84 15 8 16 83 17 2 18 1 19 5 20 89 23 90 24 95 25 91 26
REMARK SMILES IDX 94 27 92 28 93 29 86 30 87 31 16 32 17 33 18 34 19 36 20 37
REMARK SMILES IDX 21 38 82 39 22 40 81 41 23 42 24 43 25 44 75 45 26 46 80 47
REMARK SMILES IDX 74 48 76 49 27 50 79 51 73 52 72 53 28 55 60 56 40 57 59 58
REMARK SMILES IDX 41 59 44 60 58 61 77 62 42 63 43 64 57 66 78 67 45 68 29 69
REMARK SMILES IDX 30 70 38 71 31 72 33 73 39 74 32 75 34 76 35 77 36 78 37 79
REMARK SMILES IDX 61 80 62 81 70 82 63 83 65 84 71 85 64 86 66 87 67 88 68 89
REMARK SMILES IDX 69 90 46 91 47 92 55 93 48 94 50 95 56 96 49 97 51 98 52 99
REMARK SMILES IDX 53 100 54 101
REMARK H PARENT 13 6 5 21 5 22 17 35 76 54 44 65
REMARK Flexibility Score: inf
ROOT
ATOM      1  C   UNL     1       8.281  -5.566   0.459  1.00  0.00     0.042 C 
ENDROOT
BRANCH   1   2
ATOM      2  C   UNL     1       9.196  -4.878  -0.556  1.00  0.00     0.117 C 
BRANCH   2   3
ATOM      3  N   UNL     1       8.499  -4.199  -1.637  1.00  0.00    -0.356 N 
ATOM      4  C   UNL     1       8.325  -2.874  -1.875  1.00  0.00     0.221 C 
ATOM      5  O   UNL     1       7.713  -2.514  -2.881  1.00  0.00    -0.275 OA
ATOM      6  H   UNL     1       8.087  -4.796  -2.302  1.00  0.00     0.163 HD
BRANCH   4   7
ATOM      7  C   UNL     1       8.889  -1.853  -0.919  1.00  0.00     0.125 C 
BRANCH   7   8
ATOM      8  C   UNL     1       8.191  -1.819   0.438  1.00  0.00     0.152 C 
ATOM      9  C   UNL     1       3.839  -0.061   0.054  1.00  0.00     0.083 C 
ATOM     10  C   UNL     1       4.520  -1.193   0.299  1.00  0.00     0.126 C 
ATOM     11  C   UNL     1       4.516   1.272  -0.222  1.00  0.00     0.107 C 
ATOM     12  N   UNL     1       5.905  -1.109   0.385  1.00  0.00    -0.258 N 
ATOM     13  C   UNL     1       5.887   1.290   0.420  1.00  0.00     0.073 C 
ATOM     14  C   UNL     1       6.727  -2.223   0.376  1.00  0.00     0.247 C 
ATOM     15  C   UNL     1       6.510   0.114   0.602  1.00  0.00     0.099 C 
ATOM     16  O   UNL     1       6.339  -3.381   0.255  1.00  0.00    -0.273 OA
ATOM     17  S   UNL     1       8.166  -0.091   1.067  1.00  0.00    -0.093 SA
BRANCH   9  18
ATOM     18  C   UNL     1       2.319  -0.061   0.054  1.00  0.00     0.100 C 
ATOM     19  N   UNL     1       1.058  -0.061   0.054  1.00  0.00    -0.193 NA
ENDBRANCH   9  18
BRANCH  10  20
ATOM     20  N   UNL     1       3.886  -2.394   0.463  1.00  0.00    -0.384 N 
ATOM     21  H   UNL     1       2.905  -2.445   0.401  1.00  0.00     0.158 HD
ATOM     22  H   UNL     1       4.411  -3.207   0.642  1.00  0.00     0.158 HD
ENDBRANCH  10  20
BRANCH  11  23
ATOM     23  C   UNL     1       4.559   1.576  -1.742  1.00  0.00    -0.034 A 
ATOM     24  C   UNL     1       5.763   1.624  -2.478  1.00  0.00     0.006 A 
ATOM     25  C   UNL     1       3.362   1.791  -2.452  1.00  0.00     0.006 A 
ATOM     26  C   UNL     1       5.768   1.874  -3.854  1.00  0.00     0.021 A 
ATOM     27  C   UNL     1       3.366   2.013  -3.835  1.00  0.00     0.021 A 
ATOM     28  C   UNL     1       4.569   2.059  -4.530  1.00  0.00     0.041 A 
ATOM     29  Cl  UNL     1       4.577   2.348  -6.225  1.00  0.00    -0.084 Cl
ENDBRANCH  11  23
BRANCH  13  30
ATOM     30  C   UNL     1       6.496   2.547   0.693  1.00  0.00     0.098 C 
ATOM     31  N   UNL     1       6.973   3.589   0.882  1.00  0.00    -0.193 NA
ENDBRANCH  13  30
ENDBRANCH   7   8
ENDBRANCH   4   7
ENDBRANCH   2   3
ENDBRANCH   1   2
BRANCH   1  32
ATOM     32  C   UNL     1       7.212  -6.455  -0.168  1.00  0.00     0.118 C 
BRANCH  32  33
ATOM     33  N   UNL     1       7.819  -7.657  -0.722  1.00  0.00    -0.352 N 
ATOM     34  C   UNL     1       7.733  -8.946  -0.256  1.00  0.00     0.251 C 
ATOM     35  H   UNL     1       8.362  -7.530  -1.533  1.00  0.00     0.163 HD
ATOM     36  O   UNL     1       8.589  -9.765  -0.575  1.00  0.00    -0.269 OA
BRANCH  34  37
ATOM     37  C   UNL     1       6.609  -9.339   0.623  1.00  0.00     0.039 A 
ATOM     38  C   UNL     1       6.854 -10.192   1.701  1.00  0.00     0.014 A 
ATOM     39  C   UNL     1       5.308  -8.899   0.359  1.00  0.00     0.014 A 
ATOM     40  C   UNL     1       5.801 -10.569   2.538  1.00  0.00     0.010 A 
ATOM     41  C   UNL     1       4.275  -9.214   1.238  1.00  0.00     0.010 A 
ATOM     42  C   UNL     1       4.506 -10.061   2.332  1.00  0.00    -0.014 A 
BRANCH  42  43
ATOM     43  C   UNL     1       3.392 -10.400   3.256  1.00  0.00     0.031 A 
ATOM     44  C   UNL     1       2.179 -11.138   2.751  1.00  0.00     0.074 A 
ATOM     45  C   UNL     1       3.445  -9.992   4.540  1.00  0.00     0.049 A 
ATOM     46  N   UNL     1       1.091 -11.472   3.395  1.00  0.00    -0.248 NA
ATOM     47  C   UNL     1       2.179 -11.536   1.333  1.00  0.00     0.031 C 
ATOM     48  C   UNL     1       4.538  -9.222   5.138  1.00  0.00     0.029 A 
ATOM     49  N   UNL     1       2.549 -10.147   5.569  1.00  0.00    -0.354 N 
ATOM     50  C   UNL     1       0.273 -12.101   2.464  1.00  0.00     0.074 A 
ATOM     51  C   UNL     1       0.970 -12.060   1.197  1.00  0.00     0.031 C 
ATOM     52  C   UNL     1       4.254  -8.982   6.427  1.00  0.00     0.029 A 
ATOM     53  C   UNL     1       2.940  -9.535   6.738  1.00  0.00     0.049 A 
ATOM     54  H   UNL     1       1.707 -10.649   5.479  1.00  0.00     0.167 HD
ATOM     55  C   UNL     1      -0.935 -12.686   2.649  1.00  0.00     0.034 A 
ATOM     56  C   UNL     1       2.304  -9.413   7.919  1.00  0.00     0.034 A 
ATOM     57  C   UNL     1      -1.623 -12.733   3.911  1.00  0.00     0.049 A 
ATOM     58  C   UNL     1       0.948 -10.046   8.087  1.00  0.00     0.074 A 
ATOM     59  C   UNL     1      -2.829 -13.341   4.211  1.00  0.00     0.029 A 
ATOM     60  N   UNL     1      -1.176 -12.137   5.080  1.00  0.00    -0.354 N 
ATOM     61  N   UNL     1       0.249 -10.745   7.226  1.00  0.00    -0.248 NA
ATOM     62  C   UNL     1       0.305  -9.900   9.401  1.00  0.00     0.031 C 
ATOM     63  C   UNL     1      -3.132 -13.078   5.550  1.00  0.00     0.029 A 
ATOM     64  C   UNL     1      -2.087 -12.353   6.100  1.00  0.00     0.049 A 
ATOM     65  H   UNL     1      -0.334 -11.635   5.172  1.00  0.00     0.167 HD
ATOM     66  C   UNL     1      -0.889 -11.161   7.908  1.00  0.00     0.074 A 
ATOM     67  C   UNL     1      -0.776 -10.653   9.259  1.00  0.00     0.031 C 
ATOM     68  C   UNL     1      -1.938 -11.889   7.454  1.00  0.00     0.034 A 
BRANCH  55  69
ATOM     69  C   UNL     1      -1.578 -13.362   1.463  1.00  0.00     0.023 A 
ATOM     70  C   UNL     1      -1.011 -14.545   0.945  1.00  0.00     0.012 A 
ATOM     71  C   UNL     1      -2.775 -12.869   0.906  1.00  0.00     0.148 A 
ATOM     72  C   UNL     1      -1.602 -15.205  -0.132  1.00  0.00     0.002 A 
ATOM     73  C   UNL     1      -3.385 -13.560  -0.134  1.00  0.00     0.091 A 
ATOM     74  F   UNL     1      -3.293 -11.738   1.404  1.00  0.00    -0.205 F 
ATOM     75  C   UNL     1      -2.793 -14.719  -0.663  1.00  0.00     0.022 A 
BRANCH  73  76
ATOM     76  S   UNL     1      -4.961 -13.066  -0.839  1.00  0.00     0.127 S 
ATOM     77  O   UNL     1      -4.573 -12.696  -2.199  1.00  0.00    -0.237 OA
ATOM     78  O   UNL     1      -5.739 -14.302  -0.741  1.00  0.00    -0.237 OA
ATOM     79  O   UNL     1      -5.448 -11.970  -0.013  1.00  0.00    -0.744 OA
ENDBRANCH  73  76
ENDBRANCH  55  69
BRANCH  56  80
ATOM     80  C   UNL     1       2.941  -8.680   9.052  1.00  0.00     0.023 A 
ATOM     81  C   UNL     1       3.299  -9.378  10.222  1.00  0.00     0.012 A 
ATOM     82  C   UNL     1       3.167  -7.292   8.987  1.00  0.00     0.148 A 
ATOM     83  C   UNL     1       3.816  -8.699  11.326  1.00  0.00     0.002 A 
ATOM     84  C   UNL     1       3.740  -6.631  10.066  1.00  0.00     0.091 A 
ATOM     85  F   UNL     1       2.815  -6.643   7.868  1.00  0.00    -0.205 F 
ATOM     86  C   UNL     1       4.042  -7.328  11.246  1.00  0.00     0.022 A 
BRANCH  84  87
ATOM     87  S   UNL     1       4.184  -4.893  10.005  1.00  0.00     0.127 S 
ATOM     88  O   UNL     1       3.229  -4.307  10.941  1.00  0.00    -0.237 OA
ATOM     89  O   UNL     1       5.570  -4.920  10.472  1.00  0.00    -0.237 OA
ATOM     90  O   UNL     1       4.029  -4.494   8.612  1.00  0.00    -0.744 OA
ENDBRANCH  84  87
ENDBRANCH  56  80
BRANCH  68  91
ATOM     91  C   UNL     1      -3.023 -12.244   8.439  1.00  0.00     0.023 A 
ATOM     92  C   UNL     1      -3.890 -11.250   8.935  1.00  0.00     0.012 A 
ATOM     93  C   UNL     1      -3.219 -13.586   8.823  1.00  0.00     0.148 A 
ATOM     94  C   UNL     1      -4.909 -11.581   9.828  1.00  0.00     0.002 A 
ATOM     95  C   UNL     1      -4.272 -13.916   9.666  1.00  0.00     0.091 A 
ATOM     96  F   UNL     1      -2.375 -14.515   8.351  1.00  0.00    -0.205 F 
ATOM     97  C   UNL     1      -5.108 -12.913  10.183  1.00  0.00     0.022 A 
BRANCH  95  98
ATOM     98  S   UNL     1      -4.667 -15.613  10.100  1.00  0.00     0.127 S 
ATOM     99  O   UNL     1      -4.362 -15.633  11.530  1.00  0.00    -0.237 OA
ATOM    100  O   UNL     1      -6.092 -15.688   9.778  1.00  0.00    -0.237 OA
ATOM    101  O   UNL     1      -3.811 -16.453   9.273  1.00  0.00    -0.744 OA
ENDBRANCH  95  98
ENDBRANCH  68  91
ENDBRANCH  42  43
ENDBRANCH  34  37
ENDBRANCH  32  33
ENDBRANCH   1  32
TORSDOF 18
