REMARK SMILES O=C(NCCCNC(=O)c1ccc2nc(Cl)sc2c1)c1ccc(-c2c3nc(c(-c4cccc(S(=O)(=O)[O-])c4F)c4ccc([nH]4)c(-c4cccc(S(=O)(=O)[O-])c4F)c4nc(c(-c5cccc(S(=O)(=O)[O-])c5F)c5ccc2[nH]5)C=C4)C=C3)cc1
REMARK SMILES IDX 1 1 2 2 3 3 20 5 21 6 82 7 22 8 81 9 23 10 24 11 25 12 75 13
REMARK SMILES IDX 26 14 80 15 74 16 76 17 27 18 79 19 73 20 72 21 28 23 60 24
REMARK SMILES IDX 40 25 59 26 41 27 44 28 58 29 77 30 42 31 43 32 57 34 78 35
REMARK SMILES IDX 45 36 29 37 30 38 38 39 31 40 33 41 39 42 32 43 34 44 35 45
REMARK SMILES IDX 36 46 37 47 61 48 62 49 70 50 63 51 65 52 71 53 64 54 66 55
REMARK SMILES IDX 67 56 68 57 69 58 46 59 47 60 55 61 48 62 50 63 56 64 49 65
REMARK SMILES IDX 51 66 52 67 53 68 54 69 4 70 5 71 6 72 7 73 8 74 9 76 10 77
REMARK SMILES IDX 11 78 19 79 12 80 18 81 13 82 17 83 14 84 15 85 16 86
REMARK H PARENT 3 4 76 22 44 33 7 75
REMARK Flexibility Score: inf
ROOT
ATOM      1  O   UNL     1       1.128  -0.200   0.455  1.00  0.00    -0.269 OA
ATOM      2  C   UNL     1       2.236   0.193   0.084  1.00  0.00     0.251 C 
ATOM      3  N   UNL     1       3.084  -0.744  -0.438  1.00  0.00    -0.352 N 
ATOM      4  H   UNL     1       2.636  -1.572  -0.727  1.00  0.00     0.163 HD
ENDROOT
BRANCH   2   5
ATOM      5  C   UNL     1       2.576   1.632   0.201  1.00  0.00     0.039 A 
ATOM      6  C   UNL     1       1.877   2.365   1.171  1.00  0.00     0.014 A 
ATOM      7  C   UNL     1       3.418   2.305  -0.692  1.00  0.00     0.014 A 
ATOM      8  C   UNL     1       2.017   3.747   1.250  1.00  0.00     0.010 A 
ATOM      9  C   UNL     1       3.574   3.694  -0.600  1.00  0.00     0.010 A 
ATOM     10  C   UNL     1       2.871   4.419   0.368  1.00  0.00    -0.014 A 
BRANCH  10  11
ATOM     11  C   UNL     1       3.005   5.874   0.548  1.00  0.00     0.031 A 
ATOM     12  C   UNL     1       4.403   6.391   0.668  1.00  0.00     0.074 A 
ATOM     13  C   UNL     1       2.054   6.709   0.081  1.00  0.00     0.049 A 
ATOM     14  N   UNL     1       5.176   6.609  -0.355  1.00  0.00    -0.248 NA
ATOM     15  C   UNL     1       5.095   6.469   1.954  1.00  0.00     0.031 C 
ATOM     16  C   UNL     1       1.349   6.510  -1.194  1.00  0.00     0.029 A 
ATOM     17  N   UNL     1       1.708   7.982   0.469  1.00  0.00    -0.354 N 
ATOM     18  C   UNL     1       6.458   6.805   0.128  1.00  0.00     0.074 A 
ATOM     19  C   UNL     1       6.358   6.714   1.568  1.00  0.00     0.031 C 
ATOM     20  C   UNL     1       0.800   7.684  -1.569  1.00  0.00     0.029 A 
ATOM     21  C   UNL     1       0.988   8.667  -0.508  1.00  0.00     0.049 A 
ATOM     22  H   UNL     1       1.945   8.368   1.343  1.00  0.00     0.167 HD
ATOM     23  C   UNL     1       7.528   7.039  -0.681  1.00  0.00     0.034 A 
ATOM     24  C   UNL     1       1.002  10.022  -0.653  1.00  0.00     0.034 A 
ATOM     25  C   UNL     1       7.223   7.132  -2.079  1.00  0.00     0.049 A 
ATOM     26  C   UNL     1       2.334  10.188  -1.357  1.00  0.00     0.074 A 
ATOM     27  C   UNL     1       7.234   6.295  -3.173  1.00  0.00     0.029 A 
ATOM     28  N   UNL     1       6.671   8.303  -2.542  1.00  0.00    -0.354 N 
ATOM     29  N   UNL     1       2.588   9.893  -2.609  1.00  0.00    -0.248 NA
ATOM     30  C   UNL     1       3.521  10.290  -0.506  1.00  0.00     0.031 C 
ATOM     31  C   UNL     1       6.270   6.841  -4.080  1.00  0.00     0.029 A 
ATOM     32  C   UNL     1       5.716   7.966  -3.469  1.00  0.00     0.049 A 
ATOM     33  H   UNL     1       6.915   9.214  -2.260  1.00  0.00     0.167 HD
ATOM     34  C   UNL     1       3.911   9.439  -2.616  1.00  0.00     0.074 A 
ATOM     35  C   UNL     1       4.431   9.735  -1.295  1.00  0.00     0.031 C 
ATOM     36  C   UNL     1       4.468   8.687  -3.612  1.00  0.00     0.034 A 
BRANCH  23  37
ATOM     37  C   UNL     1       8.886   7.389  -0.203  1.00  0.00     0.023 A 
ATOM     38  C   UNL     1       9.178   8.761  -0.070  1.00  0.00     0.012 A 
ATOM     39  C   UNL     1       9.922   6.445  -0.086  1.00  0.00     0.148 A 
ATOM     40  C   UNL     1      10.485   9.196   0.132  1.00  0.00     0.002 A 
ATOM     41  C   UNL     1      11.228   6.888   0.123  1.00  0.00     0.091 A 
ATOM     42  F   UNL     1       9.624   5.145  -0.222  1.00  0.00    -0.205 F 
ATOM     43  C   UNL     1      11.510   8.261   0.220  1.00  0.00     0.022 A 
BRANCH  41  44
ATOM     44  S   UNL     1      12.637   5.777   0.243  1.00  0.00     0.127 S 
ATOM     45  O   UNL     1      13.413   6.143  -0.945  1.00  0.00    -0.237 OA
ATOM     46  O   UNL     1      13.241   6.194   1.512  1.00  0.00    -0.237 OA
ATOM     47  O   UNL     1      12.094   4.432   0.243  1.00  0.00    -0.744 OA
ENDBRANCH  41  44
ENDBRANCH  23  37
BRANCH  24  48
ATOM     48  C   UNL     1       0.594  10.770   0.592  1.00  0.00     0.023 A 
ATOM     49  C   UNL     1      -0.569  10.302   1.259  1.00  0.00     0.012 A 
ATOM     50  C   UNL     1       1.274  11.854   1.175  1.00  0.00     0.148 A 
ATOM     51  C   UNL     1      -0.950  10.779   2.514  1.00  0.00     0.002 A 
ATOM     52  C   UNL     1       0.919  12.301   2.451  1.00  0.00     0.091 A 
ATOM     53  F   UNL     1       2.279  12.429   0.503  1.00  0.00    -0.205 F 
ATOM     54  C   UNL     1      -0.182  11.756   3.127  1.00  0.00     0.022 A 
BRANCH  52  55
ATOM     55  S   UNL     1       1.881  13.528   3.348  1.00  0.00     0.127 S 
ATOM     56  O   UNL     1       0.840  14.392   3.903  1.00  0.00    -0.237 OA
ATOM     57  O   UNL     1       2.572  12.690   4.326  1.00  0.00    -0.237 OA
ATOM     58  O   UNL     1       2.732  14.162   2.352  1.00  0.00    -0.744 OA
ENDBRANCH  52  55
ENDBRANCH  24  48
BRANCH  36  59
ATOM     59  C   UNL     1       3.647   8.465  -4.845  1.00  0.00     0.023 A 
ATOM     60  C   UNL     1       3.495   9.535  -5.744  1.00  0.00     0.012 A 
ATOM     61  C   UNL     1       3.134   7.196  -5.188  1.00  0.00     0.148 A 
ATOM     62  C   UNL     1       2.879   9.343  -6.980  1.00  0.00     0.002 A 
ATOM     63  C   UNL     1       2.544   7.004  -6.434  1.00  0.00     0.091 A 
ATOM     64  F   UNL     1       3.264   6.187  -4.313  1.00  0.00    -0.205 F 
ATOM     65  C   UNL     1       2.418   8.077  -7.330  1.00  0.00     0.022 A 
BRANCH  63  66
ATOM     66  S   UNL     1       1.969   5.402  -7.011  1.00  0.00     0.127 S 
ATOM     67  O   UNL     1       0.579   5.686  -7.369  1.00  0.00    -0.237 OA
ATOM     68  O   UNL     1       2.850   5.159  -8.154  1.00  0.00    -0.237 OA
ATOM     69  O   UNL     1       2.136   4.478  -5.898  1.00  0.00    -0.744 OA
ENDBRANCH  63  66
ENDBRANCH  36  59
ENDBRANCH  10  11
ENDBRANCH   2   5
BRANCH   3  70
ATOM     70  C   UNL     1       4.521  -0.745  -0.645  1.00  0.00     0.118 C 
BRANCH  70  71
ATOM     71  C   UNL     1       5.160  -2.015  -0.069  1.00  0.00     0.042 C 
BRANCH  71  72
ATOM     72  C   UNL     1       4.664  -3.335  -0.668  1.00  0.00     0.118 C 
BRANCH  72  73
ATOM     73  N   UNL     1       5.077  -3.531  -2.047  1.00  0.00    -0.352 N 
ATOM     74  C   UNL     1       5.791  -4.552  -2.620  1.00  0.00     0.251 C 
ATOM     75  H   UNL     1       4.800  -2.819  -2.668  1.00  0.00     0.163 HD
ATOM     76  O   UNL     1       6.134  -4.482  -3.797  1.00  0.00    -0.269 OA
BRANCH  74  77
ATOM     77  C   UNL     1       6.177  -5.753  -1.847  1.00  0.00     0.041 A 
ATOM     78  C   UNL     1       5.237  -6.492  -1.126  1.00  0.00     0.016 A 
ATOM     79  C   UNL     1       7.506  -6.191  -1.954  1.00  0.00     0.035 A 
ATOM     80  C   UNL     1       5.622  -7.657  -0.450  1.00  0.00     0.031 A 
ATOM     81  C   UNL     1       7.874  -7.367  -1.283  1.00  0.00     0.057 A 
ATOM     82  C   UNL     1       6.957  -8.107  -0.526  1.00  0.00     0.083 A 
ATOM     83  S   UNL     1       9.409  -8.153  -1.224  1.00  0.00    -0.102 S 
ATOM     84  N   UNL     1       7.465  -9.246   0.078  1.00  0.00    -0.225 NA
ATOM     85  C   UNL     1       8.732  -9.348  -0.231  1.00  0.00     0.184 A 
ATOM     86  Cl  UNL     1       9.708 -10.647   0.327  1.00  0.00    -0.050 Cl
ENDBRANCH  74  77
ENDBRANCH  72  73
ENDBRANCH  71  72
ENDBRANCH  70  71
ENDBRANCH   3  70
TORSDOF 13
