REMARK SMILES C[C@H](CN(C)C(=O)CCc1nc2ccccc2o1)C(=O)NCCCNC(=O)c1ccc(-c2c3nc(c(-c4cccc(S(=O)(=O)[O-])c4F)c4ccc([nH]4)c(-c4cccc(S(=O)(=O)[O-])c4F)c4nc(c(-c5cccc(S(=O)(=O)[O-])c5F)c5ccc2[nH]5)C=C4)C=C3)cc1
REMARK SMILES IDX 19 1 20 2 21 3 2 5 1 6 3 7 4 8 5 9 6 10 7 11 8 12 9 13 10 14
REMARK SMILES IDX 11 15 18 16 12 17 17 18 13 19 16 20 14 21 15 22 22 23 23 24
REMARK SMILES IDX 24 25 25 26 26 27 27 29 28 30 29 31 90 32 30 33 89 34 31 35
REMARK SMILES IDX 32 36 33 37 83 38 34 39 88 40 82 41 84 42 35 43 87 44 81 45
REMARK SMILES IDX 80 46 36 48 68 49 48 50 67 51 49 52 52 53 66 54 85 55 50 56
REMARK SMILES IDX 51 57 65 59 86 60 53 61 37 62 38 63 46 64 39 65 41 66 47 67
REMARK SMILES IDX 40 68 42 69 43 70 44 71 45 72 69 73 70 74 78 75 71 76 73 77
REMARK SMILES IDX 79 78 72 79 74 80 75 81 76 82 77 83 54 84 55 85 63 86 56 87
REMARK SMILES IDX 58 88 64 89 57 90 59 91 60 92 61 93 62 94
REMARK H PARENT 21 4 25 28 84 47 52 58
REMARK Flexibility Score: inf
ROOT
ATOM      1  C   UNL     1      -1.009   0.331  -1.592  1.00  0.00     0.224 C 
ATOM      2  O   UNL     1      -1.443   1.490  -1.691  1.00  0.00    -0.275 OA
ATOM      3  N   UNL     1      -1.881  -0.638  -1.966  1.00  0.00    -0.356 N 
ATOM      4  H   UNL     1      -2.736  -0.276  -2.292  1.00  0.00     0.163 HD
ENDROOT
BRANCH   1   5
ATOM      5  C   UNL     1       0.437   0.136  -1.115  1.00  0.00     0.095 C 
ATOM      6  C   UNL     1       1.344  -0.791  -1.909  1.00  0.00     0.020 C 
BRANCH   5   7
ATOM      7  C   UNL     1       0.665   0.238   0.415  1.00  0.00     0.132 C 
BRANCH   7   8
ATOM      8  N   UNL     1       0.670  -0.957   1.283  1.00  0.00    -0.345 N 
ATOM      9  C   UNL     1       1.985  -1.417   1.714  1.00  0.00     0.146 C 
BRANCH   8  10
ATOM     10  C   UNL     1      -0.501  -1.305   1.955  1.00  0.00     0.222 C 
ATOM     11  O   UNL     1      -1.535  -0.644   1.795  1.00  0.00    -0.275 OA
BRANCH  10  12
ATOM     12  C   UNL     1      -0.557  -2.526   2.884  1.00  0.00     0.110 C 
BRANCH  12  13
ATOM     13  C   UNL     1      -0.709  -3.905   2.236  1.00  0.00     0.107 C 
BRANCH  13  14
ATOM     14  C   UNL     1       0.550  -4.446   1.667  1.00  0.00     0.195 A 
ATOM     15  N   UNL     1       1.428  -5.219   2.273  1.00  0.00    -0.214 NA
ATOM     16  O   UNL     1       0.931  -4.013   0.420  1.00  0.00    -0.441 OA
ATOM     17  C   UNL     1       2.526  -5.160   1.463  1.00  0.00     0.109 A 
ATOM     18  C   UNL     1       2.231  -4.433   0.322  1.00  0.00     0.154 A 
ATOM     19  C   UNL     1       3.831  -5.619   1.665  1.00  0.00     0.032 A 
ATOM     20  C   UNL     1       3.158  -4.099  -0.660  1.00  0.00     0.049 A 
ATOM     21  C   UNL     1       4.810  -5.241   0.735  1.00  0.00     0.003 A 
ATOM     22  C   UNL     1       4.479  -4.489  -0.400  1.00  0.00     0.004 A 
ENDBRANCH  13  14
ENDBRANCH  12  13
ENDBRANCH  10  12
ENDBRANCH   8  10
ENDBRANCH   7   8
ENDBRANCH   5   7
ENDBRANCH   1   5
BRANCH   3  23
ATOM     23  C   UNL     1      -1.836  -2.088  -1.994  1.00  0.00     0.117 C 
BRANCH  23  24
ATOM     24  C   UNL     1      -2.114  -2.714  -0.642  1.00  0.00     0.042 C 
BRANCH  24  25
ATOM     25  C   UNL     1      -3.568  -2.758  -0.154  1.00  0.00     0.118 C 
BRANCH  25  26
ATOM     26  N   UNL     1      -4.106  -4.107  -0.286  1.00  0.00    -0.352 N 
ATOM     27  C   UNL     1      -4.312  -5.143   0.593  1.00  0.00     0.251 C 
ATOM     28  H   UNL     1      -4.382  -4.323  -1.207  1.00  0.00     0.163 HD
ATOM     29  O   UNL     1      -4.478  -6.256   0.083  1.00  0.00    -0.269 OA
BRANCH  27  30
ATOM     30  C   UNL     1      -4.366  -5.034   2.085  1.00  0.00     0.039 A 
ATOM     31  C   UNL     1      -4.119  -6.210   2.818  1.00  0.00     0.014 A 
ATOM     32  C   UNL     1      -4.786  -3.906   2.792  1.00  0.00     0.014 A 
ATOM     33  C   UNL     1      -4.304  -6.263   4.210  1.00  0.00     0.010 A 
ATOM     34  C   UNL     1      -4.919  -3.946   4.198  1.00  0.00     0.010 A 
ATOM     35  C   UNL     1      -4.708  -5.130   4.927  1.00  0.00    -0.014 A 
BRANCH  35  36
ATOM     36  C   UNL     1      -4.935  -5.198   6.410  1.00  0.00     0.031 A 
ATOM     37  C   UNL     1      -6.309  -4.970   7.005  1.00  0.00     0.074 A 
ATOM     38  C   UNL     1      -3.911  -5.453   7.253  1.00  0.00     0.049 A 
ATOM     39  N   UNL     1      -6.679  -4.969   8.264  1.00  0.00    -0.248 NA
ATOM     40  C   UNL     1      -7.407  -4.704   6.064  1.00  0.00     0.031 C 
ATOM     41  C   UNL     1      -2.522  -5.676   6.851  1.00  0.00     0.029 A 
ATOM     42  N   UNL     1      -3.876  -5.545   8.627  1.00  0.00    -0.354 N 
ATOM     43  C   UNL     1      -8.038  -4.666   8.270  1.00  0.00     0.074 A 
ATOM     44  C   UNL     1      -8.423  -4.474   6.887  1.00  0.00     0.031 C 
ATOM     45  C   UNL     1      -1.772  -5.870   7.948  1.00  0.00     0.029 A 
ATOM     46  C   UNL     1      -2.613  -5.750   9.138  1.00  0.00     0.049 A 
ATOM     47  H   UNL     1      -4.678  -5.471   9.192  1.00  0.00     0.167 HD
ATOM     48  C   UNL     1      -8.896  -4.573   9.318  1.00  0.00     0.034 A 
ATOM     49  C   UNL     1      -2.168  -5.815  10.411  1.00  0.00     0.034 A 
ATOM     50  C   UNL     1      -8.541  -4.794  10.697  1.00  0.00     0.049 A 
ATOM     51  C   UNL     1      -3.139  -5.698  11.558  1.00  0.00     0.074 A 
ATOM     52  C   UNL     1      -9.370  -4.791  11.808  1.00  0.00     0.029 A 
ATOM     53  N   UNL     1      -7.261  -5.042  11.162  1.00  0.00    -0.354 N 
ATOM     54  N   UNL     1      -4.439  -5.546  11.528  1.00  0.00    -0.248 NA
ATOM     55  C   UNL     1      -2.581  -5.795  12.917  1.00  0.00     0.031 C 
ATOM     56  C   UNL     1      -8.585  -4.997  12.947  1.00  0.00     0.029 A 
ATOM     57  C   UNL     1      -7.274  -5.174  12.543  1.00  0.00     0.049 A 
ATOM     58  H   UNL     1      -6.459  -5.114  10.596  1.00  0.00     0.167 HD
ATOM     59  C   UNL     1      -4.858  -5.571  12.856  1.00  0.00     0.074 A 
ATOM     60  C   UNL     1      -3.676  -5.771  13.665  1.00  0.00     0.031 C 
ATOM     61  C   UNL     1      -6.111  -5.427  13.355  1.00  0.00     0.034 A 
BRANCH  48  62
ATOM     62  C   UNL     1     -10.340  -4.243   9.019  1.00  0.00     0.023 A 
ATOM     63  C   UNL     1     -11.165  -5.209   8.409  1.00  0.00     0.012 A 
ATOM     64  C   UNL     1     -10.900  -3.013   9.419  1.00  0.00     0.148 A 
ATOM     65  C   UNL     1     -12.513  -4.943   8.165  1.00  0.00     0.002 A 
ATOM     66  C   UNL     1     -12.254  -2.772   9.216  1.00  0.00     0.091 A 
ATOM     67  F   UNL     1     -10.100  -2.102   9.991  1.00  0.00    -0.205 F 
ATOM     68  C   UNL     1     -13.059  -3.730   8.578  1.00  0.00     0.022 A 
BRANCH  66  69
ATOM     69  S   UNL     1     -13.075  -1.279   9.787  1.00  0.00     0.127 S 
ATOM     70  O   UNL     1     -13.354  -0.595   8.527  1.00  0.00    -0.237 OA
ATOM     71  O   UNL     1     -14.253  -1.814  10.467  1.00  0.00    -0.237 OA
ATOM     72  O   UNL     1     -12.121  -0.607  10.665  1.00  0.00    -0.744 OA
ENDBRANCH  66  69
ENDBRANCH  48  62
BRANCH  49  73
ATOM     73  C   UNL     1      -0.716  -6.036  10.681  1.00  0.00     0.023 A 
ATOM     74  C   UNL     1      -0.290  -7.250  11.255  1.00  0.00     0.012 A 
ATOM     75  C   UNL     1       0.242  -5.050  10.373  1.00  0.00     0.148 A 
ATOM     76  C   UNL     1       1.057  -7.464  11.549  1.00  0.00     0.002 A 
ATOM     77  C   UNL     1       1.588  -5.293  10.612  1.00  0.00     0.091 A 
ATOM     78  F   UNL     1      -0.185  -3.894   9.844  1.00  0.00    -0.205 F 
ATOM     79  C   UNL     1       1.997  -6.492  11.219  1.00  0.00     0.022 A 
BRANCH  77  80
ATOM     80  S   UNL     1       2.883  -4.157  10.104  1.00  0.00     0.127 S 
ATOM     81  O   UNL     1       3.382  -3.676  11.385  1.00  0.00    -0.237 OA
ATOM     82  O   UNL     1       3.792  -5.040   9.375  1.00  0.00    -0.237 OA
ATOM     83  O   UNL     1       2.222  -3.156   9.267  1.00  0.00    -0.744 OA
ENDBRANCH  77  80
ENDBRANCH  49  73
BRANCH  61  84
ATOM     84  C   UNL     1      -6.297  -5.529  14.850  1.00  0.00     0.023 A 
ATOM     85  C   UNL     1      -5.827  -4.502  15.693  1.00  0.00     0.012 A 
ATOM     86  C   UNL     1      -7.001  -6.612  15.415  1.00  0.00     0.148 A 
ATOM     87  C   UNL     1      -6.022  -4.569  17.074  1.00  0.00     0.002 A 
ATOM     88  C   UNL     1      -7.236  -6.648  16.785  1.00  0.00     0.091 A 
ATOM     89  F   UNL     1      -7.428  -7.590  14.603  1.00  0.00    -0.205 F 
ATOM     90  C   UNL     1      -6.735  -5.634  17.618  1.00  0.00     0.022 A 
BRANCH  88  91
ATOM     91  S   UNL     1      -8.224  -7.930  17.567  1.00  0.00     0.127 S 
ATOM     92  O   UNL     1      -7.210  -8.678  18.308  1.00  0.00    -0.237 OA
ATOM     93  O   UNL     1      -9.139  -7.152  18.401  1.00  0.00    -0.237 OA
ATOM     94  O   UNL     1      -8.867  -8.660  16.481  1.00  0.00    -0.744 OA
ENDBRANCH  88  91
ENDBRANCH  61  84
ENDBRANCH  35  36
ENDBRANCH  27  30
ENDBRANCH  25  26
ENDBRANCH  24  25
ENDBRANCH  23  24
ENDBRANCH   3  23
TORSDOF 19
