REMARK SMILES CC(C)[C@H](NS(=O)(=O)N1C[C@@H](C)O[C@H](C)C1)C(=O)NCCCNC(=O)c1ccc(-c2c3nc(c(-c4cccc(S(=O)(=O)[O-])c4F)c4ccc([nH]4)c(-c4cccc(S(=O)(=O)[O-])c4F)c4nc(c(-c5cccc(S(=O)(=O)[O-])c5F)c5ccc2[nH]5)C=C4)C=C3)cc1
REMARK SMILES IDX 21 1 20 2 19 3 17 4 18 5 4 7 2 8 1 9 3 10 5 11 6 13 7 14
REMARK SMILES IDX 8 15 9 16 10 17 16 18 11 19 14 20 12 21 13 22 15 23 22 24
REMARK SMILES IDX 23 25 24 26 25 28 26 29 27 30 88 31 28 32 87 33 29 34 30 35
REMARK SMILES IDX 31 36 81 37 32 38 86 39 80 40 82 41 33 42 85 43 79 44 78 45
REMARK SMILES IDX 34 47 66 48 46 49 65 50 47 51 50 52 64 53 83 54 48 55 49 56
REMARK SMILES IDX 63 58 84 59 51 60 35 61 36 62 44 63 37 64 39 65 45 66 38 67
REMARK SMILES IDX 40 68 41 69 42 70 43 71 67 72 68 73 76 74 69 75 71 76 77 77
REMARK SMILES IDX 70 78 72 79 73 80 74 81 75 82 52 83 53 84 61 85 54 86 56 87
REMARK SMILES IDX 62 88 55 89 57 90 58 91 59 92 60 93
REMARK H PARENT 19 6 5 12 23 27 82 46 50 57
REMARK Flexibility Score: inf
ROOT
ATOM      1  C   UNL     1       0.186   2.889   4.181  1.00  0.00     0.042 C 
ENDROOT
BRANCH   1   2
ATOM      2  C   UNL     1      -1.222   2.439   3.800  1.00  0.00     0.117 C 
BRANCH   2   3
ATOM      3  N   UNL     1      -1.623   2.985   2.524  1.00  0.00    -0.355 N 
ATOM      4  C   UNL     1      -1.657   2.421   1.294  1.00  0.00     0.238 C 
ATOM      5  O   UNL     1      -2.090   3.145   0.386  1.00  0.00    -0.273 OA
ATOM      6  H   UNL     1      -1.921   3.922   2.554  1.00  0.00     0.163 HD
BRANCH   4   7
ATOM      7  C   UNL     1      -1.200   0.983   0.962  1.00  0.00     0.162 C 
BRANCH   7   8
ATOM      8  C   UNL     1      -2.046  -0.215   1.434  1.00  0.00     0.010 C 
ATOM      9  C   UNL     1      -3.398   0.153   2.049  1.00  0.00     0.009 C 
ATOM     10  C   UNL     1      -2.317  -1.155   0.242  1.00  0.00     0.009 C 
ENDBRANCH   7   8
BRANCH   7  11
ATOM     11  N   UNL     1       0.266   0.764   0.991  1.00  0.00    -0.189 NA
ATOM     12  H   UNL     1       0.672   1.691   0.868  1.00  0.00     0.143 HD
BRANCH  11  13
ATOM     13  S   UNL     1       1.148   0.073   2.201  1.00  0.00     0.280 S 
ATOM     14  O   UNL     1       2.479   0.589   1.995  1.00  0.00    -0.195 OA
ATOM     15  O   UNL     1       0.497   0.221   3.468  1.00  0.00    -0.195 OA
BRANCH  13  16
ATOM     16  N   UNL     1       1.140  -1.568   1.945  1.00  0.00    -0.184 NA
ATOM     17  C   UNL     1       1.164  -2.183   0.614  1.00  0.00     0.135 C 
ATOM     18  C   UNL     1       2.077  -2.295   2.866  1.00  0.00     0.135 C 
ATOM     19  C   UNL     1       2.569  -2.427   0.051  1.00  0.00     0.130 C 
ATOM     20  C   UNL     1       3.496  -2.290   2.270  1.00  0.00     0.130 C 
ATOM     21  C   UNL     1       3.118  -1.209  -0.680  1.00  0.00     0.040 C 
ATOM     22  O   UNL     1       3.495  -2.976   1.003  1.00  0.00    -0.373 OA
ATOM     23  C   UNL     1       4.481  -2.975   3.210  1.00  0.00     0.040 C 
ENDBRANCH  13  16
ENDBRANCH  11  13
ENDBRANCH   7  11
ENDBRANCH   4   7
ENDBRANCH   2   3
ENDBRANCH   1   2
BRANCH   1  24
ATOM     24  C   UNL     1       0.183   4.070   5.128  1.00  0.00     0.118 C 
BRANCH  24  25
ATOM     25  N   UNL     1      -0.340   3.679   6.436  1.00  0.00    -0.352 N 
ATOM     26  C   UNL     1       0.286   3.592   7.654  1.00  0.00     0.251 C 
ATOM     27  H   UNL     1      -1.295   3.440   6.445  1.00  0.00     0.163 HD
ATOM     28  O   UNL     1      -0.250   2.957   8.559  1.00  0.00    -0.269 OA
BRANCH  26  29
ATOM     29  C   UNL     1       1.585   4.260   7.881  1.00  0.00     0.039 A 
ATOM     30  C   UNL     1       2.494   3.697   8.782  1.00  0.00     0.014 A 
ATOM     31  C   UNL     1       1.894   5.460   7.240  1.00  0.00     0.014 A 
ATOM     32  C   UNL     1       3.722   4.323   9.005  1.00  0.00     0.010 A 
ATOM     33  C   UNL     1       3.162   6.006   7.361  1.00  0.00     0.010 A 
ATOM     34  C   UNL     1       4.076   5.467   8.274  1.00  0.00    -0.014 A 
BRANCH  34  35
ATOM     35  C   UNL     1       5.378   6.148   8.466  1.00  0.00     0.031 A 
ATOM     36  C   UNL     1       5.410   7.590   8.904  1.00  0.00     0.074 A 
ATOM     37  C   UNL     1       6.518   5.500   8.161  1.00  0.00     0.049 A 
ATOM     38  N   UNL     1       6.437   8.384   9.052  1.00  0.00    -0.248 NA
ATOM     39  C   UNL     1       4.113   8.236   9.176  1.00  0.00     0.031 C 
ATOM     40  C   UNL     1       6.603   4.128   7.655  1.00  0.00     0.029 A 
ATOM     41  N   UNL     1       7.823   5.916   8.212  1.00  0.00    -0.354 N 
ATOM     42  C   UNL     1       5.910   9.625   9.392  1.00  0.00     0.074 A 
ATOM     43  C   UNL     1       4.471   9.495   9.375  1.00  0.00     0.031 C 
ATOM     44  C   UNL     1       7.892   3.809   7.462  1.00  0.00     0.029 A 
ATOM     45  C   UNL     1       8.720   4.964   7.789  1.00  0.00     0.049 A 
ATOM     46  H   UNL     1       8.091   6.811   8.521  1.00  0.00     0.167 HD
ATOM     47  C   UNL     1       6.564  10.763   9.724  1.00  0.00     0.034 A 
ATOM     48  C   UNL     1      10.060   5.023   7.671  1.00  0.00     0.034 A 
ATOM     49  C   UNL     1       7.996  10.870   9.774  1.00  0.00     0.049 A 
ATOM     50  C   UNL     1      10.765   6.292   8.064  1.00  0.00     0.074 A 
ATOM     51  C   UNL     1       8.766  11.948  10.172  1.00  0.00     0.029 A 
ATOM     52  N   UNL     1       8.875   9.863   9.404  1.00  0.00    -0.354 N 
ATOM     53  N   UNL     1      10.258   7.412   8.521  1.00  0.00    -0.248 NA
ATOM     54  C   UNL     1      12.230   6.295   7.958  1.00  0.00     0.031 C 
ATOM     55  C   UNL     1      10.111  11.604  10.008  1.00  0.00     0.029 A 
ATOM     56  C   UNL     1      10.181  10.297   9.551  1.00  0.00     0.049 A 
ATOM     57  H   UNL     1       8.609   8.971   9.084  1.00  0.00     0.167 HD
ATOM     58  C   UNL     1      11.342   8.237   8.796  1.00  0.00     0.074 A 
ATOM     59  C   UNL     1      12.534   7.479   8.471  1.00  0.00     0.031 C 
ATOM     60  C   UNL     1      11.353   9.509   9.267  1.00  0.00     0.034 A 
BRANCH  47  61
ATOM     61  C   UNL     1       5.731  11.963  10.100  1.00  0.00     0.023 A 
ATOM     62  C   UNL     1       4.972  11.945  11.289  1.00  0.00     0.012 A 
ATOM     63  C   UNL     1       5.721  13.120   9.295  1.00  0.00     0.148 A 
ATOM     64  C   UNL     1       4.179  13.036  11.646  1.00  0.00     0.002 A 
ATOM     65  C   UNL     1       4.971  14.223   9.685  1.00  0.00     0.091 A 
ATOM     66  F   UNL     1       6.431  13.115   8.158  1.00  0.00    -0.205 F 
ATOM     67  C   UNL     1       4.187  14.177  10.850  1.00  0.00     0.022 A 
BRANCH  65  68
ATOM     68  S   UNL     1       4.977  15.771   8.775  1.00  0.00     0.127 S 
ATOM     69  O   UNL     1       3.623  15.793   8.221  1.00  0.00    -0.237 OA
ATOM     70  O   UNL     1       5.217  16.749   9.836  1.00  0.00    -0.237 OA
ATOM     71  O   UNL     1       6.049  15.659   7.797  1.00  0.00    -0.744 OA
ENDBRANCH  65  68
ENDBRANCH  47  61
BRANCH  48  72
ATOM     72  C   UNL     1      10.825   3.824   7.228  1.00  0.00     0.023 A 
ATOM     73  C   UNL     1      11.648   3.151   8.152  1.00  0.00     0.012 A 
ATOM     74  C   UNL     1      10.726   3.333   5.912  1.00  0.00     0.148 A 
ATOM     75  C   UNL     1      12.388   2.033   7.765  1.00  0.00     0.002 A 
ATOM     76  C   UNL     1      11.423   2.187   5.547  1.00  0.00     0.091 A 
ATOM     77  F   UNL     1       9.939   3.989   5.048  1.00  0.00    -0.205 F 
ATOM     78  C   UNL     1      12.269   1.547   6.466  1.00  0.00     0.022 A 
BRANCH  76  79
ATOM     79  S   UNL     1      11.240   1.415   3.936  1.00  0.00     0.127 S 
ATOM     80  O   UNL     1      12.564   1.622   3.354  1.00  0.00    -0.237 OA
ATOM     81  O   UNL     1      10.936   0.031   4.300  1.00  0.00    -0.237 OA
ATOM     82  O   UNL     1      10.147   2.120   3.281  1.00  0.00    -0.744 OA
ENDBRANCH  76  79
ENDBRANCH  48  72
BRANCH  60  83
ATOM     83  C   UNL     1      12.694  10.149   9.509  1.00  0.00     0.023 A 
ATOM     84  C   UNL     1      13.506  10.526   8.421  1.00  0.00     0.012 A 
ATOM     85  C   UNL     1      13.116  10.442  10.821  1.00  0.00     0.148 A 
ATOM     86  C   UNL     1      14.734  11.148   8.637  1.00  0.00     0.002 A 
ATOM     87  C   UNL     1      14.313  11.113  11.027  1.00  0.00     0.091 A 
ATOM     88  F   UNL     1      12.335  10.061  11.843  1.00  0.00    -0.205 F 
ATOM     89  C   UNL     1      15.132  11.453   9.937  1.00  0.00     0.022 A 
BRANCH  87  90
ATOM     90  S   UNL     1      14.857  11.639  12.655  1.00  0.00     0.127 S 
ATOM     91  O   UNL     1      16.001  10.759  12.886  1.00  0.00    -0.237 OA
ATOM     92  O   UNL     1      15.202  13.042  12.426  1.00  0.00    -0.237 OA
ATOM     93  O   UNL     1      13.723  11.432  13.546  1.00  0.00    -0.744 OA
ENDBRANCH  87  90
ENDBRANCH  60  83
ENDBRANCH  34  35
ENDBRANCH  26  29
ENDBRANCH  24  25
ENDBRANCH   1  24
TORSDOF 17
