REMARK SMILES O=C(NCCCNC(=O)[C@H]1CC=CC[C@H]1C(=O)Nc1ccc(S(=O)(=O)N2CCc3ccccc32)cc1)c1ccc(-c2c3nc(c(-c4cccc(S(=O)(=O)[O-])c4F)c4ccc([nH]4)c(-c4cccc(S(=O)(=O)[O-])c4F)c4nc(c(-c5cccc(S(=O)(=O)[O-])c5F)c5ccc2[nH]5)C=C4)C=C3)cc1
REMARK SMILES IDX 5 1 4 2 3 3 1 4 2 5 37 7 38 8 99 9 39 10 98 11 40 12 41 13
REMARK SMILES IDX 42 14 92 15 43 16 97 17 91 18 93 19 44 20 96 21 90 22 89 23
REMARK SMILES IDX 45 25 77 26 57 27 76 28 58 29 61 30 75 31 94 32 59 33 60 34
REMARK SMILES IDX 74 36 95 37 62 38 46 39 47 40 55 41 48 42 50 43 56 44 49 45
REMARK SMILES IDX 51 46 52 47 53 48 54 49 78 50 79 51 87 52 80 53 82 54 88 55
REMARK SMILES IDX 81 56 83 57 84 58 85 59 86 60 63 61 64 62 72 63 65 64 67 65
REMARK SMILES IDX 73 66 66 67 68 68 69 69 70 70 71 71 6 72 7 73 8 74 9 76
REMARK SMILES IDX 10 77 11 78 15 79 12 80 14 81 13 82 16 83 17 84 18 85 19 87
REMARK SMILES IDX 20 88 36 89 21 90 35 91 22 92 23 93 24 94 25 95 26 96 27 97
REMARK SMILES IDX 34 98 28 99 29 100 33 101 30 102 32 103 31 104
REMARK H PARENT 3 6 93 24 61 35 7 75 18 86
REMARK Flexibility Score: inf
ROOT
ATOM      1  C   UNL     1       5.415   1.848  -0.417  1.00  0.00     0.042 C 
ENDROOT
BRANCH   1   2
ATOM      2  C   UNL     1       4.743   0.546  -0.037  1.00  0.00     0.118 C 
BRANCH   2   3
ATOM      3  N   UNL     1       3.290   0.660   0.128  1.00  0.00    -0.352 N 
ATOM      4  O   UNL     1       1.151  -0.088  -0.060  1.00  0.00    -0.269 OA
ATOM      5  C   UNL     1       2.350  -0.295  -0.199  1.00  0.00     0.251 C 
ATOM      6  H   UNL     1       2.952   1.502   0.509  1.00  0.00     0.163 HD
BRANCH   5   7
ATOM      7  C   UNL     1       2.868  -1.547  -0.775  1.00  0.00     0.039 A 
ATOM      8  C   UNL     1       3.860  -2.228  -0.067  1.00  0.00     0.014 A 
ATOM      9  C   UNL     1       2.566  -1.869  -2.099  1.00  0.00     0.014 A 
ATOM     10  C   UNL     1       4.689  -3.098  -0.752  1.00  0.00     0.010 A 
ATOM     11  C   UNL     1       3.316  -2.854  -2.742  1.00  0.00     0.010 A 
ATOM     12  C   UNL     1       4.402  -3.451  -2.084  1.00  0.00    -0.014 A 
BRANCH  12  13
ATOM     13  C   UNL     1       5.167  -4.560  -2.699  1.00  0.00     0.031 A 
ATOM     14  C   UNL     1       5.973  -4.383  -3.953  1.00  0.00     0.074 A 
ATOM     15  C   UNL     1       5.088  -5.758  -2.086  1.00  0.00     0.049 A 
ATOM     16  N   UNL     1       6.643  -5.285  -4.623  1.00  0.00    -0.248 NA
ATOM     17  C   UNL     1       6.031  -3.036  -4.546  1.00  0.00     0.031 C 
ATOM     18  C   UNL     1       4.281  -6.033  -0.890  1.00  0.00     0.029 A 
ATOM     19  N   UNL     1       5.674  -6.961  -2.367  1.00  0.00    -0.354 N 
ATOM     20  C   UNL     1       7.146  -4.638  -5.746  1.00  0.00     0.074 A 
ATOM     21  C   UNL     1       6.726  -3.256  -5.658  1.00  0.00     0.031 C 
ATOM     22  C   UNL     1       4.455  -7.304  -0.517  1.00  0.00     0.029 A 
ATOM     23  C   UNL     1       5.301  -7.961  -1.500  1.00  0.00     0.049 A 
ATOM     24  H   UNL     1       6.301  -7.098  -3.115  1.00  0.00     0.167 HD
ATOM     25  C   UNL     1       7.890  -5.162  -6.750  1.00  0.00     0.034 A 
ATOM     26  C   UNL     1       5.565  -9.279  -1.516  1.00  0.00     0.034 A 
ATOM     27  C   UNL     1       8.343  -6.530  -6.778  1.00  0.00     0.049 A 
ATOM     28  C   UNL     1       6.426  -9.809  -2.617  1.00  0.00     0.074 A 
ATOM     29  C   UNL     1       9.184  -7.138  -7.694  1.00  0.00     0.029 A 
ATOM     30  N   UNL     1       7.986  -7.504  -5.857  1.00  0.00    -0.354 N 
ATOM     31  N   UNL     1       6.998  -9.154  -3.598  1.00  0.00    -0.248 NA
ATOM     32  C   UNL     1       6.688 -11.252  -2.614  1.00  0.00     0.031 C 
ATOM     33  C   UNL     1       9.316  -8.485  -7.340  1.00  0.00     0.029 A 
ATOM     34  C   UNL     1       8.570  -8.713  -6.194  1.00  0.00     0.049 A 
ATOM     35  H   UNL     1       7.404  -7.357  -5.077  1.00  0.00     0.167 HD
ATOM     36  C   UNL     1       7.688 -10.105  -4.333  1.00  0.00     0.074 A 
ATOM     37  C   UNL     1       7.500 -11.373  -3.654  1.00  0.00     0.031 C 
ATOM     38  C   UNL     1       8.388  -9.952  -5.483  1.00  0.00     0.034 A 
BRANCH  25  39
ATOM     39  C   UNL     1       8.297  -4.271  -7.895  1.00  0.00     0.023 A 
ATOM     40  C   UNL     1       9.353  -3.354  -7.727  1.00  0.00     0.012 A 
ATOM     41  C   UNL     1       7.721  -4.434  -9.172  1.00  0.00     0.148 A 
ATOM     42  C   UNL     1       9.824  -2.607  -8.808  1.00  0.00     0.002 A 
ATOM     43  C   UNL     1       8.217  -3.710 -10.252  1.00  0.00     0.091 A 
ATOM     44  F   UNL     1       6.708  -5.301  -9.309  1.00  0.00    -0.205 F 
ATOM     45  C   UNL     1       9.265  -2.794 -10.070  1.00  0.00     0.022 A 
BRANCH  43  46
ATOM     46  S   UNL     1       7.616  -3.928 -11.932  1.00  0.00     0.127 S 
ATOM     47  O   UNL     1       6.976  -2.637 -12.185  1.00  0.00    -0.237 OA
ATOM     48  O   UNL     1       8.856  -4.148 -12.676  1.00  0.00    -0.237 OA
ATOM     49  O   UNL     1       6.715  -5.071 -11.895  1.00  0.00    -0.744 OA
ENDBRANCH  43  46
ENDBRANCH  25  39
BRANCH  26  50
ATOM     50  C   UNL     1       4.998 -10.153  -0.453  1.00  0.00     0.023 A 
ATOM     51  C   UNL     1       5.854 -10.728   0.503  1.00  0.00     0.012 A 
ATOM     52  C   UNL     1       3.606 -10.341  -0.332  1.00  0.00     0.148 A 
ATOM     53  C   UNL     1       5.334 -11.489   1.551  1.00  0.00     0.002 A 
ATOM     54  C   UNL     1       3.092 -11.040   0.753  1.00  0.00     0.091 A 
ATOM     55  F   UNL     1       2.803  -9.802  -1.261  1.00  0.00    -0.205 F 
ATOM     56  C   UNL     1       3.954 -11.631   1.686  1.00  0.00     0.022 A 
BRANCH  54  57
ATOM     57  S   UNL     1       1.325 -11.096   1.072  1.00  0.00     0.127 S 
ATOM     58  O   UNL     1       0.943 -12.355   0.442  1.00  0.00    -0.237 OA
ATOM     59  O   UNL     1       1.268 -11.097   2.535  1.00  0.00    -0.237 OA
ATOM     60  O   UNL     1       0.796  -9.881   0.463  1.00  0.00    -0.744 OA
ENDBRANCH  54  57
ENDBRANCH  26  50
BRANCH  38  61
ATOM     61  C   UNL     1       8.985 -11.195  -6.077  1.00  0.00     0.023 A 
ATOM     62  C   UNL     1       8.143 -12.120  -6.725  1.00  0.00     0.012 A 
ATOM     63  C   UNL     1      10.371 -11.428  -6.030  1.00  0.00     0.148 A 
ATOM     64  C   UNL     1       8.670 -13.278  -7.292  1.00  0.00     0.002 A 
ATOM     65  C   UNL     1      10.895 -12.562  -6.637  1.00  0.00     0.091 A 
ATOM     66  F   UNL     1      11.148 -10.544  -5.387  1.00  0.00    -0.205 F 
ATOM     67  C   UNL     1      10.046 -13.493  -7.257  1.00  0.00     0.022 A 
BRANCH  65  68
ATOM     68  S   UNL     1      12.661 -12.879  -6.713  1.00  0.00     0.127 S 
ATOM     69  O   UNL     1      12.814 -13.951  -5.731  1.00  0.00    -0.237 OA
ATOM     70  O   UNL     1      12.843 -13.294  -8.104  1.00  0.00    -0.237 OA
ATOM     71  O   UNL     1      13.308 -11.619  -6.371  1.00  0.00    -0.744 OA
ENDBRANCH  65  68
ENDBRANCH  38  61
ENDBRANCH  12  13
ENDBRANCH   5   7
ENDBRANCH   2   3
ENDBRANCH   1   2
BRANCH   1  72
ATOM     72  C   UNL     1       5.409   2.808   0.747  1.00  0.00     0.117 C 
BRANCH  72  73
ATOM     73  N   UNL     1       6.571   2.732   1.601  1.00  0.00    -0.356 N 
ATOM     74  C   UNL     1       7.187   3.633   2.399  1.00  0.00     0.224 C 
ATOM     75  H   UNL     1       7.001   1.846   1.603  1.00  0.00     0.163 HD
ATOM     76  O   UNL     1       8.021   3.175   3.197  1.00  0.00    -0.275 OA
BRANCH  74  77
ATOM     77  C   UNL     1       6.947   5.144   2.438  1.00  0.00     0.095 C 
ATOM     78  C   UNL     1       8.345   5.785   2.243  1.00  0.00     0.041 C 
ATOM     79  C   UNL     1       5.944   5.861   1.548  1.00  0.00     0.095 C 
ATOM     80  C   UNL     1       8.790   5.621   0.827  1.00  0.00    -0.030 C 
ATOM     81  C   UNL     1       6.429   5.928   0.050  1.00  0.00     0.041 C 
ATOM     82  C   UNL     1       7.899   5.654  -0.173  1.00  0.00    -0.030 C 
BRANCH  79  83
ATOM     83  C   UNL     1       4.402   5.728   1.699  1.00  0.00     0.228 C 
ATOM     84  O   UNL     1       3.721   6.396   0.895  1.00  0.00    -0.274 OA
ATOM     85  N   UNL     1       3.627   4.984   2.548  1.00  0.00    -0.326 N 
ATOM     86  H   UNL     1       2.680   5.250   2.506  1.00  0.00     0.169 HD
BRANCH  85  87
ATOM     87  C   UNL     1       3.838   3.936   3.467  1.00  0.00     0.041 A 
ATOM     88  C   UNL     1       3.023   2.799   3.328  1.00  0.00     0.027 A 
ATOM     89  C   UNL     1       4.872   3.879   4.382  1.00  0.00     0.027 A 
ATOM     90  C   UNL     1       3.494   1.544   3.748  1.00  0.00     0.024 A 
ATOM     91  C   UNL     1       5.368   2.632   4.791  1.00  0.00     0.024 A 
ATOM     92  C   UNL     1       4.749   1.457   4.356  1.00  0.00     0.088 A 
BRANCH  92  93
ATOM     93  S   UNL     1       5.752  -0.020   4.042  1.00  0.00     0.264 S 
ATOM     94  O   UNL     1       4.922  -0.919   3.264  1.00  0.00    -0.201 OA
ATOM     95  O   UNL     1       6.994   0.448   3.461  1.00  0.00    -0.201 OA
BRANCH  93  96
ATOM     96  N   UNL     1       6.099  -0.731   5.536  1.00  0.00    -0.266 N 
ATOM     97  C   UNL     1       6.946   0.021   6.504  1.00  0.00     0.140 C 
ATOM     98  C   UNL     1       4.991  -1.244   6.257  1.00  0.00     0.055 A 
ATOM     99  C   UNL     1       6.056   0.278   7.738  1.00  0.00     0.060 C 
ATOM    100  C   UNL     1       4.907  -0.651   7.510  1.00  0.00    -0.022 A 
ATOM    101  C   UNL     1       4.099  -2.209   5.830  1.00  0.00     0.027 A 
ATOM    102  C   UNL     1       3.829  -0.926   8.332  1.00  0.00     0.006 A 
ATOM    103  C   UNL     1       3.026  -2.514   6.661  1.00  0.00     0.002 A 
ATOM    104  C   UNL     1       2.878  -1.855   7.892  1.00  0.00     0.000 A 
ENDBRANCH  93  96
ENDBRANCH  92  93
ENDBRANCH  85  87
ENDBRANCH  79  83
ENDBRANCH  74  77
ENDBRANCH  72  73
ENDBRANCH   1  72
TORSDOF 17
