REMARK SMILES CC1(C)[C@H](C(=O)NCCCNC(=O)c2ccc(-c3c4nc(c(-c5cccc(S(=O)(=O)[O-])c5F)c5ccc([nH]5)c(-c5cccc(S(=O)(=O)[O-])c5F)c5nc(c(-c6cccc(S(=O)(=O)[O-])c6F)c6ccc3[nH]6)C=C5)C=C4)cc2)[C@H]1C(=O)Nc1ccccc1C(=O)Nc1nccs1
REMARK SMILES IDX 8 1 7 2 5 3 6 4 4 6 1 7 2 8 3 9 77 10 78 11 79 12 80 13
REMARK SMILES IDX 81 15 82 16 86 17 83 18 85 19 84 20 87 21 88 22 89 23 90 25
REMARK SMILES IDX 91 26 94 27 92 28 93 29 9 30 10 31 11 32 12 33 13 35 14 36
REMARK SMILES IDX 15 37 76 38 16 39 75 40 17 41 18 42 19 43 69 44 20 45 74 46
REMARK SMILES IDX 68 47 70 48 21 49 73 50 67 51 66 52 22 54 54 55 34 56 53 57
REMARK SMILES IDX 35 58 38 59 52 60 71 61 36 62 37 63 51 65 72 66 39 67 23 68
REMARK SMILES IDX 24 69 32 70 25 71 27 72 33 73 26 74 28 75 29 76 30 77 31 78
REMARK SMILES IDX 55 79 56 80 64 81 57 82 59 83 65 84 58 85 60 86 61 87 62 88
REMARK SMILES IDX 63 89 40 90 41 91 49 92 42 93 44 94 50 95 43 96 45 97 46 98
REMARK SMILES IDX 47 99 48 100
REMARK H PARENT 7 5 80 14 89 24 11 34 70 53 38 64
REMARK Flexibility Score: inf
ROOT
ATOM      1  C   UNL     1      -1.657   3.260  -0.199  1.00  0.00     0.117 C 
ENDROOT
BRANCH   1   2
ATOM      2  N   UNL     1      -2.105   2.535  -1.355  1.00  0.00    -0.356 N 
ATOM      3  C   UNL     1      -1.680   1.371  -1.924  1.00  0.00     0.224 C 
ATOM      4  O   UNL     1      -2.017   1.173  -3.080  1.00  0.00    -0.275 OA
ATOM      5  H   UNL     1      -2.861   2.957  -1.824  1.00  0.00     0.163 HD
BRANCH   3   6
ATOM      6  C   UNL     1      -0.973   0.288  -1.228  1.00  0.00     0.098 C 
ATOM      7  C   UNL     1       1.230  -0.871  -1.370  1.00  0.00     0.013 C 
ATOM      8  C   UNL     1       0.390   0.151  -0.640  1.00  0.00    -0.011 C 
ATOM      9  C   UNL     1       1.283   1.288  -0.170  1.00  0.00     0.013 C 
ATOM     10  C   UNL     1      -0.858  -0.013   0.253  1.00  0.00     0.098 C 
BRANCH  10  11
ATOM     11  C   UNL     1      -1.983  -0.895   0.627  1.00  0.00     0.228 C 
ATOM     12  O   UNL     1      -3.009  -0.348   1.038  1.00  0.00    -0.274 OA
ATOM     13  N   UNL     1      -2.022  -2.241   0.465  1.00  0.00    -0.325 N 
ATOM     14  H   UNL     1      -2.914  -2.629   0.617  1.00  0.00     0.169 HD
BRANCH  13  15
ATOM     15  C   UNL     1      -1.057  -3.186   0.127  1.00  0.00     0.054 A 
ATOM     16  C   UNL     1      -1.542  -4.141  -0.788  1.00  0.00     0.027 A 
ATOM     17  C   UNL     1       0.275  -3.244   0.560  1.00  0.00     0.063 A 
ATOM     18  C   UNL     1      -0.682  -5.017  -1.437  1.00  0.00     0.002 A 
ATOM     19  C   UNL     1       1.135  -4.131  -0.127  1.00  0.00     0.016 A 
ATOM     20  C   UNL     1       0.670  -4.981  -1.137  1.00  0.00     0.001 A 
BRANCH  17  21
ATOM     21  C   UNL     1       0.937  -2.424   1.629  1.00  0.00     0.259 C 
ATOM     22  O   UNL     1       2.149  -2.203   1.532  1.00  0.00    -0.269 OA
ATOM     23  N   UNL     1       0.298  -1.839   2.686  1.00  0.00    -0.298 N 
ATOM     24  H   UNL     1       0.737  -1.043   3.066  1.00  0.00     0.172 HD
BRANCH  23  25
ATOM     25  C   UNL     1      -0.864  -2.215   3.280  1.00  0.00     0.189 A 
ATOM     26  N   UNL     1      -1.560  -3.312   3.131  1.00  0.00    -0.229 NA
ATOM     27  S   UNL     1      -1.487  -1.046   4.359  1.00  0.00    -0.105 S 
ATOM     28  C   UNL     1      -2.734  -3.190   3.851  1.00  0.00     0.125 A 
ATOM     29  C   UNL     1      -2.898  -2.003   4.534  1.00  0.00     0.088 A 
ENDBRANCH  23  25
ENDBRANCH  17  21
ENDBRANCH  13  15
ENDBRANCH  10  11
ENDBRANCH   3   6
ENDBRANCH   1   2
BRANCH   1  30
ATOM     30  C   UNL     1      -0.479   4.152  -0.565  1.00  0.00     0.042 C 
BRANCH  30  31
ATOM     31  C   UNL     1      -0.846   5.260  -1.537  1.00  0.00     0.118 C 
BRANCH  31  32
ATOM     32  N   UNL     1      -1.745   6.231  -0.937  1.00  0.00    -0.352 N 
ATOM     33  C   UNL     1      -1.520   7.550  -0.632  1.00  0.00     0.251 C 
ATOM     34  H   UNL     1      -2.644   5.895  -0.717  1.00  0.00     0.163 HD
ATOM     35  O   UNL     1      -2.303   8.147   0.101  1.00  0.00    -0.269 OA
BRANCH  33  36
ATOM     36  C   UNL     1      -0.331   8.239  -1.178  1.00  0.00     0.039 A 
ATOM     37  C   UNL     1       0.378   9.121  -0.359  1.00  0.00     0.014 A 
ATOM     38  C   UNL     1       0.074   8.030  -2.499  1.00  0.00     0.014 A 
ATOM     39  C   UNL     1       1.519   9.756  -0.854  1.00  0.00     0.010 A 
ATOM     40  C   UNL     1       1.264   8.582  -2.955  1.00  0.00     0.010 A 
ATOM     41  C   UNL     1       1.987   9.471  -2.147  1.00  0.00    -0.014 A 
BRANCH  41  42
ATOM     42  C   UNL     1       3.208  10.113  -2.694  1.00  0.00     0.031 A 
ATOM     43  C   UNL     1       3.108  10.979  -3.923  1.00  0.00     0.074 A 
ATOM     44  C   UNL     1       4.408   9.854  -2.139  1.00  0.00     0.049 A 
ATOM     45  N   UNL     1       4.063  11.550  -4.610  1.00  0.00    -0.248 NA
ATOM     46  C   UNL     1       1.760  11.208  -4.473  1.00  0.00     0.031 C 
ATOM     47  C   UNL     1       4.640   8.977  -0.988  1.00  0.00     0.029 A 
ATOM     48  N   UNL     1       5.665  10.281  -2.487  1.00  0.00    -0.354 N 
ATOM     49  C   UNL     1       3.438  12.170  -5.686  1.00  0.00     0.074 A 
ATOM     50  C   UNL     1       2.027  11.872  -5.587  1.00  0.00     0.031 C 
ATOM     51  C   UNL     1       5.956   8.937  -0.723  1.00  0.00     0.029 A 
ATOM     52  C   UNL     1       6.665   9.753  -1.703  1.00  0.00     0.049 A 
ATOM     53  H   UNL     1       5.835  10.906  -3.228  1.00  0.00     0.167 HD
ATOM     54  C   UNL     1       3.983  12.949  -6.649  1.00  0.00     0.034 A 
ATOM     55  C   UNL     1       8.002   9.903  -1.774  1.00  0.00     0.034 A 
ATOM     56  C   UNL     1       5.379  13.285  -6.712  1.00  0.00     0.049 A 
ATOM     57  C   UNL     1       8.577  10.799  -2.840  1.00  0.00     0.074 A 
ATOM     58  C   UNL     1       6.022  14.123  -7.606  1.00  0.00     0.029 A 
ATOM     59  N   UNL     1       6.346  12.804  -5.845  1.00  0.00    -0.354 N 
ATOM     60  N   UNL     1       7.953  11.488  -3.765  1.00  0.00    -0.248 NA
ATOM     61  C   UNL     1      10.037  10.968  -2.849  1.00  0.00     0.031 C 
ATOM     62  C   UNL     1       7.383  14.135  -7.289  1.00  0.00     0.029 A 
ATOM     63  C   UNL     1       7.582  13.327  -6.180  1.00  0.00     0.049 A 
ATOM     64  H   UNL     1       6.179  12.182  -5.100  1.00  0.00     0.167 HD
ATOM     65  C   UNL     1       8.937  12.206  -4.434  1.00  0.00     0.074 A 
ATOM     66  C   UNL     1      10.197  11.881  -3.797  1.00  0.00     0.031 C 
ATOM     67  C   UNL     1       8.813  13.047  -5.489  1.00  0.00     0.034 A 
BRANCH  54  68
ATOM     68  C   UNL     1       3.059  13.547  -7.678  1.00  0.00     0.023 A 
ATOM     69  C   UNL     1       2.174  14.578  -7.297  1.00  0.00     0.012 A 
ATOM     70  C   UNL     1       3.112  13.146  -9.026  1.00  0.00     0.148 A 
ATOM     71  C   UNL     1       1.335  15.177  -8.234  1.00  0.00     0.002 A 
ATOM     72  C   UNL     1       2.305  13.781  -9.964  1.00  0.00     0.091 A 
ATOM     73  F   UNL     1       3.946  12.153  -9.366  1.00  0.00    -0.205 F 
ATOM     74  C   UNL     1       1.409  14.787  -9.568  1.00  0.00     0.022 A 
BRANCH  72  75
ATOM     75  S   UNL     1       2.380  13.412 -11.721  1.00  0.00     0.127 S 
ATOM     76  O   UNL     1       1.072  12.797 -11.949  1.00  0.00    -0.237 OA
ATOM     77  O   UNL     1       2.538  14.743 -12.307  1.00  0.00    -0.237 OA
ATOM     78  O   UNL     1       3.522  12.526 -11.899  1.00  0.00    -0.744 OA
ENDBRANCH  72  75
ENDBRANCH  54  68
BRANCH  55  79
ATOM     79  C   UNL     1       8.890   9.243  -0.775  1.00  0.00     0.023 A 
ATOM     80  C   UNL     1       9.586  10.035   0.160  1.00  0.00     0.012 A 
ATOM     81  C   UNL     1       9.051   7.845  -0.743  1.00  0.00     0.148 A 
ATOM     82  C   UNL     1      10.460   9.451   1.077  1.00  0.00     0.002 A 
ATOM     83  C   UNL     1       9.880   7.265   0.211  1.00  0.00     0.091 A 
ATOM     84  F   UNL     1       8.391   7.107  -1.646  1.00  0.00    -0.205 F 
ATOM     85  C   UNL     1      10.601   8.067   1.109  1.00  0.00     0.022 A 
BRANCH  83  86
ATOM     86  S   UNL     1      10.019   5.485   0.407  1.00  0.00     0.127 S 
ATOM     87  O   UNL     1      11.343   5.225  -0.153  1.00  0.00    -0.237 OA
ATOM     88  O   UNL     1       9.922   5.330   1.859  1.00  0.00    -0.237 OA
ATOM     89  O   UNL     1       8.894   4.924  -0.330  1.00  0.00    -0.744 OA
ENDBRANCH  83  86
ENDBRANCH  55  79
BRANCH  67  90
ATOM     90  C   UNL     1      10.057  13.730  -5.991  1.00  0.00     0.023 A 
ATOM     91  C   UNL     1      11.022  12.997  -6.710  1.00  0.00     0.012 A 
ATOM     92  C   UNL     1      10.224  15.119  -5.824  1.00  0.00     0.148 A 
ATOM     93  C   UNL     1      12.150  13.632  -7.228  1.00  0.00     0.002 A 
ATOM     94  C   UNL     1      11.324  15.753  -6.387  1.00  0.00     0.091 A 
ATOM     95  F   UNL     1       9.302  15.794  -5.121  1.00  0.00    -0.205 F 
ATOM     96  C   UNL     1      12.294  15.009  -7.079  1.00  0.00     0.022 A 
BRANCH  94  97
ATOM     97  S   UNL     1      11.542  17.535  -6.332  1.00  0.00     0.127 S 
ATOM     98  O   UNL     1      12.661  17.669  -5.401  1.00  0.00    -0.237 OA
ATOM     99  O   UNL     1      11.864  17.850  -7.724  1.00  0.00    -0.237 OA
ATOM    100  O   UNL     1      10.275  18.081  -5.866  1.00  0.00    -0.744 OA
ENDBRANCH  94  97
ENDBRANCH  67  90
ENDBRANCH  41  42
ENDBRANCH  33  36
ENDBRANCH  31  32
ENDBRANCH  30  31
ENDBRANCH   1  30
TORSDOF 17
