REMARK SMILES O=C(NCCCNC(=O)c1nccnc1C(=O)Nc1n[nH]c2ncccc12)c1ccc(-c2c3nc(c(-c4cccc(S(=O)(=O)[O-])c4F)c4ccc([nH]4)c(-c4cccc(S(=O)(=O)[O-])c4F)c4nc(c(-c5cccc(S(=O)(=O)[O-])c5F)c5ccc2[nH]5)C=C4)C=C3)cc1
REMARK SMILES IDX 4 1 3 2 1 3 2 4 28 6 29 7 90 8 30 9 89 10 31 11 32 12 33 13
REMARK SMILES IDX 83 14 34 15 88 16 82 17 84 18 35 19 87 20 81 21 80 22 36 24
REMARK SMILES IDX 68 25 48 26 67 27 49 28 52 29 66 30 85 31 50 32 51 33 65 35
REMARK SMILES IDX 86 36 53 37 37 38 38 39 46 40 39 41 41 42 47 43 40 44 42 45
REMARK SMILES IDX 43 46 44 47 45 48 69 49 70 50 78 51 71 52 73 53 79 54 72 55
REMARK SMILES IDX 74 56 75 57 76 58 77 59 54 60 55 61 63 62 56 63 58 64 64 65
REMARK SMILES IDX 57 66 59 67 60 68 61 69 62 70 5 71 6 72 7 73 8 74 9 76 10 77
REMARK SMILES IDX 11 78 15 79 12 80 14 81 13 82 16 83 17 84 18 85 19 87 20 88
REMARK SMILES IDX 27 89 21 90 22 91 26 92 23 94 25 95 24 96
REMARK H PARENT 3 5 84 23 52 34 7 75 18 86 21 93
REMARK Flexibility Score: inf
ROOT
ATOM      1  C   UNL     1       3.825  -1.520   1.099  1.00  0.00     0.118 C 
ENDROOT
BRANCH   1   2
ATOM      2  N   UNL     1       2.492  -1.233   0.614  1.00  0.00    -0.352 N 
ATOM      3  O   UNL     1       0.849   0.115  -0.161  1.00  0.00    -0.269 OA
ATOM      4  C   UNL     1       1.975   0.013   0.298  1.00  0.00     0.251 C 
ATOM      5  H   UNL     1       1.890  -2.003   0.496  1.00  0.00     0.163 HD
BRANCH   4   6
ATOM      6  C   UNL     1       2.788   1.228   0.563  1.00  0.00     0.039 A 
ATOM      7  C   UNL     1       4.006   1.445  -0.088  1.00  0.00     0.014 A 
ATOM      8  C   UNL     1       2.315   2.163   1.486  1.00  0.00     0.014 A 
ATOM      9  C   UNL     1       4.795   2.550   0.257  1.00  0.00     0.010 A 
ATOM     10  C   UNL     1       3.090   3.286   1.803  1.00  0.00     0.010 A 
ATOM     11  C   UNL     1       4.352   3.477   1.217  1.00  0.00    -0.014 A 
BRANCH  11  12
ATOM     12  C   UNL     1       5.184   4.658   1.585  1.00  0.00     0.031 A 
ATOM     13  C   UNL     1       5.766   4.797   2.969  1.00  0.00     0.074 A 
ATOM     14  C   UNL     1       5.378   5.645   0.688  1.00  0.00     0.049 A 
ATOM     15  N   UNL     1       6.486   5.770   3.471  1.00  0.00    -0.248 NA
ATOM     16  C   UNL     1       5.498   3.704   3.916  1.00  0.00     0.031 C 
ATOM     17  C   UNL     1       4.839   5.662  -0.672  1.00  0.00     0.029 A 
ATOM     18  N   UNL     1       6.060   6.833   0.791  1.00  0.00    -0.354 N 
ATOM     19  C   UNL     1       6.722   5.431   4.799  1.00  0.00     0.074 A 
ATOM     20  C   UNL     1       6.062   4.161   5.027  1.00  0.00     0.031 C 
ATOM     21  C   UNL     1       5.210   6.801  -1.276  1.00  0.00     0.029 A 
ATOM     22  C   UNL     1       5.982   7.613  -0.339  1.00  0.00     0.049 A 
ATOM     23  H   UNL     1       6.558   7.101   1.597  1.00  0.00     0.167 HD
ATOM     24  C   UNL     1       7.431   6.103   5.741  1.00  0.00     0.034 A 
ATOM     25  C   UNL     1       6.462   8.847  -0.594  1.00  0.00     0.034 A 
ATOM     26  C   UNL     1       8.109   7.353   5.511  1.00  0.00     0.049 A 
ATOM     27  C   UNL     1       7.255   9.566   0.462  1.00  0.00     0.074 A 
ATOM     28  C   UNL     1       8.912   8.069   6.383  1.00  0.00     0.029 A 
ATOM     29  N   UNL     1       8.053   8.084   4.334  1.00  0.00    -0.354 N 
ATOM     30  N   UNL     1       7.585   9.164   1.665  1.00  0.00    -0.248 NA
ATOM     31  C   UNL     1       7.770  10.899   0.114  1.00  0.00     0.031 C 
ATOM     32  C   UNL     1       9.320   9.245   5.742  1.00  0.00     0.029 A 
ATOM     33  C   UNL     1       8.796   9.247   4.460  1.00  0.00     0.049 A 
ATOM     34  H   UNL     1       7.558   7.815   3.527  1.00  0.00     0.167 HD
ATOM     35  C   UNL     1       8.376  10.173   2.203  1.00  0.00     0.074 A 
ATOM     36  C   UNL     1       8.488  11.200   1.188  1.00  0.00     0.031 C 
ATOM     37  C   UNL     1       8.948  10.245   3.430  1.00  0.00     0.034 A 
BRANCH  24  38
ATOM     38  C   UNL     1       7.537   5.483   7.113  1.00  0.00     0.023 A 
ATOM     39  C   UNL     1       8.340   4.339   7.301  1.00  0.00     0.012 A 
ATOM     40  C   UNL     1       6.889   6.059   8.225  1.00  0.00     0.148 A 
ATOM     41  C   UNL     1       8.462   3.754   8.562  1.00  0.00     0.002 A 
ATOM     42  C   UNL     1       7.050   5.494   9.486  1.00  0.00     0.091 A 
ATOM     43  F   UNL     1       6.116   7.136   8.029  1.00  0.00    -0.205 F 
ATOM     44  C   UNL     1       7.825   4.336   9.654  1.00  0.00     0.022 A 
BRANCH  42  45
ATOM     45  S   UNL     1       6.330   6.219  10.965  1.00  0.00     0.127 S 
ATOM     46  O   UNL     1       5.196   5.329  11.206  1.00  0.00    -0.237 OA
ATOM     47  O   UNL     1       7.419   6.093  11.935  1.00  0.00    -0.237 OA
ATOM     48  O   UNL     1       5.994   7.590  10.611  1.00  0.00    -0.744 OA
ENDBRANCH  42  45
ENDBRANCH  24  38
BRANCH  25  49
ATOM     49  C   UNL     1       6.258   9.451  -1.941  1.00  0.00     0.023 A 
ATOM     50  C   UNL     1       7.357   9.577  -2.811  1.00  0.00     0.012 A 
ATOM     51  C   UNL     1       4.981   9.850  -2.381  1.00  0.00     0.148 A 
ATOM     52  C   UNL     1       7.193  10.107  -4.091  1.00  0.00     0.002 A 
ATOM     53  C   UNL     1       4.815  10.325  -3.677  1.00  0.00     0.091 A 
ATOM     54  F   UNL     1       3.951   9.734  -1.531  1.00  0.00    -0.205 F 
ATOM     55  C   UNL     1       5.922  10.469  -4.528  1.00  0.00     0.022 A 
BRANCH  53  56
ATOM     56  S   UNL     1       3.200  10.692  -4.373  1.00  0.00     0.127 S 
ATOM     57  O   UNL     1       3.269  12.141  -4.540  1.00  0.00    -0.237 OA
ATOM     58  O   UNL     1       3.231   9.925  -5.619  1.00  0.00    -0.237 OA
ATOM     59  O   UNL     1       2.232  10.215  -3.396  1.00  0.00    -0.744 OA
ENDBRANCH  53  56
ENDBRANCH  25  49
BRANCH  37  60
ATOM     60  C   UNL     1       9.789  11.456   3.742  1.00  0.00     0.023 A 
ATOM     61  C   UNL     1       9.173  12.704   3.964  1.00  0.00     0.012 A 
ATOM     62  C   UNL     1      11.188  11.344   3.880  1.00  0.00     0.148 A 
ATOM     63  C   UNL     1       9.938  13.826   4.284  1.00  0.00     0.002 A 
ATOM     64  C   UNL     1      11.938  12.456   4.247  1.00  0.00     0.091 A 
ATOM     65  F   UNL     1      11.760  10.154   3.644  1.00  0.00    -0.205 F 
ATOM     66  C   UNL     1      11.316  13.700   4.438  1.00  0.00     0.022 A 
BRANCH  64  67
ATOM     67  S   UNL     1      13.705  12.361   4.559  1.00  0.00     0.127 S 
ATOM     68  O   UNL     1      14.254  13.007   3.368  1.00  0.00    -0.237 OA
ATOM     69  O   UNL     1      13.846  13.136   5.793  1.00  0.00    -0.237 OA
ATOM     70  O   UNL     1      14.010  10.944   4.702  1.00  0.00    -0.744 OA
ENDBRANCH  64  67
ENDBRANCH  37  60
ENDBRANCH  11  12
ENDBRANCH   4   6
ENDBRANCH   1   2
BRANCH   1  71
ATOM     71  C   UNL     1       4.047  -2.830   1.857  1.00  0.00     0.042 C 
BRANCH  71  72
ATOM     72  C   UNL     1       3.542  -4.141   1.258  1.00  0.00     0.118 C 
BRANCH  72  73
ATOM     73  N   UNL     1       4.149  -4.586   0.010  1.00  0.00    -0.351 N 
ATOM     74  C   UNL     1       4.955  -5.689  -0.242  1.00  0.00     0.272 C 
ATOM     75  H   UNL     1       3.960  -4.019  -0.772  1.00  0.00     0.163 HD
ATOM     76  O   UNL     1       4.837  -6.261  -1.324  1.00  0.00    -0.267 OA
BRANCH  74  77
ATOM     77  C   UNL     1       5.897  -6.255   0.755  1.00  0.00     0.159 A 
ATOM     78  N   UNL     1       5.285  -6.584   1.940  1.00  0.00    -0.247 NA
ATOM     79  C   UNL     1       7.247  -6.556   0.519  1.00  0.00     0.159 A 
ATOM     80  C   UNL     1       6.045  -7.197   2.869  1.00  0.00     0.132 A 
ATOM     81  N   UNL     1       7.991  -7.178   1.496  1.00  0.00    -0.247 NA
ATOM     82  C   UNL     1       7.373  -7.487   2.653  1.00  0.00     0.132 A 
BRANCH  79  83
ATOM     83  C   UNL     1       8.131  -6.205  -0.658  1.00  0.00     0.277 C 
ATOM     84  O   UNL     1       9.279  -5.807  -0.452  1.00  0.00    -0.267 OA
ATOM     85  N   UNL     1       7.740  -6.537  -1.928  1.00  0.00    -0.303 N 
ATOM     86  H   UNL     1       7.904  -7.453  -2.250  1.00  0.00     0.172 HD
BRANCH  85  87
ATOM     87  C   UNL     1       7.128  -5.637  -2.770  1.00  0.00     0.164 A 
ATOM     88  N   UNL     1       6.709  -6.033  -3.977  1.00  0.00    -0.155 NA
ATOM     89  C   UNL     1       6.763  -4.295  -2.489  1.00  0.00     0.063 A 
ATOM     90  N   UNL     1       5.840  -5.056  -4.324  1.00  0.00    -0.259 N 
ATOM     91  C   UNL     1       5.809  -4.009  -3.450  1.00  0.00     0.157 A 
ATOM     92  C   UNL     1       7.016  -3.329  -1.504  1.00  0.00     0.017 A 
ATOM     93  H   UNL     1       5.280  -5.098  -5.133  1.00  0.00     0.192 HD
ATOM     94  N   UNL     1       4.993  -2.939  -3.499  1.00  0.00    -0.237 NA
ATOM     95  C   UNL     1       6.235  -2.178  -1.537  1.00  0.00     0.021 A 
ATOM     96  C   UNL     1       5.236  -2.060  -2.499  1.00  0.00     0.113 A 
ENDBRANCH  85  87
ENDBRANCH  79  83
ENDBRANCH  74  77
ENDBRANCH  72  73
ENDBRANCH  71  72
ENDBRANCH   1  71
TORSDOF 15
