REMARK SMILES Cc1cc(F)ccc1OC1(C(=O)NCCCNC(=O)c2ccc(-c3c4nc(c(-c5cccc(S(=O)(=O)[O-])c5F)c5ccc([nH]5)c(-c5cccc(S(=O)(=O)[O-])c5F)c5nc(c(-c6cccc(S(=O)(=O)[O-])c6F)c6ccc3[nH]6)C=C5)C=C4)cc2)CCN(C(=O)[C@H]2CCOC2)CC1
REMARK SMILES IDX 15 1 14 2 13 3 11 4 12 5 10 7 83 8 94 9 84 10 93 11 85 12
REMARK SMILES IDX 86 13 87 14 9 15 8 16 1 17 2 18 3 19 4 20 7 21 5 22 6 23
REMARK SMILES IDX 88 24 89 25 92 26 90 27 91 28 16 29 17 30 18 31 19 33 20 34
REMARK SMILES IDX 21 35 82 36 22 37 81 38 23 39 24 40 25 41 75 42 26 43 80 44
REMARK SMILES IDX 74 45 76 46 27 47 79 48 73 49 72 50 28 52 60 53 40 54 59 55
REMARK SMILES IDX 41 56 44 57 58 58 77 59 42 60 43 61 57 63 78 64 45 65 29 66
REMARK SMILES IDX 30 67 38 68 31 69 33 70 39 71 32 72 34 73 35 74 36 75 37 76
REMARK SMILES IDX 61 77 62 78 70 79 63 80 65 81 71 82 64 83 66 84 67 85 68 86
REMARK SMILES IDX 69 87 46 88 47 89 55 90 48 91 50 92 56 93 49 94 51 95 52 96
REMARK SMILES IDX 53 97 54 98
REMARK H PARENT 13 6 17 32 76 51 44 62
REMARK Flexibility Score: inf
ROOT
ATOM      1  C   UNL     1      10.915   5.720  -0.806  1.00  0.00     0.042 C 
ENDROOT
BRANCH   1   2
ATOM      2  C   UNL     1       9.819   5.855   0.242  1.00  0.00     0.118 C 
BRANCH   2   3
ATOM      3  N   UNL     1       9.649   7.217   0.713  1.00  0.00    -0.353 N 
ATOM      4  C   UNL     1       8.689   8.163   0.490  1.00  0.00     0.264 C 
ATOM      5  O   UNL     1       8.836   9.202   1.147  1.00  0.00    -0.270 OA
ATOM      6  H   UNL     1      10.368   7.519   1.312  1.00  0.00     0.163 HD
BRANCH   4   7
ATOM      7  C   UNL     1       7.482   7.957  -0.510  1.00  0.00     0.190 C 
ATOM      8  C   UNL     1       8.065   7.809  -1.906  1.00  0.00     0.080 C 
ATOM      9  C   UNL     1       6.600   6.851   0.068  1.00  0.00     0.080 C 
ATOM     10  C   UNL     1       7.940   6.449  -2.568  1.00  0.00     0.124 C 
ATOM     11  C   UNL     1       6.168   5.747  -0.879  1.00  0.00     0.124 C 
ATOM     12  N   UNL     1       7.051   5.443  -1.996  1.00  0.00    -0.342 N 
ATOM     13  C   UNL     1       6.986   4.250  -2.727  1.00  0.00     0.228 C 
ATOM     14  O   UNL     1       7.805   4.008  -3.615  1.00  0.00    -0.274 OA
BRANCH   7  15
ATOM     15  O   UNL     1       6.823   9.237  -0.365  1.00  0.00    -0.477 OA
BRANCH  15  16
ATOM     16  C   UNL     1       5.763   9.842  -0.949  1.00  0.00     0.124 A 
ATOM     17  C   UNL     1       5.069   8.336  -2.954  1.00  0.00     0.048 C 
ATOM     18  C   UNL     1       4.948   9.511  -2.041  1.00  0.00    -0.006 A 
ATOM     19  C   UNL     1       3.926  10.415  -2.427  1.00  0.00     0.046 A 
ATOM     20  C   UNL     1       3.711  11.605  -1.750  1.00  0.00     0.123 A 
ATOM     21  C   UNL     1       5.514  11.065  -0.285  1.00  0.00     0.050 A 
ATOM     22  F   UNL     1       2.739  12.432  -2.155  1.00  0.00    -0.207 F 
ATOM     23  C   UNL     1       4.502  11.943  -0.674  1.00  0.00     0.043 A 
ENDBRANCH  15  16
ENDBRANCH   7  15
BRANCH  13  24
ATOM     24  C   UNL     1       5.832   3.299  -2.463  1.00  0.00     0.107 C 
ATOM     25  C   UNL     1       4.574   3.729  -3.196  1.00  0.00     0.044 C 
ATOM     26  C   UNL     1       6.075   1.923  -3.057  1.00  0.00     0.173 C 
ATOM     27  C   UNL     1       3.862   2.426  -3.506  1.00  0.00     0.161 C 
ATOM     28  O   UNL     1       4.772   1.354  -3.241  1.00  0.00    -0.381 OA
ENDBRANCH  13  24
ENDBRANCH   4   7
ENDBRANCH   2   3
ENDBRANCH   1   2
BRANCH   1  29
ATOM     29  C   UNL     1      12.325   5.964  -0.287  1.00  0.00     0.118 C 
BRANCH  29  30
ATOM     30  N   UNL     1      12.747   4.966   0.682  1.00  0.00    -0.352 N 
ATOM     31  C   UNL     1      13.746   4.027   0.618  1.00  0.00     0.251 C 
ATOM     32  H   UNL     1      12.232   4.963   1.521  1.00  0.00     0.163 HD
ATOM     33  O   UNL     1      13.789   3.152   1.480  1.00  0.00    -0.269 OA
BRANCH  31  34
ATOM     34  C   UNL     1      14.760   4.047  -0.464  1.00  0.00     0.039 A 
ATOM     35  C   UNL     1      15.239   2.829  -0.958  1.00  0.00     0.014 A 
ATOM     36  C   UNL     1      15.291   5.243  -0.952  1.00  0.00     0.014 A 
ATOM     37  C   UNL     1      16.216   2.814  -1.958  1.00  0.00     0.010 A 
ATOM     38  C   UNL     1      16.194   5.229  -2.013  1.00  0.00     0.010 A 
ATOM     39  C   UNL     1      16.689   4.015  -2.509  1.00  0.00    -0.014 A 
BRANCH  39  40
ATOM     40  C   UNL     1      17.726   4.021  -3.575  1.00  0.00     0.031 A 
ATOM     41  C   UNL     1      19.067   4.662  -3.325  1.00  0.00     0.074 A 
ATOM     42  C   UNL     1      17.442   3.509  -4.789  1.00  0.00     0.049 A 
ATOM     43  N   UNL     1      20.087   4.788  -4.135  1.00  0.00    -0.248 NA
ATOM     44  C   UNL     1      19.282   5.270  -2.000  1.00  0.00     0.031 C 
ATOM     45  C   UNL     1      16.156   2.932  -5.184  1.00  0.00     0.029 A 
ATOM     46  N   UNL     1      18.213   3.407  -5.920  1.00  0.00    -0.354 N 
ATOM     47  C   UNL     1      21.042   5.518  -3.437  1.00  0.00     0.074 A 
ATOM     48  C   UNL     1      20.466   5.845  -2.151  1.00  0.00     0.031 C 
ATOM     49  C   UNL     1      16.232   2.522  -6.461  1.00  0.00     0.029 A 
ATOM     50  C   UNL     1      17.561   2.826  -6.982  1.00  0.00     0.049 A 
ATOM     51  H   UNL     1      19.145   3.720  -5.966  1.00  0.00     0.167 HD
ATOM     52  C   UNL     1      22.299   5.856  -3.812  1.00  0.00     0.034 A 
ATOM     53  C   UNL     1      17.988   2.562  -8.232  1.00  0.00     0.034 A 
ATOM     54  C   UNL     1      22.891   5.481  -5.068  1.00  0.00     0.049 A 
ATOM     55  C   UNL     1      19.407   2.896  -8.605  1.00  0.00     0.074 A 
ATOM     56  C   UNL     1      24.185   5.695  -5.509  1.00  0.00     0.029 A 
ATOM     57  N   UNL     1      22.227   4.812  -6.085  1.00  0.00    -0.354 N 
ATOM     58  N   UNL     1      20.347   3.443  -7.873  1.00  0.00    -0.248 NA
ATOM     59  C   UNL     1      19.837   2.538  -9.965  1.00  0.00     0.031 C 
ATOM     60  C   UNL     1      24.298   5.168  -6.801  1.00  0.00     0.029 A 
ATOM     61  C   UNL     1      23.081   4.607  -7.154  1.00  0.00     0.049 A 
ATOM     62  H   UNL     1      21.286   4.526  -6.051  1.00  0.00     0.167 HD
ATOM     63  C   UNL     1      21.489   3.457  -8.666  1.00  0.00     0.074 A 
ATOM     64  C   UNL     1      21.127   2.846  -9.929  1.00  0.00     0.031 C 
ATOM     65  C   UNL     1      22.722   3.945  -8.382  1.00  0.00     0.034 A 
BRANCH  52  66
ATOM     66  C   UNL     1      23.142   6.620  -2.821  1.00  0.00     0.023 A 
ATOM     67  C   UNL     1      23.610   5.969  -1.661  1.00  0.00     0.012 A 
ATOM     68  C   UNL     1      23.504   7.961  -3.052  1.00  0.00     0.148 A 
ATOM     69  C   UNL     1      24.389   6.650  -0.727  1.00  0.00     0.002 A 
ATOM     70  C   UNL     1      24.320   8.621  -2.138  1.00  0.00     0.091 A 
ATOM     71  F   UNL     1      23.033   8.573  -4.148  1.00  0.00    -0.205 F 
ATOM     72  C   UNL     1      24.751   7.972  -0.970  1.00  0.00     0.022 A 
BRANCH  70  73
ATOM     73  S   UNL     1      24.907  10.298  -2.401  1.00  0.00     0.127 S 
ATOM     74  O   UNL     1      24.089  11.050  -1.450  1.00  0.00    -0.237 OA
ATOM     75  O   UNL     1      26.320  10.192  -2.039  1.00  0.00    -0.237 OA
ATOM     76  O   UNL     1      24.663  10.590  -3.807  1.00  0.00    -0.744 OA
ENDBRANCH  70  73
ENDBRANCH  52  66
BRANCH  53  77
ATOM     77  C   UNL     1      17.091   1.859  -9.193  1.00  0.00     0.023 A 
ATOM     78  C   UNL     1      17.373   0.523  -9.542  1.00  0.00     0.012 A 
ATOM     79  C   UNL     1      15.955   2.486  -9.739  1.00  0.00     0.148 A 
ATOM     80  C   UNL     1      16.558  -0.165 -10.441  1.00  0.00     0.002 A 
ATOM     81  C   UNL     1      15.118   1.777 -10.594  1.00  0.00     0.091 A 
ATOM     82  F   UNL     1      15.710   3.760  -9.403  1.00  0.00    -0.205 F 
ATOM     83  C   UNL     1      15.427   0.458 -10.959  1.00  0.00     0.022 A 
BRANCH  81  84
ATOM     84  S   UNL     1      13.574   2.456 -11.212  1.00  0.00     0.127 S 
ATOM     85  O   UNL     1      13.890   2.687 -12.618  1.00  0.00    -0.237 OA
ATOM     86  O   UNL     1      12.639   1.359 -10.962  1.00  0.00    -0.237 OA
ATOM     87  O   UNL     1      13.324   3.650 -10.414  1.00  0.00    -0.744 OA
ENDBRANCH  81  84
ENDBRANCH  53  77
BRANCH  65  88
ATOM     88  C   UNL     1      23.788   3.804  -9.437  1.00  0.00     0.023 A 
ATOM     89  C   UNL     1      23.738   4.604 -10.595  1.00  0.00     0.012 A 
ATOM     90  C   UNL     1      24.873   2.925  -9.250  1.00  0.00     0.148 A 
ATOM     91  C   UNL     1      24.733   4.506 -11.568  1.00  0.00     0.002 A 
ATOM     92  C   UNL     1      25.886   2.869 -10.200  1.00  0.00     0.091 A 
ATOM     93  F   UNL     1      24.893   2.156  -8.151  1.00  0.00    -0.205 F 
ATOM     94  C   UNL     1      25.811   3.648 -11.365  1.00  0.00     0.022 A 
BRANCH  92  95
ATOM     95  S   UNL     1      27.358   1.865  -9.971  1.00  0.00     0.127 S 
ATOM     96  O   UNL     1      27.091   0.736 -10.861  1.00  0.00    -0.237 OA
ATOM     97  O   UNL     1      28.422   2.761 -10.425  1.00  0.00    -0.237 OA
ATOM     98  O   UNL     1      27.406   1.548  -8.550  1.00  0.00    -0.744 OA
ENDBRANCH  92  95
ENDBRANCH  65  88
ENDBRANCH  39  40
ENDBRANCH  31  34
ENDBRANCH  29  30
ENDBRANCH   1  29
TORSDOF 16
