REMARK SMILES O=C(NCCCNC(=O)c1ccc(-c2c3nc(c(-c4cccc(S(=O)(=O)[O-])c4F)c4ccc([nH]4)c(-c4cccc(S(=O)(=O)[O-])c4F)c4nc(c(-c5cccc(S(=O)(=O)[O-])c5F)c5ccc2[nH]5)C=C4)C=C3)cc1)C1=Cc2cc(OC(F)(F)F)ccc2O[C@@H]1C(F)(F)F
REMARK SMILES IDX 5 1 4 2 3 3 1 4 2 5 73 7 74 8 87 9 75 10 86 11 76 12 85 13
REMARK SMILES IDX 77 14 84 15 83 16 88 17 89 18 90 19 91 20 78 21 79 22 80 23
REMARK SMILES IDX 81 24 82 25 6 26 7 27 8 28 9 30 10 31 11 32 72 33 12 34
REMARK SMILES IDX 71 35 13 36 14 37 15 38 65 39 16 40 70 41 64 42 66 43 17 44
REMARK SMILES IDX 69 45 63 46 62 47 18 49 50 50 30 51 49 52 31 53 34 54 48 55
REMARK SMILES IDX 67 56 32 57 33 58 47 60 68 61 35 62 19 63 20 64 28 65 21 66
REMARK SMILES IDX 23 67 29 68 22 69 24 70 25 71 26 72 27 73 51 74 52 75 60 76
REMARK SMILES IDX 53 77 55 78 61 79 54 80 56 81 57 82 58 83 59 84 36 85 37 86
REMARK SMILES IDX 45 87 38 88 40 89 46 90 39 91 41 92 42 93 43 94 44 95
REMARK H PARENT 3 6 7 29 66 48 34 59
REMARK Flexibility Score: inf
ROOT
ATOM      1  C   UNL     1       3.996   2.471  -1.210  1.00  0.00     0.042 C 
ENDROOT
BRANCH   1   2
ATOM      2  C   UNL     1       3.203   1.644  -0.206  1.00  0.00     0.118 C 
BRANCH   2   3
ATOM      3  N   UNL     1       2.269   0.706  -0.838  1.00  0.00    -0.352 N 
ATOM      4  O   UNL     1       1.205  -1.283  -1.113  1.00  0.00    -0.270 OA
ATOM      5  C   UNL     1       2.186  -0.661  -0.731  1.00  0.00     0.251 C 
ATOM      6  H   UNL     1       1.599   1.120  -1.428  1.00  0.00     0.163 HD
BRANCH   5   7
ATOM      7  C   UNL     1       3.311  -1.338  -0.065  1.00  0.00     0.067 C 
ATOM      8  C   UNL     1       4.485  -1.294  -0.705  1.00  0.00     0.025 C 
ATOM      9  C   UNL     1       3.167  -1.622   1.397  1.00  0.00     0.314 C 
ATOM     10  C   UNL     1       5.615  -0.958   0.163  1.00  0.00     0.021 A 
ATOM     11  O   UNL     1       4.240  -1.052   2.191  1.00  0.00    -0.475 OA
ATOM     12  C   UNL     1       6.775  -0.475  -0.449  1.00  0.00     0.058 A 
ATOM     13  C   UNL     1       5.391  -0.710   1.526  1.00  0.00     0.128 A 
ATOM     14  C   UNL     1       7.628   0.385   0.246  1.00  0.00     0.130 A 
ATOM     15  C   UNL     1       6.278   0.093   2.237  1.00  0.00     0.051 A 
ATOM     16  C   UNL     1       7.373   0.673   1.588  1.00  0.00     0.050 A 
BRANCH   9  17
ATOM     17  C   UNL     1       3.024  -3.125   1.676  1.00  0.00     0.429 C 
ATOM     18  F   UNL     1       2.740  -3.346   2.986  1.00  0.00    -0.167 F 
ATOM     19  F   UNL     1       2.016  -3.683   0.967  1.00  0.00    -0.167 F 
ATOM     20  F   UNL     1       4.151  -3.818   1.393  1.00  0.00    -0.167 F 
ENDBRANCH   9  17
BRANCH  14  21
ATOM     21  O   UNL     1       8.646   0.899  -0.505  1.00  0.00    -0.406 OA
BRANCH  21  22
ATOM     22  C   UNL     1       9.112   2.192  -0.151  1.00  0.00     0.573 C 
ATOM     23  F   UNL     1       8.095   3.076  -0.071  1.00  0.00    -0.132 F 
ATOM     24  F   UNL     1       9.774   2.157   1.027  1.00  0.00    -0.132 F 
ATOM     25  F   UNL     1       9.973   2.622  -1.098  1.00  0.00    -0.132 F 
ENDBRANCH  21  22
ENDBRANCH  14  21
ENDBRANCH   5   7
ENDBRANCH   2   3
ENDBRANCH   1   2
BRANCH   1  26
ATOM     26  C   UNL     1       3.947   3.963  -0.900  1.00  0.00     0.118 C 
BRANCH  26  27
ATOM     27  N   UNL     1       4.648   4.354   0.321  1.00  0.00    -0.352 N 
ATOM     28  C   UNL     1       5.578   5.358   0.523  1.00  0.00     0.251 C 
ATOM     29  H   UNL     1       4.425   3.823   1.119  1.00  0.00     0.163 HD
ATOM     30  O   UNL     1       6.098   5.500   1.620  1.00  0.00    -0.269 OA
BRANCH  28  31
ATOM     31  C   UNL     1       5.971   6.232  -0.609  1.00  0.00     0.039 A 
ATOM     32  C   UNL     1       7.326   6.481  -0.847  1.00  0.00     0.014 A 
ATOM     33  C   UNL     1       5.008   6.738  -1.479  1.00  0.00     0.014 A 
ATOM     34  C   UNL     1       7.717   7.121  -2.029  1.00  0.00     0.010 A 
ATOM     35  C   UNL     1       5.402   7.258  -2.705  1.00  0.00     0.010 A 
ATOM     36  C   UNL     1       6.761   7.446  -3.005  1.00  0.00    -0.014 A 
BRANCH  36  37
ATOM     37  C   UNL     1       7.122   7.955  -4.359  1.00  0.00     0.031 A 
ATOM     38  C   UNL     1       6.485   9.223  -4.867  1.00  0.00     0.074 A 
ATOM     39  C   UNL     1       7.873   7.202  -5.190  1.00  0.00     0.049 A 
ATOM     40  N   UNL     1       6.443   9.701  -6.083  1.00  0.00    -0.248 NA
ATOM     41  C   UNL     1       5.740  10.029  -3.883  1.00  0.00     0.031 C 
ATOM     42  C   UNL     1       8.483   5.912  -4.858  1.00  0.00     0.029 A 
ATOM     43  N   UNL     1       8.215   7.394  -6.508  1.00  0.00    -0.354 N 
ATOM     44  C   UNL     1       5.605  10.809  -6.025  1.00  0.00     0.074 A 
ATOM     45  C   UNL     1       5.135  10.913  -4.662  1.00  0.00     0.031 C 
ATOM     46  C   UNL     1       9.129   5.436  -5.935  1.00  0.00     0.029 A 
ATOM     47  C   UNL     1       8.942   6.357  -7.049  1.00  0.00     0.049 A 
ATOM     48  H   UNL     1       7.964   8.199  -7.017  1.00  0.00     0.167 HD
ATOM     49  C   UNL     1       5.280  11.682  -7.008  1.00  0.00     0.034 A 
ATOM     50  C   UNL     1       9.393   6.162  -8.305  1.00  0.00     0.034 A 
ATOM     51  C   UNL     1       5.838  11.637  -8.331  1.00  0.00     0.049 A 
ATOM     52  C   UNL     1       9.106   7.203  -9.354  1.00  0.00     0.074 A 
ATOM     53  C   UNL     1       5.670  12.540  -9.366  1.00  0.00     0.029 A 
ATOM     54  N   UNL     1       6.690  10.648  -8.794  1.00  0.00    -0.354 N 
ATOM     55  N   UNL     1       8.418   8.314  -9.245  1.00  0.00    -0.248 NA
ATOM     56  C   UNL     1       9.679   6.981 -10.690  1.00  0.00     0.031 C 
ATOM     57  C   UNL     1       6.425  12.096 -10.456  1.00  0.00     0.029 A 
ATOM     58  C   UNL     1       7.068  10.922 -10.096  1.00  0.00     0.049 A 
ATOM     59  H   UNL     1       6.983   9.865  -8.274  1.00  0.00     0.167 HD
ATOM     60  C   UNL     1       8.509   8.942 -10.481  1.00  0.00     0.074 A 
ATOM     61  C   UNL     1       9.331   8.095 -11.322  1.00  0.00     0.031 C 
ATOM     62  C   UNL     1       7.950  10.107 -10.890  1.00  0.00     0.034 A 
BRANCH  49  63
ATOM     63  C   UNL     1       4.338  12.806  -6.663  1.00  0.00     0.023 A 
ATOM     64  C   UNL     1       4.779  13.847  -5.821  1.00  0.00     0.012 A 
ATOM     65  C   UNL     1       3.037  12.858  -7.200  1.00  0.00     0.148 A 
ATOM     66  C   UNL     1       3.928  14.897  -5.481  1.00  0.00     0.002 A 
ATOM     67  C   UNL     1       2.209  13.933  -6.894  1.00  0.00     0.091 A 
ATOM     68  F   UNL     1       2.625  11.850  -7.983  1.00  0.00    -0.205 F 
ATOM     69  C   UNL     1       2.648  14.945  -6.025  1.00  0.00     0.022 A 
BRANCH  67  70
ATOM     70  S   UNL     1       0.573  14.127  -7.610  1.00  0.00     0.127 S 
ATOM     71  O   UNL     1      -0.287  13.785  -6.478  1.00  0.00    -0.237 OA
ATOM     72  O   UNL     1       0.561  15.544  -7.977  1.00  0.00    -0.237 OA
ATOM     73  O   UNL     1       0.520  13.210  -8.739  1.00  0.00    -0.744 OA
ENDBRANCH  67  70
ENDBRANCH  49  63
BRANCH  50  74
ATOM     74  C   UNL     1      10.237   4.973  -8.619  1.00  0.00     0.023 A 
ATOM     75  C   UNL     1      11.613   5.159  -8.862  1.00  0.00     0.012 A 
ATOM     76  C   UNL     1       9.708   3.668  -8.646  1.00  0.00     0.148 A 
ATOM     77  C   UNL     1      12.440   4.074  -9.155  1.00  0.00     0.002 A 
ATOM     78  C   UNL     1      10.548   2.585  -8.889  1.00  0.00     0.091 A 
ATOM     79  F   UNL     1       8.395   3.510  -8.425  1.00  0.00    -0.205 F 
ATOM     80  C   UNL     1      11.910   2.788  -9.159  1.00  0.00     0.022 A 
BRANCH  78  81
ATOM     81  S   UNL     1       9.977   0.884  -8.784  1.00  0.00     0.127 S 
ATOM     82  O   UNL     1       9.921   0.500 -10.191  1.00  0.00    -0.237 OA
ATOM     83  O   UNL     1      11.047   0.250  -8.013  1.00  0.00    -0.237 OA
ATOM     84  O   UNL     1       8.698   0.946  -8.089  1.00  0.00    -0.744 OA
ENDBRANCH  78  81
ENDBRANCH  50  74
BRANCH  62  85
ATOM     85  C   UNL     1       8.239  10.575 -12.290  1.00  0.00     0.023 A 
ATOM     86  C   UNL     1       7.589   9.965 -13.379  1.00  0.00     0.012 A 
ATOM     87  C   UNL     1       9.067  11.694 -12.511  1.00  0.00     0.148 A 
ATOM     88  C   UNL     1       7.770  10.451 -14.672  1.00  0.00     0.002 A 
ATOM     89  C   UNL     1       9.208  12.200 -13.797  1.00  0.00     0.091 A 
ATOM     90  F   UNL     1       9.690  12.246 -11.460  1.00  0.00    -0.205 F 
ATOM     91  C   UNL     1       8.567  11.576 -14.880  1.00  0.00     0.022 A 
BRANCH  89  92
ATOM     92  S   UNL     1      10.133  13.700 -14.145  1.00  0.00     0.127 S 
ATOM     93  O   UNL     1      11.316  13.170 -14.821  1.00  0.00    -0.237 OA
ATOM     94  O   UNL     1       9.214  14.439 -15.011  1.00  0.00    -0.237 OA
ATOM     95  O   UNL     1      10.381  14.328 -12.854  1.00  0.00    -0.744 OA
ENDBRANCH  89  92
ENDBRANCH  62  85
ENDBRANCH  36  37
ENDBRANCH  28  31
ENDBRANCH  26  27
ENDBRANCH   1  26
TORSDOF 16
