REMARK SMILES C[C@H](C(=O)NCCCNC(=O)c1ccc(-c2c3nc(c(-c4cccc(S(=O)(=O)[O-])c4F)c4ccc([nH]4)c(-c4cccc(S(=O)(=O)[O-])c4F)c4nc(c(-c5cccc(S(=O)(=O)[O-])c5F)c5ccc2[nH]5)C=C4)C=C3)cc1)[C@@H](C)[NH2+]CC1(O)CCCC1
REMARK SMILES IDX 6 1 5 2 3 3 4 4 2 6 1 7 75 8 76 9 77 10 78 13 79 14 81 15
REMARK SMILES IDX 84 16 82 17 83 18 80 19 7 21 8 22 9 23 10 24 11 26 12 27
REMARK SMILES IDX 13 28 74 29 14 30 73 31 15 32 16 33 17 34 67 35 18 36 72 37
REMARK SMILES IDX 66 38 68 39 19 40 71 41 65 42 64 43 20 45 52 46 32 47 51 48
REMARK SMILES IDX 33 49 36 50 50 51 69 52 34 53 35 54 49 56 70 57 37 58 21 59
REMARK SMILES IDX 22 60 30 61 23 62 25 63 31 64 24 65 26 66 27 67 28 68 29 69
REMARK SMILES IDX 53 70 54 71 62 72 55 73 57 74 63 75 56 76 58 77 59 78 60 79
REMARK SMILES IDX 61 80 38 81 39 82 47 83 40 84 42 85 48 86 41 87 43 88 44 89
REMARK SMILES IDX 45 90 46 91
REMARK H PARENT 5 5 77 11 77 12 80 20 9 25 68 44 36 55
REMARK Flexibility Score: inf
ROOT
ATOM      1  C   UNL     1      -0.366   1.544   0.851  1.00  0.00     0.117 C 
ENDROOT
BRANCH   1   2
ATOM      2  N   UNL     1       0.983   1.025   0.683  1.00  0.00    -0.356 N 
ATOM      3  C   UNL     1       1.514  -0.157   0.282  1.00  0.00     0.228 C 
ATOM      4  O   UNL     1       2.739  -0.151   0.099  1.00  0.00    -0.275 OA
ATOM      5  H   UNL     1       1.673   1.688   0.916  1.00  0.00     0.163 HD
BRANCH   3   6
ATOM      6  C   UNL     1       0.747  -1.475   0.102  1.00  0.00     0.133 C 
ATOM      7  C   UNL     1       0.888  -2.280   1.393  1.00  0.00     0.024 C 
BRANCH   6   8
ATOM      8  C   UNL     1      -0.699  -1.379  -0.436  1.00  0.00     0.191 C 
ATOM      9  C   UNL     1      -0.663  -0.533  -1.717  1.00  0.00     0.076 C 
BRANCH   8  10
ATOM     10  N   UNL     1      -1.289  -2.700  -0.695  1.00  0.00    -0.341 N 
ATOM     11  H   UNL     1      -0.879  -3.356  -0.030  1.00  0.00     0.346 HD
ATOM     12  H   UNL     1      -1.082  -2.893  -1.675  1.00  0.00     0.346 HD
BRANCH  10  13
ATOM     13  C   UNL     1      -2.756  -2.818  -0.587  1.00  0.00     0.296 C 
BRANCH  13  14
ATOM     14  C   UNL     1      -3.713  -2.170  -1.637  1.00  0.00     0.113 C 
ATOM     15  C   UNL     1      -3.200  -2.201  -3.082  1.00  0.00     0.041 C 
ATOM     16  C   UNL     1      -4.089  -0.718  -1.322  1.00  0.00     0.041 C 
ATOM     17  C   UNL     1      -3.578  -0.865  -3.718  1.00  0.00     0.003 C 
ATOM     18  C   UNL     1      -4.308  -0.038  -2.669  1.00  0.00     0.003 C 
BRANCH  14  19
ATOM     19  O   UNL     1      -4.940  -2.929  -1.621  1.00  0.00    -0.384 OA
ATOM     20  H   UNL     1      -4.747  -3.859  -1.816  1.00  0.00     0.211 HD
ENDBRANCH  14  19
ENDBRANCH  13  14
ENDBRANCH  10  13
ENDBRANCH   8  10
ENDBRANCH   6   8
ENDBRANCH   3   6
ENDBRANCH   1   2
BRANCH   1  21
ATOM     21  C   UNL     1      -0.635   2.059   2.250  1.00  0.00     0.042 C 
BRANCH  21  22
ATOM     22  C   UNL     1       0.171   3.296   2.594  1.00  0.00     0.118 C 
BRANCH  22  23
ATOM     23  N   UNL     1      -0.165   4.444   1.760  1.00  0.00    -0.352 N 
ATOM     24  C   UNL     1      -0.478   5.730   2.128  1.00  0.00     0.251 C 
ATOM     25  H   UNL     1      -0.168   4.271   0.790  1.00  0.00     0.163 HD
ATOM     26  O   UNL     1      -0.881   6.520   1.283  1.00  0.00    -0.269 OA
BRANCH  24  27
ATOM     27  C   UNL     1      -0.346   6.145   3.542  1.00  0.00     0.039 A 
ATOM     28  C   UNL     1      -1.310   6.994   4.091  1.00  0.00     0.014 A 
ATOM     29  C   UNL     1       0.723   5.703   4.325  1.00  0.00     0.014 A 
ATOM     30  C   UNL     1      -1.218   7.363   5.434  1.00  0.00     0.010 A 
ATOM     31  C   UNL     1       0.744   5.971   5.687  1.00  0.00     0.010 A 
ATOM     32  C   UNL     1      -0.202   6.837   6.249  1.00  0.00    -0.014 A 
BRANCH  32  33
ATOM     33  C   UNL     1      -0.076   7.227   7.675  1.00  0.00     0.031 A 
ATOM     34  C   UNL     1       1.176   7.912   8.159  1.00  0.00     0.074 A 
ATOM     35  C   UNL     1      -1.056   6.915   8.546  1.00  0.00     0.049 A 
ATOM     36  N   UNL     1       1.487   8.306   9.367  1.00  0.00    -0.248 NA
ATOM     37  C   UNL     1       2.236   8.153   7.164  1.00  0.00     0.031 C 
ATOM     38  C   UNL     1      -2.274   6.171   8.221  1.00  0.00     0.029 A 
ATOM     39  N   UNL     1      -1.169   7.168   9.890  1.00  0.00    -0.354 N 
ATOM     40  C   UNL     1       2.780   8.809   9.281  1.00  0.00     0.074 A 
ATOM     41  C   UNL     1       3.221   8.612   7.919  1.00  0.00     0.031 C 
ATOM     42  C   UNL     1      -3.017   6.038   9.332  1.00  0.00     0.029 A 
ATOM     43  C   UNL     1      -2.317   6.661  10.451  1.00  0.00     0.049 A 
ATOM     44  H   UNL     1      -0.492   7.665  10.403  1.00  0.00     0.167 HD
ATOM     45  C   UNL     1       3.523   9.419  10.234  1.00  0.00     0.034 A 
ATOM     46  C   UNL     1      -2.754   6.692  11.725  1.00  0.00     0.034 A 
ATOM     47  C   UNL     1       3.067   9.646  11.578  1.00  0.00     0.049 A 
ATOM     48  C   UNL     1      -1.938   7.421  12.757  1.00  0.00     0.074 A 
ATOM     49  C   UNL     1       3.709  10.316  12.604  1.00  0.00     0.029 A 
ATOM     50  N   UNL     1       1.855   9.204  12.085  1.00  0.00    -0.354 N 
ATOM     51  N   UNL     1      -0.779   8.019  12.622  1.00  0.00    -0.248 NA
ATOM     52  C   UNL     1      -2.513   7.522  14.106  1.00  0.00     0.031 C 
ATOM     53  C   UNL     1       2.894  10.255  13.740  1.00  0.00     0.029 A 
ATOM     54  C   UNL     1       1.727   9.586  13.409  1.00  0.00     0.049 A 
ATOM     55  H   UNL     1       1.183   8.693  11.577  1.00  0.00     0.167 HD
ATOM     56  C   UNL     1      -0.506   8.604  13.854  1.00  0.00     0.074 A 
ATOM     57  C   UNL     1      -1.630   8.301  14.716  1.00  0.00     0.031 C 
ATOM     58  C   UNL     1       0.580   9.319  14.239  1.00  0.00     0.034 A 
BRANCH  45  59
ATOM     59  C   UNL     1       4.884   9.929   9.833  1.00  0.00     0.023 A 
ATOM     60  C   UNL     1       4.987  11.008   8.928  1.00  0.00     0.012 A 
ATOM     61  C   UNL     1       6.059   9.365  10.367  1.00  0.00     0.148 A 
ATOM     62  C   UNL     1       6.233  11.482   8.522  1.00  0.00     0.002 A 
ATOM     63  C   UNL     1       7.297   9.879   9.998  1.00  0.00     0.091 A 
ATOM     64  F   UNL     1       5.946   8.328  11.208  1.00  0.00    -0.205 F 
ATOM     65  C   UNL     1       7.387  10.925   9.064  1.00  0.00     0.022 A 
BRANCH  63  66
ATOM     66  S   UNL     1       8.840   9.290  10.704  1.00  0.00     0.127 S 
ATOM     67  O   UNL     1       9.441   8.598   9.565  1.00  0.00    -0.237 OA
ATOM     68  O   UNL     1       9.503  10.540  11.077  1.00  0.00    -0.237 OA
ATOM     69  O   UNL     1       8.470   8.440  11.827  1.00  0.00    -0.744 OA
ENDBRANCH  63  66
ENDBRANCH  45  59
BRANCH  46  70
ATOM     70  C   UNL     1      -4.061   6.068  12.074  1.00  0.00     0.023 A 
ATOM     71  C   UNL     1      -5.159   6.885  12.409  1.00  0.00     0.012 A 
ATOM     72  C   UNL     1      -4.229   4.670  12.042  1.00  0.00     0.148 A 
ATOM     73  C   UNL     1      -6.390   6.319  12.740  1.00  0.00     0.002 A 
ATOM     74  C   UNL     1      -5.473   4.117  12.317  1.00  0.00     0.091 A 
ATOM     75  F   UNL     1      -3.170   3.912  11.725  1.00  0.00    -0.205 F 
ATOM     76  C   UNL     1      -6.550   4.937  12.685  1.00  0.00     0.022 A 
BRANCH  74  77
ATOM     77  S   UNL     1      -5.807   2.361  12.140  1.00  0.00     0.127 S 
ATOM     78  O   UNL     1      -6.037   1.960  13.525  1.00  0.00    -0.237 OA
ATOM     79  O   UNL     1      -7.000   2.368  11.293  1.00  0.00    -0.237 OA
ATOM     80  O   UNL     1      -4.623   1.795  11.507  1.00  0.00    -0.744 OA
ENDBRANCH  74  77
ENDBRANCH  46  70
BRANCH  58  81
ATOM     81  C   UNL     1       0.585   9.882  15.636  1.00  0.00     0.023 A 
ATOM     82  C   UNL     1       0.724   9.027  16.747  1.00  0.00     0.012 A 
ATOM     83  C   UNL     1       0.508  11.274  15.841  1.00  0.00     0.148 A 
ATOM     84  C   UNL     1       0.742   9.545  18.042  1.00  0.00     0.002 A 
ATOM     85  C   UNL     1       0.583  11.787  17.130  1.00  0.00     0.091 A 
ATOM     86  F   UNL     1       0.357  12.071  14.773  1.00  0.00    -0.205 F 
ATOM     87  C   UNL     1       0.684  10.924  18.232  1.00  0.00     0.022 A 
BRANCH  85  88
ATOM     88  S   UNL     1       0.619  13.553  17.458  1.00  0.00     0.127 S 
ATOM     89  O   UNL     1      -0.720  13.782  17.998  1.00  0.00    -0.237 OA
ATOM     90  O   UNL     1       1.700  13.664  18.438  1.00  0.00    -0.237 OA
ATOM     91  O   UNL     1       0.897  14.193  16.179  1.00  0.00    -0.744 OA
ENDBRANCH  85  88
ENDBRANCH  58  81
ENDBRANCH  32  33
ENDBRANCH  24  27
ENDBRANCH  22  23
ENDBRANCH  21  22
ENDBRANCH   1  21
TORSDOF 18
