REMARK SMILES Cc1c(Cl)cc2c(c1C)O[C@@H](C(F)(F)F)C(C(=O)NCCCNC(=O)c1ccc(-c3c4nc(c(-c5cccc(S(=O)(=O)[O-])c5F)c5ccc([nH]5)c(-c5cccc(S(=O)(=O)[O-])c5F)c5nc(c(-c6cccc(S(=O)(=O)[O-])c6F)c6ccc3[nH]6)C=C5)C=C4)cc1)=C2
REMARK SMILES IDX 22 1 21 2 20 3 19 4 17 5 18 6 16 8 1 9 2 10 3 11 8 12 4 13
REMARK SMILES IDX 5 14 7 15 9 16 6 17 10 18 89 19 11 20 12 21 13 22 14 23
REMARK SMILES IDX 15 24 23 25 24 26 25 28 26 29 27 30 88 31 28 32 87 33 29 34
REMARK SMILES IDX 30 35 31 36 81 37 32 38 86 39 80 40 82 41 33 42 85 43 79 44
REMARK SMILES IDX 78 45 34 47 66 48 46 49 65 50 47 51 50 52 64 53 83 54 48 55
REMARK SMILES IDX 49 56 63 58 84 59 51 60 35 61 36 62 44 63 37 64 39 65 45 66
REMARK SMILES IDX 38 67 40 68 41 69 42 70 43 71 67 72 68 73 76 74 69 75 71 76
REMARK SMILES IDX 77 77 70 78 72 79 73 80 74 81 75 82 52 83 53 84 61 85 54 86
REMARK SMILES IDX 56 87 62 88 55 89 57 90 58 91 59 92 60 93
REMARK H PARENT 19 7 23 27 82 46 50 57
REMARK Flexibility Score: inf
ROOT
ATOM      1  C   UNL     1       0.956 -11.153   0.851  1.00  0.00     0.118 C 
ENDROOT
BRANCH   1   2
ATOM      2  C   UNL     1       1.430  -9.707   0.942  1.00  0.00     0.042 C 
BRANCH   2   3
ATOM      3  C   UNL     1       1.665  -9.088  -0.430  1.00  0.00     0.118 C 
BRANCH   3   4
ATOM      4  N   UNL     1       0.416  -8.697  -1.064  1.00  0.00    -0.352 N 
ATOM      5  C   UNL     1      -0.261  -7.552  -1.305  1.00  0.00     0.251 C 
ATOM      6  O   UNL     1      -1.304  -7.691  -1.953  1.00  0.00    -0.270 OA
ATOM      7  H   UNL     1      -0.070  -9.479  -1.411  1.00  0.00     0.163 HD
BRANCH   5   8
ATOM      8  C   UNL     1       0.161  -6.188  -0.873  1.00  0.00     0.067 C 
ATOM      9  C   UNL     1       0.888   0.255   0.012  1.00  0.00     0.046 C 
ATOM     10  C   UNL     1       0.506  -1.155  -0.358  1.00  0.00    -0.026 A 
ATOM     11  C   UNL     1      -0.627  -1.427  -1.152  1.00  0.00     0.045 A 
ATOM     12  C   UNL     1       1.267  -2.246   0.126  1.00  0.00    -0.004 A 
ATOM     13  Cl  UNL     1      -1.664  -0.173  -1.745  1.00  0.00    -0.084 Cl
ATOM     14  C   UNL     1      -0.971  -2.738  -1.501  1.00  0.00     0.032 A 
ATOM     15  C   UNL     1       0.914  -3.555  -0.255  1.00  0.00     0.131 A 
ATOM     16  C   UNL     1       2.452  -2.078   1.047  1.00  0.00     0.049 C 
ATOM     17  C   UNL     1      -0.192  -3.806  -1.063  1.00  0.00     0.019 A 
ATOM     18  O   UNL     1       1.743  -4.563   0.158  1.00  0.00    -0.475 OA
ATOM     19  C   UNL     1      -0.501  -5.173  -1.460  1.00  0.00     0.025 C 
ATOM     20  C   UNL     1       1.184  -5.902   0.190  1.00  0.00     0.314 C 
BRANCH  20  21
ATOM     21  C   UNL     1       0.722  -6.248   1.616  1.00  0.00     0.429 C 
ATOM     22  F   UNL     1       1.707  -6.913   2.271  1.00  0.00    -0.167 F 
ATOM     23  F   UNL     1       0.420  -5.151   2.345  1.00  0.00    -0.167 F 
ATOM     24  F   UNL     1      -0.369  -7.047   1.628  1.00  0.00    -0.167 F 
ENDBRANCH  20  21
ENDBRANCH   5   8
ENDBRANCH   3   4
ENDBRANCH   2   3
ENDBRANCH   1   2
BRANCH   1  25
ATOM     25  N   UNL     1       2.024 -12.042   0.409  1.00  0.00    -0.352 N 
ATOM     26  C   UNL     1       2.830 -12.883   1.138  1.00  0.00     0.251 C 
ATOM     27  H   UNL     1       2.193 -12.040  -0.561  1.00  0.00     0.163 HD
ATOM     28  O   UNL     1       3.854 -13.326   0.628  1.00  0.00    -0.269 OA
BRANCH  26  29
ATOM     29  C   UNL     1       2.471 -13.249   2.526  1.00  0.00     0.039 A 
ATOM     30  C   UNL     1       3.478 -13.352   3.488  1.00  0.00     0.014 A 
ATOM     31  C   UNL     1       1.147 -13.534   2.869  1.00  0.00     0.014 A 
ATOM     32  C   UNL     1       3.147 -13.692   4.803  1.00  0.00     0.010 A 
ATOM     33  C   UNL     1       0.807 -13.772   4.195  1.00  0.00     0.010 A 
ATOM     34  C   UNL     1       1.805 -13.879   5.173  1.00  0.00    -0.014 A 
BRANCH  34  35
ATOM     35  C   UNL     1       1.429 -14.221   6.567  1.00  0.00     0.031 A 
ATOM     36  C   UNL     1       0.761 -15.537   6.868  1.00  0.00     0.074 A 
ATOM     37  C   UNL     1       1.646 -13.330   7.554  1.00  0.00     0.049 A 
ATOM     38  N   UNL     1       0.362 -16.013   8.018  1.00  0.00    -0.248 NA
ATOM     39  C   UNL     1       0.483 -16.424   5.726  1.00  0.00     0.031 C 
ATOM     40  C   UNL     1       2.223 -11.996   7.374  1.00  0.00     0.029 A 
ATOM     41  N   UNL     1       1.403 -13.407   8.902  1.00  0.00    -0.354 N 
ATOM     42  C   UNL     1      -0.224 -17.241   7.736  1.00  0.00     0.074 A 
ATOM     43  C   UNL     1      -0.190 -17.409   6.302  1.00  0.00     0.031 C 
ATOM     44  C   UNL     1       2.327 -11.398   8.571  1.00  0.00     0.029 A 
ATOM     45  C   UNL     1       1.798 -12.289   9.599  1.00  0.00     0.049 A 
ATOM     46  H   UNL     1       0.985 -14.189   9.331  1.00  0.00     0.167 HD
ATOM     47  C   UNL     1      -0.699 -18.173   8.596  1.00  0.00     0.034 A 
ATOM     48  C   UNL     1       1.754 -12.020  10.920  1.00  0.00     0.034 A 
ATOM     49  C   UNL     1      -0.693 -18.018  10.024  1.00  0.00     0.049 A 
ATOM     50  C   UNL     1       1.214 -13.067  11.857  1.00  0.00     0.074 A 
ATOM     51  C   UNL     1      -1.097 -18.924  10.988  1.00  0.00     0.029 A 
ATOM     52  N   UNL     1      -0.259 -16.884  10.693  1.00  0.00    -0.354 N 
ATOM     53  N   UNL     1       0.793 -14.279  11.585  1.00  0.00    -0.248 NA
ATOM     54  C   UNL     1       1.168 -12.723  13.286  1.00  0.00     0.031 C 
ATOM     55  C   UNL     1      -0.925 -18.328  12.241  1.00  0.00     0.029 A 
ATOM     56  C   UNL     1      -0.395 -17.060  12.059  1.00  0.00     0.049 A 
ATOM     57  H   UNL     1       0.094 -16.073  10.261  1.00  0.00     0.167 HD
ATOM     58  C   UNL     1       0.457 -14.852  12.807  1.00  0.00     0.074 A 
ATOM     59  C   UNL     1       0.744 -13.860  13.824  1.00  0.00     0.031 C 
ATOM     60  C   UNL     1      -0.060 -16.079  13.061  1.00  0.00     0.034 A 
BRANCH  47  61
ATOM     61  C   UNL     1      -1.185 -19.476   8.014  1.00  0.00     0.023 A 
ATOM     62  C   UNL     1      -0.247 -20.369   7.453  1.00  0.00     0.012 A 
ATOM     63  C   UNL     1      -2.543 -19.846   8.063  1.00  0.00     0.148 A 
ATOM     64  C   UNL     1      -0.654 -21.588   6.915  1.00  0.00     0.002 A 
ATOM     65  C   UNL     1      -2.935 -21.086   7.568  1.00  0.00     0.091 A 
ATOM     66  F   UNL     1      -3.425 -18.980   8.581  1.00  0.00    -0.205 F 
ATOM     67  C   UNL     1      -1.995 -21.950   6.982  1.00  0.00     0.022 A 
BRANCH  65  68
ATOM     68  S   UNL     1      -4.625 -21.686   7.677  1.00  0.00     0.127 S 
ATOM     69  O   UNL     1      -5.046 -21.637   6.278  1.00  0.00    -0.237 OA
ATOM     70  O   UNL     1      -4.438 -23.036   8.210  1.00  0.00    -0.237 OA
ATOM     71  O   UNL     1      -5.319 -20.770   8.571  1.00  0.00    -0.744 OA
ENDBRANCH  65  68
ENDBRANCH  47  61
BRANCH  48  72
ATOM     72  C   UNL     1       2.342 -10.750  11.433  1.00  0.00     0.023 A 
ATOM     73  C   UNL     1       3.547 -10.804  12.161  1.00  0.00     0.012 A 
ATOM     74  C   UNL     1       1.770  -9.494  11.149  1.00  0.00     0.148 A 
ATOM     75  C   UNL     1       4.164  -9.636  12.608  1.00  0.00     0.002 A 
ATOM     76  C   UNL     1       2.417  -8.331  11.551  1.00  0.00     0.091 A 
ATOM     77  F   UNL     1       0.620  -9.464  10.460  1.00  0.00    -0.205 F 
ATOM     78  C   UNL     1       3.607  -8.400  12.293  1.00  0.00     0.022 A 
BRANCH  76  79
ATOM     79  S   UNL     1       1.851  -6.691  11.082  1.00  0.00     0.127 S 
ATOM     80  O   UNL     1       1.501  -6.113  12.377  1.00  0.00    -0.237 OA
ATOM     81  O   UNL     1       3.050  -6.129  10.459  1.00  0.00    -0.237 OA
ATOM     82  O   UNL     1       0.737  -6.903  10.168  1.00  0.00    -0.744 OA
ENDBRANCH  76  79
ENDBRANCH  48  72
BRANCH  60  83
ATOM     83  C   UNL     1      -0.358 -16.443  14.492  1.00  0.00     0.023 A 
ATOM     84  C   UNL     1      -1.481 -15.878  15.127  1.00  0.00     0.012 A 
ATOM     85  C   UNL     1       0.379 -17.448  15.150  1.00  0.00     0.148 A 
ATOM     86  C   UNL     1      -1.860 -16.299  16.401  1.00  0.00     0.002 A 
ATOM     87  C   UNL     1      -0.035 -17.898  16.398  1.00  0.00     0.091 A 
ATOM     88  F   UNL     1       1.451 -17.963  14.530  1.00  0.00    -0.205 F 
ATOM     89  C   UNL     1      -1.148 -17.319  17.028  1.00  0.00     0.022 A 
BRANCH  87  90
ATOM     90  S   UNL     1       0.748 -19.279  17.240  1.00  0.00     0.127 S 
ATOM     91  O   UNL     1       1.325 -18.625  18.414  1.00  0.00    -0.237 OA
ATOM     92  O   UNL     1      -0.392 -20.150  17.526  1.00  0.00    -0.237 OA
ATOM     93  O   UNL     1       1.716 -19.831  16.301  1.00  0.00    -0.744 OA
ENDBRANCH  87  90
ENDBRANCH  60  83
ENDBRANCH  34  35
ENDBRANCH  26  29
ENDBRANCH   1  25
TORSDOF 14
