REMARK SMILES Cc1sc2[nH]c(SCC(=O)NCCCNC(=O)c3ccc(-c4c5nc(c(-c6cccc(S(=O)(=O)[O-])c6F)c6ccc([nH]6)c(-c6cccc(S(=O)(=O)[O-])c6F)c6nc(c(-c7cccc(S(=O)(=O)[O-])c7F)c7ccc4[nH]7)C=C6)C=C5)cc3)nc(=O)c2c1C
REMARK SMILES IDX 13 1 12 2 11 3 9 4 10 5 8 7 7 8 6 9 1 10 2 11 3 12 85 13
REMARK SMILES IDX 4 14 84 15 86 16 5 17 82 18 81 20 83 21 14 22 15 23 16 24
REMARK SMILES IDX 17 26 18 27 19 28 80 29 20 30 79 31 21 32 22 33 23 34 73 35
REMARK SMILES IDX 24 36 78 37 72 38 74 39 25 40 77 41 71 42 70 43 26 45 58 46
REMARK SMILES IDX 38 47 57 48 39 49 42 50 56 51 75 52 40 53 41 54 55 56 76 57
REMARK SMILES IDX 43 58 27 59 28 60 36 61 29 62 31 63 37 64 30 65 32 66 33 67
REMARK SMILES IDX 34 68 35 69 59 70 60 71 68 72 61 73 63 74 69 75 62 76 64 77
REMARK SMILES IDX 65 78 66 79 67 80 44 81 45 82 53 83 46 84 48 85 54 86 47 87
REMARK SMILES IDX 49 88 50 89 51 90 52 91
REMARK H PARENT 11 6 5 19 15 25 74 44 42 55
REMARK Flexibility Score: inf
ROOT
ATOM      1  C   UNL     1      -3.834   5.785   4.618  1.00  0.00     0.042 C 
ENDROOT
BRANCH   1   2
ATOM      2  C   UNL     1      -3.556   5.682   6.124  1.00  0.00     0.117 C 
BRANCH   2   3
ATOM      3  N   UNL     1      -3.597   4.314   6.605  1.00  0.00    -0.355 N 
ATOM      4  C   UNL     1      -2.628   3.553   7.191  1.00  0.00     0.230 C 
ATOM      5  O   UNL     1      -2.972   2.470   7.672  1.00  0.00    -0.274 OA
ATOM      6  H   UNL     1      -4.464   3.862   6.491  1.00  0.00     0.163 HD
BRANCH   4   7
ATOM      7  C   UNL     1      -1.211   4.065   7.376  1.00  0.00     0.178 C 
BRANCH   7   8
ATOM      8  S   UNL     1      -0.358   4.548   5.857  1.00  0.00    -0.078 SA
BRANCH   8   9
ATOM      9  C   UNL     1      -0.351   3.071   4.927  1.00  0.00     0.170 A 
ATOM     10  C   UNL     1       0.860  -0.112  -0.216  1.00  0.00     0.057 C 
ATOM     11  C   UNL     1       0.489   0.523   1.086  1.00  0.00     0.007 A 
ATOM     12  S   UNL     1       0.709   2.219   1.245  1.00  0.00    -0.122 S 
ATOM     13  C   UNL     1      -0.021  -0.051   2.247  1.00  0.00    -0.022 A 
ATOM     14  C   UNL     1       0.157   2.195   2.834  1.00  0.00     0.108 A 
ATOM     15  C   UNL     1      -0.187   0.945   3.284  1.00  0.00     0.080 A 
ATOM     16  C   UNL     1      -0.362  -1.497   2.433  1.00  0.00     0.046 C 
ATOM     17  N   UNL     1       0.060   3.258   3.642  1.00  0.00    -0.326 N 
ATOM     18  C   UNL     1      -0.644   0.794   4.677  1.00  0.00     0.282 A 
ATOM     19  H   UNL     1       0.282   4.159   3.313  1.00  0.00     0.169 HD
ATOM     20  N   UNL     1      -0.675   1.940   5.460  1.00  0.00    -0.185 NA
ATOM     21  O   UNL     1      -0.936  -0.311   5.133  1.00  0.00    -0.267 OA
ENDBRANCH   8   9
ENDBRANCH   7   8
ENDBRANCH   4   7
ENDBRANCH   2   3
ENDBRANCH   1   2
BRANCH   1  22
ATOM     22  C   UNL     1      -5.300   5.540   4.213  1.00  0.00     0.118 C 
BRANCH  22  23
ATOM     23  N   UNL     1      -6.168   6.536   4.817  1.00  0.00    -0.352 N 
ATOM     24  C   UNL     1      -7.000   7.470   4.267  1.00  0.00     0.251 C 
ATOM     25  H   UNL     1      -6.154   6.539   5.802  1.00  0.00     0.163 HD
ATOM     26  O   UNL     1      -7.232   8.479   4.936  1.00  0.00    -0.269 OA
BRANCH  24  27
ATOM     27  C   UNL     1      -7.659   7.309   2.949  1.00  0.00     0.039 A 
ATOM     28  C   UNL     1      -8.002   8.485   2.267  1.00  0.00     0.014 A 
ATOM     29  C   UNL     1      -8.133   6.081   2.479  1.00  0.00     0.014 A 
ATOM     30  C   UNL     1      -8.820   8.438   1.139  1.00  0.00     0.010 A 
ATOM     31  C   UNL     1      -8.954   6.036   1.341  1.00  0.00     0.010 A 
ATOM     32  C   UNL     1      -9.312   7.213   0.669  1.00  0.00    -0.014 A 
BRANCH  32  33
ATOM     33  C   UNL     1     -10.120   7.236  -0.574  1.00  0.00     0.031 A 
ATOM     34  C   UNL     1      -9.789   6.173  -1.579  1.00  0.00     0.074 A 
ATOM     35  C   UNL     1     -11.345   7.811  -0.588  1.00  0.00     0.049 A 
ATOM     36  N   UNL     1     -10.279   4.969  -1.540  1.00  0.00    -0.248 NA
ATOM     37  C   UNL     1      -8.683   6.319  -2.527  1.00  0.00     0.031 C 
ATOM     38  C   UNL     1     -12.307   7.679   0.516  1.00  0.00     0.029 A 
ATOM     39  N   UNL     1     -12.075   8.396  -1.602  1.00  0.00    -0.354 N 
ATOM     40  C   UNL     1      -9.537   4.183  -2.411  1.00  0.00     0.074 A 
ATOM     41  C   UNL     1      -8.561   5.069  -3.004  1.00  0.00     0.031 C 
ATOM     42  C   UNL     1     -13.534   8.014   0.067  1.00  0.00     0.029 A 
ATOM     43  C   UNL     1     -13.436   8.511  -1.304  1.00  0.00     0.049 A 
ATOM     44  H   UNL     1     -11.678   8.702  -2.450  1.00  0.00     0.167 HD
ATOM     45  C   UNL     1      -9.777   2.854  -2.599  1.00  0.00     0.034 A 
ATOM     46  C   UNL     1     -14.442   8.457  -2.227  1.00  0.00     0.034 A 
ATOM     47  C   UNL     1     -10.897   2.336  -1.866  1.00  0.00     0.049 A 
ATOM     48  C   UNL     1     -14.449   6.977  -2.534  1.00  0.00     0.074 A 
ATOM     49  C   UNL     1     -11.125   1.560  -0.751  1.00  0.00     0.029 A 
ATOM     50  N   UNL     1     -12.152   2.689  -2.300  1.00  0.00    -0.354 N 
ATOM     51  N   UNL     1     -14.914   6.034  -1.755  1.00  0.00    -0.248 NA
ATOM     52  C   UNL     1     -13.507   6.518  -3.555  1.00  0.00     0.031 C 
ATOM     53  C   UNL     1     -12.450   1.895  -0.319  1.00  0.00     0.029 A 
ATOM     54  C   UNL     1     -12.948   2.856  -1.199  1.00  0.00     0.049 A 
ATOM     55  H   UNL     1     -12.429   2.802  -3.237  1.00  0.00     0.167 HD
ATOM     56  C   UNL     1     -14.074   4.936  -1.967  1.00  0.00     0.074 A 
ATOM     57  C   UNL     1     -13.231   5.308  -3.088  1.00  0.00     0.031 C 
ATOM     58  C   UNL     1     -13.991   3.858  -1.131  1.00  0.00     0.034 A 
BRANCH  45  59
ATOM     59  C   UNL     1      -9.151   2.000  -3.643  1.00  0.00     0.023 A 
ATOM     60  C   UNL     1      -9.877   1.865  -4.844  1.00  0.00     0.012 A 
ATOM     61  C   UNL     1      -8.045   1.161  -3.411  1.00  0.00     0.148 A 
ATOM     62  C   UNL     1      -9.548   0.889  -5.780  1.00  0.00     0.002 A 
ATOM     63  C   UNL     1      -7.715   0.189  -4.357  1.00  0.00     0.091 A 
ATOM     64  F   UNL     1      -7.370   1.291  -2.260  1.00  0.00    -0.205 F 
ATOM     65  C   UNL     1      -8.473   0.046  -5.533  1.00  0.00     0.022 A 
BRANCH  63  66
ATOM     66  S   UNL     1      -6.361  -0.979  -4.155  1.00  0.00     0.127 S 
ATOM     67  O   UNL     1      -7.068  -2.256  -4.072  1.00  0.00    -0.237 OA
ATOM     68  O   UNL     1      -5.604  -0.782  -5.392  1.00  0.00    -0.237 OA
ATOM     69  O   UNL     1      -5.659  -0.574  -2.945  1.00  0.00    -0.744 OA
ENDBRANCH  63  66
ENDBRANCH  45  59
BRANCH  46  70
ATOM     70  C   UNL     1     -14.433   9.537  -3.277  1.00  0.00     0.023 A 
ATOM     71  C   UNL     1     -14.255  10.864  -2.813  1.00  0.00     0.012 A 
ATOM     72  C   UNL     1     -14.599   9.360  -4.666  1.00  0.00     0.148 A 
ATOM     73  C   UNL     1     -14.117  11.945  -3.686  1.00  0.00     0.002 A 
ATOM     74  C   UNL     1     -14.418  10.435  -5.541  1.00  0.00     0.091 A 
ATOM     75  F   UNL     1     -14.928   8.149  -5.133  1.00  0.00    -0.205 F 
ATOM     76  C   UNL     1     -14.165  11.725  -5.054  1.00  0.00     0.022 A 
BRANCH  74  77
ATOM     77  S   UNL     1     -14.428  10.256  -7.332  1.00  0.00     0.127 S 
ATOM     78  O   UNL     1     -15.397  11.274  -7.735  1.00  0.00    -0.237 OA
ATOM     79  O   UNL     1     -13.037  10.566  -7.662  1.00  0.00    -0.237 OA
ATOM     80  O   UNL     1     -14.834   8.882  -7.591  1.00  0.00    -0.744 OA
ENDBRANCH  74  77
ENDBRANCH  46  70
BRANCH  58  81
ATOM     81  C   UNL     1     -14.972   3.795   0.001  1.00  0.00     0.023 A 
ATOM     82  C   UNL     1     -16.311   3.494  -0.305  1.00  0.00     0.012 A 
ATOM     83  C   UNL     1     -14.578   3.900   1.353  1.00  0.00     0.148 A 
ATOM     84  C   UNL     1     -17.239   3.267   0.708  1.00  0.00     0.002 A 
ATOM     85  C   UNL     1     -15.506   3.650   2.361  1.00  0.00     0.091 A 
ATOM     86  F   UNL     1     -13.303   4.204   1.634  1.00  0.00    -0.205 F 
ATOM     87  C   UNL     1     -16.834   3.329   2.038  1.00  0.00     0.022 A 
BRANCH  85  88
ATOM     88  S   UNL     1     -15.089   3.660   4.110  1.00  0.00     0.127 S 
ATOM     89  O   UNL     1     -16.062   4.610   4.651  1.00  0.00    -0.237 OA
ATOM     90  O   UNL     1     -15.331   2.267   4.486  1.00  0.00    -0.237 OA
ATOM     91  O   UNL     1     -13.701   4.091   4.201  1.00  0.00    -0.744 OA
ENDBRANCH  85  88
ENDBRANCH  58  81
ENDBRANCH  32  33
ENDBRANCH  24  27
ENDBRANCH  22  23
ENDBRANCH   1  22
TORSDOF 15
