REMARK SMILES CC[C@@H](C(=O)Nc1ccc(OC(C)=O)cc1C(=O)NCCCNC(=O)c1ccc(-c2c3nc(c(-c4cccc(S(=O)(=O)[O-])c4F)c4ccc([nH]4)c(-c4cccc(S(=O)(=O)[O-])c4F)c4nc(c(-c5cccc(S(=O)(=O)[O-])c5F)c5ccc2[nH]5)C=C4)C=C3)cc1)c1ccccc1
REMARK SMILES IDX 21 1 20 2 19 3 17 4 18 5 16 7 7 8 8 9 9 10 15 11 10 12 6 13
REMARK SMILES IDX 4 14 5 15 3 17 2 18 1 19 89 20 90 21 94 22 91 23 93 24 92 25
REMARK SMILES IDX 11 26 12 27 13 28 14 29 22 30 23 31 24 32 25 34 26 35 27 36
REMARK SMILES IDX 88 37 28 38 87 39 29 40 30 41 31 42 81 43 32 44 86 45 80 46
REMARK SMILES IDX 82 47 33 48 85 49 79 50 78 51 34 53 66 54 46 55 65 56 47 57
REMARK SMILES IDX 50 58 64 59 83 60 48 61 49 62 63 64 84 65 51 66 35 67 36 68
REMARK SMILES IDX 44 69 37 70 39 71 45 72 38 73 40 74 41 75 42 76 43 77 67 78
REMARK SMILES IDX 68 79 76 80 69 81 71 82 77 83 70 84 72 85 73 86 74 87 75 88
REMARK SMILES IDX 52 89 53 90 61 91 54 92 56 93 62 94 55 95 57 96 58 97 59 98
REMARK SMILES IDX 60 99
REMARK H PARENT 19 6 6 16 23 33 82 52 50 63
REMARK Flexibility Score: inf
ROOT
ATOM      1  C   UNL     1      -2.291   2.759   1.865  1.00  0.00     0.042 C 
ENDROOT
BRANCH   1   2
ATOM      2  C   UNL     1      -0.953   2.223   1.398  1.00  0.00     0.118 C 
BRANCH   2   3
ATOM      3  N   UNL     1      -1.083   1.166   0.417  1.00  0.00    -0.352 N 
ATOM      4  C   UNL     1      -0.196   0.648  -0.479  1.00  0.00     0.253 C 
ATOM      5  O   UNL     1      -0.583  -0.307  -1.158  1.00  0.00    -0.269 OA
ATOM      6  H   UNL     1      -1.973   0.746   0.393  1.00  0.00     0.163 HD
BRANCH   4   7
ATOM      7  C   UNL     1       1.191   1.149  -0.696  1.00  0.00     0.067 A 
ATOM      8  C   UNL     1       2.088   1.740   0.216  1.00  0.00     0.054 A 
ATOM      9  C   UNL     1       3.288   2.295  -0.283  1.00  0.00     0.031 A 
ATOM     10  C   UNL     1       3.702   2.084  -1.597  1.00  0.00     0.049 A 
ATOM     11  C   UNL     1       1.625   0.948  -2.029  1.00  0.00     0.063 A 
ATOM     12  C   UNL     1       2.893   1.341  -2.437  1.00  0.00     0.131 A 
BRANCH   8  13
ATOM     13  N   UNL     1       1.915   1.964   1.592  1.00  0.00    -0.325 N 
ATOM     14  C   UNL     1       2.022   1.203   2.720  1.00  0.00     0.231 C 
ATOM     15  O   UNL     1       2.248   1.913   3.718  1.00  0.00    -0.274 OA
ATOM     16  H   UNL     1       1.654   2.892   1.791  1.00  0.00     0.169 HD
BRANCH  14  17
ATOM     17  C   UNL     1       2.004  -0.346   2.883  1.00  0.00     0.108 C 
BRANCH  17  18
ATOM     18  C   UNL     1       1.583  -1.168   1.659  1.00  0.00     0.015 C 
ATOM     19  C   UNL     1       2.747  -1.475   0.730  1.00  0.00     0.005 C 
ENDBRANCH  17  18
BRANCH  17  20
ATOM     20  C   UNL     1       1.256  -0.867   4.145  1.00  0.00    -0.036 A 
ATOM     21  C   UNL     1       0.620  -0.045   5.089  1.00  0.00     0.004 A 
ATOM     22  C   UNL     1       1.245  -2.256   4.414  1.00  0.00     0.004 A 
ATOM     23  C   UNL     1      -0.008  -0.580   6.223  1.00  0.00     0.000 A 
ATOM     24  C   UNL     1       0.585  -2.794   5.524  1.00  0.00     0.000 A 
ATOM     25  C   UNL     1      -0.038  -1.953   6.434  1.00  0.00     0.000 A 
ENDBRANCH  17  20
ENDBRANCH  14  17
ENDBRANCH   8  13
BRANCH  12  26
ATOM     26  O   UNL     1       3.361   1.050  -3.725  1.00  0.00    -0.427 OA
BRANCH  26  27
ATOM     27  C   UNL     1       3.932  -0.199  -3.964  1.00  0.00     0.308 C 
ATOM     28  C   UNL     1       3.288  -1.373  -3.280  1.00  0.00     0.139 C 
ATOM     29  O   UNL     1       4.862  -0.335  -4.756  1.00  0.00    -0.252 OA
ENDBRANCH  26  27
ENDBRANCH  12  26
ENDBRANCH   4   7
ENDBRANCH   2   3
ENDBRANCH   1   2
BRANCH   1  30
ATOM     30  C   UNL     1      -3.094   1.724   2.645  1.00  0.00     0.118 C 
BRANCH  30  31
ATOM     31  N   UNL     1      -2.625   1.514   4.013  1.00  0.00    -0.352 N 
ATOM     32  C   UNL     1      -3.146   1.956   5.216  1.00  0.00     0.251 C 
ATOM     33  H   UNL     1      -1.808   0.972   4.091  1.00  0.00     0.163 HD
ATOM     34  O   UNL     1      -2.543   1.779   6.260  1.00  0.00    -0.269 OA
BRANCH  32  35
ATOM     35  C   UNL     1      -4.431   2.688   5.214  1.00  0.00     0.039 A 
ATOM     36  C   UNL     1      -4.538   3.893   5.910  1.00  0.00     0.014 A 
ATOM     37  C   UNL     1      -5.500   2.220   4.455  1.00  0.00     0.014 A 
ATOM     38  C   UNL     1      -5.674   4.689   5.733  1.00  0.00     0.010 A 
ATOM     39  C   UNL     1      -6.550   3.075   4.162  1.00  0.00     0.010 A 
ATOM     40  C   UNL     1      -6.656   4.321   4.798  1.00  0.00    -0.014 A 
BRANCH  40  41
ATOM     41  C   UNL     1      -7.795   5.212   4.447  1.00  0.00     0.031 A 
ATOM     42  C   UNL     1      -9.209   4.696   4.539  1.00  0.00     0.074 A 
ATOM     43  C   UNL     1      -7.558   6.428   3.910  1.00  0.00     0.049 A 
ATOM     44  N   UNL     1     -10.321   5.258   4.141  1.00  0.00    -0.248 NA
ATOM     45  C   UNL     1      -9.393   3.345   5.097  1.00  0.00     0.031 C 
ATOM     46  C   UNL     1      -6.234   7.002   3.651  1.00  0.00     0.029 A 
ATOM     47  N   UNL     1      -8.425   7.390   3.453  1.00  0.00    -0.354 N 
ATOM     48  C   UNL     1     -11.316   4.306   4.333  1.00  0.00     0.074 A 
ATOM     49  C   UNL     1     -10.671   3.115   4.838  1.00  0.00     0.031 C 
ATOM     50  C   UNL     1      -6.377   8.218   3.101  1.00  0.00     0.029 A 
ATOM     51  C   UNL     1      -7.798   8.501   2.936  1.00  0.00     0.049 A 
ATOM     52  H   UNL     1      -9.403   7.294   3.492  1.00  0.00     0.167 HD
ATOM     53  C   UNL     1     -12.652   4.423   4.151  1.00  0.00     0.034 A 
ATOM     54  C   UNL     1      -8.310   9.622   2.389  1.00  0.00     0.034 A 
ATOM     55  C   UNL     1     -13.298   5.642   3.753  1.00  0.00     0.049 A 
ATOM     56  C   UNL     1      -9.805   9.776   2.313  1.00  0.00     0.074 A 
ATOM     57  C   UNL     1     -14.652   5.913   3.678  1.00  0.00     0.029 A 
ATOM     58  N   UNL     1     -12.635   6.799   3.377  1.00  0.00    -0.354 N 
ATOM     59  N   UNL     1     -10.739   8.929   2.672  1.00  0.00    -0.248 NA
ATOM     60  C   UNL     1     -10.319  11.052   1.795  1.00  0.00     0.031 C 
ATOM     61  C   UNL     1     -14.807   7.235   3.247  1.00  0.00     0.029 A 
ATOM     62  C   UNL     1     -13.550   7.789   3.067  1.00  0.00     0.049 A 
ATOM     63  H   UNL     1     -11.656   6.901   3.336  1.00  0.00     0.167 HD
ATOM     64  C   UNL     1     -11.948   9.579   2.453  1.00  0.00     0.074 A 
ATOM     65  C   UNL     1     -11.627  10.900   1.954  1.00  0.00     0.031 C 
ATOM     66  C   UNL     1     -13.211   9.118   2.630  1.00  0.00     0.034 A 
BRANCH  53  67
ATOM     67  C   UNL     1     -13.508   3.223   4.464  1.00  0.00     0.023 A 
ATOM     68  C   UNL     1     -13.668   2.813   5.804  1.00  0.00     0.012 A 
ATOM     69  C   UNL     1     -14.181   2.524   3.444  1.00  0.00     0.148 A 
ATOM     70  C   UNL     1     -14.445   1.701   6.121  1.00  0.00     0.002 A 
ATOM     71  C   UNL     1     -14.995   1.444   3.773  1.00  0.00     0.091 A 
ATOM     72  F   UNL     1     -14.002   2.912   2.174  1.00  0.00    -0.205 F 
ATOM     73  C   UNL     1     -15.116   1.024   5.107  1.00  0.00     0.022 A 
BRANCH  71  74
ATOM     74  S   UNL     1     -15.966   0.557   2.550  1.00  0.00     0.127 S 
ATOM     75  O   UNL     1     -15.229  -0.702   2.445  1.00  0.00    -0.237 OA
ATOM     76  O   UNL     1     -17.267   0.447   3.209  1.00  0.00    -0.237 OA
ATOM     77  O   UNL     1     -15.961   1.389   1.355  1.00  0.00    -0.744 OA
ENDBRANCH  71  74
ENDBRANCH  53  67
BRANCH  54  78
ATOM     78  C   UNL     1      -7.401  10.723   1.958  1.00  0.00     0.023 A 
ATOM     79  C   UNL     1      -7.353  11.909   2.718  1.00  0.00     0.012 A 
ATOM     80  C   UNL     1      -6.560  10.595   0.836  1.00  0.00     0.148 A 
ATOM     81  C   UNL     1      -6.508  12.958   2.352  1.00  0.00     0.002 A 
ATOM     82  C   UNL     1      -5.682  11.622   0.507  1.00  0.00     0.091 A 
ATOM     83  F   UNL     1      -6.627   9.464   0.119  1.00  0.00    -0.205 F 
ATOM     84  C   UNL     1      -5.666  12.811   1.253  1.00  0.00     0.022 A 
BRANCH  82  85
ATOM     85  S   UNL     1      -4.468  11.465  -0.808  1.00  0.00     0.127 S 
ATOM     86  O   UNL     1      -5.028  12.333  -1.840  1.00  0.00    -0.237 OA
ATOM     87  O   UNL     1      -3.255  11.975  -0.166  1.00  0.00    -0.237 OA
ATOM     88  O   UNL     1      -4.420  10.044  -1.127  1.00  0.00    -0.744 OA
ENDBRANCH  82  85
ENDBRANCH  54  78
BRANCH  66  89
ATOM     89  C   UNL     1     -14.348  10.051   2.311  1.00  0.00     0.023 A 
ATOM     90  C   UNL     1     -14.668  10.324   0.967  1.00  0.00     0.012 A 
ATOM     91  C   UNL     1     -15.153  10.580   3.338  1.00  0.00     0.148 A 
ATOM     92  C   UNL     1     -15.758  11.132   0.650  1.00  0.00     0.002 A 
ATOM     93  C   UNL     1     -16.266  11.346   3.013  1.00  0.00     0.091 A 
ATOM     94  F   UNL     1     -14.819  10.324   4.612  1.00  0.00    -0.205 F 
ATOM     95  C   UNL     1     -16.564  11.631   1.671  1.00  0.00     0.022 A 
BRANCH  93  96
ATOM     96  S   UNL     1     -17.413  11.947   4.259  1.00  0.00     0.127 S 
ATOM     97  O   UNL     1     -17.066  13.365   4.324  1.00  0.00    -0.237 OA
ATOM     98  O   UNL     1     -18.713  11.663   3.649  1.00  0.00    -0.237 OA
ATOM     99  O   UNL     1     -17.133  11.176   5.463  1.00  0.00    -0.744 OA
ENDBRANCH  93  96
ENDBRANCH  66  89
ENDBRANCH  40  41
ENDBRANCH  32  35
ENDBRANCH  30  31
ENDBRANCH   1  30
TORSDOF 19
