REMARK SMILES O=C(NCCCNC(=O)[C@H]1[C@H]2CC[C@H](CC2)[C@@H]1C(=O)Nc1sc2c(c1C(=O)N1CCCCC1)CCCC2)c1ccc(-c2c3nc(c(-c4cccc(S(=O)(=O)[O-])c4F)c4ccc([nH]4)c(-c4cccc(S(=O)(=O)[O-])c4F)c4nc(c(-c5cccc(S(=O)(=O)[O-])c5F)c5ccc2[nH]5)C=C4)C=C3)cc1
REMARK SMILES IDX 5 1 4 2 3 3 1 4 2 5 38 7 39 8 100 9 40 10 99 11 41 12 42 13
REMARK SMILES IDX 43 14 93 15 44 16 98 17 92 18 94 19 45 20 97 21 91 22 90 23
REMARK SMILES IDX 46 25 78 26 58 27 77 28 59 29 62 30 76 31 95 32 60 33 61 34
REMARK SMILES IDX 75 36 96 37 63 38 47 39 48 40 56 41 49 42 51 43 57 44 50 45
REMARK SMILES IDX 52 46 53 47 54 48 55 49 79 50 80 51 88 52 81 53 83 54 89 55
REMARK SMILES IDX 82 56 84 57 85 58 86 59 87 60 64 61 65 62 73 63 66 64 68 65
REMARK SMILES IDX 74 66 67 67 69 68 70 69 71 70 72 71 6 72 7 73 8 74 9 76
REMARK SMILES IDX 10 77 11 78 17 79 12 80 16 81 14 82 13 83 15 84 18 85 19 86
REMARK SMILES IDX 20 87 21 89 22 90 25 91 23 92 24 93 37 94 34 95 36 96 35 97
REMARK SMILES IDX 26 98 27 99 28 100 29 101 33 102 30 103 32 104 31 105
REMARK H PARENT 3 6 94 24 62 35 7 75 20 88
REMARK Flexibility Score: inf
ROOT
ATOM      1  C   UNL     1       4.331  -0.673   2.262  1.00  0.00     0.042 C 
ENDROOT
BRANCH   1   2
ATOM      2  C   UNL     1       4.190  -1.243   0.858  1.00  0.00     0.118 C 
BRANCH   2   3
ATOM      3  N   UNL     1       2.794  -1.228   0.443  1.00  0.00    -0.352 N 
ATOM      4  O   UNL     1       0.905  -0.228  -0.233  1.00  0.00    -0.269 OA
ATOM      5  C   UNL     1       2.126  -0.307  -0.328  1.00  0.00     0.251 C 
ATOM      6  H   UNL     1       2.252  -1.986   0.760  1.00  0.00     0.163 HD
BRANCH   5   7
ATOM      7  C   UNL     1       2.865   0.570  -1.264  1.00  0.00     0.039 A 
ATOM      8  C   UNL     1       3.978   0.093  -1.963  1.00  0.00     0.014 A 
ATOM      9  C   UNL     1       2.383   1.857  -1.523  1.00  0.00     0.014 A 
ATOM     10  C   UNL     1       4.673   0.928  -2.829  1.00  0.00     0.010 A 
ATOM     11  C   UNL     1       3.024   2.662  -2.467  1.00  0.00     0.010 A 
ATOM     12  C   UNL     1       4.179   2.206  -3.122  1.00  0.00    -0.014 A 
BRANCH  12  13
ATOM     13  C   UNL     1       4.803   3.003  -4.205  1.00  0.00     0.031 A 
ATOM     14  C   UNL     1       5.426   4.337  -3.925  1.00  0.00     0.074 A 
ATOM     15  C   UNL     1       4.744   2.526  -5.465  1.00  0.00     0.049 A 
ATOM     16  N   UNL     1       5.942   5.194  -4.766  1.00  0.00    -0.248 NA
ATOM     17  C   UNL     1       5.463   4.775  -2.521  1.00  0.00     0.031 C 
ATOM     18  C   UNL     1       4.115   1.260  -5.853  1.00  0.00     0.029 A 
ATOM     19  N   UNL     1       5.186   3.053  -6.651  1.00  0.00    -0.354 N 
ATOM     20  C   UNL     1       6.318   6.294  -4.006  1.00  0.00     0.074 A 
ATOM     21  C   UNL     1       5.973   5.994  -2.632  1.00  0.00     0.031 C 
ATOM     22  C   UNL     1       4.207   1.111  -7.181  1.00  0.00     0.029 A 
ATOM     23  C   UNL     1       4.842   2.295  -7.745  1.00  0.00     0.049 A 
ATOM     24  H   UNL     1       5.699   3.891  -6.712  1.00  0.00     0.167 HD
ATOM     25  C   UNL     1       6.904   7.443  -4.418  1.00  0.00     0.034 A 
ATOM     26  C   UNL     1       4.980   2.539  -9.062  1.00  0.00     0.034 A 
ATOM     27  C   UNL     1       7.267   7.712  -5.785  1.00  0.00     0.049 A 
ATOM     28  C   UNL     1       5.654   3.807  -9.492  1.00  0.00     0.074 A 
ATOM     29  C   UNL     1       7.938   8.808  -6.297  1.00  0.00     0.029 A 
ATOM     30  N   UNL     1       6.974   6.884  -6.859  1.00  0.00    -0.354 N 
ATOM     31  N   UNL     1       6.128   4.776  -8.747  1.00  0.00    -0.248 NA
ATOM     32  C   UNL     1       5.842   4.007 -10.934  1.00  0.00     0.031 C 
ATOM     33  C   UNL     1       8.028   8.654  -7.685  1.00  0.00     0.029 A 
ATOM     34  C   UNL     1       7.437   7.449  -8.034  1.00  0.00     0.049 A 
ATOM     35  H   UNL     1       6.505   6.020  -6.794  1.00  0.00     0.167 HD
ATOM     36  C   UNL     1       6.693   5.691  -9.624  1.00  0.00     0.074 A 
ATOM     37  C   UNL     1       6.515   5.151 -10.959  1.00  0.00     0.031 C 
ATOM     38  C   UNL     1       7.294   6.874  -9.349  1.00  0.00     0.034 A 
BRANCH  25  39
ATOM     39  C   UNL     1       7.206   8.487  -3.375  1.00  0.00     0.023 A 
ATOM     40  C   UNL     1       8.248   8.273  -2.450  1.00  0.00     0.012 A 
ATOM     41  C   UNL     1       6.484   9.696  -3.331  1.00  0.00     0.148 A 
ATOM     42  C   UNL     1       8.539   9.225  -1.472  1.00  0.00     0.002 A 
ATOM     43  C   UNL     1       6.808  10.659  -2.380  1.00  0.00     0.091 A 
ATOM     44  F   UNL     1       5.480   9.877  -4.201  1.00  0.00    -0.205 F 
ATOM     45  C   UNL     1       7.825  10.420  -1.443  1.00  0.00     0.022 A 
BRANCH  43  46
ATOM     46  S   UNL     1       5.989  12.257  -2.320  1.00  0.00     0.127 S 
ATOM     47  O   UNL     1       5.045  12.064  -1.220  1.00  0.00    -0.237 OA
ATOM     48  O   UNL     1       7.097  13.165  -2.019  1.00  0.00    -0.237 OA
ATOM     49  O   UNL     1       5.398  12.447  -3.637  1.00  0.00    -0.744 OA
ENDBRANCH  43  46
ENDBRANCH  25  39
BRANCH  26  50
ATOM     50  C   UNL     1       4.483   1.531 -10.039  1.00  0.00     0.023 A 
ATOM     51  C   UNL     1       5.403   0.735 -10.746  1.00  0.00     0.012 A 
ATOM     52  C   UNL     1       3.103   1.282 -10.180  1.00  0.00     0.148 A 
ATOM     53  C   UNL     1       4.957  -0.288 -11.583  1.00  0.00     0.002 A 
ATOM     54  C   UNL     1       2.668   0.224 -10.969  1.00  0.00     0.091 A 
ATOM     55  F   UNL     1       2.246   2.057  -9.501  1.00  0.00    -0.205 F 
ATOM     56  C   UNL     1       3.593  -0.553 -11.683  1.00  0.00     0.022 A 
BRANCH  54  57
ATOM     57  S   UNL     1       0.947  -0.288 -11.034  1.00  0.00     0.127 S 
ATOM     58  O   UNL     1       0.587   0.050 -12.408  1.00  0.00    -0.237 OA
ATOM     59  O   UNL     1       1.051  -1.722 -10.759  1.00  0.00    -0.237 OA
ATOM     60  O   UNL     1       0.268   0.475  -9.996  1.00  0.00    -0.744 OA
ENDBRANCH  54  57
ENDBRANCH  26  50
BRANCH  38  61
ATOM     61  C   UNL     1       7.843   7.663 -10.505  1.00  0.00     0.023 A 
ATOM     62  C   UNL     1       6.967   8.379 -11.343  1.00  0.00     0.012 A 
ATOM     63  C   UNL     1       9.235   7.781 -10.690  1.00  0.00     0.148 A 
ATOM     64  C   UNL     1       7.468   9.192 -12.358  1.00  0.00     0.002 A 
ATOM     65  C   UNL     1       9.728   8.629 -11.673  1.00  0.00     0.091 A 
ATOM     66  F   UNL     1      10.047   7.073  -9.891  1.00  0.00    -0.205 F 
ATOM     67  C   UNL     1       8.847   9.328 -12.514  1.00  0.00     0.022 A 
BRANCH  65  68
ATOM     68  S   UNL     1      11.484   8.943 -11.884  1.00  0.00     0.127 S 
ATOM     69  O   UNL     1      11.750   8.297 -13.167  1.00  0.00    -0.237 OA
ATOM     70  O   UNL     1      11.535  10.404 -11.912  1.00  0.00    -0.237 OA
ATOM     71  O   UNL     1      12.143   8.336 -10.734  1.00  0.00    -0.744 OA
ENDBRANCH  65  68
ENDBRANCH  38  61
ENDBRANCH  12  13
ENDBRANCH   5   7
ENDBRANCH   2   3
ENDBRANCH   1   2
BRANCH   1  72
ATOM     72  C   UNL     1       3.872  -1.662   3.330  1.00  0.00     0.117 C 
BRANCH  72  73
ATOM     73  N   UNL     1       4.942  -2.557   3.688  1.00  0.00    -0.356 N 
ATOM     74  C   UNL     1       5.946  -2.475   4.582  1.00  0.00     0.224 C 
ATOM     75  H   UNL     1       4.939  -3.398   3.177  1.00  0.00     0.163 HD
ATOM     76  O   UNL     1       6.740  -3.426   4.529  1.00  0.00    -0.275 OA
BRANCH  74  77
ATOM     77  C   UNL     1       6.129  -1.409   5.678  1.00  0.00     0.094 C 
ATOM     78  C   UNL     1       6.152   0.125   5.406  1.00  0.00     0.002 C 
ATOM     79  C   UNL     1       5.343  -1.742   6.956  1.00  0.00     0.094 C 
ATOM     80  C   UNL     1       4.779   0.800   5.348  1.00  0.00     0.005 C 
ATOM     81  C   UNL     1       6.808   0.801   6.649  1.00  0.00     0.005 C 
ATOM     82  C   UNL     1       4.783  -0.409   7.553  1.00  0.00     0.002 C 
ATOM     83  C   UNL     1       3.911   0.316   6.509  1.00  0.00     0.005 C 
ATOM     84  C   UNL     1       5.965   0.513   7.907  1.00  0.00     0.005 C 
BRANCH  79  85
ATOM     85  C   UNL     1       5.934  -2.597   8.128  1.00  0.00     0.229 C 
ATOM     86  O   UNL     1       5.209  -2.743   9.130  1.00  0.00    -0.274 OA
ATOM     87  N   UNL     1       7.051  -3.375   8.119  1.00  0.00    -0.317 N 
ATOM     88  H   UNL     1       7.018  -4.122   8.759  1.00  0.00     0.170 HD
BRANCH  87  89
ATOM     89  C   UNL     1       8.216  -3.321   7.391  1.00  0.00     0.108 A 
ATOM     90  S   UNL     1       9.100  -1.867   7.338  1.00  0.00    -0.122 S 
ATOM     91  C   UNL     1       8.986  -4.365   6.872  1.00  0.00     0.078 A 
ATOM     92  C   UNL     1       9.806  -2.399   5.888  1.00  0.00     0.011 A 
ATOM     93  C   UNL     1       9.863  -3.784   5.854  1.00  0.00    -0.019 A 
ATOM     94  C   UNL     1      10.261  -1.464   4.813  1.00  0.00     0.047 C 
ATOM     95  C   UNL     1      10.599  -4.470   4.740  1.00  0.00     0.037 C 
ATOM     96  C   UNL     1      10.481  -2.244   3.507  1.00  0.00     0.006 C 
ATOM     97  C   UNL     1      11.303  -3.503   3.772  1.00  0.00     0.005 C 
BRANCH  91  98
ATOM     98  C   UNL     1       8.632  -5.764   7.176  1.00  0.00     0.257 C 
ATOM     99  O   UNL     1       7.655  -6.022   7.886  1.00  0.00    -0.269 OA
ATOM    100  N   UNL     1       9.375  -6.807   6.627  1.00  0.00    -0.339 N 
ATOM    101  C   UNL     1       8.662  -8.051   6.375  1.00  0.00     0.120 C 
ATOM    102  C   UNL     1      10.807  -6.964   6.856  1.00  0.00     0.120 C 
ATOM    103  C   UNL     1       9.239  -8.742   5.149  1.00  0.00     0.022 C 
ATOM    104  C   UNL     1      11.481  -7.720   5.704  1.00  0.00     0.022 C 
ATOM    105  C   UNL     1      10.734  -8.999   5.326  1.00  0.00     0.004 C 
ENDBRANCH  91  98
ENDBRANCH  87  89
ENDBRANCH  79  85
ENDBRANCH  74  77
ENDBRANCH  72  73
ENDBRANCH   1  72
TORSDOF 16
