REMARK SMILES Cc1ccc(N(CC(=O)NCCCNC(=O)c2ccc(-c3c4nc(c(-c5cccc(S(=O)(=O)[O-])c5F)c5ccc([nH]5)c(-c5cccc(S(=O)(=O)[O-])c5F)c5nc(c(-c6cccc(S(=O)(=O)[O-])c6F)c6ccc3[nH]6)C=C5)C=C4)cc2)C(=O)C[C@H]2C[NH2+]CCO2)cc1
REMARK SMILES IDX 11 1 10 2 8 3 9 4 7 6 6 7 5 8 1 9 2 10 3 11 90 12 4 13 89 14
REMARK SMILES IDX 80 15 81 16 82 17 83 18 84 19 88 20 85 21 87 22 86 23 12 26
REMARK SMILES IDX 13 27 14 28 15 29 16 31 17 32 18 33 79 34 19 35 78 36 20 37
REMARK SMILES IDX 21 38 22 39 72 40 23 41 77 42 71 43 73 44 24 45 76 46 70 47
REMARK SMILES IDX 69 48 25 50 57 51 37 52 56 53 38 54 41 55 55 56 74 57 39 58
REMARK SMILES IDX 40 59 54 61 75 62 42 63 26 64 27 65 35 66 28 67 30 68 36 69
REMARK SMILES IDX 29 70 31 71 32 72 33 73 34 74 58 75 59 76 67 77 60 78 62 79
REMARK SMILES IDX 68 80 61 81 63 82 64 83 65 84 66 85 43 86 44 87 52 88 45 89
REMARK SMILES IDX 47 90 53 91 46 92 48 93 49 94 50 95 51 96
REMARK H PARENT 10 5 85 24 85 25 14 30 73 49 41 60
REMARK Flexibility Score: inf
ROOT
ATOM      1  C   UNL     1      -3.001  -2.917  -5.533  1.00  0.00     0.117 C 
ENDROOT
BRANCH   1   2
ATOM      2  N   UNL     1      -2.532  -2.298  -4.306  1.00  0.00    -0.354 N 
ATOM      3  C   UNL     1      -3.257  -1.786  -3.272  1.00  0.00     0.240 C 
ATOM      4  O   UNL     1      -2.660  -1.163  -2.391  1.00  0.00    -0.273 OA
ATOM      5  H   UNL     1      -1.554  -2.240  -4.208  1.00  0.00     0.163 HD
BRANCH   3   6
ATOM      6  C   UNL     1      -4.779  -1.992  -3.197  1.00  0.00     0.225 C 
BRANCH   6   7
ATOM      7  N   UNL     1      -5.604  -1.024  -3.964  1.00  0.00    -0.303 N 
BRANCH   7   8
ATOM      8  C   UNL     1      -6.321  -1.485  -5.152  1.00  0.00     0.044 A 
ATOM      9  C   UNL     1      -8.221  -2.908  -8.814  1.00  0.00     0.044 C 
ATOM     10  C   UNL     1      -7.607  -2.410  -7.541  1.00  0.00    -0.051 A 
ATOM     11  C   UNL     1      -7.229  -3.301  -6.539  1.00  0.00     0.005 A 
ATOM     12  C   UNL     1      -7.367  -1.056  -7.340  1.00  0.00     0.005 A 
ATOM     13  C   UNL     1      -6.612  -2.844  -5.363  1.00  0.00     0.026 A 
ATOM     14  C   UNL     1      -6.738  -0.607  -6.169  1.00  0.00     0.026 A 
ENDBRANCH   7   8
BRANCH   7  15
ATOM     15  C   UNL     1      -5.734   0.305  -3.520  1.00  0.00     0.230 C 
ATOM     16  O   UNL     1      -6.230   1.219  -4.187  1.00  0.00    -0.274 OA
BRANCH  15  17
ATOM     17  C   UNL     1      -5.401   0.648  -2.082  1.00  0.00     0.138 C 
BRANCH  17  18
ATOM     18  C   UNL     1      -6.617   0.605  -1.143  1.00  0.00     0.182 C 
ATOM     19  C   UNL     1      -7.890   1.340  -1.624  1.00  0.00     0.293 C 
ATOM     20  O   UNL     1      -6.908  -0.716  -0.649  1.00  0.00    -0.366 OA
ATOM     21  N   UNL     1      -8.728   0.571  -2.556  1.00  0.00    -0.342 N 
ATOM     22  C   UNL     1      -7.792  -1.489  -1.463  1.00  0.00     0.222 C 
ATOM     23  C   UNL     1      -9.027  -0.733  -1.961  1.00  0.00     0.289 C 
ATOM     24  H   UNL     1      -8.229   0.439  -3.436  1.00  0.00     0.346 HD
ATOM     25  H   UNL     1      -9.596   1.075  -2.737  1.00  0.00     0.346 HD
ENDBRANCH  17  18
ENDBRANCH  15  17
ENDBRANCH   7  15
ENDBRANCH   6   7
ENDBRANCH   3   6
ENDBRANCH   1   2
BRANCH   1  26
ATOM     26  C   UNL     1      -3.414  -1.872  -6.557  1.00  0.00     0.042 C 
BRANCH  26  27
ATOM     27  C   UNL     1      -2.246  -1.140  -7.178  1.00  0.00     0.118 C 
BRANCH  27  28
ATOM     28  N   UNL     1      -1.810  -1.693  -8.446  1.00  0.00    -0.352 N 
ATOM     29  C   UNL     1      -0.798  -1.231  -9.268  1.00  0.00     0.251 C 
ATOM     30  H   UNL     1      -2.292  -2.493  -8.759  1.00  0.00     0.163 HD
ATOM     31  O   UNL     1      -0.707  -1.655 -10.416  1.00  0.00    -0.269 OA
BRANCH  29  32
ATOM     32  C   UNL     1       0.233  -0.340  -8.685  1.00  0.00     0.039 A 
ATOM     33  C   UNL     1       1.560  -0.778  -8.753  1.00  0.00     0.014 A 
ATOM     34  C   UNL     1      -0.126   0.703  -7.835  1.00  0.00     0.014 A 
ATOM     35  C   UNL     1       2.470  -0.359  -7.788  1.00  0.00     0.010 A 
ATOM     36  C   UNL     1       0.738   1.040  -6.817  1.00  0.00     0.010 A 
ATOM     37  C   UNL     1       2.011   0.459  -6.762  1.00  0.00    -0.014 A 
BRANCH  37  38
ATOM     38  C   UNL     1       2.776   0.796  -5.575  1.00  0.00     0.031 A 
ATOM     39  C   UNL     1       3.503   2.076  -5.535  1.00  0.00     0.074 A 
ATOM     40  C   UNL     1       2.635   0.035  -4.468  1.00  0.00     0.049 A 
ATOM     41  N   UNL     1       4.403   2.382  -4.666  1.00  0.00    -0.248 NA
ATOM     42  C   UNL     1       3.286   3.109  -6.538  1.00  0.00     0.031 C 
ATOM     43  C   UNL     1       2.929   0.424  -3.095  1.00  0.00     0.029 A 
ATOM     44  N   UNL     1       2.389  -1.341  -4.396  1.00  0.00    -0.354 N 
ATOM     45  C   UNL     1       4.684   3.725  -4.818  1.00  0.00     0.074 A 
ATOM     46  C   UNL     1       4.028   4.103  -6.046  1.00  0.00     0.031 C 
ATOM     47  C   UNL     1       3.115  -0.686  -2.366  1.00  0.00     0.029 A 
ATOM     48  C   UNL     1       3.121  -1.807  -3.289  1.00  0.00     0.049 A 
ATOM     49  H   UNL     1       1.819  -1.873  -4.997  1.00  0.00     0.167 HD
ATOM     50  C   UNL     1       5.315   4.384  -3.805  1.00  0.00     0.034 A 
ATOM     51  C   UNL     1       4.102  -2.752  -3.369  1.00  0.00     0.034 A 
ATOM     52  C   UNL     1       5.721   3.443  -2.750  1.00  0.00     0.049 A 
ATOM     53  C   UNL     1       5.449  -2.259  -2.871  1.00  0.00     0.074 A 
ATOM     54  C   UNL     1       5.139   3.066  -1.550  1.00  0.00     0.029 A 
ATOM     55  N   UNL     1       6.726   2.518  -3.006  1.00  0.00    -0.354 N 
ATOM     56  N   UNL     1       5.703  -1.019  -2.552  1.00  0.00    -0.248 NA
ATOM     57  C   UNL     1       6.625  -3.114  -2.725  1.00  0.00     0.031 C 
ATOM     58  C   UNL     1       5.736   1.844  -1.140  1.00  0.00     0.029 A 
ATOM     59  C   UNL     1       6.703   1.496  -2.069  1.00  0.00     0.049 A 
ATOM     60  H   UNL     1       7.366   2.579  -3.752  1.00  0.00     0.167 HD
ATOM     61  C   UNL     1       7.043  -0.865  -2.314  1.00  0.00     0.074 A 
ATOM     62  C   UNL     1       7.560  -2.223  -2.350  1.00  0.00     0.031 C 
ATOM     63  C   UNL     1       7.623   0.368  -2.183  1.00  0.00     0.034 A 
BRANCH  50  64
ATOM     64  C   UNL     1       5.297   5.894  -3.597  1.00  0.00     0.023 A 
ATOM     65  C   UNL     1       5.560   6.366  -2.289  1.00  0.00     0.012 A 
ATOM     66  C   UNL     1       4.965   6.888  -4.546  1.00  0.00     0.148 A 
ATOM     67  C   UNL     1       5.396   7.707  -1.921  1.00  0.00     0.002 A 
ATOM     68  C   UNL     1       4.734   8.216  -4.169  1.00  0.00     0.091 A 
ATOM     69  F   UNL     1       4.958   6.594  -5.846  1.00  0.00    -0.205 F 
ATOM     70  C   UNL     1       4.944   8.628  -2.852  1.00  0.00     0.022 A 
BRANCH  68  71
ATOM     71  S   UNL     1       4.085   9.448  -5.316  1.00  0.00     0.127 S 
ATOM     72  O   UNL     1       2.940   9.984  -4.577  1.00  0.00    -0.237 OA
ATOM     73  O   UNL     1       5.208  10.373  -5.450  1.00  0.00    -0.237 OA
ATOM     74  O   UNL     1       3.722   8.723  -6.528  1.00  0.00    -0.744 OA
ENDBRANCH  68  71
ENDBRANCH  50  64
BRANCH  51  75
ATOM     75  C   UNL     1       3.888  -3.752  -4.453  1.00  0.00     0.023 A 
ATOM     76  C   UNL     1       2.782  -4.623  -4.301  1.00  0.00     0.012 A 
ATOM     77  C   UNL     1       4.457  -3.590  -5.728  1.00  0.00     0.148 A 
ATOM     78  C   UNL     1       2.179  -5.219  -5.409  1.00  0.00     0.002 A 
ATOM     79  C   UNL     1       3.842  -4.181  -6.832  1.00  0.00     0.091 A 
ATOM     80  F   UNL     1       5.523  -2.791  -5.856  1.00  0.00    -0.205 F 
ATOM     81  C   UNL     1       2.688  -4.968  -6.677  1.00  0.00     0.022 A 
BRANCH  79  82
ATOM     82  S   UNL     1       4.378  -3.850  -8.516  1.00  0.00     0.127 S 
ATOM     83  O   UNL     1       5.128  -5.062  -8.829  1.00  0.00    -0.237 OA
ATOM     84  O   UNL     1       3.103  -3.716  -9.221  1.00  0.00    -0.237 OA
ATOM     85  O   UNL     1       5.147  -2.618  -8.433  1.00  0.00    -0.744 OA
ENDBRANCH  79  82
ENDBRANCH  51  75
BRANCH  63  86
ATOM     86  C   UNL     1       9.118   0.632  -2.178  1.00  0.00     0.023 A 
ATOM     87  C   UNL     1      10.035  -0.242  -2.794  1.00  0.00     0.012 A 
ATOM     88  C   UNL     1       9.636   1.861  -1.693  1.00  0.00     0.148 A 
ATOM     89  C   UNL     1      11.401   0.053  -2.874  1.00  0.00     0.002 A 
ATOM     90  C   UNL     1      10.976   2.198  -1.875  1.00  0.00     0.091 A 
ATOM     91  F   UNL     1       8.833   2.712  -1.037  1.00  0.00    -0.205 F 
ATOM     92  C   UNL     1      11.869   1.284  -2.436  1.00  0.00     0.022 A 
BRANCH  90  93
ATOM     93  S   UNL     1      11.552   3.870  -1.545  1.00  0.00     0.127 S 
ATOM     94  O   UNL     1      11.930   3.794  -0.137  1.00  0.00    -0.237 OA
ATOM     95  O   UNL     1      12.679   4.010  -2.470  1.00  0.00    -0.237 OA
ATOM     96  O   UNL     1      10.413   4.721  -1.865  1.00  0.00    -0.744 OA
ENDBRANCH  90  93
ENDBRANCH  63  86
ENDBRANCH  37  38
ENDBRANCH  29  32
ENDBRANCH  27  28
ENDBRANCH  26  27
ENDBRANCH   1  26
TORSDOF 18
