REMARK SMILES Cc1ccc(Cl)cc1NC(=O)N[C@@](C)(C(=O)NCCCNC(=O)c1ccc(-c2c3nc(c(-c4cccc(S(=O)(=O)[O-])c4F)c4ccc([nH]4)c(-c4cccc(S(=O)(=O)[O-])c4F)c4nc(c(-c5cccc(S(=O)(=O)[O-])c5F)c5ccc2[nH]5)C=C4)C=C3)cc1)C(F)(F)F
REMARK SMILES IDX 19 1 18 2 17 3 15 4 16 5 13 7 14 8 12 9 9 10 10 11 11 13
REMARK SMILES IDX 8 15 1 16 2 17 3 18 4 19 7 20 5 21 6 22 87 23 88 24 89 25
REMARK SMILES IDX 90 26 20 27 21 28 22 29 23 31 24 32 25 33 86 34 26 35 85 36
REMARK SMILES IDX 27 37 28 38 29 39 79 40 30 41 84 42 78 43 80 44 31 45 83 46
REMARK SMILES IDX 77 47 76 48 32 50 64 51 44 52 63 53 45 54 48 55 62 56 81 57
REMARK SMILES IDX 46 58 47 59 61 61 82 62 49 63 33 64 34 65 42 66 35 67 37 68
REMARK SMILES IDX 43 69 36 70 38 71 39 72 40 73 41 74 65 75 66 76 74 77 67 78
REMARK SMILES IDX 69 79 75 80 68 81 70 82 71 83 72 84 73 85 50 86 51 87 59 88
REMARK SMILES IDX 52 89 54 90 60 91 53 92 55 93 56 94 57 95 58 96
REMARK H PARENT 17 6 9 12 12 14 21 30 80 49 48 60
REMARK Flexibility Score: inf
ROOT
ATOM      1  C   UNL     1      -2.930   6.237  -0.762  1.00  0.00     0.042 C 
ENDROOT
BRANCH   1   2
ATOM      2  C   UNL     1      -3.143   4.907  -0.045  1.00  0.00     0.117 C 
BRANCH   2   3
ATOM      3  N   UNL     1      -3.078   3.791  -0.972  1.00  0.00    -0.354 N 
ATOM      4  C   UNL     1      -1.872   3.324  -1.432  1.00  0.00     0.255 C 
ATOM      5  O   UNL     1      -1.470   3.774  -2.503  1.00  0.00    -0.272 OA
ATOM      6  H   UNL     1      -3.911   3.363  -1.275  1.00  0.00     0.163 HD
BRANCH   4   7
ATOM      7  C   UNL     1      -1.045   2.368  -0.530  1.00  0.00     0.213 C 
ATOM      8  C   UNL     1      -1.952   1.754   0.554  1.00  0.00     0.056 C 
BRANCH   7   9
ATOM      9  N   UNL     1       0.030   3.203   0.094  1.00  0.00    -0.316 N 
ATOM     10  N   UNL     1       1.873   1.926   0.946  1.00  0.00    -0.308 N 
ATOM     11  C   UNL     1       1.201   3.062   0.718  1.00  0.00     0.320 C 
ATOM     12  H   UNL     1       2.825   2.095   1.131  1.00  0.00     0.171 HD
ATOM     13  O   UNL     1       1.780   4.113   1.013  1.00  0.00    -0.248 OA
ATOM     14  H   UNL     1      -0.198   4.158   0.020  1.00  0.00     0.166 HD
BRANCH  10  15
ATOM     15  C   UNL     1       1.570   0.565   0.990  1.00  0.00     0.047 A 
ATOM     16  C   UNL     1       3.820   0.009  -0.113  1.00  0.00     0.046 C 
ATOM     17  C   UNL     1       2.461  -0.364   0.415  1.00  0.00    -0.027 A 
ATOM     18  C   UNL     1       2.077  -1.715   0.331  1.00  0.00     0.007 A 
ATOM     19  C   UNL     1       0.861  -2.146   0.859  1.00  0.00     0.021 A 
ATOM     20  C   UNL     1       0.433   0.099   1.647  1.00  0.00     0.047 A 
ATOM     21  C   UNL     1       0.065  -1.245   1.553  1.00  0.00     0.043 A 
ATOM     22  Cl  UNL     1      -1.404  -1.783   2.272  1.00  0.00    -0.084 Cl
ENDBRANCH  10  15
ENDBRANCH   7   9
BRANCH   7  23
ATOM     23  C   UNL     1      -0.619   1.330  -1.600  1.00  0.00     0.420 C 
ATOM     24  F   UNL     1       0.303   1.800  -2.468  1.00  0.00    -0.168 F 
ATOM     25  F   UNL     1      -0.105   0.203  -1.069  1.00  0.00    -0.168 F 
ATOM     26  F   UNL     1      -1.693   0.909  -2.322  1.00  0.00    -0.168 F 
ENDBRANCH   7  23
ENDBRANCH   4   7
ENDBRANCH   2   3
ENDBRANCH   1   2
BRANCH   1  27
ATOM     27  C   UNL     1      -3.786   6.417  -2.013  1.00  0.00     0.118 C 
BRANCH  27  28
ATOM     28  N   UNL     1      -5.218   6.309  -1.744  1.00  0.00    -0.352 N 
ATOM     29  C   UNL     1      -6.207   7.217  -2.042  1.00  0.00     0.251 C 
ATOM     30  H   UNL     1      -5.511   5.485  -1.294  1.00  0.00     0.163 HD
ATOM     31  O   UNL     1      -7.352   7.057  -1.632  1.00  0.00    -0.269 OA
BRANCH  29  32
ATOM     32  C   UNL     1      -5.847   8.402  -2.840  1.00  0.00     0.039 A 
ATOM     33  C   UNL     1      -6.091   9.675  -2.323  1.00  0.00     0.014 A 
ATOM     34  C   UNL     1      -5.169   8.233  -4.049  1.00  0.00     0.014 A 
ATOM     35  C   UNL     1      -5.586  10.792  -2.992  1.00  0.00     0.010 A 
ATOM     36  C   UNL     1      -4.597   9.337  -4.664  1.00  0.00     0.010 A 
ATOM     37  C   UNL     1      -4.804  10.627  -4.146  1.00  0.00    -0.014 A 
BRANCH  37  38
ATOM     38  C   UNL     1      -4.200  11.775  -4.867  1.00  0.00     0.031 A 
ATOM     39  C   UNL     1      -4.583  12.012  -6.302  1.00  0.00     0.074 A 
ATOM     40  C   UNL     1      -3.222  12.501  -4.290  1.00  0.00     0.049 A 
ATOM     41  N   UNL     1      -4.040  12.810  -7.182  1.00  0.00    -0.248 NA
ATOM     42  C   UNL     1      -5.698  11.204  -6.831  1.00  0.00     0.031 C 
ATOM     43  C   UNL     1      -2.715  12.318  -2.928  1.00  0.00     0.029 A 
ATOM     44  N   UNL     1      -2.447  13.515  -4.797  1.00  0.00    -0.354 N 
ATOM     45  C   UNL     1      -4.697  12.550  -8.379  1.00  0.00     0.074 A 
ATOM     46  C   UNL     1      -5.662  11.506  -8.120  1.00  0.00     0.031 C 
ATOM     47  C   UNL     1      -1.710  13.182  -2.712  1.00  0.00     0.029 A 
ATOM     48  C   UNL     1      -1.476  13.956  -3.927  1.00  0.00     0.049 A 
ATOM     49  H   UNL     1      -2.574  13.891  -5.698  1.00  0.00     0.167 HD
ATOM     50  C   UNL     1      -4.529  13.148  -9.581  1.00  0.00     0.034 A 
ATOM     51  C   UNL     1      -0.498  14.868  -4.098  1.00  0.00     0.034 A 
ATOM     52  C   UNL     1      -3.630  14.244  -9.806  1.00  0.00     0.049 A 
ATOM     53  C   UNL     1      -0.395  15.582  -5.421  1.00  0.00     0.074 A 
ATOM     54  C   UNL     1      -3.456  14.991 -10.956  1.00  0.00     0.029 A 
ATOM     55  N   UNL     1      -2.765  14.761  -8.854  1.00  0.00    -0.354 N 
ATOM     56  N   UNL     1      -1.118  15.421  -6.503  1.00  0.00    -0.248 NA
ATOM     57  C   UNL     1       0.632  16.628  -5.538  1.00  0.00     0.031 C 
ATOM     58  C   UNL     1      -2.482  15.960 -10.700  1.00  0.00     0.029 A 
ATOM     59  C   UNL     1      -2.062  15.825  -9.386  1.00  0.00     0.049 A 
ATOM     60  H   UNL     1      -2.666  14.420  -7.936  1.00  0.00     0.167 HD
ATOM     61  C   UNL     1      -0.668  16.373  -7.409  1.00  0.00     0.074 A 
ATOM     62  C   UNL     1       0.387  17.114  -6.749  1.00  0.00     0.031 C 
ATOM     63  C   UNL     1      -1.080  16.605  -8.679  1.00  0.00     0.034 A 
BRANCH  50  64
ATOM     64  C   UNL     1      -5.384  12.677 -10.726  1.00  0.00     0.023 A 
ATOM     65  C   UNL     1      -6.760  12.984 -10.737  1.00  0.00     0.012 A 
ATOM     66  C   UNL     1      -4.821  11.982 -11.815  1.00  0.00     0.148 A 
ATOM     67  C   UNL     1      -7.570  12.577 -11.796  1.00  0.00     0.002 A 
ATOM     68  C   UNL     1      -5.626  11.620 -12.888  1.00  0.00     0.091 A 
ATOM     69  F   UNL     1      -3.515  11.680 -11.776  1.00  0.00    -0.205 F 
ATOM     70  C   UNL     1      -7.002  11.906 -12.875  1.00  0.00     0.022 A 
BRANCH  68  71
ATOM     71  S   UNL     1      -4.975  10.827 -14.363  1.00  0.00     0.127 S 
ATOM     72  O   UNL     1      -5.498   9.469 -14.222  1.00  0.00    -0.237 OA
ATOM     73  O   UNL     1      -5.594  11.610 -15.433  1.00  0.00    -0.237 OA
ATOM     74  O   UNL     1      -3.527  10.952 -14.279  1.00  0.00    -0.744 OA
ENDBRANCH  68  71
ENDBRANCH  50  64
BRANCH  51  75
ATOM     75  C   UNL     1       0.409  15.217  -2.968  1.00  0.00     0.023 A 
ATOM     76  C   UNL     1       0.277  16.474  -2.345  1.00  0.00     0.012 A 
ATOM     77  C   UNL     1       1.379  14.315  -2.489  1.00  0.00     0.148 A 
ATOM     78  C   UNL     1       1.115  16.840  -1.291  1.00  0.00     0.002 A 
ATOM     79  C   UNL     1       2.176  14.666  -1.404  1.00  0.00     0.091 A 
ATOM     80  F   UNL     1       1.501  13.128  -3.100  1.00  0.00    -0.205 F 
ATOM     81  C   UNL     1       2.057  15.934  -0.815  1.00  0.00     0.022 A 
BRANCH  79  82
ATOM     82  S   UNL     1       3.326  13.513  -0.645  1.00  0.00     0.127 S 
ATOM     83  O   UNL     1       4.611  14.006  -1.131  1.00  0.00    -0.237 OA
ATOM     84  O   UNL     1       3.081  13.732   0.782  1.00  0.00    -0.237 OA
ATOM     85  O   UNL     1       2.924  12.197  -1.123  1.00  0.00    -0.744 OA
ENDBRANCH  79  82
ENDBRANCH  51  75
BRANCH  63  86
ATOM     86  C   UNL     1      -0.453  17.746  -9.431  1.00  0.00     0.023 A 
ATOM     87  C   UNL     1       0.839  17.602  -9.972  1.00  0.00     0.012 A 
ATOM     88  C   UNL     1      -1.201  18.906  -9.712  1.00  0.00     0.148 A 
ATOM     89  C   UNL     1       1.383  18.605 -10.773  1.00  0.00     0.002 A 
ATOM     90  C   UNL     1      -0.670  19.880 -10.548  1.00  0.00     0.091 A 
ATOM     91  F   UNL     1      -2.422  19.025  -9.171  1.00  0.00    -0.205 F 
ATOM     92  C   UNL     1       0.624  19.735 -11.073  1.00  0.00     0.022 A 
BRANCH  90  93
ATOM     93  S   UNL     1      -1.612  21.319 -11.069  1.00  0.00     0.127 S 
ATOM     94  O   UNL     1      -0.942  22.393 -10.339  1.00  0.00    -0.237 OA
ATOM     95  O   UNL     1      -1.387  21.329 -12.515  1.00  0.00    -0.237 OA
ATOM     96  O   UNL     1      -2.990  21.062 -10.674  1.00  0.00    -0.744 OA
ENDBRANCH  90  93
ENDBRANCH  63  86
ENDBRANCH  37  38
ENDBRANCH  29  32
ENDBRANCH  27  28
ENDBRANCH   1  27
TORSDOF 16
