REMARK SMILES Cc1[nH]c(=O)sc1S(=O)(=O)N[C@@H]1CCCCC[C@@H]1C(=O)NCCCNC(=O)c1ccc(-c2c3nc(c(-c4cccc(S(=O)(=O)[O-])c4F)c4ccc([nH]4)c(-c4cccc(S(=O)(=O)[O-])c4F)c4nc(c(-c5cccc(S(=O)(=O)[O-])c5F)c5ccc2[nH]5)C=C4)C=C3)cc1
REMARK SMILES IDX 22 1 21 2 19 3 20 4 18 6 12 7 11 8 8 10 9 11 10 12 7 13 1 14
REMARK SMILES IDX 2 15 3 16 4 17 6 19 5 20 13 21 14 22 17 24 16 25 15 26 23 28
REMARK SMILES IDX 24 29 25 30 26 31 27 33 28 34 29 35 90 36 30 37 89 38 31 39
REMARK SMILES IDX 32 40 33 41 83 42 34 43 88 44 82 45 84 46 35 47 87 48 81 49
REMARK SMILES IDX 80 50 36 52 68 53 48 54 67 55 49 56 52 57 66 58 85 59 50 60
REMARK SMILES IDX 51 61 65 63 86 64 53 65 37 66 38 67 46 68 39 69 41 70 47 71
REMARK SMILES IDX 40 72 42 73 43 74 44 75 45 76 69 77 70 78 78 79 71 80 73 81
REMARK SMILES IDX 79 82 72 83 74 84 75 85 76 86 77 87 54 88 55 89 63 90 56 91
REMARK SMILES IDX 58 92 64 93 57 94 59 95 60 96 61 97 62 98
REMARK H PARENT 21 5 11 9 3 18 25 32 84 51 52 62
REMARK Flexibility Score: 90.00
ROOT
ATOM      1  C   UNL     1       3.295  -0.591   0.035  1.00  0.00     0.117 C 
ENDROOT
BRANCH   1   2
ATOM      2  N   UNL     1       2.847  -0.148  -1.306  1.00  0.00    -0.356 N 
ATOM      3  C   UNL     1       1.901   0.676  -1.838  1.00  0.00     0.224 C 
ATOM      4  O   UNL     1       2.320   1.459  -2.705  1.00  0.00    -0.275 OA
ATOM      5  H   UNL     1       3.386  -0.570  -2.014  1.00  0.00     0.163 HD
BRANCH   3   6
ATOM      6  C   UNL     1       0.376   0.666  -1.589  1.00  0.00     0.096 C 
BRANCH   6   7
ATOM      7  C   UNL     1      -0.166   2.011  -0.944  1.00  0.00     0.082 C 
BRANCH   7   8
ATOM      8  N   UNL     1       0.723   2.557   0.152  1.00  0.00    -0.207 NA
ATOM      9  H   UNL     1       1.276   1.758   0.461  1.00  0.00     0.141 HD
BRANCH   8  10
ATOM     10  S   UNL     1       0.236   3.339   1.603  1.00  0.00     0.252 S 
ATOM     11  O   UNL     1      -0.919   4.156   1.288  1.00  0.00    -0.206 OA
ATOM     12  O   UNL     1       1.457   4.001   2.025  1.00  0.00    -0.206 OA
BRANCH  10  13
ATOM     13  C   UNL     1      -0.187   2.202   2.868  1.00  0.00     0.158 A 
ATOM     14  C   UNL     1       0.409   0.118   1.600  1.00  0.00     0.067 C 
ATOM     15  C   UNL     1      -0.025   0.878   2.755  1.00  0.00     0.046 A 
ATOM     16  N   UNL     1      -0.393   0.149   3.849  1.00  0.00    -0.315 N 
ATOM     17  C   UNL     1      -0.901   0.857   4.903  1.00  0.00     0.305 A 
ATOM     18  H   UNL     1      -0.297  -0.830   3.877  1.00  0.00     0.170 HD
ATOM     19  S   UNL     1      -0.849   2.574   4.455  1.00  0.00    -0.061 S 
ATOM     20  O   UNL     1      -1.330   0.395   5.929  1.00  0.00    -0.257 OA
ENDBRANCH  10  13
ENDBRANCH   8  10
ENDBRANCH   7   8
BRANCH   7  21
ATOM     21  C   UNL     1      -1.659   2.156  -0.623  1.00  0.00     0.021 C 
BRANCH  21  22
ATOM     22  C   UNL     1      -2.643   1.327  -1.423  1.00  0.00     0.002 CG0
ATOM     23  G   UNL     1      -2.685  -0.108  -0.925  1.00  0.00     0.000 G0
ENDBRANCH  21  22
ENDBRANCH   7  21
ENDBRANCH   6   7
BRANCH   6  24
ATOM     24  C   UNL     1      -0.192  -0.754  -1.369  1.00  0.00     0.015 C 
BRANCH  24  25
ATOM     25  C   UNL     1      -1.683  -1.000  -1.635  1.00  0.00     0.001 C 
BRANCH  25  26
ATOM     26  C   UNL     1      -2.685  -0.108  -0.925  1.00  0.00     0.000 CG0
ATOM     27  G   UNL     1      -2.643   1.327  -1.423  1.00  0.00     0.000 G0
ENDBRANCH  25  26
ENDBRANCH  24  25
ENDBRANCH   6  24
ENDBRANCH   3   6
ENDBRANCH   1   2
BRANCH   1  28
ATOM     28  C   UNL     1       2.880  -2.002   0.473  1.00  0.00     0.042 C 
BRANCH  28  29
ATOM     29  C   UNL     1       3.858  -2.707   1.433  1.00  0.00     0.118 C 
BRANCH  29  30
ATOM     30  N   UNL     1       4.147  -2.029   2.712  1.00  0.00    -0.352 N 
ATOM     31  C   UNL     1       5.318  -2.128   3.467  1.00  0.00     0.251 C 
ATOM     32  H   UNL     1       3.440  -1.446   3.070  1.00  0.00     0.163 HD
ATOM     33  O   UNL     1       5.343  -1.867   4.663  1.00  0.00    -0.269 OA
BRANCH  31  34
ATOM     34  C   UNL     1       6.542  -2.536   2.756  1.00  0.00     0.039 A 
ATOM     35  C   UNL     1       7.263  -3.683   3.099  1.00  0.00     0.014 A 
ATOM     36  C   UNL     1       6.748  -1.880   1.553  1.00  0.00     0.014 A 
ATOM     37  C   UNL     1       8.073  -4.269   2.125  1.00  0.00     0.010 A 
ATOM     38  C   UNL     1       7.358  -2.584   0.549  1.00  0.00     0.010 A 
ATOM     39  C   UNL     1       8.056  -3.759   0.815  1.00  0.00    -0.014 A 
BRANCH  39  40
ATOM     40  C   UNL     1       8.640  -4.504  -0.305  1.00  0.00     0.031 A 
ATOM     41  C   UNL     1       8.447  -5.988  -0.284  1.00  0.00     0.074 A 
ATOM     42  C   UNL     1       9.181  -3.919  -1.399  1.00  0.00     0.049 A 
ATOM     43  N   UNL     1       9.339  -6.883  -0.005  1.00  0.00    -0.248 NA
ATOM     44  C   UNL     1       7.098  -6.541  -0.471  1.00  0.00     0.031 C 
ATOM     45  C   UNL     1       9.223  -2.498  -1.780  1.00  0.00     0.029 A 
ATOM     46  N   UNL     1       9.734  -4.521  -2.484  1.00  0.00    -0.354 N 
ATOM     47  C   UNL     1       8.726  -8.121  -0.194  1.00  0.00     0.074 A 
ATOM     48  C   UNL     1       7.315  -7.850  -0.305  1.00  0.00     0.031 C 
ATOM     49  C   UNL     1       9.514  -2.381  -3.093  1.00  0.00     0.029 A 
ATOM     50  C   UNL     1       9.919  -3.682  -3.573  1.00  0.00     0.049 A 
ATOM     51  H   UNL     1       9.982  -5.474  -2.496  1.00  0.00     0.167 HD
ATOM     52  C   UNL     1       9.452  -9.248  -0.448  1.00  0.00     0.034 A 
ATOM     53  C   UNL     1      10.405  -4.019  -4.787  1.00  0.00     0.034 A 
ATOM     54  C   UNL     1      10.857  -9.030  -0.209  1.00  0.00     0.049 A 
ATOM     55  C   UNL     1      11.203  -5.248  -4.597  1.00  0.00     0.074 A 
ATOM     56  C   UNL     1      11.618  -8.680   0.888  1.00  0.00     0.029 A 
ATOM     57  N   UNL     1      11.638  -8.764  -1.308  1.00  0.00    -0.354 N 
ATOM     58  N   UNL     1      12.293  -5.287  -3.880  1.00  0.00    -0.248 NA
ATOM     59  C   UNL     1      10.556  -6.527  -4.827  1.00  0.00     0.031 C 
ATOM     60  C   UNL     1      12.585  -7.764   0.377  1.00  0.00     0.029 A 
ATOM     61  C   UNL     1      12.406  -7.670  -1.006  1.00  0.00     0.049 A 
ATOM     62  H   UNL     1      11.644  -9.265  -2.155  1.00  0.00     0.167 HD
ATOM     63  C   UNL     1      12.216  -6.495  -3.200  1.00  0.00     0.074 A 
ATOM     64  C   UNL     1      11.190  -7.260  -3.908  1.00  0.00     0.031 C 
ATOM     65  C   UNL     1      12.785  -6.654  -1.967  1.00  0.00     0.034 A 
BRANCH  52  66
ATOM     66  C   UNL     1       8.977 -10.461  -1.216  1.00  0.00     0.023 A 
ATOM     67  C   UNL     1       9.799 -11.613  -1.202  1.00  0.00     0.012 A 
ATOM     68  C   UNL     1       7.914 -10.448  -2.145  1.00  0.00     0.148 A 
ATOM     69  C   UNL     1       9.595 -12.676  -2.091  1.00  0.00     0.002 A 
ATOM     70  C   UNL     1       7.668 -11.540  -2.972  1.00  0.00     0.091 A 
ATOM     71  F   UNL     1       7.211  -9.328  -2.335  1.00  0.00    -0.205 F 
ATOM     72  C   UNL     1       8.522 -12.644  -2.971  1.00  0.00     0.022 A 
BRANCH  70  73
ATOM     73  S   UNL     1       6.259 -11.572  -4.088  1.00  0.00     0.127 S 
ATOM     74  O   UNL     1       6.901 -11.343  -5.378  1.00  0.00    -0.237 OA
ATOM     75  O   UNL     1       5.744 -12.927  -3.882  1.00  0.00    -0.237 OA
ATOM     76  O   UNL     1       5.368 -10.520  -3.614  1.00  0.00    -0.744 OA
ENDBRANCH  70  73
ENDBRANCH  52  66
BRANCH  53  77
ATOM     77  C   UNL     1      10.028  -3.495  -6.114  1.00  0.00     0.023 A 
ATOM     78  C   UNL     1      10.921  -3.613  -7.194  1.00  0.00     0.012 A 
ATOM     79  C   UNL     1       8.684  -3.149  -6.382  1.00  0.00     0.148 A 
ATOM     80  C   UNL     1      10.479  -3.435  -8.509  1.00  0.00     0.002 A 
ATOM     81  C   UNL     1       8.248  -2.979  -7.691  1.00  0.00     0.091 A 
ATOM     82  F   UNL     1       7.821  -3.079  -5.358  1.00  0.00    -0.205 F 
ATOM     83  C   UNL     1       9.142  -3.134  -8.759  1.00  0.00     0.022 A 
BRANCH  81  84
ATOM     84  S   UNL     1       6.530  -2.639  -8.095  1.00  0.00     0.127 S 
ATOM     85  O   UNL     1       6.654  -1.491  -8.994  1.00  0.00    -0.237 OA
ATOM     86  O   UNL     1       6.122  -3.883  -8.743  1.00  0.00    -0.237 OA
ATOM     87  O   UNL     1       5.873  -2.343  -6.828  1.00  0.00    -0.744 OA
ENDBRANCH  81  84
ENDBRANCH  53  77
BRANCH  65  88
ATOM     88  C   UNL     1      13.690  -5.558  -1.451  1.00  0.00     0.023 A 
ATOM     89  C   UNL     1      13.221  -4.255  -1.177  1.00  0.00     0.012 A 
ATOM     90  C   UNL     1      14.993  -5.901  -1.054  1.00  0.00     0.148 A 
ATOM     91  C   UNL     1      14.035  -3.314  -0.537  1.00  0.00     0.002 A 
ATOM     92  C   UNL     1      15.784  -4.979  -0.376  1.00  0.00     0.091 A 
ATOM     93  F   UNL     1      15.427  -7.143  -1.316  1.00  0.00    -0.205 F 
ATOM     94  C   UNL     1      15.313  -3.682  -0.124  1.00  0.00     0.022 A 
BRANCH  92  95
ATOM     95  S   UNL     1      17.384  -5.434   0.297  1.00  0.00     0.127 S 
ATOM     96  O   UNL     1      18.303  -4.780  -0.633  1.00  0.00    -0.237 OA
ATOM     97  O   UNL     1      17.343  -4.841   1.635  1.00  0.00    -0.237 OA
ATOM     98  O   UNL     1      17.420  -6.891   0.294  1.00  0.00    -0.744 OA
ENDBRANCH  92  95
ENDBRANCH  65  88
ENDBRANCH  39  40
ENDBRANCH  31  34
ENDBRANCH  29  30
ENDBRANCH  28  29
ENDBRANCH   1  28
TORSDOF 16
