REMARK SMILES O=C(NCCCNC(=O)c1[nH]ncc1C[N@H+]1CCC[C@H](C(=O)c2ccc3ccccc3c2)C1)c1ccc(-c2c3nc(c(-c4cccc(S(=O)(=O)[O-])c4F)c4ccc([nH]4)c(-c4cccc(S(=O)(=O)[O-])c4F)c4nc(c(-c5cccc(S(=O)(=O)[O-])c5F)c5ccc2[nH]5)C=C4)C=C3)cc1
REMARK SMILES IDX 5 1 4 2 3 3 1 4 2 5 34 7 35 8 96 9 36 10 95 11 37 12 38 13
REMARK SMILES IDX 39 14 89 15 40 16 94 17 88 18 90 19 41 20 93 21 87 22 86 23
REMARK SMILES IDX 42 25 74 26 54 27 73 28 55 29 58 30 72 31 91 32 56 33 57 34
REMARK SMILES IDX 71 36 92 37 59 38 43 39 44 40 52 41 45 42 47 43 53 44 46 45
REMARK SMILES IDX 48 46 49 47 50 48 51 49 75 50 76 51 84 52 77 53 79 54 85 55
REMARK SMILES IDX 78 56 80 57 81 58 82 59 83 60 60 61 61 62 69 63 62 64 64 65
REMARK SMILES IDX 70 66 63 67 65 68 66 69 67 70 68 71 6 72 7 73 8 74 9 76
REMARK SMILES IDX 10 77 11 78 14 79 12 80 13 82 15 83 16 84 17 85 33 86 18 88
REMARK SMILES IDX 20 89 19 90 21 91 22 92 23 93 24 94 32 95 25 96 31 97 26 98
REMARK SMILES IDX 30 99 27 100 29 101 28 102
REMARK H PARENT 3 6 90 24 58 35 7 75 11 81 16 87
REMARK Flexibility Score: inf
ROOT
ATOM      1  C   UNL     1       4.960  -1.888  -0.816  1.00  0.00     0.042 C 
ENDROOT
BRANCH   1   2
ATOM      2  C   UNL     1       4.569  -0.473  -1.215  1.00  0.00     0.118 C 
BRANCH   2   3
ATOM      3  N   UNL     1       3.137  -0.227  -1.092  1.00  0.00    -0.352 N 
ATOM      4  O   UNL     1       1.181   0.288  -0.119  1.00  0.00    -0.269 OA
ATOM      5  C   UNL     1       2.406   0.382  -0.098  1.00  0.00     0.251 C 
ATOM      6  H   UNL     1       2.602  -0.553  -1.851  1.00  0.00     0.163 HD
BRANCH   5   7
ATOM      7  C   UNL     1       3.077   1.108   1.005  1.00  0.00     0.039 A 
ATOM      8  C   UNL     1       4.205   1.889   0.769  1.00  0.00     0.014 A 
ATOM      9  C   UNL     1       2.557   1.027   2.301  1.00  0.00     0.014 A 
ATOM     10  C   UNL     1       4.932   2.400   1.837  1.00  0.00     0.010 A 
ATOM     11  C   UNL     1       3.220   1.655   3.363  1.00  0.00     0.010 A 
ATOM     12  C   UNL     1       4.446   2.300   3.151  1.00  0.00    -0.014 A 
BRANCH  12  13
ATOM     13  C   UNL     1       5.233   2.917   4.254  1.00  0.00     0.031 A 
ATOM     14  C   UNL     1       5.775   2.091   5.391  1.00  0.00     0.074 A 
ATOM     15  C   UNL     1       5.509   4.236   4.193  1.00  0.00     0.049 A 
ATOM     16  N   UNL     1       6.564   2.462   6.368  1.00  0.00    -0.248 NA
ATOM     17  C   UNL     1       5.376   0.676   5.456  1.00  0.00     0.031 C 
ATOM     18  C   UNL     1       4.996   5.155   3.174  1.00  0.00     0.029 A 
ATOM     19  N   UNL     1       6.310   5.028   4.976  1.00  0.00    -0.354 N 
ATOM     20  C   UNL     1       6.708   1.351   7.190  1.00  0.00     0.074 A 
ATOM     21  C   UNL     1       5.926   0.287   6.599  1.00  0.00     0.031 C 
ATOM     22  C   UNL     1       5.553   6.362   3.345  1.00  0.00     0.029 A 
ATOM     23  C   UNL     1       6.420   6.321   4.517  1.00  0.00     0.049 A 
ATOM     24  H   UNL     1       6.763   4.703   5.788  1.00  0.00     0.167 HD
ATOM     25  C   UNL     1       7.441   1.220   8.322  1.00  0.00     0.034 A 
ATOM     26  C   UNL     1       7.147   7.358   4.976  1.00  0.00     0.034 A 
ATOM     27  C   UNL     1       8.280   2.254   8.867  1.00  0.00     0.049 A 
ATOM     28  C   UNL     1       8.021   7.157   6.180  1.00  0.00     0.074 A 
ATOM     29  C   UNL     1       9.115   2.192   9.969  1.00  0.00     0.029 A 
ATOM     30  N   UNL     1       8.402   3.532   8.345  1.00  0.00    -0.354 N 
ATOM     31  N   UNL     1       8.236   6.061   6.866  1.00  0.00    -0.248 NA
ATOM     32  C   UNL     1       8.767   8.328   6.661  1.00  0.00     0.031 C 
ATOM     33  C   UNL     1       9.744   3.434  10.112  1.00  0.00     0.029 A 
ATOM     34  C   UNL     1       9.299   4.268   9.100  1.00  0.00     0.049 A 
ATOM     35  H   UNL     1       7.922   3.867   7.554  1.00  0.00     0.167 HD
ATOM     36  C   UNL     1       9.151   6.406   7.852  1.00  0.00     0.074 A 
ATOM     37  C   UNL     1       9.476   7.804   7.652  1.00  0.00     0.031 C 
ATOM     38  C   UNL     1       9.653   5.642   8.853  1.00  0.00     0.034 A 
BRANCH  25  39
ATOM     39  C   UNL     1       7.413  -0.110   9.027  1.00  0.00     0.023 A 
ATOM     40  C   UNL     1       8.170  -1.181   8.513  1.00  0.00     0.012 A 
ATOM     41  C   UNL     1       6.697  -0.281  10.228  1.00  0.00     0.148 A 
ATOM     42  C   UNL     1       8.199  -2.410   9.173  1.00  0.00     0.002 A 
ATOM     43  C   UNL     1       6.758  -1.499  10.897  1.00  0.00     0.091 A 
ATOM     44  F   UNL     1       5.959   0.740  10.687  1.00  0.00    -0.205 F 
ATOM     45  C   UNL     1       7.503  -2.565  10.369  1.00  0.00     0.022 A 
BRANCH  43  46
ATOM     46  S   UNL     1       5.943  -1.759  12.478  1.00  0.00     0.127 S 
ATOM     47  O   UNL     1       4.719  -2.446  12.071  1.00  0.00    -0.237 OA
ATOM     48  O   UNL     1       6.904  -2.600  13.195  1.00  0.00    -0.237 OA
ATOM     49  O   UNL     1       5.767  -0.431  13.049  1.00  0.00    -0.744 OA
ENDBRANCH  43  46
ENDBRANCH  25  39
BRANCH  26  50
ATOM     50  C   UNL     1       7.139   8.648   4.230  1.00  0.00     0.023 A 
ATOM     51  C   UNL     1       8.291   9.040   3.521  1.00  0.00     0.012 A 
ATOM     52  C   UNL     1       5.983   9.448   4.156  1.00  0.00     0.148 A 
ATOM     53  C   UNL     1       8.294  10.211   2.762  1.00  0.00     0.002 A 
ATOM     54  C   UNL     1       5.974  10.580   3.349  1.00  0.00     0.091 A 
ATOM     55  F   UNL     1       4.902   9.076   4.858  1.00  0.00    -0.205 F 
ATOM     56  C   UNL     1       7.132  10.972   2.662  1.00  0.00     0.022 A 
BRANCH  54  57
ATOM     57  S   UNL     1       4.462  11.504   3.052  1.00  0.00     0.127 S 
ATOM     58  O   UNL     1       4.569  12.581   4.031  1.00  0.00    -0.237 OA
ATOM     59  O   UNL     1       4.616  11.921   1.657  1.00  0.00    -0.237 OA
ATOM     60  O   UNL     1       3.388  10.541   3.265  1.00  0.00    -0.744 OA
ENDBRANCH  54  57
ENDBRANCH  26  50
BRANCH  38  61
ATOM     61  C   UNL     1      10.610   6.299   9.807  1.00  0.00     0.023 A 
ATOM     62  C   UNL     1      10.107   7.165  10.798  1.00  0.00     0.012 A 
ATOM     63  C   UNL     1      11.988   6.017   9.768  1.00  0.00     0.148 A 
ATOM     64  C   UNL     1      10.966   7.761  11.720  1.00  0.00     0.002 A 
ATOM     65  C   UNL     1      12.834   6.586  10.713  1.00  0.00     0.091 A 
ATOM     66  F   UNL     1      12.453   5.211   8.801  1.00  0.00    -0.205 F 
ATOM     67  C   UNL     1      12.327   7.463  11.685  1.00  0.00     0.022 A 
BRANCH  65  68
ATOM     68  S   UNL     1      14.583   6.179  10.771  1.00  0.00     0.127 S 
ATOM     69  O   UNL     1      15.168   7.252   9.970  1.00  0.00    -0.237 OA
ATOM     70  O   UNL     1      14.884   6.255  12.202  1.00  0.00    -0.237 OA
ATOM     71  O   UNL     1      14.683   4.837  10.212  1.00  0.00    -0.744 OA
ENDBRANCH  65  68
ENDBRANCH  38  61
ENDBRANCH  12  13
ENDBRANCH   5   7
ENDBRANCH   2   3
ENDBRANCH   1   2
BRANCH   1  72
ATOM     72  C   UNL     1       4.448  -2.945  -1.781  1.00  0.00     0.118 C 
BRANCH  72  73
ATOM     73  N   UNL     1       5.026  -2.802  -3.111  1.00  0.00    -0.351 N 
ATOM     74  C   UNL     1       5.959  -3.580  -3.746  1.00  0.00     0.269 C 
ATOM     75  H   UNL     1       4.698  -2.033  -3.631  1.00  0.00     0.163 HD
ATOM     76  O   UNL     1       6.529  -3.126  -4.734  1.00  0.00    -0.268 OA
BRANCH  74  77
ATOM     77  C   UNL     1       6.260  -4.879  -3.219  1.00  0.00     0.131 A 
ATOM     78  N   UNL     1       7.544  -5.341  -3.130  1.00  0.00    -0.272 N 
ATOM     79  C   UNL     1       5.452  -5.934  -2.807  1.00  0.00     0.057 A 
ATOM     80  N   UNL     1       7.645  -6.550  -2.557  1.00  0.00    -0.183 NA
ATOM     81  H   UNL     1       8.322  -4.833  -3.457  1.00  0.00     0.190 HD
ATOM     82  C   UNL     1       6.376  -6.904  -2.351  1.00  0.00     0.145 A 
BRANCH  79  83
ATOM     83  C   UNL     1       3.959  -6.005  -2.833  1.00  0.00     0.303 C 
BRANCH  83  84
ATOM     84  N   UNL     1       3.407  -7.017  -3.738  1.00  0.00    -0.330 N 
ATOM     85  C   UNL     1       4.039  -7.047  -5.058  1.00  0.00     0.262 C 
ATOM     86  C   UNL     1       3.290  -8.341  -3.133  1.00  0.00     0.274 C 
ATOM     87  H   UNL     1       2.451  -6.706  -3.909  1.00  0.00     0.348 HD
ATOM     88  C   UNL     1       3.223  -7.895  -6.026  1.00  0.00     0.062 C 
ATOM     89  C   UNL     1       2.444  -9.277  -4.000  1.00  0.00     0.116 C 
ATOM     90  C   UNL     1       2.888  -9.277  -5.466  1.00  0.00     0.023 C 
BRANCH  89  91
ATOM     91  C   UNL     1       0.950  -9.094  -3.709  1.00  0.00     0.171 C 
ATOM     92  O   UNL     1       0.350  -9.861  -2.953  1.00  0.00    -0.294 OA
BRANCH  91  93
ATOM     93  C   UNL     1       0.198  -7.929  -4.226  1.00  0.00     0.019 A 
ATOM     94  C   UNL     1      -0.120  -7.826  -5.578  1.00  0.00     0.012 A 
ATOM     95  C   UNL     1      -0.281  -6.979  -3.316  1.00  0.00     0.020 A 
ATOM     96  C   UNL     1      -0.830  -6.716  -6.041  1.00  0.00     0.009 A 
ATOM     97  C   UNL     1      -1.025  -5.874  -3.766  1.00  0.00    -0.018 A 
ATOM     98  C   UNL     1      -1.282  -5.730  -5.150  1.00  0.00    -0.018 A 
ATOM     99  C   UNL     1      -1.523  -4.908  -2.876  1.00  0.00     0.009 A 
ATOM    100  C   UNL     1      -1.997  -4.612  -5.606  1.00  0.00     0.009 A 
ATOM    101  C   UNL     1      -2.244  -3.808  -3.345  1.00  0.00     0.001 A 
ATOM    102  C   UNL     1      -2.474  -3.656  -4.709  1.00  0.00     0.001 A 
ENDBRANCH  91  93
ENDBRANCH  89  91
ENDBRANCH  83  84
ENDBRANCH  79  83
ENDBRANCH  74  77
ENDBRANCH  72  73
ENDBRANCH   1  72
TORSDOF 17
