REMARK SMILES C[C@H]1[C@H](C(=O)NCCCNC(=O)c2ccc(-c3c4nc(c(-c5cccc(S(=O)(=O)[O-])c5F)c5ccc([nH]5)c(-c5cccc(S(=O)(=O)[O-])c5F)c5nc(c(-c6cccc(S(=O)(=O)[O-])c6F)c6ccc3[nH]6)C=C5)C=C4)cc2)CCN1C(=O)COc1ccc(F)cc1Br
REMARK SMILES IDX 7 1 6 2 4 3 5 4 3 6 1 7 2 8 78 9 76 10 77 11 79 12 80 13
REMARK SMILES IDX 81 14 82 15 83 16 84 17 89 18 85 19 88 20 90 21 86 22 87 23
REMARK SMILES IDX 8 24 9 25 10 26 11 27 12 29 13 30 14 31 75 32 15 33 74 34
REMARK SMILES IDX 16 35 17 36 18 37 68 38 19 39 73 40 67 41 69 42 20 43 72 44
REMARK SMILES IDX 66 45 65 46 21 48 53 49 33 50 52 51 34 52 37 53 51 54 70 55
REMARK SMILES IDX 35 56 36 57 50 59 71 60 38 61 22 62 23 63 31 64 24 65 26 66
REMARK SMILES IDX 32 67 25 68 27 69 28 70 29 71 30 72 54 73 55 74 63 75 56 76
REMARK SMILES IDX 58 77 64 78 57 79 59 80 60 81 61 82 62 83 39 84 40 85 48 86
REMARK SMILES IDX 41 87 43 88 49 89 42 90 44 91 45 92 46 93 47 94
REMARK H PARENT 6 5 10 28 69 47 37 58
REMARK Flexibility Score: inf
ROOT
ATOM      1  C   UNL     1      -1.156   0.699   2.946  1.00  0.00     0.117 C 
ENDROOT
BRANCH   1   2
ATOM      2  N   UNL     1      -0.574   1.950   2.488  1.00  0.00    -0.356 N 
ATOM      3  C   UNL     1      -0.080   2.319   1.278  1.00  0.00     0.225 C 
ATOM      4  O   UNL     1       0.363   3.466   1.171  1.00  0.00    -0.275 OA
ATOM      5  H   UNL     1      -0.529   2.652   3.176  1.00  0.00     0.163 HD
BRANCH   3   6
ATOM      6  C   UNL     1      -0.070   1.391   0.078  1.00  0.00     0.102 C 
ATOM      7  C   UNL     1       1.966   0.204  -0.755  1.00  0.00     0.032 C 
ATOM      8  C   UNL     1       0.834   0.154   0.272  1.00  0.00     0.094 C 
ATOM      9  N   UNL     1      -0.075  -0.985   0.112  1.00  0.00    -0.336 N 
ATOM     10  C   UNL     1      -1.459   0.896  -0.323  1.00  0.00     0.037 C 
ATOM     11  C   UNL     1      -1.306  -0.592  -0.547  1.00  0.00     0.121 C 
BRANCH   9  12
ATOM     12  C   UNL     1      -0.023  -2.200   0.775  1.00  0.00     0.260 C 
ATOM     13  O   UNL     1      -1.059  -2.745   1.173  1.00  0.00    -0.271 OA
BRANCH  12  14
ATOM     14  C   UNL     1       1.326  -2.896   0.994  1.00  0.00     0.329 C 
BRANCH  14  15
ATOM     15  O   UNL     1       2.377  -2.647   0.093  1.00  0.00    -0.483 OA
BRANCH  15  16
ATOM     16  C   UNL     1       2.589  -3.369  -1.044  1.00  0.00     0.134 A 
ATOM     17  C   UNL     1       3.963  -3.424  -1.352  1.00  0.00     0.050 A 
ATOM     18  C   UNL     1       1.684  -3.906  -1.970  1.00  0.00     0.062 A 
ATOM     19  C   UNL     1       4.428  -3.959  -2.553  1.00  0.00     0.043 A 
ATOM     20  C   UNL     1       2.155  -4.418  -3.191  1.00  0.00     0.058 A 
ATOM     21  Br  UNL     1      -0.198  -3.995  -1.800  1.00  0.00    -0.047 Br
ATOM     22  C   UNL     1       3.512  -4.432  -3.474  1.00  0.00     0.124 A 
ATOM     23  F   UNL     1       3.935  -4.898  -4.656  1.00  0.00    -0.207 F 
ENDBRANCH  15  16
ENDBRANCH  14  15
ENDBRANCH  12  14
ENDBRANCH   9  12
ENDBRANCH   3   6
ENDBRANCH   1   2
BRANCH   1  24
ATOM     24  C   UNL     1      -0.273  -0.013   3.959  1.00  0.00     0.042 C 
BRANCH  24  25
ATOM     25  C   UNL     1      -0.127   0.738   5.276  1.00  0.00     0.118 C 
BRANCH  25  26
ATOM     26  N   UNL     1      -1.399   0.908   5.966  1.00  0.00    -0.352 N 
ATOM     27  C   UNL     1      -1.786   0.494   7.216  1.00  0.00     0.251 C 
ATOM     28  H   UNL     1      -2.087   1.394   5.457  1.00  0.00     0.163 HD
ATOM     29  O   UNL     1      -2.969   0.565   7.535  1.00  0.00    -0.269 OA
BRANCH  27  30
ATOM     30  C   UNL     1      -0.790  -0.041   8.169  1.00  0.00     0.039 A 
ATOM     31  C   UNL     1      -1.134  -1.142   8.957  1.00  0.00     0.014 A 
ATOM     32  C   UNL     1       0.467   0.552   8.306  1.00  0.00     0.014 A 
ATOM     33  C   UNL     1      -0.197  -1.681   9.841  1.00  0.00     0.010 A 
ATOM     34  C   UNL     1       1.428  -0.038   9.120  1.00  0.00     0.010 A 
ATOM     35  C   UNL     1       1.103  -1.152   9.907  1.00  0.00    -0.014 A 
BRANCH  35  36
ATOM     36  C   UNL     1       2.134  -1.755  10.789  1.00  0.00     0.031 A 
ATOM     37  C   UNL     1       2.747  -0.953  11.905  1.00  0.00     0.074 A 
ATOM     38  C   UNL     1       2.575  -3.002  10.533  1.00  0.00     0.049 A 
ATOM     39  N   UNL     1       3.683  -1.299  12.750  1.00  0.00    -0.248 NA
ATOM     40  C   UNL     1       2.271   0.431  12.074  1.00  0.00     0.031 C 
ATOM     41  C   UNL     1       2.129  -3.846   9.421  1.00  0.00     0.029 A 
ATOM     42  N   UNL     1       3.517  -3.768  11.173  1.00  0.00    -0.354 N 
ATOM     43  C   UNL     1       3.929  -0.174  13.528  1.00  0.00     0.074 A 
ATOM     44  C   UNL     1       3.076   0.881  13.026  1.00  0.00     0.031 C 
ATOM     45  C   UNL     1       2.792  -5.012   9.460  1.00  0.00     0.029 A 
ATOM     46  C   UNL     1       3.726  -4.992  10.582  1.00  0.00     0.049 A 
ATOM     47  H   UNL     1       3.997  -3.470  11.979  1.00  0.00     0.167 HD
ATOM     48  C   UNL     1       4.762  -0.038  14.588  1.00  0.00     0.034 A 
ATOM     49  C   UNL     1       4.576  -5.986  10.904  1.00  0.00     0.034 A 
ATOM     50  C   UNL     1       5.576  -1.102  15.111  1.00  0.00     0.049 A 
ATOM     51  C   UNL     1       5.445  -5.835  12.123  1.00  0.00     0.074 A 
ATOM     52  C   UNL     1       6.387  -1.094  16.232  1.00  0.00     0.029 A 
ATOM     53  N   UNL     1       5.685  -2.364  14.548  1.00  0.00    -0.354 N 
ATOM     54  N   UNL     1       5.541  -4.819  12.946  1.00  0.00    -0.248 NA
ATOM     55  C   UNL     1       6.290  -6.982  12.482  1.00  0.00     0.031 C 
ATOM     56  C   UNL     1       7.001  -2.347  16.336  1.00  0.00     0.029 A 
ATOM     57  C   UNL     1       6.554  -3.143  15.294  1.00  0.00     0.049 A 
ATOM     58  H   UNL     1       5.214  -2.663  13.737  1.00  0.00     0.167 HD
ATOM     59  C   UNL     1       6.434  -5.213  13.935  1.00  0.00     0.074 A 
ATOM     60  C   UNL     1       6.827  -6.573  13.623  1.00  0.00     0.031 C 
ATOM     61  C   UNL     1       6.901  -4.509  14.996  1.00  0.00     0.034 A 
BRANCH  48  62
ATOM     62  C   UNL     1       4.784   1.295  15.291  1.00  0.00     0.023 A 
ATOM     63  C   UNL     1       3.666   1.694  16.054  1.00  0.00     0.012 A 
ATOM     64  C   UNL     1       5.917   2.130  15.241  1.00  0.00     0.148 A 
ATOM     65  C   UNL     1       3.659   2.916  16.723  1.00  0.00     0.002 A 
ATOM     66  C   UNL     1       5.920   3.327  15.948  1.00  0.00     0.091 A 
ATOM     67  F   UNL     1       6.962   1.747  14.494  1.00  0.00    -0.205 F 
ATOM     68  C   UNL     1       4.789   3.728  16.679  1.00  0.00     0.022 A 
BRANCH  66  69
ATOM     69  S   UNL     1       7.355   4.407  16.020  1.00  0.00     0.127 S 
ATOM     70  O   UNL     1       6.919   5.532  15.194  1.00  0.00    -0.237 OA
ATOM     71  O   UNL     1       7.448   4.701  17.450  1.00  0.00    -0.237 OA
ATOM     72  O   UNL     1       8.466   3.632  15.486  1.00  0.00    -0.744 OA
ENDBRANCH  66  69
ENDBRANCH  48  62
BRANCH  49  73
ATOM     73  C   UNL     1       4.588  -7.239  10.098  1.00  0.00     0.023 A 
ATOM     74  C   UNL     1       4.067  -8.424  10.651  1.00  0.00     0.012 A 
ATOM     75  C   UNL     1       5.072  -7.252   8.776  1.00  0.00     0.148 A 
ATOM     76  C   UNL     1       4.054  -9.608   9.913  1.00  0.00     0.002 A 
ATOM     77  C   UNL     1       5.004  -8.421   8.026  1.00  0.00     0.091 A 
ATOM     78  F   UNL     1       5.574  -6.116   8.271  1.00  0.00    -0.205 F 
ATOM     79  C   UNL     1       4.512  -9.604   8.598  1.00  0.00     0.022 A 
BRANCH  77  80
ATOM     80  S   UNL     1       5.442  -8.470   6.284  1.00  0.00     0.127 S 
ATOM     81  O   UNL     1       6.696  -9.218   6.312  1.00  0.00    -0.237 OA
ATOM     82  O   UNL     1       4.307  -9.190   5.706  1.00  0.00    -0.237 OA
ATOM     83  O   UNL     1       5.543  -7.079   5.865  1.00  0.00    -0.744 OA
ENDBRANCH  77  80
ENDBRANCH  49  73
BRANCH  61  84
ATOM     84  C   UNL     1       7.876  -5.201  15.913  1.00  0.00     0.023 A 
ATOM     85  C   UNL     1       9.194  -5.444  15.477  1.00  0.00     0.012 A 
ATOM     86  C   UNL     1       7.505  -5.555  17.225  1.00  0.00     0.148 A 
ATOM     87  C   UNL     1      10.116  -6.065  16.318  1.00  0.00     0.002 A 
ATOM     88  C   UNL     1       8.444  -6.129  18.075  1.00  0.00     0.091 A 
ATOM     89  F   UNL     1       6.242  -5.333  17.616  1.00  0.00    -0.205 F 
ATOM     90  C   UNL     1       9.745  -6.396  17.619  1.00  0.00     0.022 A 
BRANCH  88  91
ATOM     91  S   UNL     1       8.080  -6.500  19.794  1.00  0.00     0.127 S 
ATOM     92  O   UNL     1       7.935  -7.954  19.761  1.00  0.00    -0.237 OA
ATOM     93  O   UNL     1       9.283  -6.024  20.478  1.00  0.00    -0.237 OA
ATOM     94  O   UNL     1       6.871  -5.755  20.116  1.00  0.00    -0.744 OA
ENDBRANCH  88  91
ENDBRANCH  61  84
ENDBRANCH  35  36
ENDBRANCH  27  30
ENDBRANCH  25  26
ENDBRANCH  24  25
ENDBRANCH   1  24
TORSDOF 17
