REMARK SMILES CN(C)c1nccnc1N1CCC(Oc2ccc3ccccc3c2)(C(=O)NCCCNC(=O)c2ccc(-c3c4nc(c(-c5cccc(S(=O)(=O)[O-])c5F)c5ccc([nH]5)c(-c5cccc(S(=O)(=O)[O-])c5F)c5nc(c(-c6cccc(S(=O)(=O)[O-])c6F)c6ccc3[nH]6)C=C5)C=C4)cc2)CC1
REMARK SMILES IDX 29 1 28 2 27 3 25 4 26 5 13 7 10 8 11 9 98 10 12 11 97 12
REMARK SMILES IDX 9 13 4 14 5 15 6 16 8 17 7 18 2 19 1 20 3 21 14 22 15 23
REMARK SMILES IDX 16 24 24 25 17 26 23 27 18 28 22 29 19 30 21 31 20 32 30 33
REMARK SMILES IDX 31 34 32 35 33 37 34 38 35 39 96 40 36 41 95 42 37 43 38 44
REMARK SMILES IDX 39 45 89 46 40 47 94 48 88 49 90 50 41 51 93 52 87 53 86 54
REMARK SMILES IDX 42 56 74 57 54 58 73 59 55 60 58 61 72 62 91 63 56 64 57 65
REMARK SMILES IDX 71 67 92 68 59 69 43 70 44 71 52 72 45 73 47 74 53 75 46 76
REMARK SMILES IDX 48 77 49 78 50 79 51 80 75 81 76 82 84 83 77 84 79 85 85 86
REMARK SMILES IDX 78 87 80 88 81 89 82 90 83 91 60 92 61 93 69 94 62 95 64 96
REMARK SMILES IDX 70 97 63 98 65 99 66 100 67 101 68 102
REMARK H PARENT 27 6 31 36 90 55 58 66
REMARK Flexibility Score: inf
ROOT
ATOM      1  C   UNL     1      -5.952   6.056   0.580  1.00  0.00     0.042 C 
ENDROOT
BRANCH   1   2
ATOM      2  C   UNL     1      -6.468   4.726   1.108  1.00  0.00     0.118 C 
BRANCH   2   3
ATOM      3  N   UNL     1      -5.935   3.606   0.354  1.00  0.00    -0.353 N 
ATOM      4  C   UNL     1      -5.079   2.612   0.732  1.00  0.00     0.264 C 
ATOM      5  O   UNL     1      -4.895   1.720  -0.104  1.00  0.00    -0.270 OA
ATOM      6  H   UNL     1      -6.241   3.555  -0.580  1.00  0.00     0.163 HD
BRANCH   4   7
ATOM      7  C   UNL     1      -4.390   2.613   2.127  1.00  0.00     0.190 C 
ATOM      8  N   UNL     1      -1.616   2.552   1.459  1.00  0.00    -0.353 N 
ATOM      9  C   UNL     1      -2.320   3.803   1.301  1.00  0.00     0.123 C 
ATOM     10  C   UNL     1      -2.332   1.291   1.365  1.00  0.00     0.123 C 
ATOM     11  C   UNL     1      -3.469   3.838   2.288  1.00  0.00     0.080 C 
ATOM     12  C   UNL     1      -3.564   1.315   2.275  1.00  0.00     0.080 C 
BRANCH   8  13
ATOM     13  C   UNL     1      -0.316   2.558   1.936  1.00  0.00     0.171 A 
ATOM     14  C   UNL     1       0.707   1.742   1.348  1.00  0.00     0.171 A 
ATOM     15  N   UNL     1       1.943   1.667   1.911  1.00  0.00    -0.234 NA
ATOM     16  C   UNL     1       2.155   2.445   2.995  1.00  0.00     0.134 A 
ATOM     17  N   UNL     1      -0.065   3.334   3.022  1.00  0.00    -0.234 NA
ATOM     18  C   UNL     1       1.180   3.261   3.533  1.00  0.00     0.134 A 
BRANCH  14  19
ATOM     19  N   UNL     1       0.478   1.031   0.156  1.00  0.00    -0.360 N 
ATOM     20  C   UNL     1       1.298  -0.143  -0.049  1.00  0.00     0.145 C 
ATOM     21  C   UNL     1       0.182   1.867  -1.002  1.00  0.00     0.145 C 
ENDBRANCH  14  19
ENDBRANCH   8  13
BRANCH   7  22
ATOM     22  O   UNL     1      -5.547   2.595   3.011  1.00  0.00    -0.477 OA
BRANCH  22  23
ATOM     23  C   UNL     1      -5.329   2.580   4.356  1.00  0.00     0.121 A 
ATOM     24  C   UNL     1      -4.853   3.691   5.042  1.00  0.00     0.047 A 
ATOM     25  C   UNL     1      -5.729   1.446   5.059  1.00  0.00     0.055 A 
ATOM     26  C   UNL     1      -4.629   3.621   6.415  1.00  0.00     0.012 A 
ATOM     27  C   UNL     1      -5.558   1.376   6.450  1.00  0.00    -0.015 A 
ATOM     28  C   UNL     1      -4.967   2.466   7.130  1.00  0.00    -0.018 A 
ATOM     29  C   UNL     1      -5.960   0.249   7.184  1.00  0.00     0.009 A 
ATOM     30  C   UNL     1      -4.749   2.383   8.512  1.00  0.00     0.009 A 
ATOM     31  C   UNL     1      -5.758   0.191   8.563  1.00  0.00     0.001 A 
ATOM     32  C   UNL     1      -5.142   1.250   9.224  1.00  0.00     0.001 A 
ENDBRANCH  22  23
ENDBRANCH   7  22
ENDBRANCH   4   7
ENDBRANCH   2   3
ENDBRANCH   1   2
BRANCH   1  33
ATOM     33  C   UNL     1      -6.433   6.379  -0.827  1.00  0.00     0.118 C 
BRANCH  33  34
ATOM     34  N   UNL     1      -7.876   6.569  -0.892  1.00  0.00    -0.352 N 
ATOM     35  C   UNL     1      -8.595   7.686  -1.234  1.00  0.00     0.251 C 
ATOM     36  H   UNL     1      -8.415   5.779  -0.656  1.00  0.00     0.163 HD
ATOM     37  O   UNL     1      -9.808   7.717  -1.033  1.00  0.00    -0.269 OA
BRANCH  35  38
ATOM     38  C   UNL     1      -7.911   8.852  -1.830  1.00  0.00     0.039 A 
ATOM     39  C   UNL     1      -8.246  10.137  -1.394  1.00  0.00     0.014 A 
ATOM     40  C   UNL     1      -6.941   8.678  -2.820  1.00  0.00     0.014 A 
ATOM     41  C   UNL     1      -7.566  11.242  -1.909  1.00  0.00     0.010 A 
ATOM     42  C   UNL     1      -6.203   9.770  -3.264  1.00  0.00     0.010 A 
ATOM     43  C   UNL     1      -6.516  11.065  -2.825  1.00  0.00    -0.014 A 
BRANCH  43  44
ATOM     44  C   UNL     1      -5.740  12.212  -3.362  1.00  0.00     0.031 A 
ATOM     45  C   UNL     1      -5.737  12.480  -4.845  1.00  0.00     0.074 A 
ATOM     46  C   UNL     1      -4.961  12.943  -2.540  1.00  0.00     0.049 A 
ATOM     47  N   UNL     1      -5.029  13.342  -5.526  1.00  0.00    -0.248 NA
ATOM     48  C   UNL     1      -6.625  11.647  -5.675  1.00  0.00     0.031 C 
ATOM     49  C   UNL     1      -4.829  12.742  -1.095  1.00  0.00     0.029 A 
ATOM     50  N   UNL     1      -4.101  13.979  -2.809  1.00  0.00    -0.354 N 
ATOM     51  C   UNL     1      -5.347  13.123  -6.861  1.00  0.00     0.074 A 
ATOM     52  C   UNL     1      -6.291  12.028  -6.899  1.00  0.00     0.031 C 
ATOM     53  C   UNL     1      -3.939  13.621  -0.608  1.00  0.00     0.029 A 
ATOM     54  C   UNL     1      -3.404  14.418  -1.707  1.00  0.00     0.049 A 
ATOM     55  H   UNL     1      -3.993  14.370  -3.706  1.00  0.00     0.167 HD
ATOM     56  C   UNL     1      -4.912  13.789  -7.956  1.00  0.00     0.034 A 
ATOM     57  C   UNL     1      -2.429  15.343  -1.597  1.00  0.00     0.034 A 
ATOM     58  C   UNL     1      -4.011  14.907  -7.910  1.00  0.00     0.049 A 
ATOM     59  C   UNL     1      -1.986  16.088  -2.829  1.00  0.00     0.074 A 
ATOM     60  C   UNL     1      -3.578  15.704  -8.954  1.00  0.00     0.029 A 
ATOM     61  N   UNL     1      -3.401  15.384  -6.761  1.00  0.00    -0.354 N 
ATOM     62  N   UNL     1      -2.403  15.959  -4.065  1.00  0.00    -0.248 NA
ATOM     63  C   UNL     1      -0.964  17.130  -2.647  1.00  0.00     0.031 C 
ATOM     64  C   UNL     1      -2.679  16.642  -8.442  1.00  0.00     0.029 A 
ATOM     65  C   UNL     1      -2.588  16.459  -7.072  1.00  0.00     0.049 A 
ATOM     66  H   UNL     1      -3.527  15.012  -5.858  1.00  0.00     0.167 HD
ATOM     67  C   UNL     1      -1.735  16.936  -4.796  1.00  0.00     0.074 A 
ATOM     68  C   UNL     1      -0.891  17.653  -3.864  1.00  0.00     0.031 C 
ATOM     69  C   UNL     1      -1.809  17.208  -6.121  1.00  0.00     0.034 A 
BRANCH  56  70
ATOM     70  C   UNL     1      -5.434  13.355  -9.301  1.00  0.00     0.023 A 
ATOM     71  C   UNL     1      -6.778  13.605  -9.644  1.00  0.00     0.012 A 
ATOM     72  C   UNL     1      -4.575  12.772 -10.252  1.00  0.00     0.148 A 
ATOM     73  C   UNL     1      -7.268  13.252 -10.901  1.00  0.00     0.002 A 
ATOM     74  C   UNL     1      -5.057  12.469 -11.520  1.00  0.00     0.091 A 
ATOM     75  F   UNL     1      -3.305  12.526  -9.901  1.00  0.00    -0.205 F 
ATOM     76  C   UNL     1      -6.405  12.696 -11.841  1.00  0.00     0.022 A 
BRANCH  74  77
ATOM     77  S   UNL     1      -4.008  11.829 -12.830  1.00  0.00     0.127 S 
ATOM     78  O   UNL     1      -4.536  10.476 -12.997  1.00  0.00    -0.237 OA
ATOM     79  O   UNL     1      -4.307  12.742 -13.934  1.00  0.00    -0.237 OA
ATOM     80  O   UNL     1      -2.643  11.906 -12.329  1.00  0.00    -0.744 OA
ENDBRANCH  74  77
ENDBRANCH  56  70
BRANCH  57  81
ATOM     81  C   UNL     1      -1.831  15.652  -0.267  1.00  0.00     0.023 A 
ATOM     82  C   UNL     1      -2.072  16.906   0.328  1.00  0.00     0.012 A 
ATOM     83  C   UNL     1      -1.028  14.714   0.411  1.00  0.00     0.148 A 
ATOM     84  C   UNL     1      -1.488  17.238   1.551  1.00  0.00     0.002 A 
ATOM     85  C   UNL     1      -0.497  15.029   1.657  1.00  0.00     0.091 A 
ATOM     86  F   UNL     1      -0.803  13.529  -0.173  1.00  0.00    -0.205 F 
ATOM     87  C   UNL     1      -0.708  16.298   2.219  1.00  0.00     0.022 A 
BRANCH  85  88
ATOM     88  S   UNL     1       0.411  13.836   2.646  1.00  0.00     0.127 S 
ATOM     89  O   UNL     1       1.771  14.365   2.579  1.00  0.00    -0.237 OA
ATOM     90  O   UNL     1      -0.239  13.969   3.950  1.00  0.00    -0.237 OA
ATOM     91  O   UNL     1       0.200  12.548   2.000  1.00  0.00    -0.744 OA
ENDBRANCH  85  88
ENDBRANCH  57  81
BRANCH  69  92
ATOM     92  C   UNL     1      -1.022  18.379  -6.649  1.00  0.00     0.023 A 
ATOM     93  C   UNL     1       0.377  18.297  -6.774  1.00  0.00     0.012 A 
ATOM     94  C   UNL     1      -1.696  19.525  -7.119  1.00  0.00     0.148 A 
ATOM     95  C   UNL     1       1.098  19.350  -7.337  1.00  0.00     0.002 A 
ATOM     96  C   UNL     1      -0.977  20.545  -7.728  1.00  0.00     0.091 A 
ATOM     97  F   UNL     1      -3.027  19.587  -6.973  1.00  0.00    -0.205 F 
ATOM     98  C   UNL     1       0.421  20.465  -7.827  1.00  0.00     0.022 A 
BRANCH  96  99
ATOM     99  S   UNL     1      -1.774  21.968  -8.480  1.00  0.00     0.127 S 
ATOM    100  O   UNL     1      -1.364  23.047  -7.583  1.00  0.00    -0.237 OA
ATOM    101  O   UNL     1      -1.151  22.005  -9.804  1.00  0.00    -0.237 OA
ATOM    102  O   UNL     1      -3.201  21.676  -8.489  1.00  0.00    -0.744 OA
ENDBRANCH  96  99
ENDBRANCH  69  92
ENDBRANCH  43  44
ENDBRANCH  35  38
ENDBRANCH  33  34
ENDBRANCH   1  33
TORSDOF 17
