REMARK SMILES O=C(NCCCNC(=O)[C@@H]1CCC[N@@H+](Cc2ccc(F)cc2Cl)C1)c1ccc(-c2c3nc(c(-c4cccc(S(=O)(=O)[O-])c4F)c4ccc([nH]4)c(-c4cccc(S(=O)(=O)[O-])c4F)c4nc(c(-c5cccc(S(=O)(=O)[O-])c5F)c5ccc2[nH]5)C=C4)C=C3)cc1
REMARK SMILES IDX 4 1 3 2 1 3 2 4 25 6 26 7 87 8 27 9 86 10 28 11 29 12 30 13
REMARK SMILES IDX 80 14 31 15 85 16 79 17 81 18 32 19 84 20 78 21 77 22 33 24
REMARK SMILES IDX 65 25 45 26 64 27 46 28 49 29 63 30 82 31 47 32 48 33 62 35
REMARK SMILES IDX 83 36 50 37 34 38 35 39 43 40 36 41 38 42 44 43 37 44 39 45
REMARK SMILES IDX 40 46 41 47 42 48 66 49 67 50 75 51 68 52 70 53 76 54 69 55
REMARK SMILES IDX 71 56 72 57 73 58 74 59 51 60 52 61 60 62 53 63 55 64 61 65
REMARK SMILES IDX 54 66 56 67 57 68 58 69 59 70 5 71 6 72 7 73 8 74 9 76 10 77
REMARK SMILES IDX 11 78 24 79 12 80 14 81 13 82 15 84 16 85 17 86 22 87 18 88
REMARK SMILES IDX 21 89 23 90 19 91 20 92
REMARK H PARENT 3 5 81 23 49 34 7 75 14 83
REMARK Flexibility Score: inf
ROOT
ATOM      1  C   UNL     1       4.465  -1.093  -0.788  1.00  0.00     0.118 C 
ENDROOT
BRANCH   1   2
ATOM      2  N   UNL     1       3.023  -0.909  -0.701  1.00  0.00    -0.352 N 
ATOM      3  O   UNL     1       1.053  -0.051  -0.045  1.00  0.00    -0.269 OA
ATOM      4  C   UNL     1       2.274   0.079  -0.101  1.00  0.00     0.251 C 
ATOM      5  H   UNL     1       2.494  -1.609  -1.146  1.00  0.00     0.163 HD
BRANCH   4   6
ATOM      6  C   UNL     1       2.923   1.258   0.520  1.00  0.00     0.039 A 
ATOM      7  C   UNL     1       4.014   1.885  -0.076  1.00  0.00     0.014 A 
ATOM      8  C   UNL     1       2.427   1.753   1.731  1.00  0.00     0.014 A 
ATOM      9  C   UNL     1       4.748   2.826   0.636  1.00  0.00     0.010 A 
ATOM     10  C   UNL     1       3.088   2.801   2.384  1.00  0.00     0.010 A 
ATOM     11  C   UNL     1       4.293   3.306   1.874  1.00  0.00    -0.014 A 
BRANCH  11  12
ATOM     12  C   UNL     1       5.080   4.355   2.580  1.00  0.00     0.031 A 
ATOM     13  C   UNL     1       5.635   4.123   3.963  1.00  0.00     0.074 A 
ATOM     14  C   UNL     1       5.323   5.522   1.950  1.00  0.00     0.049 A 
ATOM     15  N   UNL     1       6.384   4.913   4.690  1.00  0.00    -0.248 NA
ATOM     16  C   UNL     1       5.298   2.852   4.624  1.00  0.00     0.031 C 
ATOM     17  C   UNL     1       4.806   5.888   0.628  1.00  0.00     0.029 A 
ATOM     18  N   UNL     1       6.077   6.607   2.319  1.00  0.00    -0.354 N 
ATOM     19  C   UNL     1       6.559   4.266   5.908  1.00  0.00     0.074 A 
ATOM     20  C   UNL     1       5.836   3.016   5.825  1.00  0.00     0.031 C 
ATOM     21  C   UNL     1       5.303   7.080   0.273  1.00  0.00     0.029 A 
ATOM     22  C   UNL     1       6.123   7.595   1.363  1.00  0.00     0.049 A 
ATOM     23  H   UNL     1       6.540   6.673   3.185  1.00  0.00     0.167 HD
ATOM     24  C   UNL     1       7.269   4.667   6.990  1.00  0.00     0.034 A 
ATOM     25  C   UNL     1       6.750   8.787   1.359  1.00  0.00     0.034 A 
ATOM     26  C   UNL     1       8.040   5.881   7.048  1.00  0.00     0.049 A 
ATOM     27  C   UNL     1       7.576   9.178   2.549  1.00  0.00     0.074 A 
ATOM     28  C   UNL     1       8.853   6.336   8.072  1.00  0.00     0.029 A 
ATOM     29  N   UNL     1       8.098   6.832   6.040  1.00  0.00    -0.354 N 
ATOM     30  N   UNL     1       7.827   8.493   3.638  1.00  0.00    -0.248 NA
ATOM     31  C   UNL     1       8.227  10.494   2.500  1.00  0.00     0.031 C 
ATOM     32  C   UNL     1       9.392   7.569   7.688  1.00  0.00     0.029 A 
ATOM     33  C   UNL     1       8.928   7.874   6.419  1.00  0.00     0.049 A 
ATOM     34  H   UNL     1       7.619   6.775   5.182  1.00  0.00     0.167 HD
ATOM     35  C   UNL     1       8.687   9.281   4.392  1.00  0.00     0.074 A 
ATOM     36  C   UNL     1       8.933  10.485   3.623  1.00  0.00     0.031 C 
ATOM     37  C   UNL     1       9.210   9.038   5.619  1.00  0.00     0.034 A 
BRANCH  24  38
ATOM     38  C   UNL     1       7.280   3.765   8.198  1.00  0.00     0.023 A 
ATOM     39  C   UNL     1       8.037   2.576   8.176  1.00  0.00     0.012 A 
ATOM     40  C   UNL     1       6.592   4.122   9.375  1.00  0.00     0.148 A 
ATOM     41  C   UNL     1       8.085   1.743   9.293  1.00  0.00     0.002 A 
ATOM     42  C   UNL     1       6.676   3.306  10.498  1.00  0.00     0.091 A 
ATOM     43  F   UNL     1       5.857   5.243   9.373  1.00  0.00    -0.205 F 
ATOM     44  C   UNL     1       7.414   2.112  10.456  1.00  0.00     0.022 A 
BRANCH  42  45
ATOM     45  S   UNL     1       5.906   3.743  12.062  1.00  0.00     0.127 S 
ATOM     46  O   UNL     1       4.717   2.893  12.053  1.00  0.00    -0.237 OA
ATOM     47  O   UNL     1       6.927   3.350  13.035  1.00  0.00    -0.237 OA
ATOM     48  O   UNL     1       5.660   5.177  11.994  1.00  0.00    -0.744 OA
ENDBRANCH  42  45
ENDBRANCH  24  38
BRANCH  25  49
ATOM     49  C   UNL     1       6.673   9.656   0.151  1.00  0.00     0.023 A 
ATOM     50  C   UNL     1       7.821   9.831  -0.646  1.00  0.00     0.012 A 
ATOM     51  C   UNL     1       5.462  10.256  -0.246  1.00  0.00     0.148 A 
ATOM     52  C   UNL     1       7.768  10.604  -1.807  1.00  0.00     0.002 A 
ATOM     53  C   UNL     1       5.403  10.975  -1.434  1.00  0.00     0.091 A 
ATOM     54  F   UNL     1       4.386  10.092   0.536  1.00  0.00    -0.205 F 
ATOM     55  C   UNL     1       6.558  11.163  -2.208  1.00  0.00     0.022 A 
BRANCH  53  56
ATOM     56  S   UNL     1       3.855  11.601  -2.096  1.00  0.00     0.127 S 
ATOM     57  O   UNL     1       3.978  13.033  -1.840  1.00  0.00    -0.237 OA
ATOM     58  O   UNL     1       3.949  11.216  -3.505  1.00  0.00    -0.237 OA
ATOM     59  O   UNL     1       2.808  10.908  -1.358  1.00  0.00    -0.744 OA
ENDBRANCH  53  56
ENDBRANCH  25  49
BRANCH  37  60
ATOM     60  C   UNL     1      10.132  10.078   6.196  1.00  0.00     0.023 A 
ATOM     61  C   UNL     1       9.601  11.288   6.684  1.00  0.00     0.012 A 
ATOM     62  C   UNL     1      11.514   9.832   6.308  1.00  0.00     0.148 A 
ATOM     63  C   UNL     1      10.437  12.251   7.248  1.00  0.00     0.002 A 
ATOM     64  C   UNL     1      12.334  10.778   6.912  1.00  0.00     0.091 A 
ATOM     65  F   UNL     1      12.004   8.686   5.815  1.00  0.00    -0.205 F 
ATOM     66  C   UNL     1      11.800  11.992   7.372  1.00  0.00     0.022 A 
BRANCH  64  67
ATOM     67  S   UNL     1      14.083  10.477   7.192  1.00  0.00     0.127 S 
ATOM     68  O   UNL     1      14.695  11.221   6.093  1.00  0.00    -0.237 OA
ATOM     69  O   UNL     1      14.296  11.061   8.517  1.00  0.00    -0.237 OA
ATOM     70  O   UNL     1      14.246   9.030   7.144  1.00  0.00    -0.744 OA
ENDBRANCH  64  67
ENDBRANCH  37  60
ENDBRANCH  11  12
ENDBRANCH   4   6
ENDBRANCH   1   2
BRANCH   1  71
ATOM     71  C   UNL     1       5.010  -2.122   0.187  1.00  0.00     0.042 C 
BRANCH  71  72
ATOM     72  C   UNL     1       4.681  -3.568  -0.144  1.00  0.00     0.117 C 
BRANCH  72  73
ATOM     73  N   UNL     1       5.038  -3.950  -1.496  1.00  0.00    -0.356 N 
ATOM     74  C   UNL     1       5.616  -5.063  -2.012  1.00  0.00     0.228 C 
ATOM     75  H   UNL     1       4.819  -3.268  -2.171  1.00  0.00     0.163 HD
ATOM     76  O   UNL     1       5.767  -5.060  -3.239  1.00  0.00    -0.275 OA
BRANCH  74  77
ATOM     77  C   UNL     1       6.160  -6.202  -1.141  1.00  0.00     0.133 C 
ATOM     78  C   UNL     1       6.580  -7.395  -2.027  1.00  0.00     0.025 C 
ATOM     79  C   UNL     1       5.209  -6.756  -0.080  1.00  0.00     0.276 C 
ATOM     80  C   UNL     1       5.356  -8.142  -2.578  1.00  0.00     0.062 C 
ATOM     81  N   UNL     1       4.004  -7.319  -0.679  1.00  0.00    -0.330 N 
ATOM     82  C   UNL     1       4.323  -8.491  -1.494  1.00  0.00     0.262 C 
ATOM     83  H   UNL     1       3.630  -6.620  -1.322  1.00  0.00     0.348 HD
BRANCH  81  84
ATOM     84  C   UNL     1       2.893  -7.501   0.266  1.00  0.00     0.300 C 
BRANCH  84  85
ATOM     85  C   UNL     1       3.109  -8.477   1.407  1.00  0.00     0.025 A 
ATOM     86  C   UNL     1       3.888  -8.078   2.515  1.00  0.00     0.014 A 
ATOM     87  C   UNL     1       2.551  -9.767   1.424  1.00  0.00     0.052 A 
ATOM     88  C   UNL     1       4.145  -8.952   3.571  1.00  0.00     0.040 A 
ATOM     89  C   UNL     1       2.791 -10.634   2.494  1.00  0.00     0.060 A 
ATOM     90  Cl  UNL     1       1.534 -10.353   0.155  1.00  0.00    -0.084 Cl
ATOM     91  C   UNL     1       3.594 -10.223   3.547  1.00  0.00     0.124 A 
ATOM     92  F   UNL     1       3.836 -11.065   4.560  1.00  0.00    -0.207 F 
ENDBRANCH  84  85
ENDBRANCH  81  84
ENDBRANCH  74  77
ENDBRANCH  72  73
ENDBRANCH  71  72
ENDBRANCH   1  71
TORSDOF 15
