REMARK SMILES C[C@H]1CCC[C@@H]1n1c(SCC(=O)NCCCNC(=O)c2ccc(-c3c4nc(c(-c5cccc(S(=O)(=O)[O-])c5F)c5ccc([nH]5)c(-c5cccc(S(=O)(=O)[O-])c5F)c5nc(c(-c6cccc(S(=O)(=O)[O-])c6F)c6ccc3[nH]6)C=C5)C=C4)cc2)nc2cnccc21
REMARK SMILES IDX 15 1 14 2 13 3 11 4 12 5 10 7 9 8 8 9 7 10 89 11 83 12 84 13
REMARK SMILES IDX 88 14 85 15 87 16 86 17 6 18 1 19 2 20 3 21 4 22 5 23 16 24
REMARK SMILES IDX 17 25 18 26 19 28 20 29 21 30 82 31 22 32 81 33 23 34 24 35
REMARK SMILES IDX 25 36 75 37 26 38 80 39 74 40 76 41 27 42 79 43 73 44 72 45
REMARK SMILES IDX 28 47 60 48 40 49 59 50 41 51 44 52 58 53 77 54 42 55 43 56
REMARK SMILES IDX 57 58 78 59 45 60 29 61 30 62 38 63 31 64 33 65 39 66 32 67
REMARK SMILES IDX 34 68 35 69 36 70 37 71 61 72 62 73 70 74 63 75 65 76 71 77
REMARK SMILES IDX 64 78 66 79 67 80 68 81 69 82 46 83 47 84 55 85 48 86 50 87
REMARK SMILES IDX 56 88 49 89 51 90 52 91 53 92 54 93
REMARK H PARENT 13 6 17 27 76 46 44 57
REMARK Flexibility Score: inf
ROOT
ATOM      1  C   UNL     1      -0.895   4.556  -4.216  1.00  0.00     0.042 C 
ENDROOT
BRANCH   1   2
ATOM      2  C   UNL     1      -2.233   3.983  -3.775  1.00  0.00     0.117 C 
BRANCH   2   3
ATOM      3  N   UNL     1      -2.136   2.608  -3.341  1.00  0.00    -0.355 N 
ATOM      4  C   UNL     1      -2.575   2.044  -2.195  1.00  0.00     0.230 C 
ATOM      5  O   UNL     1      -2.827   0.833  -2.253  1.00  0.00    -0.274 OA
ATOM      6  H   UNL     1      -1.687   1.997  -3.969  1.00  0.00     0.163 HD
BRANCH   4   7
ATOM      7  C   UNL     1      -2.880   2.826  -0.943  1.00  0.00     0.178 C 
BRANCH   7   8
ATOM      8  S   UNL     1      -1.660   3.780  -0.077  1.00  0.00    -0.078 SA
BRANCH   8   9
ATOM      9  C   UNL     1       0.003   3.321   0.039  1.00  0.00     0.169 A 
ATOM     10  N   UNL     1       0.676   2.119   0.298  1.00  0.00    -0.315 N 
ATOM     11  C   UNL     1       2.038   2.451   0.381  1.00  0.00     0.072 A 
ATOM     12  N   UNL     1       0.825   4.342   0.194  1.00  0.00    -0.221 NA
ATOM     13  C   UNL     1       2.056   3.840   0.469  1.00  0.00     0.108 A 
ATOM     14  C   UNL     1       3.247   1.747   0.460  1.00  0.00     0.049 A 
ATOM     15  C   UNL     1       3.242   4.510   0.798  1.00  0.00     0.141 A 
ATOM     16  C   UNL     1       4.379   2.490   0.777  1.00  0.00     0.113 A 
ATOM     17  N   UNL     1       4.397   3.821   0.978  1.00  0.00    -0.262 NA
BRANCH  10  18
ATOM     18  C   UNL     1       0.095   0.850   0.754  1.00  0.00     0.093 C 
ATOM     19  C   UNL     1       1.812  -0.450   2.221  1.00  0.00     0.010 C 
ATOM     20  C   UNL     1       1.006  -0.397   0.926  1.00  0.00     0.009 C 
ATOM     21  C   UNL     1       0.042  -1.584   0.864  1.00  0.00     0.005 C 
ATOM     22  C   UNL     1      -0.935  -1.203  -0.218  1.00  0.00     0.002 C 
ATOM     23  C   UNL     1      -0.950   0.316  -0.215  1.00  0.00     0.026 C 
ENDBRANCH  10  18
ENDBRANCH   8   9
ENDBRANCH   7   8
ENDBRANCH   4   7
ENDBRANCH   2   3
ENDBRANCH   1   2
BRANCH   1  24
ATOM     24  C   UNL     1      -0.115   3.705  -5.224  1.00  0.00     0.118 C 
BRANCH  24  25
ATOM     25  N   UNL     1      -0.842   3.276  -6.405  1.00  0.00    -0.352 N 
ATOM     26  C   UNL     1      -1.118   3.835  -7.624  1.00  0.00     0.251 C 
ATOM     27  H   UNL     1      -1.226   2.375  -6.307  1.00  0.00     0.163 HD
ATOM     28  O   UNL     1      -1.588   3.074  -8.472  1.00  0.00    -0.269 OA
BRANCH  26  29
ATOM     29  C   UNL     1      -0.985   5.279  -7.939  1.00  0.00     0.039 A 
ATOM     30  C   UNL     1      -0.356   6.218  -7.124  1.00  0.00     0.014 A 
ATOM     31  C   UNL     1      -1.636   5.720  -9.107  1.00  0.00     0.014 A 
ATOM     32  C   UNL     1      -0.531   7.573  -7.357  1.00  0.00     0.010 A 
ATOM     33  C   UNL     1      -1.773   7.075  -9.374  1.00  0.00     0.010 A 
ATOM     34  C   UNL     1      -1.287   7.994  -8.451  1.00  0.00    -0.014 A 
BRANCH  34  35
ATOM     35  C   UNL     1      -1.481   9.426  -8.618  1.00  0.00     0.031 A 
ATOM     36  C   UNL     1      -0.232  10.207  -8.836  1.00  0.00     0.074 A 
ATOM     37  C   UNL     1      -2.707   9.984  -8.652  1.00  0.00     0.049 A 
ATOM     38  N   UNL     1       0.255  11.157  -8.105  1.00  0.00    -0.248 NA
ATOM     39  C   UNL     1       0.647   9.787  -9.939  1.00  0.00     0.031 C 
ATOM     40  C   UNL     1      -4.005   9.307  -8.715  1.00  0.00     0.029 A 
ATOM     41  N   UNL     1      -3.039  11.297  -8.790  1.00  0.00    -0.354 N 
ATOM     42  C   UNL     1       1.403  11.590  -8.766  1.00  0.00     0.074 A 
ATOM     43  C   UNL     1       1.674  10.624  -9.799  1.00  0.00     0.031 C 
ATOM     44  C   UNL     1      -4.936  10.183  -9.154  1.00  0.00     0.029 A 
ATOM     45  C   UNL     1      -4.327  11.494  -9.277  1.00  0.00     0.049 A 
ATOM     46  H   UNL     1      -2.427  12.035  -8.567  1.00  0.00     0.167 HD
ATOM     47  C   UNL     1       1.950  12.818  -8.559  1.00  0.00     0.034 A 
ATOM     48  C   UNL     1      -4.796  12.629  -9.854  1.00  0.00     0.034 A 
ATOM     49  C   UNL     1       1.473  13.438  -7.358  1.00  0.00     0.049 A 
ATOM     50  C   UNL     1      -3.922  13.738  -9.396  1.00  0.00     0.074 A 
ATOM     51  C   UNL     1       1.528  13.121  -6.016  1.00  0.00     0.029 A 
ATOM     52  N   UNL     1       0.481  14.380  -7.483  1.00  0.00    -0.354 N 
ATOM     53  N   UNL     1      -3.837  14.122  -8.153  1.00  0.00    -0.248 NA
ATOM     54  C   UNL     1      -2.812  14.126 -10.252  1.00  0.00     0.031 C 
ATOM     55  C   UNL     1       0.255  13.499  -5.502  1.00  0.00     0.029 A 
ATOM     56  C   UNL     1      -0.472  14.075  -6.546  1.00  0.00     0.049 A 
ATOM     57  H   UNL     1       0.459  15.129  -8.121  1.00  0.00     0.167 HD
ATOM     58  C   UNL     1      -2.488  14.400  -7.969  1.00  0.00     0.074 A 
ATOM     59  C   UNL     1      -1.926  14.476  -9.316  1.00  0.00     0.031 C 
ATOM     60  C   UNL     1      -1.891  14.254  -6.750  1.00  0.00     0.034 A 
BRANCH  47  61
ATOM     61  C   UNL     1       2.696  13.587  -9.613  1.00  0.00     0.023 A 
ATOM     62  C   UNL     1       3.526  14.655  -9.216  1.00  0.00     0.012 A 
ATOM     63  C   UNL     1       2.416  13.457 -10.992  1.00  0.00     0.148 A 
ATOM     64  C   UNL     1       4.055  15.550 -10.152  1.00  0.00     0.002 A 
ATOM     65  C   UNL     1       3.002  14.304 -11.925  1.00  0.00     0.091 A 
ATOM     66  F   UNL     1       1.479  12.592 -11.396  1.00  0.00    -0.205 F 
ATOM     67  C   UNL     1       3.807  15.365 -11.508  1.00  0.00     0.022 A 
BRANCH  65  68
ATOM     68  S   UNL     1       2.738  14.077 -13.687  1.00  0.00     0.127 S 
ATOM     69  O   UNL     1       1.825  15.182 -13.988  1.00  0.00    -0.237 OA
ATOM     70  O   UNL     1       4.096  14.239 -14.215  1.00  0.00    -0.237 OA
ATOM     71  O   UNL     1       2.198  12.740 -13.830  1.00  0.00    -0.744 OA
ENDBRANCH  65  68
ENDBRANCH  47  61
BRANCH  48  72
ATOM     72  C   UNL     1      -5.701  12.758 -11.028  1.00  0.00     0.023 A 
ATOM     73  C   UNL     1      -6.247  14.018 -11.348  1.00  0.00     0.012 A 
ATOM     74  C   UNL     1      -5.822  11.728 -11.989  1.00  0.00     0.148 A 
ATOM     75  C   UNL     1      -6.858  14.251 -12.589  1.00  0.00     0.002 A 
ATOM     76  C   UNL     1      -6.453  11.955 -13.209  1.00  0.00     0.091 A 
ATOM     77  F   UNL     1      -5.231  10.549 -11.762  1.00  0.00    -0.205 F 
ATOM     78  C   UNL     1      -6.958  13.221 -13.521  1.00  0.00     0.022 A 
BRANCH  76  79
ATOM     79  S   UNL     1      -6.622  10.654 -14.439  1.00  0.00     0.127 S 
ATOM     80  O   UNL     1      -7.992  10.857 -14.915  1.00  0.00    -0.237 OA
ATOM     81  O   UNL     1      -5.582  11.005 -15.400  1.00  0.00    -0.237 OA
ATOM     82  O   UNL     1      -6.426   9.403 -13.715  1.00  0.00    -0.744 OA
ENDBRANCH  76  79
ENDBRANCH  48  72
BRANCH  60  83
ATOM     83  C   UNL     1      -2.763  13.974  -5.552  1.00  0.00     0.023 A 
ATOM     84  C   UNL     1      -3.445  12.747  -5.399  1.00  0.00     0.012 A 
ATOM     85  C   UNL     1      -2.703  14.861  -4.465  1.00  0.00     0.148 A 
ATOM     86  C   UNL     1      -4.054  12.414  -4.186  1.00  0.00     0.002 A 
ATOM     87  C   UNL     1      -3.276  14.509  -3.250  1.00  0.00     0.091 A 
ATOM     88  F   UNL     1      -2.035  16.013  -4.628  1.00  0.00    -0.205 F 
ATOM     89  C   UNL     1      -3.955  13.288  -3.106  1.00  0.00     0.022 A 
BRANCH  87  90
ATOM     90  S   UNL     1      -3.090  15.530  -1.786  1.00  0.00     0.127 S 
ATOM     91  O   UNL     1      -4.458  15.995  -1.562  1.00  0.00    -0.237 OA
ATOM     92  O   UNL     1      -2.601  14.568  -0.797  1.00  0.00    -0.237 OA
ATOM     93  O   UNL     1      -2.130  16.570  -2.135  1.00  0.00    -0.744 OA
ENDBRANCH  87  90
ENDBRANCH  60  83
ENDBRANCH  34  35
ENDBRANCH  26  29
ENDBRANCH  24  25
ENDBRANCH   1  24
TORSDOF 16
