REMARK SMILES C[C@H](NC(N)=O)C(=O)N[C@@H](CO)C(=O)NCCCNC(=O)c1ccc(-c2c3nc(c(-c4cccc(S(=O)(=O)[O-])c4F)c4ccc([nH]4)c(-c4cccc(S(=O)(=O)[O-])c4F)c4nc(c(-c5cccc(S(=O)(=O)[O-])c5F)c5ccc2[nH]5)C=C4)C=C3)cc1
REMARK SMILES IDX 17 1 16 2 15 3 13 4 14 5 10 7 9 8 7 9 8 10 2 12 1 13 3 14
REMARK SMILES IDX 4 15 5 17 6 18 11 21 12 22 18 24 19 25 20 26 21 28 22 29
REMARK SMILES IDX 23 30 84 31 24 32 83 33 25 34 26 35 27 36 77 37 28 38 82 39
REMARK SMILES IDX 76 40 78 41 29 42 81 43 75 44 74 45 30 47 62 48 42 49 61 50
REMARK SMILES IDX 43 51 46 52 60 53 79 54 44 55 45 56 59 58 80 59 47 60 31 61
REMARK SMILES IDX 32 62 40 63 33 64 35 65 41 66 34 67 36 68 37 69 38 70 39 71
REMARK SMILES IDX 63 72 64 73 72 74 65 75 67 76 73 77 66 78 68 79 69 80 70 81
REMARK SMILES IDX 71 82 48 83 49 84 57 85 50 86 52 87 58 88 51 89 53 90 54 91
REMARK SMILES IDX 55 92 56 93
REMARK H PARENT 15 6 9 11 3 16 5 19 5 20 12 23 19 27 78 46 46 57
REMARK Flexibility Score: inf
ROOT
ATOM      1  C   UNL     1      -5.040  -2.319  -2.181  1.00  0.00     0.042 C 
ENDROOT
BRANCH   1   2
ATOM      2  C   UNL     1      -4.022  -2.940  -1.240  1.00  0.00     0.117 C 
BRANCH   2   3
ATOM      3  N   UNL     1      -2.850  -3.427  -1.940  1.00  0.00    -0.354 N 
ATOM      4  C   UNL     1      -1.529  -3.177  -1.752  1.00  0.00     0.244 C 
ATOM      5  O   UNL     1      -0.734  -3.878  -2.387  1.00  0.00    -0.273 OA
ATOM      6  H   UNL     1      -3.045  -4.046  -2.680  1.00  0.00     0.163 HD
BRANCH   4   7
ATOM      7  C   UNL     1      -1.010  -2.146  -0.738  1.00  0.00     0.197 C 
BRANCH   7   8
ATOM      8  N   UNL     1      -1.555  -0.798  -0.933  1.00  0.00    -0.340 N 
ATOM      9  C   UNL     1      -0.897   0.343  -1.300  1.00  0.00     0.243 C 
ATOM     10  O   UNL     1      -1.574   1.343  -1.539  1.00  0.00    -0.273 OA
ATOM     11  H   UNL     1      -2.523  -0.702  -0.779  1.00  0.00     0.164 HD
BRANCH   9  12
ATOM     12  C   UNL     1       0.637   0.368  -1.436  1.00  0.00     0.170 C 
ATOM     13  C   UNL     1       1.067  -0.381  -2.697  1.00  0.00     0.041 C 
BRANCH  12  14
ATOM     14  N   UNL     1       1.186  -0.054  -0.144  1.00  0.00    -0.327 N 
ATOM     15  C   UNL     1       2.303  -0.785   0.080  1.00  0.00     0.312 C 
ATOM     16  H   UNL     1       0.683   0.228   0.655  1.00  0.00     0.166 HD
ATOM     17  N   UNL     1       2.450  -1.113   1.387  1.00  0.00    -0.352 N 
ATOM     18  O   UNL     1       3.091  -1.194  -0.760  1.00  0.00    -0.249 OA
ATOM     19  H   UNL     1       1.808  -0.777   2.054  1.00  0.00     0.161 HD
ATOM     20  H   UNL     1       3.198  -1.687   1.670  1.00  0.00     0.161 HD
ENDBRANCH  12  14
ENDBRANCH   9  12
ENDBRANCH   7   8
BRANCH   7  21
ATOM     21  C   UNL     1      -1.093  -2.638   0.714  1.00  0.00     0.191 C 
BRANCH  21  22
ATOM     22  O   UNL     1      -2.377  -2.497   1.313  1.00  0.00    -0.394 OA
ATOM     23  H   UNL     1      -2.613  -1.557   1.353  1.00  0.00     0.210 HD
ENDBRANCH  21  22
ENDBRANCH   7  21
ENDBRANCH   4   7
ENDBRANCH   2   3
ENDBRANCH   1   2
BRANCH   1  24
ATOM     24  C   UNL     1      -5.609  -3.293  -3.204  1.00  0.00     0.118 C 
BRANCH  24  25
ATOM     25  N   UNL     1      -6.323  -4.407  -2.590  1.00  0.00    -0.352 N 
ATOM     26  C   UNL     1      -7.663  -4.713  -2.596  1.00  0.00     0.251 C 
ATOM     27  H   UNL     1      -5.755  -5.039  -2.092  1.00  0.00     0.163 HD
ATOM     28  O   UNL     1      -8.089  -5.596  -1.857  1.00  0.00    -0.269 OA
BRANCH  26  29
ATOM     29  C   UNL     1      -8.592  -3.959  -3.465  1.00  0.00     0.039 A 
ATOM     30  C   UNL     1      -9.811  -3.526  -2.939  1.00  0.00     0.014 A 
ATOM     31  C   UNL     1      -8.253  -3.660  -4.786  1.00  0.00     0.014 A 
ATOM     32  C   UNL     1     -10.641  -2.705  -3.706  1.00  0.00     0.010 A 
ATOM     33  C   UNL     1      -9.033  -2.766  -5.512  1.00  0.00     0.010 A 
ATOM     34  C   UNL     1     -10.230  -2.268  -4.976  1.00  0.00    -0.014 A 
BRANCH  34  35
ATOM     35  C   UNL     1     -11.003  -1.249  -5.733  1.00  0.00     0.031 A 
ATOM     36  C   UNL     1     -11.558  -1.567  -7.096  1.00  0.00     0.074 A 
ATOM     37  C   UNL     1     -11.108   0.001  -5.235  1.00  0.00     0.049 A 
ATOM     38  N   UNL     1     -12.189  -0.781  -7.928  1.00  0.00    -0.248 NA
ATOM     39  C   UNL     1     -11.360  -2.937  -7.601  1.00  0.00     0.031 C 
ATOM     40  C   UNL     1     -10.544   0.456  -3.961  1.00  0.00     0.029 A 
ATOM     41  N   UNL     1     -11.698   1.128  -5.753  1.00  0.00    -0.354 N 
ATOM     42  C   UNL     1     -12.423  -1.541  -9.068  1.00  0.00     0.074 A 
ATOM     43  C   UNL     1     -11.853  -2.848  -8.829  1.00  0.00     0.031 C 
ATOM     44  C   UNL     1     -10.818   1.759  -3.796  1.00  0.00     0.029 A 
ATOM     45  C   UNL     1     -11.535   2.248  -4.967  1.00  0.00     0.049 A 
ATOM     46  H   UNL     1     -12.191   1.135  -6.605  1.00  0.00     0.167 HD
ATOM     47  C   UNL     1     -13.070  -1.186 -10.202  1.00  0.00     0.034 A 
ATOM     48  C   UNL     1     -11.900   3.528  -5.177  1.00  0.00     0.034 A 
ATOM     49  C   UNL     1     -13.676   0.100 -10.418  1.00  0.00     0.049 A 
ATOM     50  C   UNL     1     -12.631   3.881  -6.445  1.00  0.00     0.074 A 
ATOM     51  C   UNL     1     -14.457   0.510 -11.483  1.00  0.00     0.029 A 
ATOM     52  N   UNL     1     -13.549   1.188  -9.571  1.00  0.00    -0.354 N 
ATOM     53  N   UNL     1     -13.014   3.096  -7.422  1.00  0.00    -0.248 NA
ATOM     54  C   UNL     1     -13.002   5.292  -6.628  1.00  0.00     0.031 C 
ATOM     55  C   UNL     1     -14.763   1.862 -11.305  1.00  0.00     0.029 A 
ATOM     56  C   UNL     1     -14.207   2.281 -10.108  1.00  0.00     0.049 A 
ATOM     57  H   UNL     1     -13.064   1.185  -8.714  1.00  0.00     0.167 HD
ATOM     58  C   UNL     1     -13.696   3.911  -8.318  1.00  0.00     0.074 A 
ATOM     59  C   UNL     1     -13.702   5.244  -7.753  1.00  0.00     0.031 C 
ATOM     60  C   UNL     1     -14.249   3.591  -9.513  1.00  0.00     0.034 A 
BRANCH  47  61
ATOM     61  C   UNL     1     -13.198  -2.207 -11.302  1.00  0.00     0.023 A 
ATOM     62  C   UNL     1     -14.089  -3.288 -11.155  1.00  0.00     0.012 A 
ATOM     63  C   UNL     1     -12.521  -2.027 -12.525  1.00  0.00     0.148 A 
ATOM     64  C   UNL     1     -14.294  -4.184 -12.203  1.00  0.00     0.002 A 
ATOM     65  C   UNL     1     -12.765  -2.897 -13.579  1.00  0.00     0.091 A 
ATOM     66  F   UNL     1     -11.665  -1.001 -12.635  1.00  0.00    -0.205 F 
ATOM     67  C   UNL     1     -13.643  -3.981 -13.418  1.00  0.00     0.022 A 
BRANCH  65  68
ATOM     68  S   UNL     1     -12.044  -2.674 -15.210  1.00  0.00     0.127 S 
ATOM     69  O   UNL     1     -11.191  -3.857 -15.318  1.00  0.00    -0.237 OA
ATOM     70  O   UNL     1     -13.226  -2.695 -16.070  1.00  0.00    -0.237 OA
ATOM     71  O   UNL     1     -11.337  -1.402 -15.169  1.00  0.00    -0.744 OA
ENDBRANCH  65  68
ENDBRANCH  47  61
BRANCH  48  72
ATOM     72  C   UNL     1     -11.606   4.579  -4.158  1.00  0.00     0.023 A 
ATOM     73  C   UNL     1     -12.671   5.206  -3.483  1.00  0.00     0.012 A 
ATOM     74  C   UNL     1     -10.286   4.975  -3.871  1.00  0.00     0.148 A 
ATOM     75  C   UNL     1     -12.431   6.242  -2.579  1.00  0.00     0.002 A 
ATOM     76  C   UNL     1     -10.050   5.965  -2.924  1.00  0.00     0.091 A 
ATOM     77  F   UNL     1      -9.284   4.378  -4.532  1.00  0.00    -0.205 F 
ATOM     78  C   UNL     1     -11.121   6.616  -2.294  1.00  0.00     0.022 A 
BRANCH  76  79
ATOM     79  S   UNL     1      -8.392   6.414  -2.398  1.00  0.00     0.127 S 
ATOM     80  O   UNL     1      -8.225   7.724  -3.021  1.00  0.00    -0.237 OA
ATOM     81  O   UNL     1      -8.532   6.436  -0.942  1.00  0.00    -0.237 OA
ATOM     82  O   UNL     1      -7.525   5.355  -2.899  1.00  0.00    -0.744 OA
ENDBRANCH  76  79
ENDBRANCH  48  72
BRANCH  60  83
ATOM     83  C   UNL     1     -14.934   4.688 -10.285  1.00  0.00     0.023 A 
ATOM     84  C   UNL     1     -14.165   5.699 -10.895  1.00  0.00     0.012 A 
ATOM     85  C   UNL     1     -16.330   4.672 -10.472  1.00  0.00     0.148 A 
ATOM     86  C   UNL     1     -14.779   6.697 -11.651  1.00  0.00     0.002 A 
ATOM     87  C   UNL     1     -16.929   5.638 -11.271  1.00  0.00     0.091 A 
ATOM     88  F   UNL     1     -17.044   3.708  -9.872  1.00  0.00    -0.205 F 
ATOM     89  C   UNL     1     -16.157   6.659 -11.849  1.00  0.00     0.022 A 
BRANCH  87  90
ATOM     90  S   UNL     1     -18.681   5.619 -11.664  1.00  0.00     0.127 S 
ATOM     91  O   UNL     1     -19.155   6.817 -10.972  1.00  0.00    -0.237 OA
ATOM     92  O   UNL     1     -18.670   5.721 -13.123  1.00  0.00    -0.237 OA
ATOM     93  O   UNL     1     -19.198   4.359 -11.146  1.00  0.00    -0.744 OA
ENDBRANCH  87  90
ENDBRANCH  60  83
ENDBRANCH  34  35
ENDBRANCH  26  29
ENDBRANCH  24  25
ENDBRANCH   1  24
TORSDOF 18
