REMARK SMILES COc1ccccc1-c1nnc(SCCC(=O)NCCCNC(=O)c2ccc(-c3c4nc(c(-c5cccc(S(=O)(=O)[O-])c5F)c5ccc([nH]5)c(-c5cccc(S(=O)(=O)[O-])c5F)c5nc(c(-c6cccc(S(=O)(=O)[O-])c6F)c6ccc3[nH]6)C=C5)C=C4)cc2)o1
REMARK SMILES IDX 19 1 18 2 16 3 17 4 15 6 14 7 13 8 12 9 9 10 10 11 88 12
REMARK SMILES IDX 11 13 8 14 3 15 4 16 5 17 7 18 6 19 2 20 1 21 20 22 21 23
REMARK SMILES IDX 22 24 23 25 24 27 25 28 26 29 87 30 27 31 86 32 28 33 29 34
REMARK SMILES IDX 30 35 80 36 31 37 85 38 79 39 81 40 32 41 84 42 78 43 77 44
REMARK SMILES IDX 33 46 65 47 45 48 64 49 46 50 49 51 63 52 82 53 47 54 48 55
REMARK SMILES IDX 62 57 83 58 50 59 34 60 35 61 43 62 36 63 38 64 44 65 37 66
REMARK SMILES IDX 39 67 40 68 41 69 42 70 66 71 67 72 75 73 68 74 70 75 76 76
REMARK SMILES IDX 69 77 71 78 72 79 73 80 74 81 51 82 52 83 60 84 53 85 55 86
REMARK SMILES IDX 61 87 54 88 56 89 57 90 58 91 59 92
REMARK H PARENT 18 5 22 26 81 45 49 56
REMARK Flexibility Score: inf
ROOT
ATOM      1  C   UNL     1       3.754  -0.616  -1.977  1.00  0.00     0.117 C 
ENDROOT
BRANCH   1   2
ATOM      2  N   UNL     1       2.966   0.424  -1.338  1.00  0.00    -0.356 N 
ATOM      3  C   UNL     1       2.776   1.728  -1.677  1.00  0.00     0.220 C 
ATOM      4  O   UNL     1       1.777   2.323  -1.272  1.00  0.00    -0.275 OA
ATOM      5  H   UNL     1       2.491   0.138  -0.524  1.00  0.00     0.163 HD
BRANCH   3   6
ATOM      6  C   UNL     1       3.817   2.466  -2.465  1.00  0.00     0.111 C 
BRANCH   6   7
ATOM      7  C   UNL     1       4.578   3.417  -1.543  1.00  0.00     0.090 C 
BRANCH   7   8
ATOM      8  S   UNL     1       5.869   2.640  -0.546  1.00  0.00    -0.065 SA
BRANCH   8   9
ATOM      9  C   UNL     1       5.060   1.896   0.806  1.00  0.00     0.276 A 
ATOM     10  C   UNL     1       3.661   1.194   2.264  1.00  0.00     0.252 A 
ATOM     11  N   UNL     1       4.813   0.615   2.536  1.00  0.00    -0.107 NA
ATOM     12  O   UNL     1       3.741   2.039   1.178  1.00  0.00    -0.411 OA
ATOM     13  N   UNL     1       5.704   1.053   1.589  1.00  0.00    -0.101 NA
BRANCH  10  14
ATOM     14  C   UNL     1       2.419   1.083   3.020  1.00  0.00     0.081 A 
ATOM     15  C   UNL     1       1.139   0.980   2.457  1.00  0.00     0.131 A 
ATOM     16  C   UNL     1       0.001   0.957   3.279  1.00  0.00     0.047 A 
ATOM     17  C   UNL     1       0.129   0.902   4.665  1.00  0.00     0.004 A 
ATOM     18  C   UNL     1       2.525   0.990   4.422  1.00  0.00     0.018 A 
ATOM     19  C   UNL     1       1.394   0.888   5.236  1.00  0.00     0.001 A 
BRANCH  15  20
ATOM     20  O   UNL     1       0.986   0.901   1.098  1.00  0.00    -0.496 OA
ATOM     21  C   UNL     1       0.319  -0.298   0.692  1.00  0.00     0.278 C 
ENDBRANCH  15  20
ENDBRANCH  10  14
ENDBRANCH   8   9
ENDBRANCH   7   8
ENDBRANCH   6   7
ENDBRANCH   3   6
ENDBRANCH   1   2
BRANCH   1  22
ATOM     22  C   UNL     1       4.918  -1.157  -1.149  1.00  0.00     0.042 C 
BRANCH  22  23
ATOM     23  C   UNL     1       4.555  -1.726   0.223  1.00  0.00     0.118 C 
BRANCH  23  24
ATOM     24  N   UNL     1       3.953  -3.046   0.173  1.00  0.00    -0.352 N 
ATOM     25  C   UNL     1       4.244  -4.161   0.926  1.00  0.00     0.251 C 
ATOM     26  H   UNL     1       3.236  -3.160  -0.492  1.00  0.00     0.163 HD
ATOM     27  O   UNL     1       3.642  -5.209   0.698  1.00  0.00    -0.269 OA
BRANCH  25  28
ATOM     28  C   UNL     1       5.299  -4.135   1.971  1.00  0.00     0.039 A 
ATOM     29  C   UNL     1       6.246  -5.165   1.972  1.00  0.00     0.014 A 
ATOM     30  C   UNL     1       5.357  -3.145   2.957  1.00  0.00     0.014 A 
ATOM     31  C   UNL     1       7.271  -5.177   2.923  1.00  0.00     0.010 A 
ATOM     32  C   UNL     1       6.412  -3.134   3.880  1.00  0.00     0.010 A 
ATOM     33  C   UNL     1       7.381  -4.150   3.874  1.00  0.00    -0.014 A 
BRANCH  33  34
ATOM     34  C   UNL     1       8.526  -4.132   4.830  1.00  0.00     0.031 A 
ATOM     35  C   UNL     1       8.311  -4.329   6.308  1.00  0.00     0.074 A 
ATOM     36  C   UNL     1       9.775  -3.914   4.370  1.00  0.00     0.049 A 
ATOM     37  N   UNL     1       9.199  -4.391   7.269  1.00  0.00    -0.248 NA
ATOM     38  C   UNL     1       6.921  -4.463   6.769  1.00  0.00     0.031 C 
ATOM     39  C   UNL     1      10.122  -3.645   2.974  1.00  0.00     0.029 A 
ATOM     40  N   UNL     1      10.982  -3.868   5.026  1.00  0.00    -0.354 N 
ATOM     41  C   UNL     1       8.480  -4.547   8.448  1.00  0.00     0.074 A 
ATOM     42  C   UNL     1       7.078  -4.545   8.084  1.00  0.00     0.031 C 
ATOM     43  C   UNL     1      11.449  -3.469   2.877  1.00  0.00     0.029 A 
ATOM     44  C   UNL     1      12.047  -3.583   4.204  1.00  0.00     0.049 A 
ATOM     45  H   UNL     1      11.075  -4.024   5.994  1.00  0.00     0.167 HD
ATOM     46  C   UNL     1       8.939  -4.700   9.715  1.00  0.00     0.034 A 
ATOM     47  C   UNL     1      13.357  -3.422   4.482  1.00  0.00     0.034 A 
ATOM     48  C   UNL     1      10.332  -4.719  10.079  1.00  0.00     0.049 A 
ATOM     49  C   UNL     1      13.843  -3.608   5.895  1.00  0.00     0.074 A 
ATOM     50  C   UNL     1      10.892  -4.949  11.325  1.00  0.00     0.029 A 
ATOM     51  N   UNL     1      11.385  -4.477   9.211  1.00  0.00    -0.354 N 
ATOM     52  N   UNL     1      13.160  -3.923   6.968  1.00  0.00    -0.248 NA
ATOM     53  C   UNL     1      15.287  -3.454   6.128  1.00  0.00     0.031 C 
ATOM     54  C   UNL     1      12.280  -4.807  11.217  1.00  0.00     0.029 A 
ATOM     55  C   UNL     1      12.589  -4.532   9.896  1.00  0.00     0.049 A 
ATOM     56  H   UNL     1      11.292  -4.294   8.248  1.00  0.00     0.167 HD
ATOM     57  C   UNL     1      14.092  -4.040   7.994  1.00  0.00     0.074 A 
ATOM     58  C   UNL     1      15.392  -3.783   7.409  1.00  0.00     0.031 C 
ATOM     59  C   UNL     1      13.886  -4.323   9.304  1.00  0.00     0.034 A 
BRANCH  46  60
ATOM     60  C   UNL     1       7.921  -4.897  10.811  1.00  0.00     0.023 A 
ATOM     61  C   UNL     1       7.201  -6.107  10.886  1.00  0.00     0.012 A 
ATOM     62  C   UNL     1       7.726  -3.917  11.805  1.00  0.00     0.148 A 
ATOM     63  C   UNL     1       6.276  -6.324  11.906  1.00  0.00     0.002 A 
ATOM     64  C   UNL     1       6.836  -4.159  12.846  1.00  0.00     0.091 A 
ATOM     65  F   UNL     1       8.409  -2.767  11.713  1.00  0.00    -0.205 F 
ATOM     66  C   UNL     1       6.101  -5.355  12.890  1.00  0.00     0.022 A 
BRANCH  64  67
ATOM     67  S   UNL     1       6.599  -3.010  14.206  1.00  0.00     0.127 S 
ATOM     68  O   UNL     1       5.252  -2.508  13.936  1.00  0.00    -0.237 OA
ATOM     69  O   UNL     1       6.697  -3.889  15.372  1.00  0.00    -0.237 OA
ATOM     70  O   UNL     1       7.666  -2.027  14.095  1.00  0.00    -0.744 OA
ENDBRANCH  64  67
ENDBRANCH  46  60
BRANCH  47  71
ATOM     71  C   UNL     1      14.318  -3.114   3.383  1.00  0.00     0.023 A 
ATOM     72  C   UNL     1      15.261  -4.084   2.990  1.00  0.00     0.012 A 
ATOM     73  C   UNL     1      14.289  -1.874   2.716  1.00  0.00     0.148 A 
ATOM     74  C   UNL     1      16.180  -3.813   1.976  1.00  0.00     0.002 A 
ATOM     75  C   UNL     1      15.169  -1.632   1.667  1.00  0.00     0.091 A 
ATOM     76  F   UNL     1      13.393  -0.961   3.113  1.00  0.00    -0.205 F 
ATOM     77  C   UNL     1      16.127  -2.592   1.308  1.00  0.00     0.022 A 
BRANCH  75  78
ATOM     78  S   UNL     1      15.091  -0.143   0.666  1.00  0.00     0.127 S 
ATOM     79  O   UNL     1      16.345   0.521   1.021  1.00  0.00    -0.237 OA
ATOM     80  O   UNL     1      15.050  -0.696  -0.689  1.00  0.00    -0.237 OA
ATOM     81  O   UNL     1      13.876   0.546   1.072  1.00  0.00    -0.744 OA
ENDBRANCH  75  78
ENDBRANCH  47  71
BRANCH  59  82
ATOM     82  C   UNL     1      15.094  -4.413  10.204  1.00  0.00     0.023 A 
ATOM     83  C   UNL     1      15.809  -3.248  10.547  1.00  0.00     0.012 A 
ATOM     84  C   UNL     1      15.480  -5.648  10.764  1.00  0.00     0.148 A 
ATOM     85  C   UNL     1      16.908  -3.315  11.404  1.00  0.00     0.002 A 
ATOM     86  C   UNL     1      16.544  -5.699  11.658  1.00  0.00     0.091 A 
ATOM     87  F   UNL     1      14.801  -6.750  10.413  1.00  0.00    -0.205 F 
ATOM     88  C   UNL     1      17.267  -4.537  11.968  1.00  0.00     0.022 A 
BRANCH  86  89
ATOM     89  S   UNL     1      17.019  -7.209  12.509  1.00  0.00     0.127 S 
ATOM     90  O   UNL     1      18.297  -7.521  11.871  1.00  0.00    -0.237 OA
ATOM     91  O   UNL     1      17.123  -6.761  13.898  1.00  0.00    -0.237 OA
ATOM     92  O   UNL     1      15.949  -8.166  12.260  1.00  0.00    -0.744 OA
ENDBRANCH  86  89
ENDBRANCH  59  82
ENDBRANCH  33  34
ENDBRANCH  25  28
ENDBRANCH  23  24
ENDBRANCH  22  23
ENDBRANCH   1  22
TORSDOF 18
