REMARK SMILES NS(=O)(=O)c1ccc(-c2cc(Cl)cc3c2O[C@H](C(F)(F)F)C(C(=O)NCCCNC(=O)c2ccc(-c4c5nc(c(-c6cccc(S(=O)(=O)[O-])c6F)c6ccc([nH]6)c(-c6cccc(S(=O)(=O)[O-])c6F)c6nc(c(-c7cccc(S(=O)(=O)[O-])c7F)c7ccc4[nH]7)C=C6)C=C5)cc2)=C3)cc1
REMARK SMILES IDX 27 1 26 2 25 3 23 4 24 5 22 7 9 8 10 9 15 10 11 11 14 12
REMARK SMILES IDX 16 13 12 14 13 15 95 16 17 17 8 18 5 19 6 20 97 21 7 22
REMARK SMILES IDX 96 23 2 24 3 25 4 26 1 27 18 30 19 31 20 32 21 33 28 34
REMARK SMILES IDX 29 35 30 36 31 38 32 39 33 40 94 41 34 42 93 43 35 44 36 45
REMARK SMILES IDX 37 46 87 47 38 48 92 49 86 50 88 51 39 52 91 53 85 54 84 55
REMARK SMILES IDX 40 57 72 58 52 59 71 60 53 61 56 62 70 63 89 64 54 65 55 66
REMARK SMILES IDX 69 68 90 69 57 70 41 71 42 72 50 73 43 74 45 75 51 76 44 77
REMARK SMILES IDX 46 78 47 79 48 80 49 81 73 82 74 83 82 84 75 85 77 86 83 87
REMARK SMILES IDX 76 88 78 89 79 90 80 91 81 92 58 93 59 94 67 95 60 96 62 97
REMARK SMILES IDX 68 98 61 99 63 100 64 101 65 102 66 103
REMARK H PARENT 25 6 1 28 1 29 29 37 88 56 56 67
REMARK Flexibility Score: inf
ROOT
ATOM      1  C   UNL     1       5.995  11.428  -7.855  1.00  0.00     0.042 C 
ENDROOT
BRANCH   1   2
ATOM      2  C   UNL     1       4.621  11.109  -7.263  1.00  0.00     0.118 C 
BRANCH   2   3
ATOM      3  N   UNL     1       4.074   9.919  -7.881  1.00  0.00    -0.352 N 
ATOM      4  C   UNL     1       3.759   8.751  -7.272  1.00  0.00     0.251 C 
ATOM      5  O   UNL     1       3.992   7.691  -7.843  1.00  0.00    -0.270 OA
ATOM      6  H   UNL     1       3.914   9.964  -8.851  1.00  0.00     0.163 HD
BRANCH   4   7
ATOM      7  C   UNL     1       2.970   8.836  -6.009  1.00  0.00     0.067 C 
ATOM      8  C   UNL     1       2.360   4.885  -5.240  1.00  0.00     0.026 A 
ATOM      9  C   UNL     1       2.058   4.287  -6.492  1.00  0.00     0.033 A 
ATOM     10  C   UNL     1       2.343   6.291  -5.207  1.00  0.00     0.135 A 
ATOM     11  C   UNL     1       1.555   5.015  -7.567  1.00  0.00     0.042 A 
ATOM     12  C   UNL     1       1.707   6.994  -6.258  1.00  0.00     0.019 A 
ATOM     13  O   UNL     1       2.972   7.045  -4.223  1.00  0.00    -0.475 OA
ATOM     14  Cl  UNL     1       1.211   4.221  -9.051  1.00  0.00    -0.084 Cl
ATOM     15  C   UNL     1       1.293   6.362  -7.426  1.00  0.00     0.032 A 
ATOM     16  C   UNL     1       1.684   8.471  -6.181  1.00  0.00     0.025 C 
ATOM     17  C   UNL     1       3.641   8.278  -4.761  1.00  0.00     0.314 C 
BRANCH   8  18
ATOM     18  C   UNL     1       2.350   3.941  -4.086  1.00  0.00    -0.015 A 
ATOM     19  C   UNL     1       1.444   1.710  -2.594  1.00  0.00     0.082 A 
ATOM     20  C   UNL     1       2.526   1.570  -3.463  1.00  0.00     0.022 A 
ATOM     21  C   UNL     1       0.875   2.967  -2.384  1.00  0.00     0.022 A 
ATOM     22  C   UNL     1       2.991   2.684  -4.178  1.00  0.00     0.010 A 
ATOM     23  C   UNL     1       1.339   4.076  -3.112  1.00  0.00     0.010 A 
BRANCH  19  24
ATOM     24  S   UNL     1       0.685   0.269  -1.894  1.00  0.00     0.238 S 
ATOM     25  O   UNL     1       1.262  -0.918  -2.474  1.00  0.00    -0.207 OA
ATOM     26  O   UNL     1      -0.748   0.472  -1.829  1.00  0.00    -0.207 OA
BRANCH  24  27
ATOM     27  N   UNL     1       1.224   0.303  -0.306  1.00  0.00    -0.225 NA
ATOM     28  H   UNL     1       0.842  -0.495   0.200  1.00  0.00     0.137 HD
ATOM     29  H   UNL     1       0.915   1.168   0.139  1.00  0.00     0.137 HD
ENDBRANCH  24  27
ENDBRANCH  19  24
ENDBRANCH   8  18
BRANCH  17  30
ATOM     30  C   UNL     1       3.691   9.414  -3.710  1.00  0.00     0.429 C 
ATOM     31  F   UNL     1       2.937   9.146  -2.620  1.00  0.00    -0.167 F 
ATOM     32  F   UNL     1       4.956   9.643  -3.288  1.00  0.00    -0.167 F 
ATOM     33  F   UNL     1       3.237  10.599  -4.202  1.00  0.00    -0.167 F 
ENDBRANCH  17  30
ENDBRANCH   4   7
ENDBRANCH   2   3
ENDBRANCH   1   2
BRANCH   1  34
ATOM     34  C   UNL     1       6.002  11.663  -9.364  1.00  0.00     0.118 C 
BRANCH  34  35
ATOM     35  N   UNL     1       5.158  12.775  -9.776  1.00  0.00    -0.352 N 
ATOM     36  C   UNL     1       5.481  13.864 -10.550  1.00  0.00     0.251 C 
ATOM     37  H   UNL     1       4.228  12.743  -9.455  1.00  0.00     0.163 HD
ATOM     38  O   UNL     1       4.684  14.789 -10.672  1.00  0.00    -0.269 OA
BRANCH  36  39
ATOM     39  C   UNL     1       6.803  13.924 -11.209  1.00  0.00     0.039 A 
ATOM     40  C   UNL     1       7.557  15.095 -11.109  1.00  0.00     0.014 A 
ATOM     41  C   UNL     1       7.311  12.814 -11.890  1.00  0.00     0.014 A 
ATOM     42  C   UNL     1       8.851  15.127 -11.633  1.00  0.00     0.010 A 
ATOM     43  C   UNL     1       8.632  12.819 -12.327  1.00  0.00     0.010 A 
ATOM     44  C   UNL     1       9.416  13.976 -12.208  1.00  0.00    -0.014 A 
BRANCH  44  45
ATOM     45  C   UNL     1      10.826  13.961 -12.681  1.00  0.00     0.031 A 
ATOM     46  C   UNL     1      11.138  13.671 -14.126  1.00  0.00     0.074 A 
ATOM     47  C   UNL     1      11.830  14.125 -11.795  1.00  0.00     0.049 A 
ATOM     48  N   UNL     1      12.303  13.557 -14.710  1.00  0.00    -0.248 NA
ATOM     49  C   UNL     1       9.994  13.452 -15.028  1.00  0.00     0.031 C 
ATOM     50  C   UNL     1      11.663  14.332 -10.354  1.00  0.00     0.029 A 
ATOM     51  N   UNL     1      13.192  14.117 -11.970  1.00  0.00    -0.354 N 
ATOM     52  C   UNL     1      12.035  13.217 -16.031  1.00  0.00     0.074 A 
ATOM     53  C   UNL     1      10.598  13.106 -16.155  1.00  0.00     0.031 C 
ATOM     54  C   UNL     1      12.872  14.440  -9.781  1.00  0.00     0.029 A 
ATOM     55  C   UNL     1      13.901  14.271 -10.801  1.00  0.00     0.049 A 
ATOM     56  H   UNL     1      13.621  14.011 -12.850  1.00  0.00     0.167 HD
ATOM     57  C   UNL     1      12.902  13.041 -17.056  1.00  0.00     0.034 A 
ATOM     58  C   UNL     1      15.229  14.263 -10.572  1.00  0.00     0.034 A 
ATOM     59  C   UNL     1      14.326  13.190 -16.938  1.00  0.00     0.049 A 
ATOM     60  C   UNL     1      16.169  14.093 -11.736  1.00  0.00     0.074 A 
ATOM     61  C   UNL     1      15.282  13.121 -17.936  1.00  0.00     0.029 A 
ATOM     62  N   UNL     1      15.003  13.425 -15.752  1.00  0.00    -0.354 N 
ATOM     63  N   UNL     1      15.890  13.930 -13.006  1.00  0.00    -0.248 NA
ATOM     64  C   UNL     1      17.609  14.143 -11.441  1.00  0.00     0.031 C 
ATOM     65  C   UNL     1      16.540  13.274 -17.347  1.00  0.00     0.029 A 
ATOM     66  C   UNL     1      16.365  13.487 -15.989  1.00  0.00     0.049 A 
ATOM     67  H   UNL     1      14.578  13.531 -14.870  1.00  0.00     0.167 HD
ATOM     68  C   UNL     1      17.113  13.898 -13.665  1.00  0.00     0.074 A 
ATOM     69  C   UNL     1      18.136  14.081 -12.656  1.00  0.00     0.031 C 
ATOM     70  C   UNL     1      17.369  13.721 -14.984  1.00  0.00     0.034 A 
BRANCH  57  71
ATOM     71  C   UNL     1      12.332  12.706 -18.411  1.00  0.00     0.023 A 
ATOM     72  C   UNL     1      11.612  13.683 -19.129  1.00  0.00     0.012 A 
ATOM     73  C   UNL     1      12.572  11.451 -19.003  1.00  0.00     0.148 A 
ATOM     74  C   UNL     1      11.109  13.404 -20.399  1.00  0.00     0.002 A 
ATOM     75  C   UNL     1      12.111  11.198 -20.289  1.00  0.00     0.091 A 
ATOM     76  F   UNL     1      13.243  10.529 -18.298  1.00  0.00    -0.205 F 
ATOM     77  C   UNL     1      11.368  12.168 -20.983  1.00  0.00     0.022 A 
BRANCH  75  78
ATOM     78  S   UNL     1      12.464   9.670 -21.165  1.00  0.00     0.127 S 
ATOM     79  O   UNL     1      11.133   9.071 -21.260  1.00  0.00    -0.237 OA
ATOM     80  O   UNL     1      13.004  10.162 -22.432  1.00  0.00    -0.237 OA
ATOM     81  O   UNL     1      13.415   8.941 -20.338  1.00  0.00    -0.744 OA
ENDBRANCH  75  78
ENDBRANCH  57  71
BRANCH  58  82
ATOM     82  C   UNL     1      15.757  14.462  -9.191  1.00  0.00     0.023 A 
ATOM     83  C   UNL     1      16.465  15.639  -8.879  1.00  0.00     0.012 A 
ATOM     84  C   UNL     1      15.559  13.495  -8.188  1.00  0.00     0.148 A 
ATOM     85  C   UNL     1      17.005  15.829  -7.606  1.00  0.00     0.002 A 
ATOM     86  C   UNL     1      16.047  13.717  -6.905  1.00  0.00     0.091 A 
ATOM     87  F   UNL     1      14.891  12.377  -8.505  1.00  0.00    -0.205 F 
ATOM     88  C   UNL     1      16.789  14.873  -6.618  1.00  0.00     0.022 A 
BRANCH  86  89
ATOM     89  S   UNL     1      15.704  12.604  -5.538  1.00  0.00     0.127 S 
ATOM     90  O   UNL     1      17.020  12.021  -5.290  1.00  0.00    -0.237 OA
ATOM     91  O   UNL     1      15.234  13.530  -4.507  1.00  0.00    -0.237 OA
ATOM     92  O   UNL     1      14.686  11.684  -6.026  1.00  0.00    -0.744 OA
ENDBRANCH  86  89
ENDBRANCH  58  82
BRANCH  70  93
ATOM     93  C   UNL     1      18.807  13.770 -15.433  1.00  0.00     0.023 A 
ATOM     94  C   UNL     1      19.687  12.720 -15.106  1.00  0.00     0.012 A 
ATOM     95  C   UNL     1      19.263  14.829 -16.244  1.00  0.00     0.148 A 
ATOM     96  C   UNL     1      21.010  12.742 -15.547  1.00  0.00     0.002 A 
ATOM     97  C   UNL     1      20.565  14.816 -16.726  1.00  0.00     0.091 A 
ATOM     98  F   UNL     1      18.414  15.826 -16.530  1.00  0.00    -0.205 F 
ATOM     99  C   UNL     1      21.445  13.782 -16.366  1.00  0.00     0.022 A 
BRANCH  97 100
ATOM    100  S   UNL     1      21.183  16.057 -17.867  1.00  0.00     0.127 S 
ATOM    101  O   UNL     1      22.133  16.787 -17.029  1.00  0.00    -0.237 OA
ATOM    102  O   UNL     1      21.796  15.237 -18.913  1.00  0.00    -0.237 OA
ATOM    103  O   UNL     1      20.021  16.821 -18.301  1.00  0.00    -0.744 OA
ENDBRANCH  97 100
ENDBRANCH  70  93
ENDBRANCH  44  45
ENDBRANCH  36  39
ENDBRANCH  34  35
ENDBRANCH   1  34
TORSDOF 17
