REMARK SMILES Cc1ccc(O[C@H](C)C(=O)NNC(=O)[C@@H]2[C@@H](C(=O)NCCCNC(=O)c3ccc(-c4c5nc(c(-c6cccc(S(=O)(=O)[O-])c6F)c6ccc([nH]6)c(-c6cccc(S(=O)(=O)[O-])c6F)c6nc(c(-c7cccc(S(=O)(=O)[O-])c7F)c7ccc4[nH]7)C=C6)C=C5)cc3)[C@@H]3C=C[C@H]2C3)cc1C
REMARK SMILES IDX 20 1 19 2 17 3 18 4 16 6 15 7 92 8 89 9 91 10 93 11 90 12
REMARK SMILES IDX 13 13 12 14 14 16 11 17 9 18 10 19 7 21 8 22 6 23 5 24 1 25
REMARK SMILES IDX 2 26 3 27 95 28 4 29 94 30 96 31 21 32 22 33 23 34 24 35
REMARK SMILES IDX 25 37 26 38 27 39 88 40 28 41 87 42 29 43 30 44 31 45 81 46
REMARK SMILES IDX 32 47 86 48 80 49 82 50 33 51 85 52 79 53 78 54 34 56 66 57
REMARK SMILES IDX 46 58 65 59 47 60 50 61 64 62 83 63 48 64 49 65 63 67 84 68
REMARK SMILES IDX 51 69 35 70 36 71 44 72 37 73 39 74 45 75 38 76 40 77 41 78
REMARK SMILES IDX 42 79 43 80 67 81 68 82 76 83 69 84 71 85 77 86 70 87 72 88
REMARK SMILES IDX 73 89 74 90 75 91 52 92 53 93 61 94 54 95 56 96 62 97 55 98
REMARK SMILES IDX 57 99 58 100 59 101 60 102
REMARK H PARENT 19 5 12 15 11 20 23 36 82 55 50 66
REMARK Flexibility Score: inf
ROOT
ATOM      1  C   UNL     1       0.657   4.913   0.208  1.00  0.00     0.117 C 
ENDROOT
BRANCH   1   2
ATOM      2  N   UNL     1       0.457   5.552  -1.078  1.00  0.00    -0.356 N 
ATOM      3  C   UNL     1      -0.654   5.623  -1.857  1.00  0.00     0.224 C 
ATOM      4  O   UNL     1      -0.566   6.290  -2.891  1.00  0.00    -0.275 OA
ATOM      5  H   UNL     1       1.251   6.005  -1.444  1.00  0.00     0.163 HD
BRANCH   3   6
ATOM      6  C   UNL     1      -1.946   4.921  -1.445  1.00  0.00     0.098 C 
ATOM      7  C   UNL     1      -1.993   3.388  -1.846  1.00  0.00     0.100 C 
ATOM      8  C   UNL     1      -3.205   3.354  -2.819  1.00  0.00     0.025 C 
ATOM      9  C   UNL     1      -3.141   5.508  -2.249  1.00  0.00     0.025 C 
ATOM     10  C   UNL     1      -4.468   3.638  -2.044  1.00  0.00    -0.027 C 
ATOM     11  C   UNL     1      -3.076   4.695  -3.542  1.00  0.00     0.017 C 
ATOM     12  C   UNL     1      -4.422   4.929  -1.685  1.00  0.00    -0.027 C 
BRANCH   7  13
ATOM     13  C   UNL     1      -2.065   2.494  -0.597  1.00  0.00     0.242 C 
ATOM     14  N   UNL     1      -2.421   1.175  -0.647  1.00  0.00    -0.267 N 
ATOM     15  H   UNL     1      -2.133   0.607   0.104  1.00  0.00     0.191 HD
ATOM     16  O   UNL     1      -1.684   2.910   0.503  1.00  0.00    -0.273 OA
BRANCH  14  17
ATOM     17  N   UNL     1      -3.145   0.561  -1.652  1.00  0.00    -0.264 N 
ATOM     18  C   UNL     1      -4.116  -0.386  -1.416  1.00  0.00     0.279 C 
ATOM     19  O   UNL     1      -4.930  -0.633  -2.311  1.00  0.00    -0.269 OA
ATOM     20  H   UNL     1      -2.956   0.813  -2.585  1.00  0.00     0.191 HD
BRANCH  18  21
ATOM     21  C   UNL     1      -4.101  -1.185  -0.096  1.00  0.00     0.260 C 
ATOM     22  C   UNL     1      -2.808  -2.010  -0.054  1.00  0.00     0.064 C 
BRANCH  21  23
ATOM     23  O   UNL     1      -4.222  -0.325   1.041  1.00  0.00    -0.481 OA
BRANCH  23  24
ATOM     24  C   UNL     1      -4.503  -0.895   2.257  1.00  0.00     0.120 A 
ATOM     25  C   UNL     1      -5.128  -2.418   6.268  1.00  0.00     0.044 C 
ATOM     26  C   UNL     1      -4.939  -1.844   4.891  1.00  0.00    -0.048 A 
ATOM     27  C   UNL     1      -4.973  -2.711   3.791  1.00  0.00     0.007 A 
ATOM     28  C   UNL     1      -4.714  -0.473   4.667  1.00  0.00    -0.045 A 
ATOM     29  C   UNL     1      -4.768  -2.242   2.490  1.00  0.00     0.047 A 
ATOM     30  C   UNL     1      -4.497  -0.019   3.348  1.00  0.00     0.050 A 
ATOM     31  C   UNL     1      -4.683   0.540   5.778  1.00  0.00     0.045 C 
ENDBRANCH  23  24
ENDBRANCH  21  23
ENDBRANCH  18  21
ENDBRANCH  14  17
ENDBRANCH   7  13
ENDBRANCH   3   6
ENDBRANCH   1   2
BRANCH   1  32
ATOM     32  C   UNL     1       1.372   3.573   0.070  1.00  0.00     0.042 C 
BRANCH  32  33
ATOM     33  C   UNL     1       2.842   3.701  -0.326  1.00  0.00     0.118 C 
BRANCH  33  34
ATOM     34  N   UNL     1       3.641   4.334   0.714  1.00  0.00    -0.352 N 
ATOM     35  C   UNL     1       4.713   3.860   1.425  1.00  0.00     0.251 C 
ATOM     36  H   UNL     1       3.367   5.252   0.944  1.00  0.00     0.163 HD
ATOM     37  O   UNL     1       5.094   4.482   2.415  1.00  0.00    -0.269 OA
BRANCH  35  38
ATOM     38  C   UNL     1       5.414   2.619   1.022  1.00  0.00     0.039 A 
ATOM     39  C   UNL     1       5.879   1.759   2.023  1.00  0.00     0.014 A 
ATOM     40  C   UNL     1       5.677   2.329  -0.319  1.00  0.00     0.014 A 
ATOM     41  C   UNL     1       6.569   0.595   1.677  1.00  0.00     0.010 A 
ATOM     42  C   UNL     1       6.302   1.132  -0.666  1.00  0.00     0.010 A 
ATOM     43  C   UNL     1       6.768   0.260   0.327  1.00  0.00    -0.014 A 
BRANCH  43  44
ATOM     44  C   UNL     1       7.450  -1.005  -0.049  1.00  0.00     0.031 A 
ATOM     45  C   UNL     1       8.767  -0.985  -0.778  1.00  0.00     0.074 A 
ATOM     46  C   UNL     1       6.843  -2.181   0.205  1.00  0.00     0.049 A 
ATOM     47  N   UNL     1       9.506  -1.991  -1.169  1.00  0.00    -0.248 NA
ATOM     48  C   UNL     1       9.310   0.333  -1.140  1.00  0.00     0.031 C 
ATOM     49  C   UNL     1       5.518  -2.331   0.810  1.00  0.00     0.029 A 
ATOM     50  N   UNL     1       7.249  -3.470  -0.032  1.00  0.00    -0.354 N 
ATOM     51  C   UNL     1      10.581  -1.433  -1.849  1.00  0.00     0.074 A 
ATOM     52  C   UNL     1      10.379   0.000  -1.850  1.00  0.00     0.031 C 
ATOM     53  C   UNL     1       5.224  -3.636   0.904  1.00  0.00     0.029 A 
ATOM     54  C   UNL     1       6.330  -4.416   0.356  1.00  0.00     0.049 A 
ATOM     55  H   UNL     1       8.115  -3.696  -0.441  1.00  0.00     0.167 HD
ATOM     56  C   UNL     1      11.657  -2.051  -2.394  1.00  0.00     0.034 A 
ATOM     57  C   UNL     1       6.376  -5.761   0.290  1.00  0.00     0.034 A 
ATOM     58  C   UNL     1      11.880  -3.471  -2.345  1.00  0.00     0.049 A 
ATOM     59  C   UNL     1       7.621  -6.424  -0.231  1.00  0.00     0.074 A 
ATOM     60  C   UNL     1      12.984  -4.186  -2.774  1.00  0.00     0.029 A 
ATOM     61  N   UNL     1      10.979  -4.395  -1.839  1.00  0.00    -0.354 N 
ATOM     62  N   UNL     1       8.713  -5.871  -0.701  1.00  0.00    -0.248 NA
ATOM     63  C   UNL     1       7.662  -7.893  -0.187  1.00  0.00     0.031 C 
ATOM     64  C   UNL     1      12.746  -5.545  -2.535  1.00  0.00     0.029 A 
ATOM     65  C   UNL     1      11.498  -5.675  -1.947  1.00  0.00     0.049 A 
ATOM     66  H   UNL     1      10.098  -4.174  -1.459  1.00  0.00     0.167 HD
ATOM     67  C   UNL     1       9.581  -6.919  -0.985  1.00  0.00     0.074 A 
ATOM     68  C   UNL     1       8.896  -8.140  -0.607  1.00  0.00     0.031 C 
ATOM     69  C   UNL     1      10.824  -6.877  -1.526  1.00  0.00     0.034 A 
BRANCH  56  70
ATOM     70  C   UNL     1      12.712  -1.179  -3.028  1.00  0.00     0.023 A 
ATOM     71  C   UNL     1      13.539  -0.387  -2.204  1.00  0.00     0.012 A 
ATOM     72  C   UNL     1      12.913  -1.167  -4.421  1.00  0.00     0.148 A 
ATOM     73  C   UNL     1      14.521   0.433  -2.758  1.00  0.00     0.002 A 
ATOM     74  C   UNL     1      13.922  -0.377  -4.964  1.00  0.00     0.091 A 
ATOM     75  F   UNL     1      12.103  -1.904  -5.194  1.00  0.00    -0.205 F 
ATOM     76  C   UNL     1      14.718   0.431  -4.136  1.00  0.00     0.022 A 
BRANCH  74  77
ATOM     77  S   UNL     1      14.298  -0.374  -6.721  1.00  0.00     0.127 S 
ATOM     78  O   UNL     1      13.645   0.857  -7.162  1.00  0.00    -0.237 OA
ATOM     79  O   UNL     1      15.760  -0.325  -6.730  1.00  0.00    -0.237 OA
ATOM     80  O   UNL     1      13.735  -1.612  -7.245  1.00  0.00    -0.744 OA
ENDBRANCH  74  77
ENDBRANCH  56  70
BRANCH  57  81
ATOM     81  C   UNL     1       5.240  -6.556   0.835  1.00  0.00     0.023 A 
ATOM     82  C   UNL     1       5.400  -7.237   2.057  1.00  0.00     0.012 A 
ATOM     83  C   UNL     1       3.984  -6.574   0.196  1.00  0.00     0.148 A 
ATOM     84  C   UNL     1       4.335  -7.937   2.625  1.00  0.00     0.002 A 
ATOM     85  C   UNL     1       2.913  -7.227   0.795  1.00  0.00     0.091 A 
ATOM     86  F   UNL     1       3.856  -5.929  -0.972  1.00  0.00    -0.205 F 
ATOM     87  C   UNL     1       3.090  -7.921   2.002  1.00  0.00     0.022 A 
BRANCH  85  88
ATOM     88  S   UNL     1       1.242  -7.135   0.140  1.00  0.00     0.127 S 
ATOM     89  O   UNL     1       1.051  -8.485  -0.385  1.00  0.00    -0.237 OA
ATOM     90  O   UNL     1       0.461  -6.823   1.337  1.00  0.00    -0.237 OA
ATOM     91  O   UNL     1       1.267  -6.066  -0.850  1.00  0.00    -0.744 OA
ENDBRANCH  85  88
ENDBRANCH  57  81
BRANCH  69  92
ATOM     92  C   UNL     1      11.533  -8.189  -1.739  1.00  0.00     0.023 A 
ATOM     93  C   UNL     1      11.118  -9.041  -2.781  1.00  0.00     0.012 A 
ATOM     94  C   UNL     1      12.644  -8.549  -0.953  1.00  0.00     0.148 A 
ATOM     95  C   UNL     1      11.777 -10.247  -3.017  1.00  0.00     0.002 A 
ATOM     96  C   UNL     1      13.323  -9.733  -1.221  1.00  0.00     0.091 A 
ATOM     97  F   UNL     1      13.012  -7.739   0.051  1.00  0.00    -0.205 F 
ATOM     98  C   UNL     1      12.885 -10.587  -2.246  1.00  0.00     0.022 A 
BRANCH  96  99
ATOM     99  S   UNL     1      14.813 -10.198  -0.330  1.00  0.00     0.127 S 
ATOM    100  O   UNL     1      14.292 -11.155   0.644  1.00  0.00    -0.237 OA
ATOM    101  O   UNL     1      15.641 -10.789  -1.383  1.00  0.00    -0.237 OA
ATOM    102  O   UNL     1      15.343  -8.957   0.221  1.00  0.00    -0.744 OA
ENDBRANCH  96  99
ENDBRANCH  69  92
ENDBRANCH  43  44
ENDBRANCH  35  38
ENDBRANCH  33  34
ENDBRANCH  32  33
ENDBRANCH   1  32
TORSDOF 18
