REMARK SMILES Cc1c([C@H]2[C@H](C(=O)NCCCNC(=O)c3ccc(-c4c5nc(c(-c6cccc(S(=O)(=O)[O-])c6F)c6ccc([nH]6)c(-c6cccc(S(=O)(=O)[O-])c6F)c6nc(c(-c7cccc(S(=O)(=O)[O-])c7F)c7ccc4[nH]7)C=C6)C=C5)cc3)OCC(=O)N2CC(C)C)cnn1C
REMARK SMILES IDX 10 1 9 2 8 3 6 4 7 5 5 7 4 8 82 9 78 10 80 11 79 12 81 13
REMARK SMILES IDX 3 14 1 15 2 16 89 17 87 18 88 19 90 20 83 21 84 22 85 23
REMARK SMILES IDX 86 24 11 25 12 26 13 27 14 29 15 30 16 31 77 32 17 33 76 34
REMARK SMILES IDX 18 35 19 36 20 37 70 38 21 39 75 40 69 41 71 42 22 43 74 44
REMARK SMILES IDX 68 45 67 46 23 48 55 49 35 50 54 51 36 52 39 53 53 54 72 55
REMARK SMILES IDX 37 56 38 57 52 59 73 60 40 61 24 62 25 63 33 64 26 65 28 66
REMARK SMILES IDX 34 67 27 68 29 69 30 70 31 71 32 72 56 73 57 74 65 75 58 76
REMARK SMILES IDX 60 77 66 78 59 79 61 80 62 81 63 82 64 83 41 84 42 85 50 86
REMARK SMILES IDX 43 87 45 88 51 89 44 90 46 91 47 92 48 93 49 94
REMARK H PARENT 8 6 12 28 71 47 39 58
REMARK Flexibility Score: inf
ROOT
ATOM      1  C   UNL     1      -3.784  -2.183   2.252  1.00  0.00     0.042 C 
ENDROOT
BRANCH   1   2
ATOM      2  C   UNL     1      -3.609  -3.572   1.675  1.00  0.00     0.117 C 
BRANCH   2   3
ATOM      3  N   UNL     1      -3.958  -3.635   0.279  1.00  0.00    -0.354 N 
ATOM      4  C   UNL     1      -3.228  -4.067  -0.779  1.00  0.00     0.251 C 
ATOM      5  O   UNL     1      -3.793  -4.049  -1.879  1.00  0.00    -0.272 OA
ATOM      6  H   UNL     1      -4.863  -3.315   0.060  1.00  0.00     0.163 HD
BRANCH   4   7
ATOM      7  C   UNL     1      -1.759  -4.538  -0.661  1.00  0.00     0.234 C 
ATOM      8  C   UNL     1      -0.778  -3.397  -0.245  1.00  0.00     0.157 C 
ATOM      9  N   UNL     1      -0.349  -3.444   1.165  1.00  0.00    -0.330 N 
ATOM     10  O   UNL     1      -1.480  -5.815  -0.108  1.00  0.00    -0.356 OA
ATOM     11  C   UNL     1      -0.273  -4.653   1.850  1.00  0.00     0.249 C 
ATOM     12  C   UNL     1      -1.058  -5.824   1.231  1.00  0.00     0.261 C 
ATOM     13  O   UNL     1       0.227  -4.761   2.970  1.00  0.00    -0.272 OA
BRANCH   8  14
ATOM     14  C   UNL     1       0.415  -3.439  -1.167  1.00  0.00     0.019 A 
ATOM     15  C   UNL     1      -0.640  -2.440  -3.338  1.00  0.00     0.067 C 
ATOM     16  C   UNL     1       0.430  -3.054  -2.504  1.00  0.00     0.040 A 
ATOM     17  N   UNL     1       1.653  -3.441  -2.986  1.00  0.00    -0.273 N 
ATOM     18  C   UNL     1       1.710  -3.956  -0.941  1.00  0.00     0.141 A 
ATOM     19  N   UNL     1       2.461  -3.955  -2.043  1.00  0.00    -0.181 NA
ATOM     20  C   UNL     1       2.077  -3.469  -4.367  1.00  0.00     0.174 C 
ENDBRANCH   8  14
BRANCH   9  21
ATOM     21  C   UNL     1      -0.187  -2.196   1.931  1.00  0.00     0.123 C 
BRANCH  21  22
ATOM     22  C   UNL     1       1.248  -1.674   2.106  1.00  0.00     0.002 C 
ATOM     23  C   UNL     1       1.677  -0.792   0.934  1.00  0.00     0.009 C 
ATOM     24  C   UNL     1       1.334  -0.835   3.391  1.00  0.00     0.009 C 
ENDBRANCH  21  22
ENDBRANCH   9  21
ENDBRANCH   4   7
ENDBRANCH   2   3
ENDBRANCH   1   2
BRANCH   1  25
ATOM     25  C   UNL     1      -5.231  -1.886   2.597  1.00  0.00     0.118 C 
BRANCH  25  26
ATOM     26  N   UNL     1      -5.752  -2.811   3.600  1.00  0.00    -0.352 N 
ATOM     27  C   UNL     1      -6.191  -2.572   4.879  1.00  0.00     0.251 C 
ATOM     28  H   UNL     1      -5.796  -3.752   3.314  1.00  0.00     0.163 HD
ATOM     29  O   UNL     1      -6.364  -3.506   5.649  1.00  0.00    -0.269 OA
BRANCH  27  30
ATOM     30  C   UNL     1      -6.443  -1.183   5.308  1.00  0.00     0.039 A 
ATOM     31  C   UNL     1      -6.081  -0.784   6.595  1.00  0.00     0.014 A 
ATOM     32  C   UNL     1      -7.024  -0.274   4.422  1.00  0.00     0.014 A 
ATOM     33  C   UNL     1      -6.244   0.550   6.966  1.00  0.00     0.010 A 
ATOM     34  C   UNL     1      -7.061   1.071   4.746  1.00  0.00     0.010 A 
ATOM     35  C   UNL     1      -6.697   1.495   6.030  1.00  0.00    -0.014 A 
BRANCH  35  36
ATOM     36  C   UNL     1      -6.820   2.933   6.368  1.00  0.00     0.031 A 
ATOM     37  C   UNL     1      -8.156   3.617   6.240  1.00  0.00     0.074 A 
ATOM     38  C   UNL     1      -5.718   3.637   6.690  1.00  0.00     0.049 A 
ATOM     39  N   UNL     1      -8.453   4.879   6.402  1.00  0.00    -0.248 NA
ATOM     40  C   UNL     1      -9.303   2.783   5.835  1.00  0.00     0.031 C 
ATOM     41  C   UNL     1      -4.355   3.100   6.753  1.00  0.00     0.029 A 
ATOM     42  N   UNL     1      -5.564   4.964   6.999  1.00  0.00    -0.354 N 
ATOM     43  C   UNL     1      -9.799   4.996   6.077  1.00  0.00     0.074 A 
ATOM     44  C   UNL     1     -10.252   3.690   5.661  1.00  0.00     0.031 C 
ATOM     45  C   UNL     1      -3.509   4.084   7.096  1.00  0.00     0.029 A 
ATOM     46  C   UNL     1      -4.259   5.327   7.239  1.00  0.00     0.049 A 
ATOM     47  H   UNL     1      -6.316   5.597   7.045  1.00  0.00     0.167 HD
ATOM     48  C   UNL     1     -10.597   6.086   6.154  1.00  0.00     0.034 A 
ATOM     49  C   UNL     1      -3.728   6.529   7.533  1.00  0.00     0.034 A 
ATOM     50  C   UNL     1     -10.150   7.367   6.627  1.00  0.00     0.049 A 
ATOM     51  C   UNL     1      -4.648   7.712   7.666  1.00  0.00     0.074 A 
ATOM     52  C   UNL     1     -10.896   8.511   6.840  1.00  0.00     0.029 A 
ATOM     53  N   UNL     1      -8.839   7.673   6.955  1.00  0.00    -0.354 N 
ATOM     54  N   UNL     1      -5.948   7.767   7.508  1.00  0.00    -0.248 NA
ATOM     55  C   UNL     1      -4.034   8.990   8.053  1.00  0.00     0.031 C 
ATOM     56  C   UNL     1     -10.029   9.519   7.271  1.00  0.00     0.029 A 
ATOM     57  C   UNL     1      -8.751   8.992   7.361  1.00  0.00     0.049 A 
ATOM     58  H   UNL     1      -8.083   7.044   6.907  1.00  0.00     0.167 HD
ATOM     59  C   UNL     1      -6.314   9.072   7.816  1.00  0.00     0.074 A 
ATOM     60  C   UNL     1      -5.099   9.768   8.189  1.00  0.00     0.031 C 
ATOM     61  C   UNL     1      -7.540   9.649   7.780  1.00  0.00     0.034 A 
BRANCH  48  62
ATOM     62  C   UNL     1     -12.044   5.928   5.770  1.00  0.00     0.023 A 
ATOM     63  C   UNL     1     -12.909   5.175   6.592  1.00  0.00     0.012 A 
ATOM     64  C   UNL     1     -12.564   6.574   4.631  1.00  0.00     0.148 A 
ATOM     65  C   UNL     1     -14.258   5.039   6.270  1.00  0.00     0.002 A 
ATOM     66  C   UNL     1     -13.920   6.475   4.344  1.00  0.00     0.091 A 
ATOM     67  F   UNL     1     -11.723   7.265   3.850  1.00  0.00    -0.205 F 
ATOM     68  C   UNL     1     -14.765   5.699   5.154  1.00  0.00     0.022 A 
BRANCH  66  69
ATOM     69  S   UNL     1     -14.689   7.353   2.979  1.00  0.00     0.127 S 
ATOM     70  O   UNL     1     -15.067   6.250   2.095  1.00  0.00    -0.237 OA
ATOM     71  O   UNL     1     -15.812   8.018   3.638  1.00  0.00    -0.237 OA
ATOM     72  O   UNL     1     -13.671   8.251   2.452  1.00  0.00    -0.744 OA
ENDBRANCH  66  69
ENDBRANCH  48  62
BRANCH  49  73
ATOM     73  C   UNL     1      -2.264   6.662   7.779  1.00  0.00     0.023 A 
ATOM     74  C   UNL     1      -1.802   6.947   9.079  1.00  0.00     0.012 A 
ATOM     75  C   UNL     1      -1.328   6.492   6.741  1.00  0.00     0.148 A 
ATOM     76  C   UNL     1      -0.439   7.102   9.333  1.00  0.00     0.002 A 
ATOM     77  C   UNL     1       0.031   6.590   7.012  1.00  0.00     0.091 A 
ATOM     78  F   UNL     1      -1.787   6.229   5.510  1.00  0.00    -0.205 F 
ATOM     79  C   UNL     1       0.478   6.914   8.302  1.00  0.00     0.022 A 
BRANCH  77  80
ATOM     80  S   UNL     1       1.284   6.232   5.775  1.00  0.00     0.127 S 
ATOM     81  O   UNL     1       1.820   7.563   5.499  1.00  0.00    -0.237 OA
ATOM     82  O   UNL     1       2.186   5.343   6.507  1.00  0.00    -0.237 OA
ATOM     83  O   UNL     1       0.577   5.592   4.674  1.00  0.00    -0.744 OA
ENDBRANCH  77  80
ENDBRANCH  49  73
BRANCH  61  84
ATOM     84  C   UNL     1      -7.646  11.090   8.200  1.00  0.00     0.023 A 
ATOM     85  C   UNL     1      -7.139  12.106   7.367  1.00  0.00     0.012 A 
ATOM     86  C   UNL     1      -8.320  11.437   9.387  1.00  0.00     0.148 A 
ATOM     87  C   UNL     1      -7.271  13.446   7.727  1.00  0.00     0.002 A 
ATOM     88  C   UNL     1      -8.496  12.776   9.712  1.00  0.00     0.091 A 
ATOM     89  F   UNL     1      -8.780  10.453  10.173  1.00  0.00    -0.205 F 
ATOM     90  C   UNL     1      -7.959  13.781   8.891  1.00  0.00     0.022 A 
BRANCH  88  91
ATOM     91  S   UNL     1      -9.457  13.302  11.134  1.00  0.00     0.127 S 
ATOM     92  O   UNL     1      -8.416  13.816  12.023  1.00  0.00    -0.237 OA
ATOM     93  O   UNL     1     -10.327  14.327  10.557  1.00  0.00    -0.237 OA
ATOM     94  O   UNL     1     -10.154  12.116  11.611  1.00  0.00    -0.744 OA
ENDBRANCH  88  91
ENDBRANCH  61  84
ENDBRANCH  35  36
ENDBRANCH  27  30
ENDBRANCH  25  26
ENDBRANCH   1  25
TORSDOF 16
