REMARK SMILES CSCc1ccc(C(=O)N[C@](C)(C(=O)NCCCNC(=O)c2ccc(-c3c4nc(c(-c5cccc(S(=O)(=O)[O-])c5F)c5ccc([nH]5)c(-c5cccc(S(=O)(=O)[O-])c5F)c5nc(c(-c6cccc(S(=O)(=O)[O-])c6F)c6ccc3[nH]6)C=C5)C=C4)cc2)C(F)(F)F)o1
REMARK SMILES IDX 16 1 15 2 13 3 14 4 11 6 12 7 10 8 8 9 9 10 7 12 4 13 5 14
REMARK SMILES IDX 89 15 6 16 3 17 2 18 1 19 85 20 86 21 87 22 88 23 17 24
REMARK SMILES IDX 18 25 19 26 20 27 21 29 22 30 23 31 84 32 24 33 83 34 25 35
REMARK SMILES IDX 26 36 27 37 77 38 28 39 82 40 76 41 78 42 29 43 81 44 75 45
REMARK SMILES IDX 74 46 30 48 62 49 42 50 61 51 43 52 46 53 60 54 79 55 44 56
REMARK SMILES IDX 45 57 59 59 80 60 47 61 31 62 32 63 40 64 33 65 35 66 41 67
REMARK SMILES IDX 34 68 36 69 37 70 38 71 39 72 63 73 64 74 72 75 65 76 67 77
REMARK SMILES IDX 73 78 66 79 68 80 69 81 70 82 71 83 48 84 49 85 57 86 50 87
REMARK SMILES IDX 52 88 58 89 51 90 53 91 54 92 55 93 56 94
REMARK H PARENT 15 5 10 11 19 28 78 47 46 58
REMARK Flexibility Score: inf
ROOT
ATOM      1  C   UNL     1      -1.734  -4.042   8.264  1.00  0.00     0.117 C 
ENDROOT
BRANCH   1   2
ATOM      2  N   UNL     1      -2.088  -3.940   6.854  1.00  0.00    -0.354 N 
ATOM      3  C   UNL     1      -1.714  -2.997   5.931  1.00  0.00     0.254 C 
ATOM      4  O   UNL     1      -2.533  -2.747   5.045  1.00  0.00    -0.272 OA
ATOM      5  H   UNL     1      -2.680  -4.650   6.516  1.00  0.00     0.163 HD
BRANCH   3   6
ATOM      6  C   UNL     1      -0.381  -2.244   6.069  1.00  0.00     0.212 C 
ATOM      7  C   UNL     1      -0.617  -1.177   7.175  1.00  0.00     0.056 C 
BRANCH   6   8
ATOM      8  N   UNL     1       0.686  -3.215   6.493  1.00  0.00    -0.328 N 
ATOM      9  C   UNL     1       1.261  -4.317   5.888  1.00  0.00     0.288 C 
ATOM     10  O   UNL     1       2.252  -4.748   6.493  1.00  0.00    -0.266 OA
ATOM     11  H   UNL     1       1.052  -3.026   7.387  1.00  0.00     0.165 HD
BRANCH   9  12
ATOM     12  C   UNL     1       0.755  -4.963   4.680  1.00  0.00     0.191 A 
ATOM     13  C   UNL     1       0.911  -6.437   3.012  1.00  0.00     0.114 A 
ATOM     14  C   UNL     1      -0.309  -5.829   2.875  1.00  0.00     0.047 A 
ATOM     15  O   UNL     1       1.542  -5.961   4.126  1.00  0.00    -0.455 OA
ATOM     16  C   UNL     1      -0.369  -4.850   3.882  1.00  0.00     0.056 A 
BRANCH  13  17
ATOM     17  C   UNL     1       1.598  -7.468   2.198  1.00  0.00     0.144 C 
BRANCH  17  18
ATOM     18  S   UNL     1       2.316  -6.802   0.650  1.00  0.00    -0.157 SA
ATOM     19  C   UNL     1       0.860  -6.020  -0.102  1.00  0.00     0.085 C 
ENDBRANCH  17  18
ENDBRANCH  13  17
ENDBRANCH   9  12
ENDBRANCH   6   8
BRANCH   6  20
ATOM     20  C   UNL     1      -0.013  -1.473   4.778  1.00  0.00     0.420 C 
ATOM     21  F   UNL     1      -1.009  -0.693   4.314  1.00  0.00    -0.168 F 
ATOM     22  F   UNL     1       1.038  -0.642   5.032  1.00  0.00    -0.168 F 
ATOM     23  F   UNL     1       0.392  -2.268   3.767  1.00  0.00    -0.168 F 
ENDBRANCH   6  20
ENDBRANCH   3   6
ENDBRANCH   1   2
BRANCH   1  24
ATOM     24  C   UNL     1      -2.860  -3.478   9.130  1.00  0.00     0.042 C 
BRANCH  24  25
ATOM     25  C   UNL     1      -4.129  -4.325   9.110  1.00  0.00     0.118 C 
BRANCH  25  26
ATOM     26  N   UNL     1      -3.944  -5.607   9.771  1.00  0.00    -0.352 N 
ATOM     27  C   UNL     1      -4.613  -6.141  10.844  1.00  0.00     0.251 C 
ATOM     28  H   UNL     1      -3.234  -6.176   9.394  1.00  0.00     0.163 HD
ATOM     29  O   UNL     1      -4.169  -7.153  11.386  1.00  0.00    -0.269 OA
BRANCH  27  30
ATOM     30  C   UNL     1      -5.844  -5.503  11.359  1.00  0.00     0.039 A 
ATOM     31  C   UNL     1      -6.022  -5.407  12.742  1.00  0.00     0.014 A 
ATOM     32  C   UNL     1      -6.829  -5.019  10.493  1.00  0.00     0.014 A 
ATOM     33  C   UNL     1      -7.159  -4.776  13.253  1.00  0.00     0.010 A 
ATOM     34  C   UNL     1      -7.922  -4.320  11.004  1.00  0.00     0.010 A 
ATOM     35  C   UNL     1      -8.103  -4.196  12.389  1.00  0.00    -0.014 A 
BRANCH  35  36
ATOM     36  C   UNL     1      -9.264  -3.438  12.924  1.00  0.00     0.031 A 
ATOM     37  C   UNL     1     -10.673  -3.891  12.646  1.00  0.00     0.074 A 
ATOM     38  C   UNL     1      -9.050  -2.291  13.600  1.00  0.00     0.049 A 
ATOM     39  N   UNL     1     -11.802  -3.337  13.009  1.00  0.00    -0.248 NA
ATOM     40  C   UNL     1     -10.840  -5.109  11.837  1.00  0.00     0.031 C 
ATOM     41  C   UNL     1      -7.737  -1.696  13.859  1.00  0.00     0.029 A 
ATOM     42  N   UNL     1      -9.932  -1.404  14.167  1.00  0.00    -0.354 N 
ATOM     43  C   UNL     1     -12.807  -4.111  12.442  1.00  0.00     0.074 A 
ATOM     44  C   UNL     1     -12.157  -5.161  11.690  1.00  0.00     0.031 C 
ATOM     45  C   UNL     1      -7.898  -0.546  14.533  1.00  0.00     0.029 A 
ATOM     46  C   UNL     1      -9.324  -0.303  14.725  1.00  0.00     0.049 A 
ATOM     47  H   UNL     1     -10.906  -1.543  14.174  1.00  0.00     0.167 HD
ATOM     48  C   UNL     1     -14.150  -3.974  12.556  1.00  0.00     0.034 A 
ATOM     49  C   UNL     1      -9.853   0.789  15.312  1.00  0.00     0.034 A 
ATOM     50  C   UNL     1     -14.795  -2.953  13.338  1.00  0.00     0.049 A 
ATOM     51  C   UNL     1     -11.346   0.889  15.465  1.00  0.00     0.074 A 
ATOM     52  C   UNL     1     -16.145  -2.798  13.602  1.00  0.00     0.029 A 
ATOM     53  N   UNL     1     -14.143  -1.903  13.964  1.00  0.00    -0.354 N 
ATOM     54  N   UNL     1     -12.272   0.047  15.077  1.00  0.00    -0.248 NA
ATOM     55  C   UNL     1     -11.865   2.069  16.172  1.00  0.00     0.031 C 
ATOM     56  C   UNL     1     -16.313  -1.632  14.355  1.00  0.00     0.029 A 
ATOM     57  C   UNL     1     -15.064  -1.084  14.597  1.00  0.00     0.049 A 
ATOM     58  H   UNL     1     -13.169  -1.760  13.961  1.00  0.00     0.167 HD
ATOM     59  C   UNL     1     -13.479   0.579  15.518  1.00  0.00     0.074 A 
ATOM     60  C   UNL     1     -13.162   1.800  16.229  1.00  0.00     0.031 C 
ATOM     61  C   UNL     1     -14.736   0.106  15.339  1.00  0.00     0.034 A 
BRANCH  48  62
ATOM     62  C   UNL     1     -15.026  -4.975  11.847  1.00  0.00     0.023 A 
ATOM     63  C   UNL     1     -15.102  -6.300  12.322  1.00  0.00     0.012 A 
ATOM     64  C   UNL     1     -15.839  -4.581  10.766  1.00  0.00     0.148 A 
ATOM     65  C   UNL     1     -15.949  -7.225  11.713  1.00  0.00     0.002 A 
ATOM     66  C   UNL     1     -16.716  -5.495  10.195  1.00  0.00     0.091 A 
ATOM     67  F   UNL     1     -15.739  -3.322  10.317  1.00  0.00    -0.205 F 
ATOM     68  C   UNL     1     -16.764  -6.820  10.660  1.00  0.00     0.022 A 
BRANCH  66  69
ATOM     69  S   UNL     1     -17.867  -5.052   8.889  1.00  0.00     0.127 S 
ATOM     70  O   UNL     1     -17.330  -5.803   7.756  1.00  0.00    -0.237 OA
ATOM     71  O   UNL     1     -19.134  -5.561   9.413  1.00  0.00    -0.237 OA
ATOM     72  O   UNL     1     -17.797  -3.603   8.765  1.00  0.00    -0.744 OA
ENDBRANCH  66  69
ENDBRANCH  48  62
BRANCH  49  73
ATOM     73  C   UNL     1      -8.959   1.863  15.833  1.00  0.00     0.023 A 
ATOM     74  C   UNL     1      -8.852   2.071  17.222  1.00  0.00     0.012 A 
ATOM     75  C   UNL     1      -8.203   2.667  14.959  1.00  0.00     0.148 A 
ATOM     76  C   UNL     1      -8.041   3.088  17.728  1.00  0.00     0.002 A 
ATOM     77  C   UNL     1      -7.350   3.636  15.472  1.00  0.00     0.091 A 
ATOM     78  F   UNL     1      -8.326   2.460  13.640  1.00  0.00    -0.205 F 
ATOM     79  C   UNL     1      -7.283   3.863  16.855  1.00  0.00     0.022 A 
BRANCH  77  80
ATOM     80  S   UNL     1      -6.234   4.581  14.429  1.00  0.00     0.127 S 
ATOM     81  O   UNL     1      -6.839   5.909  14.469  1.00  0.00    -0.237 OA
ATOM     82  O   UNL     1      -4.967   4.456  15.152  1.00  0.00    -0.237 OA
ATOM     83  O   UNL     1      -6.249   3.915  13.133  1.00  0.00    -0.744 OA
ENDBRANCH  77  80
ENDBRANCH  49  73
BRANCH  61  84
ATOM     84  C   UNL     1     -15.871   0.887  15.950  1.00  0.00     0.023 A 
ATOM     85  C   UNL     1     -16.236   2.138  15.413  1.00  0.00     0.012 A 
ATOM     86  C   UNL     1     -16.615   0.352  17.020  1.00  0.00     0.148 A 
ATOM     87  C   UNL     1     -17.296   2.861  15.957  1.00  0.00     0.002 A 
ATOM     88  C   UNL     1     -17.704   1.054  17.522  1.00  0.00     0.091 A 
ATOM     89  F   UNL     1     -16.242  -0.831  17.530  1.00  0.00    -0.205 F 
ATOM     90  C   UNL     1     -18.037   2.315  17.002  1.00  0.00     0.022 A 
BRANCH  88  91
ATOM     91  S   UNL     1     -18.775   0.384  18.799  1.00  0.00     0.127 S 
ATOM     92  O   UNL     1     -18.421   1.214  19.950  1.00  0.00    -0.237 OA
ATOM     93  O   UNL     1     -20.108   0.639  18.251  1.00  0.00    -0.237 OA
ATOM     94  O   UNL     1     -18.429  -1.026  18.916  1.00  0.00    -0.744 OA
ENDBRANCH  88  91
ENDBRANCH  61  84
ENDBRANCH  35  36
ENDBRANCH  27  30
ENDBRANCH  25  26
ENDBRANCH  24  25
ENDBRANCH   1  24
TORSDOF 18
