REMARK SMILES Cc1cccc(-c2cccnc2C(=O)NCCCNC(=O)c2ccc(-c3c4nc(c(-c5cccc(S(=O)(=O)[O-])c5F)c5ccc([nH]5)c(-c5cccc(S(=O)(=O)[O-])c5F)c5nc(c(-c6cccc(S(=O)(=O)[O-])c6F)c6ccc3[nH]6)C=C5)C=C4)cc2)c1
REMARK SMILES IDX 18 1 17 2 16 3 15 4 13 5 14 6 12 8 7 9 8 10 9 11 11 12 10 13
REMARK SMILES IDX 6 14 1 15 2 16 3 17 85 18 4 19 5 20 19 21 20 22 21 24 22 25
REMARK SMILES IDX 23 26 84 27 24 28 83 29 25 30 26 31 27 32 77 33 28 34 82 35
REMARK SMILES IDX 76 36 78 37 29 38 81 39 75 40 74 41 30 43 62 44 42 45 61 46
REMARK SMILES IDX 43 47 46 48 60 49 79 50 44 51 45 52 59 54 80 55 47 56 31 57
REMARK SMILES IDX 32 58 40 59 33 60 35 61 41 62 34 63 36 64 37 65 38 66 39 67
REMARK SMILES IDX 63 68 64 69 72 70 65 71 67 72 73 73 66 74 68 75 69 76 70 77
REMARK SMILES IDX 71 78 48 79 49 80 57 81 50 82 52 83 58 84 51 85 53 86 54 87
REMARK SMILES IDX 55 88 56 89
REMARK H PARENT 15 7 19 23 78 42 46 53
REMARK Flexibility Score: inf
ROOT
ATOM      1  C   UNL     1       0.827  -0.350   2.757  1.00  0.00     0.118 C 
ENDROOT
BRANCH   1   2
ATOM      2  C   UNL     1       0.185   0.972   2.413  1.00  0.00     0.042 C 
BRANCH   2   3
ATOM      3  C   UNL     1      -1.189   0.714   1.832  1.00  0.00     0.118 C 
BRANCH   3   4
ATOM      4  N   UNL     1      -2.339   1.364   2.360  1.00  0.00    -0.351 N 
ATOM      5  C   UNL     1      -3.266   2.068   1.608  1.00  0.00     0.270 C 
ATOM      6  O   UNL     1      -4.421   2.092   2.045  1.00  0.00    -0.267 OA
ATOM      7  H   UNL     1      -2.488   1.309   3.331  1.00  0.00     0.163 HD
BRANCH   5   8
ATOM      8  C   UNL     1      -2.906   2.952   0.408  1.00  0.00     0.135 A 
ATOM      9  C   UNL     1      -2.130   2.697  -0.756  1.00  0.00     0.013 A 
ATOM     10  C   UNL     1      -1.950   3.793  -1.629  1.00  0.00     0.013 A 
ATOM     11  C   UNL     1      -2.510   5.039  -1.375  1.00  0.00     0.021 A 
ATOM     12  N   UNL     1      -3.475   4.185   0.631  1.00  0.00    -0.250 NA
ATOM     13  C   UNL     1      -3.271   5.181  -0.242  1.00  0.00     0.112 A 
BRANCH   9  14
ATOM     14  C   UNL     1      -1.413   1.459  -1.165  1.00  0.00    -0.016 A 
ATOM     15  C   UNL     1       2.237   0.261  -0.983  1.00  0.00     0.044 C 
ATOM     16  C   UNL     1       0.763   0.283  -1.299  1.00  0.00    -0.051 A 
ATOM     17  C   UNL     1       0.083  -0.912  -1.547  1.00  0.00     0.003 A 
ATOM     18  C   UNL     1       0.013   1.463  -1.169  1.00  0.00     0.012 A 
ATOM     19  C   UNL     1      -1.315  -0.934  -1.591  1.00  0.00     0.001 A 
ATOM     20  C   UNL     1      -2.061   0.237  -1.394  1.00  0.00     0.009 A 
ENDBRANCH   9  14
ENDBRANCH   5   8
ENDBRANCH   3   4
ENDBRANCH   2   3
ENDBRANCH   1   2
BRANCH   1  21
ATOM     21  N   UNL     1       0.803  -1.373   1.675  1.00  0.00    -0.352 N 
ATOM     22  C   UNL     1       1.222  -2.702   1.657  1.00  0.00     0.251 C 
ATOM     23  H   UNL     1       0.424  -1.055   0.823  1.00  0.00     0.163 HD
ATOM     24  O   UNL     1       1.358  -3.297   0.586  1.00  0.00    -0.269 OA
BRANCH  22  25
ATOM     25  C   UNL     1       1.407  -3.380   2.946  1.00  0.00     0.039 A 
ATOM     26  C   UNL     1       2.060  -4.573   3.232  1.00  0.00     0.014 A 
ATOM     27  C   UNL     1       0.677  -2.798   3.951  1.00  0.00     0.014 A 
ATOM     28  C   UNL     1       1.848  -5.128   4.503  1.00  0.00     0.010 A 
ATOM     29  C   UNL     1       0.989  -3.000   5.237  1.00  0.00     0.010 A 
ATOM     30  C   UNL     1       1.209  -4.341   5.457  1.00  0.00    -0.014 A 
BRANCH  30  31
ATOM     31  C   UNL     1       0.435  -4.729   6.629  1.00  0.00     0.031 A 
ATOM     32  C   UNL     1       1.072  -4.497   7.927  1.00  0.00     0.074 A 
ATOM     33  C   UNL     1      -0.899  -4.495   6.456  1.00  0.00     0.049 A 
ATOM     34  N   UNL     1       0.440  -4.488   9.042  1.00  0.00    -0.248 NA
ATOM     35  C   UNL     1       2.495  -4.199   8.055  1.00  0.00     0.031 C 
ATOM     36  C   UNL     1      -1.811  -3.734   7.318  1.00  0.00     0.029 A 
ATOM     37  N   UNL     1      -1.691  -4.742   5.339  1.00  0.00    -0.354 N 
ATOM     38  C   UNL     1       1.257  -3.857   9.951  1.00  0.00     0.074 A 
ATOM     39  C   UNL     1       2.564  -3.866   9.347  1.00  0.00     0.031 C 
ATOM     40  C   UNL     1      -3.063  -3.819   6.828  1.00  0.00     0.029 A 
ATOM     41  C   UNL     1      -3.031  -4.775   5.737  1.00  0.00     0.049 A 
ATOM     42  H   UNL     1      -1.363  -4.871   4.420  1.00  0.00     0.167 HD
ATOM     43  C   UNL     1       0.673  -3.264  11.028  1.00  0.00     0.034 A 
ATOM     44  C   UNL     1      -3.640  -6.003   5.760  1.00  0.00     0.034 A 
ATOM     45  C   UNL     1      -0.770  -3.587  11.073  1.00  0.00     0.049 A 
ATOM     46  C   UNL     1      -3.830  -6.540   7.172  1.00  0.00     0.074 A 
ATOM     47  C   UNL     1      -1.929  -2.865  10.849  1.00  0.00     0.029 A 
ATOM     48  N   UNL     1      -1.153  -4.929  11.087  1.00  0.00    -0.354 N 
ATOM     49  N   UNL     1      -3.477  -5.912   8.263  1.00  0.00    -0.248 NA
ATOM     50  C   UNL     1      -4.461  -7.821   7.471  1.00  0.00     0.031 C 
ATOM     51  C   UNL     1      -2.983  -3.798  10.593  1.00  0.00     0.029 A 
ATOM     52  C   UNL     1      -2.481  -5.085  10.713  1.00  0.00     0.049 A 
ATOM     53  H   UNL     1      -0.556  -5.672  11.332  1.00  0.00     0.167 HD
ATOM     54  C   UNL     1      -3.612  -6.732   9.351  1.00  0.00     0.074 A 
ATOM     55  C   UNL     1      -4.347  -7.867   8.811  1.00  0.00     0.031 C 
ATOM     56  C   UNL     1      -3.049  -6.434  10.570  1.00  0.00     0.034 A 
BRANCH  43  57
ATOM     57  C   UNL     1       1.329  -2.264  11.969  1.00  0.00     0.023 A 
ATOM     58  C   UNL     1       0.556  -1.826  13.067  1.00  0.00     0.012 A 
ATOM     59  C   UNL     1       2.610  -1.665  11.843  1.00  0.00     0.148 A 
ATOM     60  C   UNL     1       1.014  -0.866  13.978  1.00  0.00     0.002 A 
ATOM     61  C   UNL     1       3.095  -0.754  12.788  1.00  0.00     0.091 A 
ATOM     62  F   UNL     1       3.358  -1.891  10.763  1.00  0.00    -0.205 F 
ATOM     63  C   UNL     1       2.291  -0.341  13.851  1.00  0.00     0.022 A 
BRANCH  61  64
ATOM     64  S   UNL     1       4.760  -0.058  12.710  1.00  0.00     0.127 S 
ATOM     65  O   UNL     1       4.489   1.364  12.497  1.00  0.00    -0.237 OA
ATOM     66  O   UNL     1       5.296  -0.382  14.032  1.00  0.00    -0.237 OA
ATOM     67  O   UNL     1       5.437  -0.726  11.605  1.00  0.00    -0.744 OA
ENDBRANCH  61  64
ENDBRANCH  43  57
BRANCH  44  68
ATOM     68  C   UNL     1      -3.254  -6.789   4.529  1.00  0.00     0.023 A 
ATOM     69  C   UNL     1      -3.730  -6.259   3.301  1.00  0.00     0.012 A 
ATOM     70  C   UNL     1      -2.073  -7.563   4.514  1.00  0.00     0.148 A 
ATOM     71  C   UNL     1      -2.947  -6.316   2.144  1.00  0.00     0.002 A 
ATOM     72  C   UNL     1      -1.298  -7.614   3.352  1.00  0.00     0.091 A 
ATOM     73  F   UNL     1      -1.672  -8.139   5.654  1.00  0.00    -0.205 F 
ATOM     74  C   UNL     1      -1.709  -6.947   2.185  1.00  0.00     0.022 A 
BRANCH  72  75
ATOM     75  S   UNL     1       0.317  -8.409   3.327  1.00  0.00     0.127 S 
ATOM     76  O   UNL     1      -0.019  -9.742   2.833  1.00  0.00    -0.237 OA
ATOM     77  O   UNL     1       1.075  -7.587   2.381  1.00  0.00    -0.237 OA
ATOM     78  O   UNL     1       0.803  -8.338   4.697  1.00  0.00    -0.744 OA
ENDBRANCH  72  75
ENDBRANCH  44  68
BRANCH  56  79
ATOM     79  C   UNL     1      -2.939  -7.405  11.746  1.00  0.00     0.023 A 
ATOM     80  C   UNL     1      -3.137  -8.793  11.611  1.00  0.00     0.012 A 
ATOM     81  C   UNL     1      -2.500  -6.965  13.026  1.00  0.00     0.148 A 
ATOM     82  C   UNL     1      -2.989  -9.681  12.684  1.00  0.00     0.002 A 
ATOM     83  C   UNL     1      -2.218  -7.868  14.049  1.00  0.00     0.091 A 
ATOM     84  F   UNL     1      -2.378  -5.655  13.283  1.00  0.00    -0.205 F 
ATOM     85  C   UNL     1      -2.503  -9.223  13.898  1.00  0.00     0.022 A 
BRANCH  83  86
ATOM     86  S   UNL     1      -1.326  -7.353  15.524  1.00  0.00     0.127 S 
ATOM     87  O   UNL     1      -2.413  -7.119  16.471  1.00  0.00    -0.237 OA
ATOM     88  O   UNL     1      -0.503  -8.528  15.818  1.00  0.00    -0.237 OA
ATOM     89  O   UNL     1      -0.562  -6.181  15.115  1.00  0.00    -0.744 OA
ENDBRANCH  83  86
ENDBRANCH  56  79
ENDBRANCH  30  31
ENDBRANCH  22  25
ENDBRANCH   1  21
TORSDOF 14
