REMARK SMILES C[C@H](NC(=O)OCc1ccccc1)C(=O)NCC(=O)N1CCC[C@H]1C(=O)NCCCNC(=O)c1ccc(-c2c3nc(c(-c4cccc(S(=O)(=O)[O-])c4F)c4ccc([nH]4)c(-c4cccc(S(=O)(=O)[O-])c4F)c4nc(c(-c5cccc(S(=O)(=O)[O-])c5F)c5ccc2[nH]5)C=C4)C=C3)cc1
REMARK SMILES IDX 20 1 21 2 22 3 23 4 24 5 18 6 19 7 17 8 16 9 14 10 15 11
REMARK SMILES IDX 2 13 1 14 3 15 4 16 5 18 6 19 7 20 8 21 9 22 13 23 10 24
REMARK SMILES IDX 12 25 11 26 25 27 26 28 27 29 28 31 29 32 30 33 31 34 32 35
REMARK SMILES IDX 33 37 34 38 35 39 96 40 36 41 95 42 37 43 38 44 39 45 89 46
REMARK SMILES IDX 40 47 94 48 88 49 90 50 41 51 93 52 87 53 86 54 42 56 74 57
REMARK SMILES IDX 54 58 73 59 55 60 58 61 72 62 91 63 56 64 57 65 71 67 92 68
REMARK SMILES IDX 59 69 43 70 44 71 52 72 45 73 47 74 53 75 46 76 48 77 49 78
REMARK SMILES IDX 50 79 51 80 75 81 76 82 84 83 77 84 79 85 85 86 78 87 80 88
REMARK SMILES IDX 81 89 82 90 83 91 60 92 61 93 69 94 62 95 64 96 70 97 63 98
REMARK SMILES IDX 65 99 66 100 67 101 68 102
REMARK H PARENT 16 12 3 17 27 30 31 36 90 55 58 66
REMARK Flexibility Score: inf
ROOT
ATOM      1  N   UNL     1      -0.993  -0.047  -2.337  1.00  0.00    -0.329 N 
ATOM      2  C   UNL     1      -1.245  -1.215  -1.514  1.00  0.00     0.120 C 
ATOM      3  C   UNL     1      -0.317  -2.271  -2.079  1.00  0.00     0.024 C 
ATOM      4  C   UNL     1      -0.260  -1.956  -3.565  1.00  0.00     0.037 C 
ATOM      5  C   UNL     1      -0.611  -0.462  -3.688  1.00  0.00     0.174 C 
ENDROOT
BRANCH   1   6
ATOM      6  C   UNL     1      -0.955   1.291  -2.027  1.00  0.00     0.242 C 
ATOM      7  O   UNL     1      -0.690   2.110  -2.917  1.00  0.00    -0.273 OA
BRANCH   6   8
ATOM      8  C   UNL     1      -1.299   1.857  -0.637  1.00  0.00     0.216 C 
BRANCH   8   9
ATOM      9  N   UNL     1      -1.623   1.019   0.494  1.00  0.00    -0.345 N 
ATOM     10  C   UNL     1      -0.827   0.518   1.475  1.00  0.00     0.242 C 
ATOM     11  O   UNL     1      -1.400  -0.044   2.415  1.00  0.00    -0.273 OA
ATOM     12  H   UNL     1      -2.573   0.772   0.566  1.00  0.00     0.164 HD
BRANCH  10  13
ATOM     13  C   UNL     1       0.714   0.653   1.479  1.00  0.00     0.171 C 
ATOM     14  C   UNL     1       1.171   1.999   2.016  1.00  0.00     0.042 C 
BRANCH  13  15
ATOM     15  N   UNL     1       1.362   0.165   0.262  1.00  0.00    -0.310 N 
ATOM     16  C   UNL     1       1.877   0.809  -0.819  1.00  0.00     0.408 C 
ATOM     17  H   UNL     1       1.439  -0.815   0.216  1.00  0.00     0.167 HD
ATOM     18  O   UNL     1       2.198   0.163  -1.811  1.00  0.00    -0.225 OA
BRANCH  16  19
ATOM     19  O   UNL     1       1.935   2.147  -0.684  1.00  0.00    -0.445 OA
BRANCH  19  20
ATOM     20  C   UNL     1       2.231   2.904  -1.870  1.00  0.00     0.270 C 
BRANCH  20  21
ATOM     21  C   UNL     1       3.644   2.748  -2.359  1.00  0.00    -0.011 A 
ATOM     22  C   UNL     1       4.730   2.936  -1.500  1.00  0.00     0.007 A 
ATOM     23  C   UNL     1       3.877   2.426  -3.705  1.00  0.00     0.007 A 
ATOM     24  C   UNL     1       6.031   2.785  -1.977  1.00  0.00     0.000 A 
ATOM     25  C   UNL     1       5.178   2.277  -4.180  1.00  0.00     0.000 A 
ATOM     26  C   UNL     1       6.254   2.455  -3.314  1.00  0.00     0.000 A 
ENDBRANCH  20  21
ENDBRANCH  19  20
ENDBRANCH  16  19
ENDBRANCH  13  15
ENDBRANCH  10  13
ENDBRANCH   8   9
ENDBRANCH   6   8
ENDBRANCH   1   6
BRANCH   5  27
ATOM     27  C   UNL     1      -1.623  -0.312  -4.852  1.00  0.00     0.242 C 
ATOM     28  O   UNL     1      -1.278  -0.616  -6.003  1.00  0.00    -0.273 OA
ATOM     29  N   UNL     1      -2.936   0.008  -4.697  1.00  0.00    -0.354 N 
ATOM     30  H   UNL     1      -3.478  -0.137  -5.506  1.00  0.00     0.163 HD
BRANCH  29  31
ATOM     31  C   UNL     1      -3.691   0.521  -3.572  1.00  0.00     0.117 C 
BRANCH  31  32
ATOM     32  C   UNL     1      -3.787   2.042  -3.597  1.00  0.00     0.042 C 
BRANCH  32  33
ATOM     33  C   UNL     1      -4.843   2.551  -4.563  1.00  0.00     0.118 C 
BRANCH  33  34
ATOM     34  N   UNL     1      -6.182   2.148  -4.152  1.00  0.00    -0.352 N 
ATOM     35  C   UNL     1      -7.242   2.910  -3.735  1.00  0.00     0.251 C 
ATOM     36  H   UNL     1      -6.351   1.179  -4.179  1.00  0.00     0.163 HD
ATOM     37  O   UNL     1      -8.182   2.367  -3.161  1.00  0.00    -0.269 OA
BRANCH  35  38
ATOM     38  C   UNL     1      -7.253   4.369  -3.973  1.00  0.00     0.039 A 
ATOM     39  C   UNL     1      -7.823   5.207  -3.011  1.00  0.00     0.014 A 
ATOM     40  C   UNL     1      -6.740   4.908  -5.155  1.00  0.00     0.014 A 
ATOM     41  C   UNL     1      -7.834   6.587  -3.218  1.00  0.00     0.010 A 
ATOM     42  C   UNL     1      -6.659   6.285  -5.312  1.00  0.00     0.010 A 
ATOM     43  C   UNL     1      -7.225   7.139  -4.357  1.00  0.00    -0.014 A 
BRANCH  43  44
ATOM     44  C   UNL     1      -7.177   8.607  -4.569  1.00  0.00     0.031 A 
ATOM     45  C   UNL     1      -7.830   9.219  -5.779  1.00  0.00     0.074 A 
ATOM     46  C   UNL     1      -6.472   9.374  -3.714  1.00  0.00     0.049 A 
ATOM     47  N   UNL     1      -7.849  10.470  -6.157  1.00  0.00    -0.248 NA
ATOM     48  C   UNL     1      -8.528   8.307  -6.701  1.00  0.00     0.031 C 
ATOM     49  C   UNL     1      -5.723   8.881  -2.555  1.00  0.00     0.029 A 
ATOM     50  N   UNL     1      -6.245  10.727  -3.702  1.00  0.00    -0.354 N 
ATOM     51  C   UNL     1      -8.517  10.489  -7.376  1.00  0.00     0.074 A 
ATOM     52  C   UNL     1      -8.864   9.122  -7.691  1.00  0.00     0.031 C 
ATOM     53  C   UNL     1      -5.123   9.915  -1.946  1.00  0.00     0.029 A 
ATOM     54  C   UNL     1      -5.410  11.137  -2.689  1.00  0.00     0.049 A 
ATOM     55  H   UNL     1      -6.642  11.346  -4.357  1.00  0.00     0.167 HD
ATOM     56  C   UNL     1      -8.832  11.552  -8.152  1.00  0.00     0.034 A 
ATOM     57  C   UNL     1      -4.916  12.356  -2.402  1.00  0.00     0.034 A 
ATOM     58  C   UNL     1      -8.521  12.913  -7.811  1.00  0.00     0.049 A 
ATOM     59  C   UNL     1      -5.325  13.525  -3.255  1.00  0.00     0.074 A 
ATOM     60  C   UNL     1      -8.891  14.070  -8.473  1.00  0.00     0.029 A 
ATOM     61  N   UNL     1      -7.751  13.301  -6.726  1.00  0.00    -0.354 N 
ATOM     62  N   UNL     1      -6.105  13.545  -4.308  1.00  0.00    -0.248 NA
ATOM     63  C   UNL     1      -4.818  14.847  -2.860  1.00  0.00     0.031 C 
ATOM     64  C   UNL     1      -8.308  15.155  -7.812  1.00  0.00     0.029 A 
ATOM     65  C   UNL     1      -7.616  14.678  -6.711  1.00  0.00     0.049 A 
ATOM     66  H   UNL     1      -7.358  12.687  -6.064  1.00  0.00     0.167 HD
ATOM     67  C   UNL     1      -6.210  14.880  -4.680  1.00  0.00     0.074 A 
ATOM     68  C   UNL     1      -5.434  15.641  -3.724  1.00  0.00     0.031 C 
ATOM     69  C   UNL     1      -6.879  15.425  -5.726  1.00  0.00     0.034 A 
BRANCH  56  70
ATOM     70  C   UNL     1      -9.582  11.298  -9.434  1.00  0.00     0.023 A 
ATOM     71  C   UNL     1     -10.931  10.891  -9.391  1.00  0.00     0.012 A 
ATOM     72  C   UNL     1      -8.972  11.540 -10.680  1.00  0.00     0.148 A 
ATOM     73  C   UNL     1     -11.653  10.702 -10.569  1.00  0.00     0.002 A 
ATOM     74  C   UNL     1      -9.712  11.397 -11.848  1.00  0.00     0.091 A 
ATOM     75  F   UNL     1      -7.683  11.906 -10.700  1.00  0.00    -0.205 F 
ATOM     76  C   UNL     1     -11.048  10.967 -11.795  1.00  0.00     0.022 A 
BRANCH  74  77
ATOM     77  S   UNL     1      -9.052  11.797 -13.469  1.00  0.00     0.127 S 
ATOM     78  O   UNL     1      -9.006  10.479 -14.101  1.00  0.00    -0.237 OA
ATOM     79  O   UNL     1     -10.078  12.693 -14.003  1.00  0.00    -0.237 OA
ATOM     80  O   UNL     1      -7.758  12.421 -13.237  1.00  0.00    -0.744 OA
ENDBRANCH  74  77
ENDBRANCH  56  70
BRANCH  57  81
ATOM     81  C   UNL     1      -4.008  12.539  -1.234  1.00  0.00     0.023 A 
ATOM     82  C   UNL     1      -4.447  13.268  -0.112  1.00  0.00     0.012 A 
ATOM     83  C   UNL     1      -2.715  11.980  -1.226  1.00  0.00     0.148 A 
ATOM     84  C   UNL     1      -3.601  13.474   0.978  1.00  0.00     0.002 A 
ATOM     85  C   UNL     1      -1.900  12.136  -0.111  1.00  0.00     0.091 A 
ATOM     86  F   UNL     1      -2.312  11.296  -2.306  1.00  0.00    -0.205 F 
ATOM     87  C   UNL     1      -2.332  12.901   0.983  1.00  0.00     0.022 A 
BRANCH  85  88
ATOM     88  S   UNL     1      -0.309  11.316   0.038  1.00  0.00     0.127 S 
ATOM     89  O   UNL     1       0.618  12.440  -0.069  1.00  0.00    -0.237 OA
ATOM     90  O   UNL     1      -0.403  10.718   1.370  1.00  0.00    -0.237 OA
ATOM     91  O   UNL     1      -0.262  10.349  -1.050  1.00  0.00    -0.744 OA
ENDBRANCH  85  88
ENDBRANCH  57  81
BRANCH  69  92
ATOM     92  C   UNL     1      -6.846  16.924  -5.871  1.00  0.00     0.023 A 
ATOM     93  C   UNL     1      -5.659  17.570  -6.270  1.00  0.00     0.012 A 
ATOM     94  C   UNL     1      -8.017  17.683  -5.679  1.00  0.00     0.148 A 
ATOM     95  C   UNL     1      -5.630  18.954  -6.440  1.00  0.00     0.002 A 
ATOM     96  C   UNL     1      -7.995  19.053  -5.905  1.00  0.00     0.091 A 
ATOM     97  F   UNL     1      -9.132  17.050  -5.284  1.00  0.00    -0.205 F 
ATOM     98  C   UNL     1      -6.799  19.692  -6.270  1.00  0.00     0.022 A 
BRANCH  96  99
ATOM     99  S   UNL     1      -9.473  20.069  -5.811  1.00  0.00     0.127 S 
ATOM    100  O   UNL     1      -9.216  20.856  -4.606  1.00  0.00    -0.237 OA
ATOM    101  O   UNL     1      -9.407  20.826  -7.060  1.00  0.00    -0.237 OA
ATOM    102  O   UNL     1     -10.594  19.143  -5.722  1.00  0.00    -0.744 OA
ENDBRANCH  96  99
ENDBRANCH  69  92
ENDBRANCH  43  44
ENDBRANCH  35  38
ENDBRANCH  33  34
ENDBRANCH  32  33
ENDBRANCH  31  32
ENDBRANCH  29  31
ENDBRANCH   5  27
TORSDOF 21
