REMARK SMILES CS(=O)(=O)c1ccc(-c2csc(=O)n2CC(=O)NCCCNC(=O)c2ccc(-c3c4nc(c(-c5cccc(S(=O)(=O)[O-])c5F)c5ccc([nH]5)c(-c5cccc(S(=O)(=O)[O-])c5F)c5nc(c(-c6cccc(S(=O)(=O)[O-])c6F)c6ccc3[nH]6)C=C5)C=C4)cc2)cc1
REMARK SMILES IDX 20 1 19 2 18 3 16 4 17 5 15 7 14 8 9 9 10 10 11 11 12 12
REMARK SMILES IDX 13 13 8 14 5 15 6 16 89 17 7 18 88 19 2 20 1 21 3 22 4 23
REMARK SMILES IDX 21 24 22 25 23 26 24 28 25 29 26 30 87 31 27 32 86 33 28 34
REMARK SMILES IDX 29 35 30 36 80 37 31 38 85 39 79 40 81 41 32 42 84 43 78 44
REMARK SMILES IDX 77 45 33 47 65 48 45 49 64 50 46 51 49 52 63 53 82 54 47 55
REMARK SMILES IDX 48 56 62 58 83 59 50 60 34 61 35 62 43 63 36 64 38 65 44 66
REMARK SMILES IDX 37 67 39 68 40 69 41 70 42 71 66 72 67 73 75 74 68 75 70 76
REMARK SMILES IDX 76 77 69 78 71 79 72 80 73 81 74 82 51 83 52 84 60 85 53 86
REMARK SMILES IDX 55 87 61 88 54 89 56 90 57 91 58 92 59 93
REMARK H PARENT 18 6 22 27 81 46 49 57
REMARK Flexibility Score: inf
ROOT
ATOM      1  C   UNL     1       3.684   5.834   4.734  1.00  0.00     0.042 C 
ENDROOT
BRANCH   1   2
ATOM      2  C   UNL     1       4.507   4.634   4.264  1.00  0.00     0.117 C 
BRANCH   2   3
ATOM      3  N   UNL     1       5.433   4.126   5.255  1.00  0.00    -0.354 N 
ATOM      4  C   UNL     1       5.354   2.960   5.964  1.00  0.00     0.240 C 
ATOM      5  O   UNL     1       6.416   2.440   6.315  1.00  0.00    -0.273 OA
ATOM      6  H   UNL     1       6.218   4.691   5.440  1.00  0.00     0.163 HD
BRANCH   4   7
ATOM      7  C   UNL     1       4.028   2.202   6.108  1.00  0.00     0.226 C 
BRANCH   7   8
ATOM      8  N   UNL     1       2.908   2.986   6.601  1.00  0.00    -0.289 N 
ATOM      9  C   UNL     1       1.725   3.292   5.941  1.00  0.00     0.063 A 
ATOM     10  C   UNL     1       0.877   4.022   6.682  1.00  0.00     0.097 A 
ATOM     11  S   UNL     1       1.495   4.339   8.268  1.00  0.00    -0.082 S 
ATOM     12  C   UNL     1       2.961   3.412   7.930  1.00  0.00     0.308 A 
ATOM     13  O   UNL     1       3.826   3.188   8.750  1.00  0.00    -0.257 OA
BRANCH   9  14
ATOM     14  C   UNL     1       1.386   2.874   4.574  1.00  0.00    -0.001 A 
ATOM     15  C   UNL     1       0.789   2.103   1.942  1.00  0.00     0.067 A 
ATOM     16  C   UNL     1       1.107   1.133   2.894  1.00  0.00     0.021 A 
ATOM     17  C   UNL     1       0.755   3.453   2.293  1.00  0.00     0.021 A 
ATOM     18  C   UNL     1       1.399   1.523   4.206  1.00  0.00     0.011 A 
ATOM     19  C   UNL     1       1.029   3.829   3.608  1.00  0.00     0.011 A 
BRANCH  15  20
ATOM     20  S   UNL     1       0.391   1.679   0.264  1.00  0.00     0.175 S 
ATOM     21  C   UNL     1       1.110   0.094  -0.057  1.00  0.00     0.163 C 
ATOM     22  O   UNL     1       1.080   2.634  -0.583  1.00  0.00    -0.224 OA
ATOM     23  O   UNL     1      -1.050   1.533   0.212  1.00  0.00    -0.224 OA
ENDBRANCH  15  20
ENDBRANCH   9  14
ENDBRANCH   7   8
ENDBRANCH   4   7
ENDBRANCH   2   3
ENDBRANCH   1   2
BRANCH   1  24
ATOM     24  C   UNL     1       4.469   7.128   4.727  1.00  0.00     0.118 C 
BRANCH  24  25
ATOM     25  N   UNL     1       4.829   7.560   3.368  1.00  0.00    -0.352 N 
ATOM     26  C   UNL     1       5.611   8.634   2.978  1.00  0.00     0.251 C 
ATOM     27  H   UNL     1       4.463   7.012   2.636  1.00  0.00     0.163 HD
ATOM     28  O   UNL     1       5.553   9.063   1.831  1.00  0.00    -0.269 OA
BRANCH  26  29
ATOM     29  C   UNL     1       6.508   9.250   3.969  1.00  0.00     0.039 A 
ATOM     30  C   UNL     1       6.742  10.627   4.020  1.00  0.00     0.014 A 
ATOM     31  C   UNL     1       7.078   8.403   4.907  1.00  0.00     0.014 A 
ATOM     32  C   UNL     1       7.495  11.133   5.077  1.00  0.00     0.010 A 
ATOM     33  C   UNL     1       7.560   8.922   6.070  1.00  0.00     0.010 A 
ATOM     34  C   UNL     1       7.885  10.266   6.108  1.00  0.00    -0.014 A 
BRANCH  34  35
ATOM     35  C   UNL     1       8.574  10.727   7.304  1.00  0.00     0.031 A 
ATOM     36  C   UNL     1       7.822  11.755   8.061  1.00  0.00     0.074 A 
ATOM     37  C   UNL     1       9.652  10.077   7.801  1.00  0.00     0.049 A 
ATOM     38  N   UNL     1       8.079  13.018   8.139  1.00  0.00    -0.248 NA
ATOM     39  C   UNL     1       6.519  11.375   8.630  1.00  0.00     0.031 C 
ATOM     40  C   UNL     1      10.248   8.822   7.310  1.00  0.00     0.029 A 
ATOM     41  N   UNL     1      10.345  10.301   8.948  1.00  0.00    -0.354 N 
ATOM     42  C   UNL     1       7.125  13.522   9.020  1.00  0.00     0.074 A 
ATOM     43  C   UNL     1       6.060  12.559   9.042  1.00  0.00     0.031 C 
ATOM     44  C   UNL     1      11.005   8.270   8.281  1.00  0.00     0.029 A 
ATOM     45  C   UNL     1      11.105   9.213   9.375  1.00  0.00     0.049 A 
ATOM     46  H   UNL     1      10.314  11.156   9.435  1.00  0.00     0.167 HD
ATOM     47  C   UNL     1       7.454  14.500   9.911  1.00  0.00     0.034 A 
ATOM     48  C   UNL     1      11.739   9.078  10.563  1.00  0.00     0.034 A 
ATOM     49  C   UNL     1       8.737  15.078   9.579  1.00  0.00     0.049 A 
ATOM     50  C   UNL     1      11.891  10.435  11.125  1.00  0.00     0.074 A 
ATOM     51  C   UNL     1       9.279  15.739   8.497  1.00  0.00     0.029 A 
ATOM     52  N   UNL     1       9.793  14.625  10.332  1.00  0.00    -0.354 N 
ATOM     53  N   UNL     1      12.634  11.359  10.583  1.00  0.00    -0.248 NA
ATOM     54  C   UNL     1      10.890  10.908  12.066  1.00  0.00     0.031 C 
ATOM     55  C   UNL     1      10.640  15.314   8.443  1.00  0.00     0.029 A 
ATOM     56  C   UNL     1      10.887  14.470   9.529  1.00  0.00     0.049 A 
ATOM     57  H   UNL     1       9.765  14.440  11.299  1.00  0.00     0.167 HD
ATOM     58  C   UNL     1      11.893  12.523  10.737  1.00  0.00     0.074 A 
ATOM     59  C   UNL     1      10.924  12.214  11.784  1.00  0.00     0.031 C 
ATOM     60  C   UNL     1      11.938  13.506   9.789  1.00  0.00     0.034 A 
BRANCH  47  61
ATOM     61  C   UNL     1       6.895  14.640  11.320  1.00  0.00     0.023 A 
ATOM     62  C   UNL     1       7.345  15.757  12.066  1.00  0.00     0.012 A 
ATOM     63  C   UNL     1       6.218  13.632  12.044  1.00  0.00     0.148 A 
ATOM     64  C   UNL     1       7.211  15.821  13.457  1.00  0.00     0.002 A 
ATOM     65  C   UNL     1       6.021  13.734  13.418  1.00  0.00     0.091 A 
ATOM     66  F   UNL     1       5.859  12.494  11.451  1.00  0.00    -0.205 F 
ATOM     67  C   UNL     1       6.549  14.808  14.135  1.00  0.00     0.022 A 
BRANCH  65  68
ATOM     68  S   UNL     1       5.134  12.470  14.341  1.00  0.00     0.127 S 
ATOM     69  O   UNL     1       6.222  11.832  15.076  1.00  0.00    -0.237 OA
ATOM     70  O   UNL     1       4.225  13.280  15.152  1.00  0.00    -0.237 OA
ATOM     71  O   UNL     1       4.467  11.646  13.341  1.00  0.00    -0.744 OA
ENDBRANCH  65  68
ENDBRANCH  47  61
BRANCH  48  72
ATOM     72  C   UNL     1      12.031   7.860  11.351  1.00  0.00     0.023 A 
ATOM     73  C   UNL     1      13.085   7.861  12.286  1.00  0.00     0.012 A 
ATOM     74  C   UNL     1      11.109   6.790  11.384  1.00  0.00     0.148 A 
ATOM     75  C   UNL     1      13.199   6.845  13.243  1.00  0.00     0.002 A 
ATOM     76  C   UNL     1      11.230   5.780  12.333  1.00  0.00     0.091 A 
ATOM     77  F   UNL     1      10.068   6.816  10.540  1.00  0.00    -0.205 F 
ATOM     78  C   UNL     1      12.268   5.811  13.274  1.00  0.00     0.022 A 
BRANCH  76  79
ATOM     79  S   UNL     1      10.056   4.424  12.455  1.00  0.00     0.127 S 
ATOM     80  O   UNL     1      10.941   3.259  12.403  1.00  0.00    -0.237 OA
ATOM     81  O   UNL     1       9.446   4.670  13.759  1.00  0.00    -0.237 OA
ATOM     82  O   UNL     1       9.171   4.564  11.307  1.00  0.00    -0.744 OA
ENDBRANCH  76  79
ENDBRANCH  48  72
BRANCH  60  83
ATOM     83  C   UNL     1      13.062  13.461   8.783  1.00  0.00     0.023 A 
ATOM     84  C   UNL     1      13.194  12.434   7.825  1.00  0.00     0.012 A 
ATOM     85  C   UNL     1      13.914  14.575   8.707  1.00  0.00     0.148 A 
ATOM     86  C   UNL     1      14.168  12.511   6.825  1.00  0.00     0.002 A 
ATOM     87  C   UNL     1      14.846  14.672   7.683  1.00  0.00     0.091 A 
ATOM     88  F   UNL     1      13.775  15.541   9.627  1.00  0.00    -0.205 F 
ATOM     89  C   UNL     1      14.984  13.637   6.745  1.00  0.00     0.022 A 
BRANCH  87  90
ATOM     90  S   UNL     1      15.831  16.153   7.455  1.00  0.00     0.127 S 
ATOM     91  O   UNL     1      17.145  15.723   7.930  1.00  0.00    -0.237 OA
ATOM     92  O   UNL     1      15.744  16.370   6.010  1.00  0.00    -0.237 OA
ATOM     93  O   UNL     1      15.185  17.190   8.250  1.00  0.00    -0.744 OA
ENDBRANCH  87  90
ENDBRANCH  60  83
ENDBRANCH  34  35
ENDBRANCH  26  29
ENDBRANCH  24  25
ENDBRANCH   1  24
TORSDOF 16
