REMARK SMILES CC(C)(NC(=O)[C@]1(C)CCCO1)C(C)(C)C(=O)NCCCNC(=O)c1ccc(-c2c3nc(c(-c4cccc(S(=O)(=O)[O-])c4F)c4ccc([nH]4)c(-c4cccc(S(=O)(=O)[O-])c4F)c4nc(c(-c5cccc(S(=O)(=O)[O-])c5F)c5ccc2[nH]5)C=C4)C=C3)cc1
REMARK SMILES IDX 20 1 19 2 18 3 16 4 17 5 13 7 14 8 15 9 2 10 1 11 3 12 4 13
REMARK SMILES IDX 5 14 6 16 7 17 9 18 12 19 8 20 10 21 11 22 21 23 22 24 23 25
REMARK SMILES IDX 24 27 25 28 26 29 87 30 27 31 86 32 28 33 29 34 30 35 80 36
REMARK SMILES IDX 31 37 85 38 79 39 81 40 32 41 84 42 78 43 77 44 33 46 65 47
REMARK SMILES IDX 45 48 64 49 46 50 49 51 63 52 82 53 47 54 48 55 62 57 83 58
REMARK SMILES IDX 50 59 34 60 35 61 43 62 36 63 38 64 44 65 37 66 39 67 40 68
REMARK SMILES IDX 41 69 42 70 66 71 67 72 75 73 68 74 70 75 76 76 69 77 71 78
REMARK SMILES IDX 72 79 73 80 74 81 51 82 52 83 60 84 53 85 55 86 61 87 54 88
REMARK SMILES IDX 56 89 57 90 58 91 59 92
REMARK H PARENT 18 6 4 15 22 26 81 45 49 56
REMARK Flexibility Score: inf
ROOT
ATOM      1  C   UNL     1      -4.050  -5.651   4.128  1.00  0.00     0.042 C 
ENDROOT
BRANCH   1   2
ATOM      2  C   UNL     1      -3.394  -4.606   3.196  1.00  0.00     0.117 C 
BRANCH   2   3
ATOM      3  N   UNL     1      -1.761  -4.238   3.495  1.00  0.00    -0.355 N 
ATOM      4  C   UNL     1      -0.043  -4.689   2.610  1.00  0.00     0.228 C 
ATOM      5  O   UNL     1       1.106  -4.558   3.081  1.00  0.00    -0.274 OA
ATOM      6  H   UNL     1      -1.640  -3.671   4.290  1.00  0.00     0.163 HD
BRANCH   4   7
ATOM      7  C   UNL     1       0.005  -5.375   0.830  1.00  0.00     0.066 C 
ATOM      8  C   UNL     1      -1.007  -4.847  -0.353  1.00  0.00     0.024 C 
ATOM      9  C   UNL     1      -0.183  -6.916   0.720  1.00  0.00     0.024 C 
BRANCH   7  10
ATOM     10  C   UNL     1       1.407  -4.874   0.401  1.00  0.00     0.048 C 
ATOM     11  C   UNL     1       1.744  -5.202  -1.081  1.00  0.00     0.035 C 
ATOM     12  C   UNL     1       2.601  -5.534   1.161  1.00  0.00     0.035 C 
BRANCH  10  13
ATOM     13  N   UNL     1       1.340  -3.394   0.568  1.00  0.00    -0.348 N 
ATOM     14  C   UNL     1       0.361  -2.582   1.130  1.00  0.00     0.252 C 
ATOM     15  H   UNL     1       2.123  -2.908   0.221  1.00  0.00     0.164 HD
ATOM     16  O   UNL     1       0.554  -1.363   0.990  1.00  0.00    -0.272 OA
BRANCH  14  17
ATOM     17  C   UNL     1      -0.991  -3.102   2.070  1.00  0.00     0.143 C 
ATOM     18  C   UNL     1      -0.242  -2.997   3.914  1.00  0.00     0.048 C 
ATOM     19  O   UNL     1      -1.676  -4.915   1.856  1.00  0.00    -0.365 OA
ATOM     20  C   UNL     1      -2.110  -2.061   1.845  1.00  0.00     0.053 C 
ATOM     21  C   UNL     1      -0.315  -4.825   4.721  1.00  0.00     0.032 C 
ATOM     22  C   UNL     1      -1.145  -6.044   3.377  1.00  0.00     0.162 C 
ENDBRANCH  14  17
ENDBRANCH  10  13
ENDBRANCH   7  10
ENDBRANCH   4   7
ENDBRANCH   2   3
ENDBRANCH   1   2
BRANCH   1  23
ATOM     23  C   UNL     1      -3.899  -5.327   5.598  1.00  0.00     0.118 C 
BRANCH  23  24
ATOM     24  N   UNL     1      -4.871  -4.318   5.970  1.00  0.00    -0.352 N 
ATOM     25  C   UNL     1      -6.097  -4.542   6.544  1.00  0.00     0.251 C 
ATOM     26  H   UNL     1      -4.627  -3.381   5.793  1.00  0.00     0.163 HD
ATOM     27  O   UNL     1      -7.005  -3.736   6.378  1.00  0.00    -0.269 OA
BRANCH  25  28
ATOM     28  C   UNL     1      -6.299  -5.766   7.350  1.00  0.00     0.039 A 
ATOM     29  C   UNL     1      -7.518  -6.438   7.275  1.00  0.00     0.014 A 
ATOM     30  C   UNL     1      -5.280  -6.241   8.184  1.00  0.00     0.014 A 
ATOM     31  C   UNL     1      -7.707  -7.596   8.028  1.00  0.00     0.010 A 
ATOM     32  C   UNL     1      -5.429  -7.456   8.837  1.00  0.00     0.010 A 
ATOM     33  C   UNL     1      -6.658  -8.127   8.799  1.00  0.00    -0.014 A 
BRANCH  33  34
ATOM     34  C   UNL     1      -6.844  -9.364   9.596  1.00  0.00     0.031 A 
ATOM     35  C   UNL     1      -6.674  -9.331  11.091  1.00  0.00     0.074 A 
ATOM     36  C   UNL     1      -7.122 -10.523   8.970  1.00  0.00     0.049 A 
ATOM     37  N   UNL     1      -6.783 -10.309  11.953  1.00  0.00    -0.248 NA
ATOM     38  C   UNL     1      -6.310  -8.039  11.700  1.00  0.00     0.031 C 
ATOM     39  C   UNL     1      -7.246 -10.693   7.520  1.00  0.00     0.029 A 
ATOM     40  N   UNL     1      -7.337 -11.782   9.471  1.00  0.00    -0.354 N 
ATOM     41  C   UNL     1      -6.471  -9.761  13.191  1.00  0.00     0.074 A 
ATOM     42  C   UNL     1      -6.124  -8.376  12.967  1.00  0.00     0.031 C 
ATOM     43  C   UNL     1      -7.538 -11.974   7.251  1.00  0.00     0.029 A 
ATOM     44  C   UNL     1      -7.570 -12.727   8.500  1.00  0.00     0.049 A 
ATOM     45  H   UNL     1      -7.325 -11.988  10.433  1.00  0.00     0.167 HD
ATOM     46  C   UNL     1      -6.495 -10.349  14.410  1.00  0.00     0.034 A 
ATOM     47  C   UNL     1      -7.768 -14.055   8.603  1.00  0.00     0.034 A 
ATOM     48  C   UNL     1      -6.854 -11.723  14.627  1.00  0.00     0.049 A 
ATOM     49  C   UNL     1      -7.783 -14.686   9.967  1.00  0.00     0.074 A 
ATOM     50  C   UNL     1      -6.980 -12.397  15.829  1.00  0.00     0.029 A 
ATOM     51  N   UNL     1      -7.118 -12.641  13.623  1.00  0.00    -0.354 N 
ATOM     52  N   UNL     1      -7.619 -14.122  11.139  1.00  0.00    -0.248 NA
ATOM     53  C   UNL     1      -8.041 -16.131  10.027  1.00  0.00     0.031 C 
ATOM     54  C   UNL     1      -7.257 -13.738  15.548  1.00  0.00     0.029 A 
ATOM     55  C   UNL     1      -7.379 -13.883  14.175  1.00  0.00     0.049 A 
ATOM     56  H   UNL     1      -7.120 -12.440  12.660  1.00  0.00     0.167 HD
ATOM     57  C   UNL     1      -7.794 -15.133  12.076  1.00  0.00     0.074 A 
ATOM     58  C   UNL     1      -8.095 -16.340  11.335  1.00  0.00     0.031 C 
ATOM     59  C   UNL     1      -7.710 -15.069  13.428  1.00  0.00     0.034 A 
BRANCH  46  60
ATOM     60  C   UNL     1      -6.129  -9.505  15.604  1.00  0.00     0.023 A 
ATOM     61  C   UNL     1      -6.971  -8.450  16.013  1.00  0.00     0.012 A 
ATOM     62  C   UNL     1      -4.970  -9.791  16.352  1.00  0.00     0.148 A 
ATOM     63  C   UNL     1      -6.644  -7.666  17.118  1.00  0.00     0.002 A 
ATOM     64  C   UNL     1      -4.679  -9.041  17.484  1.00  0.00     0.091 A 
ATOM     65  F   UNL     1      -4.172 -10.785  15.939  1.00  0.00    -0.205 F 
ATOM     66  C   UNL     1      -5.505  -7.969  17.859  1.00  0.00     0.022 A 
BRANCH  64  67
ATOM     67  S   UNL     1      -3.282  -9.402  18.552  1.00  0.00     0.127 S 
ATOM     68  O   UNL     1      -2.444  -8.220  18.351  1.00  0.00    -0.237 OA
ATOM     69  O   UNL     1      -3.918  -9.482  19.867  1.00  0.00    -0.237 OA
ATOM     70  O   UNL     1      -2.716 -10.654  18.070  1.00  0.00    -0.744 OA
ENDBRANCH  64  67
ENDBRANCH  46  60
BRANCH  47  71
ATOM     71  C   UNL     1      -7.990 -14.873   7.378  1.00  0.00     0.023 A 
ATOM     72  C   UNL     1      -9.245 -15.470   7.150  1.00  0.00     0.012 A 
ATOM     73  C   UNL     1      -6.961 -15.053   6.434  1.00  0.00     0.148 A 
ATOM     74  C   UNL     1      -9.459 -16.265   6.023  1.00  0.00     0.002 A 
ATOM     75  C   UNL     1      -7.198 -15.795   5.285  1.00  0.00     0.091 A 
ATOM     76  F   UNL     1      -5.775 -14.478   6.673  1.00  0.00    -0.205 F 
ATOM     77  C   UNL     1      -8.439 -16.420   5.087  1.00  0.00     0.022 A 
BRANCH  75  78
ATOM     78  S   UNL     1      -5.986 -15.945   3.969  1.00  0.00     0.127 S 
ATOM     79  O   UNL     1      -5.678 -17.372   4.008  1.00  0.00    -0.237 OA
ATOM     80  O   UNL     1      -6.757 -15.510   2.804  1.00  0.00    -0.237 OA
ATOM     81  O   UNL     1      -4.892 -15.055   4.334  1.00  0.00    -0.744 OA
ENDBRANCH  75  78
ENDBRANCH  47  71
BRANCH  59  82
ATOM     82  C   UNL     1      -8.004 -16.325  14.207  1.00  0.00     0.023 A 
ATOM     83  C   UNL     1      -7.116 -17.418  14.165  1.00  0.00     0.012 A 
ATOM     84  C   UNL     1      -9.142 -16.390  15.036  1.00  0.00     0.148 A 
ATOM     85  C   UNL     1      -7.379 -18.572  14.903  1.00  0.00     0.002 A 
ATOM     86  C   UNL     1      -9.366 -17.517  15.814  1.00  0.00     0.091 A 
ATOM     87  F   UNL     1      -9.981 -15.344  15.051  1.00  0.00    -0.205 F 
ATOM     88  C   UNL     1      -8.496 -18.616  15.736  1.00  0.00     0.022 A 
BRANCH  86  89
ATOM     89  S   UNL     1     -10.720 -17.625  16.988  1.00  0.00     0.127 S 
ATOM     90  O   UNL     1     -11.554 -18.664  16.384  1.00  0.00    -0.237 OA
ATOM     91  O   UNL     1     -10.031 -18.030  18.213  1.00  0.00    -0.237 OA
ATOM     92  O   UNL     1     -11.321 -16.299  17.038  1.00  0.00    -0.744 OA
ENDBRANCH  86  89
ENDBRANCH  59  82
ENDBRANCH  33  34
ENDBRANCH  25  28
ENDBRANCH  23  24
ENDBRANCH   1  23
TORSDOF 16
