REMARK SMILES CCNC(=O)[C@@H](C)Oc1ccc(OC)cc1/C=C/C(=O)NCCCNC(=O)c1ccc(-c2c3nc(c(-c4cccc(S(=O)(=O)[O-])c4F)c4ccc([nH]4)c(-c4cccc(S(=O)(=O)[O-])c4F)c4nc(c(-c5cccc(S(=O)(=O)[O-])c5F)c5ccc2[nH]5)C=C4)C=C3)cc1
REMARK SMILES IDX 22 1 21 2 19 3 20 4 18 6 17 7 16 8 9 9 10 10 11 11 15 12
REMARK SMILES IDX 12 13 8 14 6 15 7 16 4 17 3 18 5 20 2 21 1 22 13 23 14 24
REMARK SMILES IDX 23 25 24 26 25 27 26 28 27 30 28 31 29 32 90 33 30 34 89 35
REMARK SMILES IDX 31 36 32 37 33 38 83 39 34 40 88 41 82 42 84 43 35 44 87 45
REMARK SMILES IDX 81 46 80 47 36 49 68 50 48 51 67 52 49 53 52 54 66 55 85 56
REMARK SMILES IDX 50 57 51 58 65 60 86 61 53 62 37 63 38 64 46 65 39 66 41 67
REMARK SMILES IDX 47 68 40 69 42 70 43 71 44 72 45 73 69 74 70 75 78 76 71 77
REMARK SMILES IDX 73 78 79 79 72 80 74 81 75 82 76 83 77 84 54 85 55 86 63 87
REMARK SMILES IDX 56 88 58 89 64 90 57 91 59 92 60 93 61 94 62 95
REMARK H PARENT 21 5 3 19 25 29 84 48 52 59
REMARK Flexibility Score: inf
ROOT
ATOM      1  C   UNL     1       1.750   2.623  -3.846  1.00  0.00     0.118 C 
ENDROOT
BRANCH   1   2
ATOM      2  N   UNL     1       3.053   2.849  -3.252  1.00  0.00    -0.352 N 
ATOM      3  C   UNL     1       3.398   2.911  -1.941  1.00  0.00     0.244 C 
ATOM      4  O   UNL     1       4.586   2.920  -1.621  1.00  0.00    -0.270 OA
ATOM      5  H   UNL     1       3.792   2.975  -3.890  1.00  0.00     0.163 HD
BRANCH   3   6
ATOM      6  C   UNL     1       2.378   2.813  -0.873  1.00  0.00     0.072 C 
ATOM      7  C   UNL     1       1.209   3.470  -0.768  1.00  0.00     0.018 C 
BRANCH   7   8
ATOM      8  C   UNL     1       0.306   3.219   0.373  1.00  0.00     0.020 A 
ATOM      9  C   UNL     1      -1.069   2.964   0.212  1.00  0.00     0.127 A 
ATOM     10  C   UNL     1      -1.875   2.763   1.338  1.00  0.00     0.051 A 
ATOM     11  C   UNL     1      -1.306   2.686   2.611  1.00  0.00     0.050 A 
ATOM     12  C   UNL     1       0.852   3.181   1.670  1.00  0.00     0.058 A 
ATOM     13  C   UNL     1       0.066   2.851   2.773  1.00  0.00     0.119 A 
BRANCH   9  14
ATOM     14  O   UNL     1      -1.657   3.063  -1.013  1.00  0.00    -0.480 OA
BRANCH  14  15
ATOM     15  C   UNL     1      -2.025   1.870  -1.708  1.00  0.00     0.258 C 
ATOM     16  C   UNL     1      -3.067   0.966  -1.052  1.00  0.00     0.064 C 
BRANCH  15  17
ATOM     17  C   UNL     1      -0.935   1.065  -2.448  1.00  0.00     0.260 C 
ATOM     18  N   UNL     1      -0.035   0.257  -1.829  1.00  0.00    -0.353 N 
ATOM     19  H   UNL     1       0.631  -0.142  -2.433  1.00  0.00     0.163 HD
ATOM     20  O   UNL     1      -0.849   1.121  -3.682  1.00  0.00    -0.271 OA
BRANCH  18  21
ATOM     21  C   UNL     1       0.121  -0.122  -0.442  1.00  0.00     0.112 C 
ATOM     22  C   UNL     1       0.914  -1.409  -0.328  1.00  0.00     0.027 C 
ENDBRANCH  18  21
ENDBRANCH  15  17
ENDBRANCH  14  15
ENDBRANCH   9  14
BRANCH  13  23
ATOM     23  O   UNL     1       0.553   2.695   4.042  1.00  0.00    -0.497 OA
ATOM     24  C   UNL     1       1.865   2.136   4.098  1.00  0.00     0.278 C 
ENDBRANCH  13  23
ENDBRANCH   7   8
ENDBRANCH   3   6
ENDBRANCH   1   2
BRANCH   1  25
ATOM     25  C   UNL     1       1.337   3.742  -4.784  1.00  0.00     0.042 C 
BRANCH  25  26
ATOM     26  C   UNL     1       1.792   3.495  -6.213  1.00  0.00     0.118 C 
BRANCH  26  27
ATOM     27  N   UNL     1       0.997   2.476  -6.897  1.00  0.00    -0.352 N 
ATOM     28  C   UNL     1       0.134   2.566  -7.965  1.00  0.00     0.251 C 
ATOM     29  H   UNL     1       1.097   1.568  -6.531  1.00  0.00     0.163 HD
ATOM     30  O   UNL     1      -0.514   1.577  -8.305  1.00  0.00    -0.269 OA
BRANCH  28  31
ATOM     31  C   UNL     1      -0.056   3.845  -8.686  1.00  0.00     0.039 A 
ATOM     32  C   UNL     1      -1.345   4.213  -9.088  1.00  0.00     0.014 A 
ATOM     33  C   UNL     1       1.016   4.692  -8.957  1.00  0.00     0.014 A 
ATOM     34  C   UNL     1      -1.565   5.469  -9.664  1.00  0.00     0.010 A 
ATOM     35  C   UNL     1       0.780   5.984  -9.411  1.00  0.00     0.010 A 
ATOM     36  C   UNL     1      -0.512   6.391  -9.775  1.00  0.00    -0.014 A 
BRANCH  36  37
ATOM     37  C   UNL     1      -0.722   7.784 -10.254  1.00  0.00     0.031 A 
ATOM     38  C   UNL     1       0.069   8.305 -11.428  1.00  0.00     0.074 A 
ATOM     39  C   UNL     1      -1.521   8.621  -9.560  1.00  0.00     0.049 A 
ATOM     40  N   UNL     1       0.150   9.523 -11.896  1.00  0.00    -0.248 NA
ATOM     41  C   UNL     1       0.915   7.335 -12.145  1.00  0.00     0.031 C 
ATOM     42  C   UNL     1      -2.278   8.270  -8.355  1.00  0.00     0.029 A 
ATOM     43  N   UNL     1      -1.801   9.953  -9.746  1.00  0.00    -0.354 N 
ATOM     44  C   UNL     1       1.092   9.477 -12.917  1.00  0.00     0.074 A 
ATOM     45  C   UNL     1       1.583   8.119 -12.977  1.00  0.00     0.031 C 
ATOM     46  C   UNL     1      -2.938   9.353  -7.915  1.00  0.00     0.029 A 
ATOM     47  C   UNL     1      -2.620  10.486  -8.776  1.00  0.00     0.049 A 
ATOM     48  H   UNL     1      -1.449  10.477 -10.501  1.00  0.00     0.167 HD
ATOM     49  C   UNL     1       1.491  10.466 -13.752  1.00  0.00     0.034 A 
ATOM     50  C   UNL     1      -3.054  11.749  -8.590  1.00  0.00     0.034 A 
ATOM     51  C   UNL     1       0.950  11.797 -13.737  1.00  0.00     0.049 A 
ATOM     52  C   UNL     1      -2.639  12.815  -9.567  1.00  0.00     0.074 A 
ATOM     53  C   UNL     1       1.206  12.839 -14.610  1.00  0.00     0.029 A 
ATOM     54  N   UNL     1       0.040  12.270 -12.805  1.00  0.00    -0.354 N 
ATOM     55  N   UNL     1      -1.866  12.714 -10.621  1.00  0.00    -0.248 NA
ATOM     56  C   UNL     1      -3.180  14.165  -9.348  1.00  0.00     0.031 C 
ATOM     57  C   UNL     1       0.466  13.950 -14.193  1.00  0.00     0.029 A 
ATOM     58  C   UNL     1      -0.269  13.592 -13.074  1.00  0.00     0.049 A 
ATOM     59  H   UNL     1      -0.331  11.744 -12.060  1.00  0.00     0.167 HD
ATOM     60  C   UNL     1      -1.853  13.975 -11.207  1.00  0.00     0.074 A 
ATOM     61  C   UNL     1      -2.717  14.816 -10.405  1.00  0.00     0.031 C 
ATOM     62  C   UNL     1      -1.172  14.403 -12.299  1.00  0.00     0.034 A 
BRANCH  49  63
ATOM     63  C   UNL     1       2.522  10.127 -14.799  1.00  0.00     0.023 A 
ATOM     64  C   UNL     1       2.165   9.297 -15.882  1.00  0.00     0.012 A 
ATOM     65  C   UNL     1       3.820  10.672 -14.746  1.00  0.00     0.148 A 
ATOM     66  C   UNL     1       3.092   8.983 -16.874  1.00  0.00     0.002 A 
ATOM     67  C   UNL     1       4.725  10.393 -15.764  1.00  0.00     0.091 A 
ATOM     68  F   UNL     1       4.148  11.443 -13.700  1.00  0.00    -0.205 F 
ATOM     69  C   UNL     1       4.367   9.539 -16.821  1.00  0.00     0.022 A 
BRANCH  67  70
ATOM     70  S   UNL     1       6.365  11.122 -15.833  1.00  0.00     0.127 S 
ATOM     71  O   UNL     1       7.215   9.965 -15.555  1.00  0.00    -0.237 OA
ATOM     72  O   UNL     1       6.428  11.607 -17.212  1.00  0.00    -0.237 OA
ATOM     73  O   UNL     1       6.383  12.168 -14.819  1.00  0.00    -0.744 OA
ENDBRANCH  67  70
ENDBRANCH  49  63
BRANCH  50  74
ATOM     74  C   UNL     1      -3.982  12.063  -7.466  1.00  0.00     0.023 A 
ATOM     75  C   UNL     1      -5.323  12.388  -7.752  1.00  0.00     0.012 A 
ATOM     76  C   UNL     1      -3.559  12.022  -6.124  1.00  0.00     0.148 A 
ATOM     77  C   UNL     1      -6.216  12.700  -6.727  1.00  0.00     0.002 A 
ATOM     78  C   UNL     1      -4.467  12.281  -5.103  1.00  0.00     0.091 A 
ATOM     79  F   UNL     1      -2.277  11.723  -5.870  1.00  0.00    -0.205 F 
ATOM     80  C   UNL     1      -5.791  12.637  -5.403  1.00  0.00     0.022 A 
BRANCH  78  81
ATOM     81  S   UNL     1      -4.044  12.097  -3.366  1.00  0.00     0.127 S 
ATOM     82  O   UNL     1      -4.005  13.487  -2.920  1.00  0.00    -0.237 OA
ATOM     83  O   UNL     1      -5.175  11.319  -2.860  1.00  0.00    -0.237 OA
ATOM     84  O   UNL     1      -2.772  11.388  -3.346  1.00  0.00    -0.744 OA
ENDBRANCH  78  81
ENDBRANCH  50  74
BRANCH  62  85
ATOM     85  C   UNL     1      -1.351  15.839 -12.714  1.00  0.00     0.023 A 
ATOM     86  C   UNL     1      -0.764  16.866 -11.950  1.00  0.00     0.012 A 
ATOM     87  C   UNL     1      -2.037  16.165 -13.902  1.00  0.00     0.148 A 
ATOM     88  C   UNL     1      -0.882  18.198 -12.343  1.00  0.00     0.002 A 
ATOM     89  C   UNL     1      -2.109  17.490 -14.313  1.00  0.00     0.091 A 
ATOM     90  F   UNL     1      -2.604  15.174 -14.606  1.00  0.00    -0.205 F 
ATOM     91  C   UNL     1      -1.543  18.509 -13.529  1.00  0.00     0.022 A 
BRANCH  89  92
ATOM     92  S   UNL     1      -2.855  17.975 -15.874  1.00  0.00     0.127 S 
ATOM     93  O   UNL     1      -4.090  18.616 -15.427  1.00  0.00    -0.237 OA
ATOM     94  O   UNL     1      -1.856  18.891 -16.424  1.00  0.00    -0.237 OA
ATOM     95  O   UNL     1      -3.030  16.745 -16.634  1.00  0.00    -0.744 OA
ENDBRANCH  89  92
ENDBRANCH  62  85
ENDBRANCH  36  37
ENDBRANCH  28  31
ENDBRANCH  26  27
ENDBRANCH  25  26
ENDBRANCH   1  25
TORSDOF 19
