REMARK SMILES Cc1ccc(NC(=O)C[C@H]2C(=O)NCCN2C(=O)CCC(=O)NCCCNC(=O)c2ccc(-c3c4nc(c(-c5cccc(S(=O)(=O)[O-])c5F)c5ccc([nH]5)c(-c5cccc(S(=O)(=O)[O-])c5F)c5nc(c(-c6cccc(S(=O)(=O)[O-])c6F)c6ccc3[nH]6)C=C5)C=C4)cc2)c(C)c1
REMARK SMILES IDX 21 1 22 2 23 3 20 5 19 6 17 7 18 8 16 9 10 10 11 11 12 12
REMARK SMILES IDX 13 13 15 14 14 15 9 17 7 18 6 19 8 21 5 22 1 23 2 24 3 25
REMARK SMILES IDX 95 26 4 27 93 28 94 29 24 30 25 31 26 32 27 33 28 34 29 36
REMARK SMILES IDX 30 37 31 38 92 39 32 40 91 41 33 42 34 43 35 44 85 45 36 46
REMARK SMILES IDX 90 47 84 48 86 49 37 50 89 51 83 52 82 53 38 55 70 56 50 57
REMARK SMILES IDX 69 58 51 59 54 60 68 61 87 62 52 63 53 64 67 66 88 67 55 68
REMARK SMILES IDX 39 69 40 70 48 71 41 72 43 73 49 74 42 75 44 76 45 77 46 78
REMARK SMILES IDX 47 79 71 80 72 81 80 82 73 83 75 84 81 85 74 86 76 87 77 88
REMARK SMILES IDX 78 89 79 90 56 91 57 92 65 93 58 94 60 95 66 96 59 97 61 98
REMARK SMILES IDX 62 99 63 100 64 101
REMARK H PARENT 23 4 13 16 6 20 27 35 86 54 54 65
REMARK Flexibility Score: inf
ROOT
ATOM      1  C   UNL     1      -2.834   1.302  -1.062  1.00  0.00     0.220 C 
ATOM      2  O   UNL     1      -1.927   0.530  -1.386  1.00  0.00    -0.275 OA
ATOM      3  N   UNL     1      -2.629   2.152  -0.017  1.00  0.00    -0.356 N 
ATOM      4  H   UNL     1      -1.756   1.992   0.410  1.00  0.00     0.163 HD
ENDROOT
BRANCH   1   5
ATOM      5  C   UNL     1      -4.155   1.208  -1.730  1.00  0.00     0.110 C 
BRANCH   5   6
ATOM      6  C   UNL     1      -5.029   0.308  -0.889  1.00  0.00     0.110 C 
BRANCH   6   7
ATOM      7  C   UNL     1      -5.445   1.075   0.320  1.00  0.00     0.223 C 
ATOM      8  O   UNL     1      -6.387   1.866   0.165  1.00  0.00    -0.275 OA
BRANCH   7   9
ATOM      9  N   UNL     1      -4.746   0.991   1.535  1.00  0.00    -0.328 N 
ATOM     10  C   UNL     1      -3.466   0.185   1.878  1.00  0.00     0.183 C 
ATOM     11  C   UNL     1      -3.763  -0.708   3.120  1.00  0.00     0.243 C 
ATOM     12  O   UNL     1      -3.082  -1.697   3.391  1.00  0.00    -0.273 OA
ATOM     13  N   UNL     1      -4.763  -0.358   3.981  1.00  0.00    -0.353 N 
ATOM     14  C   UNL     1      -5.599   1.542   2.604  1.00  0.00     0.141 C 
ATOM     15  C   UNL     1      -5.565   0.837   3.934  1.00  0.00     0.137 C 
ATOM     16  H   UNL     1      -4.957  -0.989   4.711  1.00  0.00     0.163 HD
BRANCH  10  17
ATOM     17  C   UNL     1      -1.787   0.554   1.841  1.00  0.00     0.135 C 
BRANCH  17  18
ATOM     18  C   UNL     1      -0.551   1.664   1.998  1.00  0.00     0.227 C 
ATOM     19  N   UNL     1       0.008   2.743   1.327  1.00  0.00    -0.326 N 
ATOM     20  H   UNL     1       0.939   2.843   1.631  1.00  0.00     0.169 HD
ATOM     21  O   UNL     1       0.185   1.435   2.991  1.00  0.00    -0.275 OA
BRANCH  19  22
ATOM     22  C   UNL     1      -0.258   3.770   0.356  1.00  0.00     0.044 A 
ATOM     23  C   UNL     1      -2.867   6.349  -1.790  1.00  0.00     0.044 C 
ATOM     24  C   UNL     1      -1.661   5.675  -1.187  1.00  0.00    -0.051 A 
ATOM     25  C   UNL     1      -1.234   5.997   0.101  1.00  0.00     0.005 A 
ATOM     26  C   UNL     1      -1.099   4.544  -1.789  1.00  0.00     0.009 A 
ATOM     27  C   UNL     1      -0.470   5.073   0.841  1.00  0.00     0.026 A 
ATOM     28  C   UNL     1      -0.362   3.600  -1.031  1.00  0.00    -0.027 A 
ATOM     29  C   UNL     1       0.325   2.487  -1.763  1.00  0.00     0.046 C 
ENDBRANCH  19  22
ENDBRANCH  17  18
ENDBRANCH  10  17
ENDBRANCH   7   9
ENDBRANCH   6   7
ENDBRANCH   5   6
ENDBRANCH   1   5
BRANCH   3  30
ATOM     30  C   UNL     1      -3.363   3.249   0.650  1.00  0.00     0.117 C 
BRANCH  30  31
ATOM     31  C   UNL     1      -3.066   3.767   2.133  1.00  0.00     0.042 C 
BRANCH  31  32
ATOM     32  C   UNL     1      -2.983   3.022   3.497  1.00  0.00     0.118 C 
BRANCH  32  33
ATOM     33  N   UNL     1      -1.752   3.233   4.271  1.00  0.00    -0.352 N 
ATOM     34  C   UNL     1      -1.536   3.211   5.643  1.00  0.00     0.251 C 
ATOM     35  H   UNL     1      -0.951   3.420   3.731  1.00  0.00     0.163 HD
ATOM     36  O   UNL     1      -0.433   3.426   6.099  1.00  0.00    -0.269 OA
BRANCH  34  37
ATOM     37  C   UNL     1      -2.672   2.975   6.565  1.00  0.00     0.039 A 
ATOM     38  C   UNL     1      -2.985   3.950   7.513  1.00  0.00     0.014 A 
ATOM     39  C   UNL     1      -3.423   1.805   6.501  1.00  0.00     0.014 A 
ATOM     40  C   UNL     1      -4.135   3.812   8.301  1.00  0.00     0.010 A 
ATOM     41  C   UNL     1      -4.606   1.698   7.245  1.00  0.00     0.010 A 
ATOM     42  C   UNL     1      -5.000   2.717   8.126  1.00  0.00    -0.014 A 
BRANCH  42  43
ATOM     43  C   UNL     1      -6.333   2.679   8.799  1.00  0.00     0.031 A 
ATOM     44  C   UNL     1      -6.711   1.566   9.742  1.00  0.00     0.074 A 
ATOM     45  C   UNL     1      -7.257   3.619   8.500  1.00  0.00     0.049 A 
ATOM     46  N   UNL     1      -7.817   1.409  10.428  1.00  0.00    -0.248 NA
ATOM     47  C   UNL     1      -5.741   0.475   9.917  1.00  0.00     0.031 C 
ATOM     48  C   UNL     1      -7.080   4.700   7.527  1.00  0.00     0.029 A 
ATOM     49  N   UNL     1      -8.531   3.817   8.979  1.00  0.00    -0.354 N 
ATOM     50  C   UNL     1      -7.688   0.195  11.091  1.00  0.00     0.074 A 
ATOM     51  C   UNL     1      -6.416  -0.367  10.687  1.00  0.00     0.031 C 
ATOM     52  C   UNL     1      -8.182   5.468   7.513  1.00  0.00     0.029 A 
ATOM     53  C   UNL     1      -9.156   4.926   8.455  1.00  0.00     0.049 A 
ATOM     54  H   UNL     1      -8.957   3.220   9.636  1.00  0.00     0.167 HD
ATOM     55  C   UNL     1      -8.524  -0.387  11.986  1.00  0.00     0.034 A 
ATOM     56  C   UNL     1     -10.365   5.465   8.715  1.00  0.00     0.034 A 
ATOM     57  C   UNL     1      -9.763   0.189  12.438  1.00  0.00     0.049 A 
ATOM     58  C   UNL     1     -11.255   4.831   9.751  1.00  0.00     0.074 A 
ATOM     59  C   UNL     1     -10.618  -0.273  13.424  1.00  0.00     0.029 A 
ATOM     60  N   UNL     1     -10.328   1.350  11.935  1.00  0.00    -0.354 N 
ATOM     61  N   UNL     1     -11.024   3.786  10.508  1.00  0.00    -0.248 NA
ATOM     62  C   UNL     1     -12.556   5.473   9.995  1.00  0.00     0.031 C 
ATOM     63  C   UNL     1     -11.709   0.601  13.505  1.00  0.00     0.029 A 
ATOM     64  C   UNL     1     -11.526   1.614  12.579  1.00  0.00     0.049 A 
ATOM     65  H   UNL     1      -9.936   1.906  11.224  1.00  0.00     0.167 HD
ATOM     66  C   UNL     1     -12.131   3.668  11.342  1.00  0.00     0.074 A 
ATOM     67  C   UNL     1     -13.025   4.758  11.009  1.00  0.00     0.031 C 
ATOM     68  C   UNL     1     -12.388   2.731  12.287  1.00  0.00     0.034 A 
BRANCH  55  69
ATOM     69  C   UNL     1      -8.084  -1.694  12.595  1.00  0.00     0.023 A 
ATOM     70  C   UNL     1      -7.022  -1.699  13.524  1.00  0.00     0.012 A 
ATOM     71  C   UNL     1      -8.734  -2.904  12.286  1.00  0.00     0.148 A 
ATOM     72  C   UNL     1      -6.584  -2.891  14.098  1.00  0.00     0.002 A 
ATOM     73  C   UNL     1      -8.319  -4.083  12.896  1.00  0.00     0.091 A 
ATOM     74  F   UNL     1      -9.728  -2.888  11.385  1.00  0.00    -0.205 F 
ATOM     75  C   UNL     1      -7.237  -4.081  13.790  1.00  0.00     0.022 A 
BRANCH  73  76
ATOM     76  S   UNL     1      -9.157  -5.648  12.617  1.00  0.00     0.127 S 
ATOM     77  O   UNL     1      -8.281  -6.281  11.632  1.00  0.00    -0.237 OA
ATOM     78  O   UNL     1      -9.125  -6.263  13.945  1.00  0.00    -0.237 OA
ATOM     79  O   UNL     1     -10.491  -5.299  12.149  1.00  0.00    -0.744 OA
ENDBRANCH  73  76
ENDBRANCH  55  69
BRANCH  56  80
ATOM     80  C   UNL     1     -10.763   6.746   8.063  1.00  0.00     0.023 A 
ATOM     81  C   UNL     1     -10.805   7.922   8.839  1.00  0.00     0.012 A 
ATOM     82  C   UNL     1     -11.063   6.819   6.690  1.00  0.00     0.148 A 
ATOM     83  C   UNL     1     -11.163   9.142   8.266  1.00  0.00     0.002 A 
ATOM     84  C   UNL     1     -11.369   8.048   6.114  1.00  0.00     0.091 A 
ATOM     85  F   UNL     1     -11.029   5.688   5.972  1.00  0.00    -0.205 F 
ATOM     86  C   UNL     1     -11.435   9.207   6.902  1.00  0.00     0.022 A 
BRANCH  84  87
ATOM     87  S   UNL     1     -11.606   8.252   4.345  1.00  0.00     0.127 S 
ATOM     88  O   UNL     1     -13.037   8.533   4.265  1.00  0.00    -0.237 OA
ATOM     89  O   UNL     1     -10.735   9.391   4.053  1.00  0.00    -0.237 OA
ATOM     90  O   UNL     1     -11.173   6.997   3.745  1.00  0.00    -0.744 OA
ENDBRANCH  84  87
ENDBRANCH  56  80
BRANCH  68  91
ATOM     91  C   UNL     1     -13.677   2.844  13.059  1.00  0.00     0.023 A 
ATOM     92  C   UNL     1     -14.896   2.515  12.434  1.00  0.00     0.012 A 
ATOM     93  C   UNL     1     -13.676   3.202  14.422  1.00  0.00     0.148 A 
ATOM     94  C   UNL     1     -16.095   2.564  13.144  1.00  0.00     0.002 A 
ATOM     95  C   UNL     1     -14.870   3.207  15.136  1.00  0.00     0.091 A 
ATOM     96  F   UNL     1     -12.510   3.534  14.996  1.00  0.00    -0.205 F 
ATOM     97  C   UNL     1     -16.081   2.898  14.496  1.00  0.00     0.022 A 
BRANCH  95  98
ATOM     98  S   UNL     1     -14.932   3.535  16.902  1.00  0.00     0.127 S 
ATOM     99  O   UNL     1     -15.460   4.898  16.933  1.00  0.00    -0.237 OA
ATOM    100  O   UNL     1     -15.861   2.510  17.379  1.00  0.00    -0.237 OA
ATOM    101  O   UNL     1     -13.566   3.379  17.383  1.00  0.00    -0.744 OA
ENDBRANCH  95  98
ENDBRANCH  68  91
ENDBRANCH  42  43
ENDBRANCH  34  37
ENDBRANCH  32  33
ENDBRANCH  31  32
ENDBRANCH  30  31
ENDBRANCH   3  30
TORSDOF 19
