REMARK SMILES Nc1ncccc1C[N@@H+]1CC2(CC[NH2+]CC2)C[C@H]1C(=O)NCCCNC(=O)c1ccc(-c2c3nc(c(-c4cccc(S(=O)(=O)[O-])c4F)c4ccc([nH]4)c(-c4cccc(S(=O)(=O)[O-])c4F)c4nc(c(-c5cccc(S(=O)(=O)[O-])c5F)c5ccc2[nH]5)C=C4)C=C3)cc1
REMARK SMILES IDX 23 1 22 2 21 3 19 4 20 5 18 7 9 8 10 9 11 11 17 12 12 13
REMARK SMILES IDX 16 14 13 15 15 16 14 17 8 20 7 21 2 22 3 23 4 24 6 25 5 26
REMARK SMILES IDX 1 27 24 30 25 31 26 32 27 34 28 35 29 36 90 37 30 38 89 39
REMARK SMILES IDX 31 40 32 41 33 42 83 43 34 44 88 45 82 46 84 47 35 48 87 49
REMARK SMILES IDX 81 50 80 51 36 53 68 54 48 55 67 56 49 57 52 58 66 59 85 60
REMARK SMILES IDX 50 61 51 62 65 64 86 65 53 66 37 67 38 68 46 69 39 70 41 71
REMARK SMILES IDX 47 72 40 73 42 74 43 75 44 76 45 77 69 78 70 79 78 80 71 81
REMARK SMILES IDX 73 82 79 83 72 84 74 85 75 86 76 87 77 88 54 89 55 90 63 91
REMARK SMILES IDX 56 92 58 93 64 94 57 95 59 96 60 97 61 98 62 99
REMARK H PARENT 21 6 9 10 14 18 14 19 1 28 1 29 25 33 84 52 52 63
REMARK Flexibility Score: inf
ROOT
ATOM      1  C   UNL     1      -1.407  -5.694   3.658  1.00  0.00     0.042 C 
ENDROOT
BRANCH   1   2
ATOM      2  C   UNL     1      -1.210  -4.260   4.099  1.00  0.00     0.118 C 
BRANCH   2   3
ATOM      3  N   UNL     1       0.133  -3.797   4.249  1.00  0.00    -0.351 N 
ATOM      4  C   UNL     1       0.716  -2.718   3.649  1.00  0.00     0.278 C 
ATOM      5  O   UNL     1       1.808  -2.376   4.126  1.00  0.00    -0.268 OA
ATOM      6  H   UNL     1       0.705  -4.318   4.858  1.00  0.00     0.163 HD
BRANCH   4   7
ATOM      7  C   UNL     1       0.126  -1.942   2.416  1.00  0.00     0.275 C 
ATOM      8  N   UNL     1       0.017  -2.824   1.244  1.00  0.00    -0.320 N 
ATOM      9  C   UNL     1      -1.411  -3.034   0.947  1.00  0.00     0.270 C 
ATOM     10  H   UNL     1       0.397  -3.748   1.448  1.00  0.00     0.349 HD
ATOM     11  C   UNL     1      -2.262  -1.933   1.660  1.00  0.00     0.036 C 
ATOM     12  C   UNL     1      -1.195  -1.155   2.471  1.00  0.00     0.089 C 
ATOM     13  C   UNL     1      -3.426  -2.301   2.636  1.00  0.00     0.074 C 
ATOM     14  C   UNL     1      -3.041  -1.156   0.565  1.00  0.00     0.074 C 
ATOM     15  C   UNL     1      -4.481  -3.198   2.008  1.00  0.00     0.261 C 
ATOM     16  C   UNL     1      -4.131  -2.043  -0.081  1.00  0.00     0.261 C 
ATOM     17  N   UNL     1      -5.119  -2.512   0.888  1.00  0.00    -0.346 N 
ATOM     18  H   UNL     1      -5.642  -1.711   1.244  1.00  0.00     0.346 HD
ATOM     19  H   UNL     1      -5.742  -3.170   0.420  1.00  0.00     0.346 HD
BRANCH   8  20
ATOM     20  C   UNL     1       0.902  -2.418   0.118  1.00  0.00     0.303 C 
BRANCH  20  21
ATOM     21  C   UNL     1       0.781  -0.986  -0.380  1.00  0.00     0.048 A 
ATOM     22  C   UNL     1       1.584   0.064   0.078  1.00  0.00     0.132 A 
ATOM     23  N   UNL     1       1.256   1.363  -0.082  1.00  0.00    -0.239 NA
ATOM     24  C   UNL     1       0.152   1.646  -0.800  1.00  0.00     0.113 A 
ATOM     25  C   UNL     1      -0.244  -0.646  -1.266  1.00  0.00     0.015 A 
ATOM     26  C   UNL     1      -0.589   0.688  -1.457  1.00  0.00     0.021 A 
BRANCH  22  27
ATOM     27  N   UNL     1       2.760  -0.139   0.771  1.00  0.00    -0.383 N 
ATOM     28  H   UNL     1       3.292   0.631   1.074  1.00  0.00     0.158 HD
ATOM     29  H   UNL     1       3.067  -1.055   0.962  1.00  0.00     0.158 HD
ENDBRANCH  22  27
ENDBRANCH  20  21
ENDBRANCH   8  20
ENDBRANCH   4   7
ENDBRANCH   2   3
ENDBRANCH   1   2
BRANCH   1  30
ATOM     30  C   UNL     1      -1.796  -6.621   4.794  1.00  0.00     0.118 C 
BRANCH  30  31
ATOM     31  N   UNL     1      -3.067  -6.259   5.426  1.00  0.00    -0.352 N 
ATOM     32  C   UNL     1      -4.228  -6.981   5.600  1.00  0.00     0.251 C 
ATOM     33  H   UNL     1      -3.096  -5.344   5.788  1.00  0.00     0.163 HD
ATOM     34  O   UNL     1      -5.221  -6.424   6.043  1.00  0.00    -0.269 OA
BRANCH  32  35
ATOM     35  C   UNL     1      -4.277  -8.414   5.231  1.00  0.00     0.039 A 
ATOM     36  C   UNL     1      -5.433  -8.927   4.635  1.00  0.00     0.014 A 
ATOM     37  C   UNL     1      -3.183  -9.247   5.461  1.00  0.00     0.014 A 
ATOM     38  C   UNL     1      -5.451 -10.252   4.190  1.00  0.00     0.010 A 
ATOM     39  C   UNL     1      -3.157 -10.518   4.908  1.00  0.00     0.010 A 
ATOM     40  C   UNL     1      -4.294 -11.042   4.279  1.00  0.00    -0.014 A 
BRANCH  40  41
ATOM     41  C   UNL     1      -4.234 -12.418   3.728  1.00  0.00     0.031 A 
ATOM     42  C   UNL     1      -3.906 -13.576   4.633  1.00  0.00     0.074 A 
ATOM     43  C   UNL     1      -4.354 -12.608   2.399  1.00  0.00     0.049 A 
ATOM     44  N   UNL     1      -3.710 -14.832   4.328  1.00  0.00    -0.248 NA
ATOM     45  C   UNL     1      -3.734 -13.275   6.065  1.00  0.00     0.031 C 
ATOM     46  C   UNL     1      -4.583 -11.553   1.410  1.00  0.00     0.029 A 
ATOM     47  N   UNL     1      -4.268 -13.753   1.648  1.00  0.00    -0.354 N 
ATOM     48  C   UNL     1      -3.344 -15.456   5.515  1.00  0.00     0.074 A 
ATOM     49  C   UNL     1      -3.301 -14.434   6.535  1.00  0.00     0.031 C 
ATOM     50  C   UNL     1      -4.638 -12.101   0.186  1.00  0.00     0.029 A 
ATOM     51  C   UNL     1      -4.408 -13.537   0.297  1.00  0.00     0.049 A 
ATOM     52  H   UNL     1      -4.120 -14.644   2.039  1.00  0.00     0.167 HD
ATOM     53  C   UNL     1      -3.096 -16.768   5.743  1.00  0.00     0.034 A 
ATOM     54  C   UNL     1      -4.350 -14.399  -0.737  1.00  0.00     0.034 A 
ATOM     55  C   UNL     1      -3.190 -17.785   4.732  1.00  0.00     0.049 A 
ATOM     56  C   UNL     1      -4.115 -15.857  -0.454  1.00  0.00     0.074 A 
ATOM     57  C   UNL     1      -3.072 -19.155   4.875  1.00  0.00     0.029 A 
ATOM     58  N   UNL     1      -3.412 -17.540   3.385  1.00  0.00    -0.354 N 
ATOM     59  N   UNL     1      -3.940 -16.456   0.699  1.00  0.00    -0.248 NA
ATOM     60  C   UNL     1      -4.099 -16.762  -1.611  1.00  0.00     0.031 C 
ATOM     61  C   UNL     1      -3.189 -19.736   3.608  1.00  0.00     0.029 A 
ATOM     62  C   UNL     1      -3.412 -18.730   2.680  1.00  0.00     0.049 A 
ATOM     63  H   UNL     1      -3.550 -16.649   2.989  1.00  0.00     0.167 HD
ATOM     64  C   UNL     1      -3.821 -17.811   0.411  1.00  0.00     0.074 A 
ATOM     65  C   UNL     1      -3.969 -17.945  -1.024  1.00  0.00     0.031 C 
ATOM     66  C   UNL     1      -3.596 -18.849   1.255  1.00  0.00     0.034 A 
BRANCH  53  67
ATOM     67  C   UNL     1      -2.743 -17.174   7.152  1.00  0.00     0.023 A 
ATOM     68  C   UNL     1      -3.716 -17.096   8.170  1.00  0.00     0.012 A 
ATOM     69  C   UNL     1      -1.456 -17.651   7.467  1.00  0.00     0.148 A 
ATOM     70  C   UNL     1      -3.401 -17.434   9.485  1.00  0.00     0.002 A 
ATOM     71  C   UNL     1      -1.164 -18.036   8.771  1.00  0.00     0.091 A 
ATOM     72  F   UNL     1      -0.534 -17.698   6.494  1.00  0.00    -0.205 F 
ATOM     73  C   UNL     1      -2.129 -17.913   9.783  1.00  0.00     0.022 A 
BRANCH  71  74
ATOM     74  S   UNL     1       0.420 -18.742   9.238  1.00  0.00     0.127 S 
ATOM     75  O   UNL     1       1.025 -17.641   9.985  1.00  0.00    -0.237 OA
ATOM     76  O   UNL     1       0.017 -19.886  10.058  1.00  0.00    -0.237 OA
ATOM     77  O   UNL     1       1.084 -19.095   7.991  1.00  0.00    -0.744 OA
ENDBRANCH  71  74
ENDBRANCH  53  67
BRANCH  54  78
ATOM     78  C   UNL     1      -4.598 -13.910  -2.123  1.00  0.00     0.023 A 
ATOM     79  C   UNL     1      -5.801 -14.259  -2.768  1.00  0.00     0.012 A 
ATOM     80  C   UNL     1      -3.685 -13.064  -2.782  1.00  0.00     0.148 A 
ATOM     81  C   UNL     1      -6.080 -13.796  -4.053  1.00  0.00     0.002 A 
ATOM     82  C   UNL     1      -3.993 -12.562  -4.041  1.00  0.00     0.091 A 
ATOM     83  F   UNL     1      -2.545 -12.748  -2.152  1.00  0.00    -0.205 F 
ATOM     84  C   UNL     1      -5.182 -12.939  -4.685  1.00  0.00     0.022 A 
BRANCH  82  85
ATOM     85  S   UNL     1      -2.963 -11.353  -4.882  1.00  0.00     0.127 S 
ATOM     86  O   UNL     1      -2.496 -12.111  -6.040  1.00  0.00    -0.237 OA
ATOM     87  O   UNL     1      -3.929 -10.297  -5.185  1.00  0.00    -0.237 OA
ATOM     88  O   UNL     1      -1.935 -10.973  -3.923  1.00  0.00    -0.744 OA
ENDBRANCH  82  85
ENDBRANCH  54  78
BRANCH  66  89
ATOM     89  C   UNL     1      -3.514 -20.228   0.655  1.00  0.00     0.023 A 
ATOM     90  C   UNL     1      -2.388 -20.592  -0.111  1.00  0.00     0.012 A 
ATOM     91  C   UNL     1      -4.515 -21.185   0.912  1.00  0.00     0.148 A 
ATOM     92  C   UNL     1      -2.277 -21.877  -0.640  1.00  0.00     0.002 A 
ATOM     93  C   UNL     1      -4.372 -22.479   0.425  1.00  0.00     0.091 A 
ATOM     94  F   UNL     1      -5.586 -20.814   1.629  1.00  0.00    -0.205 F 
ATOM     95  C   UNL     1      -3.261 -22.822  -0.362  1.00  0.00     0.022 A 
BRANCH  93  96
ATOM     96  S   UNL     1      -5.537 -23.790   0.814  1.00  0.00     0.127 S 
ATOM     97  O   UNL     1      -6.195 -23.995  -0.475  1.00  0.00    -0.237 OA
ATOM     98  O   UNL     1      -4.650 -24.878   1.228  1.00  0.00    -0.237 OA
ATOM     99  O   UNL     1      -6.390 -23.269   1.874  1.00  0.00    -0.744 OA
ENDBRANCH  93  96
ENDBRANCH  66  89
ENDBRANCH  40  41
ENDBRANCH  32  35
ENDBRANCH  30  31
ENDBRANCH   1  30
TORSDOF 16
