REMARK SMILES CCOc1ccc(-c2cc(Cl)cc3c2O[C@H](C(F)(F)F)C(C(=O)NCCCNC(=O)c2ccc(-c4c5nc(c(-c6cccc(S(=O)(=O)[O-])c6F)c6ccc([nH]6)c(-c6cccc(S(=O)(=O)[O-])c6F)c6nc(c(-c7cccc(S(=O)(=O)[O-])c7F)c7ccc4[nH]7)C=C6)C=C5)cc2)=C3)cc1
REMARK SMILES IDX 26 1 25 2 24 3 22 4 23 5 21 7 8 8 9 9 14 10 10 11 13 12
REMARK SMILES IDX 15 13 11 14 12 15 94 16 16 17 7 18 4 19 5 20 96 21 6 22
REMARK SMILES IDX 95 23 3 24 2 25 1 26 17 27 18 28 19 29 20 30 27 31 28 32
REMARK SMILES IDX 29 33 30 35 31 36 32 37 93 38 33 39 92 40 34 41 35 42 36 43
REMARK SMILES IDX 86 44 37 45 91 46 85 47 87 48 38 49 90 50 84 51 83 52 39 54
REMARK SMILES IDX 71 55 51 56 70 57 52 58 55 59 69 60 88 61 53 62 54 63 68 65
REMARK SMILES IDX 89 66 56 67 40 68 41 69 49 70 42 71 44 72 50 73 43 74 45 75
REMARK SMILES IDX 46 76 47 77 48 78 72 79 73 80 81 81 74 82 76 83 82 84 75 85
REMARK SMILES IDX 77 86 78 87 79 88 80 89 57 90 58 91 66 92 59 93 61 94 67 95
REMARK SMILES IDX 60 96 62 97 63 98 64 99 65 100
REMARK H PARENT 24 6 28 34 87 53 55 64
REMARK Flexibility Score: inf
ROOT
ATOM      1  C   UNL     1      13.696  -3.094  -6.489  1.00  0.00     0.042 C 
ENDROOT
BRANCH   1   2
ATOM      2  C   UNL     1      13.135  -2.728  -5.113  1.00  0.00     0.118 C 
BRANCH   2   3
ATOM      3  N   UNL     1      12.443  -1.456  -5.179  1.00  0.00    -0.352 N 
ATOM      4  C   UNL     1      11.137  -1.215  -4.911  1.00  0.00     0.251 C 
ATOM      5  O   UNL     1      10.521  -0.388  -5.574  1.00  0.00    -0.270 OA
ATOM      6  H   UNL     1      12.984  -0.679  -5.450  1.00  0.00     0.163 HD
BRANCH   4   7
ATOM      7  C   UNL     1      10.551  -1.872  -3.705  1.00  0.00     0.067 C 
ATOM      8  C   UNL     1       6.966   0.059  -3.576  1.00  0.00     0.026 A 
ATOM      9  C   UNL     1       7.204   1.443  -3.760  1.00  0.00     0.033 A 
ATOM     10  C   UNL     1       8.088  -0.741  -3.305  1.00  0.00     0.135 A 
ATOM     11  C   UNL     1       8.452   2.021  -3.526  1.00  0.00     0.042 A 
ATOM     12  C   UNL     1       9.316  -0.127  -2.962  1.00  0.00     0.019 A 
ATOM     13  O   UNL     1       8.060  -2.124  -3.391  1.00  0.00    -0.475 OA
ATOM     14  Cl  UNL     1       8.669   3.708  -3.773  1.00  0.00    -0.084 Cl
ATOM     15  C   UNL     1       9.500   1.249  -3.060  1.00  0.00     0.032 A 
ATOM     16  C   UNL     1      10.466  -1.012  -2.669  1.00  0.00     0.025 C 
ATOM     17  C   UNL     1       9.300  -2.701  -3.986  1.00  0.00     0.314 C 
BRANCH   8  18
ATOM     18  C   UNL     1       5.541  -0.337  -3.461  1.00  0.00    -0.014 A 
ATOM     19  C   UNL     1       2.804  -0.208  -2.762  1.00  0.00     0.119 A 
ATOM     20  C   UNL     1       3.217   0.193  -4.029  1.00  0.00     0.047 A 
ATOM     21  C   UNL     1       3.720  -0.794  -1.895  1.00  0.00     0.047 A 
ATOM     22  C   UNL     1       4.574   0.122  -4.378  1.00  0.00     0.013 A 
ATOM     23  C   UNL     1       5.075  -0.861  -2.243  1.00  0.00     0.013 A 
BRANCH  19  24
ATOM     24  O   UNL     1       1.480  -0.080  -2.445  1.00  0.00    -0.494 OA
BRANCH  24  25
ATOM     25  C   UNL     1       1.226   0.814  -1.350  1.00  0.00     0.226 C 
ATOM     26  C   UNL     1       0.996   0.048  -0.056  1.00  0.00     0.049 C 
ENDBRANCH  24  25
ENDBRANCH  19  24
ENDBRANCH   8  18
BRANCH  17  27
ATOM     27  C   UNL     1       9.539  -4.145  -3.491  1.00  0.00     0.429 C 
ATOM     28  F   UNL     1       8.749  -4.471  -2.441  1.00  0.00    -0.167 F 
ATOM     29  F   UNL     1       9.307  -5.048  -4.472  1.00  0.00    -0.167 F 
ATOM     30  F   UNL     1      10.819  -4.348  -3.079  1.00  0.00    -0.167 F 
ENDBRANCH  17  27
ENDBRANCH   4   7
ENDBRANCH   2   3
ENDBRANCH   1   2
BRANCH   1  31
ATOM     31  C   UNL     1      14.722  -2.107  -7.046  1.00  0.00     0.118 C 
BRANCH  31  32
ATOM     32  N   UNL     1      15.912  -1.985  -6.216  1.00  0.00    -0.352 N 
ATOM     33  C   UNL     1      17.233  -2.038  -6.593  1.00  0.00     0.251 C 
ATOM     34  H   UNL     1      15.749  -1.846  -5.255  1.00  0.00     0.163 HD
ATOM     35  O   UNL     1      18.117  -2.049  -5.740  1.00  0.00    -0.269 OA
BRANCH  33  36
ATOM     36  C   UNL     1      17.580  -2.112  -8.028  1.00  0.00     0.039 A 
ATOM     37  C   UNL     1      18.479  -3.091  -8.458  1.00  0.00     0.014 A 
ATOM     38  C   UNL     1      16.991  -1.241  -8.948  1.00  0.00     0.014 A 
ATOM     39  C   UNL     1      18.729  -3.246  -9.823  1.00  0.00     0.010 A 
ATOM     40  C   UNL     1      17.184  -1.447 -10.311  1.00  0.00     0.010 A 
ATOM     41  C   UNL     1      18.052  -2.453 -10.765  1.00  0.00    -0.014 A 
BRANCH  41  42
ATOM     42  C   UNL     1      18.214  -2.672 -12.226  1.00  0.00     0.031 A 
ATOM     43  C   UNL     1      18.764  -1.577 -13.101  1.00  0.00     0.074 A 
ATOM     44  C   UNL     1      17.769  -3.817 -12.782  1.00  0.00     0.049 A 
ATOM     45  N   UNL     1      18.895  -1.548 -14.401  1.00  0.00    -0.248 NA
ATOM     46  C   UNL     1      19.196  -0.341 -12.428  1.00  0.00     0.031 C 
ATOM     47  C   UNL     1      17.141  -4.923 -12.054  1.00  0.00     0.029 A 
ATOM     48  N   UNL     1      17.746  -4.229 -14.091  1.00  0.00    -0.354 N 
ATOM     49  C   UNL     1      19.381  -0.283 -14.707  1.00  0.00     0.074 A 
ATOM     50  C   UNL     1      19.493   0.439 -13.458  1.00  0.00     0.031 C 
ATOM     51  C   UNL     1      16.799  -5.886 -12.925  1.00  0.00     0.029 A 
ATOM     52  C   UNL     1      17.150  -5.456 -14.275  1.00  0.00     0.049 A 
ATOM     53  H   UNL     1      18.122  -3.697 -14.830  1.00  0.00     0.167 HD
ATOM     54  C   UNL     1      19.733   0.224 -15.912  1.00  0.00     0.034 A 
ATOM     55  C   UNL     1      16.903  -6.152 -15.402  1.00  0.00     0.034 A 
ATOM     56  C   UNL     1      19.670  -0.513 -17.145  1.00  0.00     0.049 A 
ATOM     57  C   UNL     1      17.344  -5.583 -16.724  1.00  0.00     0.074 A 
ATOM     58  C   UNL     1      20.094  -0.122 -18.403  1.00  0.00     0.029 A 
ATOM     59  N   UNL     1      19.147  -1.790 -17.278  1.00  0.00    -0.354 N 
ATOM     60  N   UNL     1      17.952  -4.449 -16.972  1.00  0.00    -0.248 NA
ATOM     61  C   UNL     1      17.097  -6.405 -17.918  1.00  0.00     0.031 C 
ATOM     62  C   UNL     1      19.808  -1.155 -19.301  1.00  0.00     0.029 A 
ATOM     63  C   UNL     1      19.228  -2.199 -18.598  1.00  0.00     0.049 A 
ATOM     64  H   UNL     1      18.773  -2.326 -16.542  1.00  0.00     0.167 HD
ATOM     65  C   UNL     1      18.192  -4.435 -18.342  1.00  0.00     0.074 A 
ATOM     66  C   UNL     1      17.681  -5.685 -18.867  1.00  0.00     0.031 C 
ATOM     67  C   UNL     1      18.768  -3.469 -19.098  1.00  0.00     0.034 A 
BRANCH  54  68
ATOM     68  C   UNL     1      20.276   1.630 -15.949  1.00  0.00     0.023 A 
ATOM     69  C   UNL     1      21.558   1.892 -15.423  1.00  0.00     0.012 A 
ATOM     70  C   UNL     1      19.550   2.675 -16.552  1.00  0.00     0.148 A 
ATOM     71  C   UNL     1      22.093   3.179 -15.462  1.00  0.00     0.002 A 
ATOM     72  C   UNL     1      20.109   3.946 -16.627  1.00  0.00     0.091 A 
ATOM     73  F   UNL     1      18.325   2.412 -17.029  1.00  0.00    -0.205 F 
ATOM     74  C   UNL     1      21.374   4.202 -16.072  1.00  0.00     0.022 A 
BRANCH  72  75
ATOM     75  S   UNL     1      19.299   5.314 -17.464  1.00  0.00     0.127 S 
ATOM     76  O   UNL     1      18.912   6.161 -16.337  1.00  0.00    -0.237 OA
ATOM     77  O   UNL     1      20.380   5.854 -18.289  1.00  0.00    -0.237 OA
ATOM     78  O   UNL     1      18.196   4.729 -18.214  1.00  0.00    -0.744 OA
ENDBRANCH  72  75
ENDBRANCH  54  68
BRANCH  55  79
ATOM     79  C   UNL     1      16.264  -7.497 -15.323  1.00  0.00     0.023 A 
ATOM     80  C   UNL     1      17.032  -8.642 -15.611  1.00  0.00     0.012 A 
ATOM     81  C   UNL     1      14.918  -7.651 -14.940  1.00  0.00     0.148 A 
ATOM     82  C   UNL     1      16.463  -9.915 -15.550  1.00  0.00     0.002 A 
ATOM     83  C   UNL     1      14.373  -8.925 -14.827  1.00  0.00     0.091 A 
ATOM     84  F   UNL     1      14.200  -6.549 -14.681  1.00  0.00    -0.205 F 
ATOM     85  C   UNL     1      15.137 -10.057 -15.148  1.00  0.00     0.022 A 
BRANCH  83  86
ATOM     86  S   UNL     1      12.717  -9.211 -14.189  1.00  0.00     0.127 S 
ATOM     87  O   UNL     1      12.002  -9.629 -15.391  1.00  0.00    -0.237 OA
ATOM     88  O   UNL     1      12.950 -10.272 -13.208  1.00  0.00    -0.237 OA
ATOM     89  O   UNL     1      12.297  -7.942 -13.609  1.00  0.00    -0.744 OA
ENDBRANCH  83  86
ENDBRANCH  55  79
BRANCH  67  90
ATOM     90  C   UNL     1      18.916  -3.729 -20.574  1.00  0.00     0.023 A 
ATOM     91  C   UNL     1      17.783  -3.684 -21.410  1.00  0.00     0.012 A 
ATOM     92  C   UNL     1      20.189  -3.931 -21.143  1.00  0.00     0.148 A 
ATOM     93  C   UNL     1      17.911  -3.864 -22.787  1.00  0.00     0.002 A 
ATOM     94  C   UNL     1      20.314  -4.061 -22.521  1.00  0.00     0.091 A 
ATOM     95  F   UNL     1      21.252  -3.989 -20.328  1.00  0.00    -0.205 F 
ATOM     96  C   UNL     1      19.176  -4.040 -23.343  1.00  0.00     0.022 A 
BRANCH  94  97
ATOM     97  S   UNL     1      21.910  -4.194 -23.335  1.00  0.00     0.127 S 
ATOM     98  O   UNL     1      21.910  -5.592 -23.764  1.00  0.00    -0.237 OA
ATOM     99  O   UNL     1      21.786  -3.222 -24.422  1.00  0.00    -0.237 OA
ATOM    100  O   UNL     1      22.905  -3.850 -22.328  1.00  0.00    -0.744 OA
ENDBRANCH  94  97
ENDBRANCH  67  90
ENDBRANCH  41  42
ENDBRANCH  33  36
ENDBRANCH  31  32
ENDBRANCH   1  31
TORSDOF 17
