REMARK SMILES O=C(C[NH2+]C[C@@H]1CCCO1)NCCCNC(=O)c1ccc(-c2c3nc(c(-c4cccc(S(=O)(=O)[O-])c4F)c4ccc([nH]4)c(-c4cccc(S(=O)(=O)[O-])c4F)c4nc(c(-c5cccc(S(=O)(=O)[O-])c5F)c5ccc2[nH]5)C=C4)C=C3)cc1
REMARK SMILES IDX 13 1 12 2 11 3 1 4 2 5 3 7 4 8 5 11 6 12 7 13 10 14 8 15
REMARK SMILES IDX 9 16 14 17 15 18 16 19 17 21 18 22 19 23 80 24 20 25 79 26
REMARK SMILES IDX 21 27 22 28 23 29 73 30 24 31 78 32 72 33 74 34 25 35 77 36
REMARK SMILES IDX 71 37 70 38 26 40 58 41 38 42 57 43 39 44 42 45 56 46 75 47
REMARK SMILES IDX 40 48 41 49 55 51 76 52 43 53 27 54 28 55 36 56 29 57 31 58
REMARK SMILES IDX 37 59 30 60 32 61 33 62 34 63 35 64 59 65 60 66 68 67 61 68
REMARK SMILES IDX 63 69 69 70 62 71 64 72 65 73 66 74 67 75 44 76 45 77 53 78
REMARK SMILES IDX 46 79 48 80 54 81 47 82 49 83 50 84 51 85 52 86
REMARK H PARENT 11 6 4 9 4 10 15 20 74 39 42 50
REMARK Flexibility Score: inf
ROOT
ATOM      1  C   UNL     1       2.477  -0.419   3.417  1.00  0.00     0.042 C 
ENDROOT
BRANCH   1   2
ATOM      2  C   UNL     1       2.185   0.682   2.402  1.00  0.00     0.118 C 
BRANCH   2   3
ATOM      3  N   UNL     1       2.817   0.443   1.123  1.00  0.00    -0.351 N 
ATOM      4  O   UNL     1       0.913  -0.195  -0.007  1.00  0.00    -0.269 OA
ATOM      5  C   UNL     1       2.123   0.011   0.014  1.00  0.00     0.275 C 
ATOM      6  H   UNL     1       3.786   0.597   1.041  1.00  0.00     0.163 HD
BRANCH   5   7
ATOM      7  C   UNL     1       3.011  -0.226  -1.210  1.00  0.00     0.361 C 
BRANCH   7   8
ATOM      8  N   UNL     1       3.769   1.001  -1.526  1.00  0.00    -0.336 N 
ATOM      9  H   UNL     1       4.395   1.212  -0.749  1.00  0.00     0.346 HD
ATOM     10  H   UNL     1       3.102   1.759  -1.673  1.00  0.00     0.346 HD
BRANCH   8  11
ATOM     11  C   UNL     1       4.568   0.845  -2.756  1.00  0.00     0.293 C 
BRANCH  11  12
ATOM     12  C   UNL     1       3.737   0.710  -4.050  1.00  0.00     0.173 C 
ATOM     13  C   UNL     1       4.014  -0.569  -4.823  1.00  0.00     0.040 C 
ATOM     14  O   UNL     1       4.029   1.783  -4.968  1.00  0.00    -0.372 OA
ATOM     15  C   UNL     1       3.538  -0.190  -6.203  1.00  0.00     0.031 C 
ATOM     16  C   UNL     1       3.974   1.258  -6.304  1.00  0.00     0.161 C 
ENDBRANCH  11  12
ENDBRANCH   8  11
ENDBRANCH   7   8
ENDBRANCH   5   7
ENDBRANCH   2   3
ENDBRANCH   1   2
BRANCH   1  17
ATOM     17  C   UNL     1       3.950  -0.573   3.791  1.00  0.00     0.118 C 
BRANCH  17  18
ATOM     18  N   UNL     1       4.517   0.622   4.399  1.00  0.00    -0.352 N 
ATOM     19  C   UNL     1       5.241   0.782   5.554  1.00  0.00     0.251 C 
ATOM     20  H   UNL     1       4.353   1.454   3.899  1.00  0.00     0.163 HD
ATOM     21  O   UNL     1       5.503   1.923   5.934  1.00  0.00    -0.269 OA
BRANCH  19  22
ATOM     22  C   UNL     1       5.692  -0.379   6.358  1.00  0.00     0.039 A 
ATOM     23  C   UNL     1       5.666  -0.269   7.752  1.00  0.00     0.014 A 
ATOM     24  C   UNL     1       6.178  -1.550   5.769  1.00  0.00     0.014 A 
ATOM     25  C   UNL     1       6.071  -1.345   8.548  1.00  0.00     0.010 A 
ATOM     26  C   UNL     1       6.509  -2.650   6.564  1.00  0.00     0.010 A 
ATOM     27  C   UNL     1       6.465  -2.560   7.962  1.00  0.00    -0.014 A 
BRANCH  27  28
ATOM     28  C   UNL     1       6.790  -3.738   8.813  1.00  0.00     0.031 A 
ATOM     29  C   UNL     1       8.165  -4.351   8.807  1.00  0.00     0.074 A 
ATOM     30  C   UNL     1       5.817  -4.294   9.563  1.00  0.00     0.049 A 
ATOM     31  N   UNL     1       8.623  -5.352   9.516  1.00  0.00    -0.248 NA
ATOM     32  C   UNL     1       9.149  -3.787   7.869  1.00  0.00     0.031 C 
ATOM     33  C   UNL     1       4.417  -3.862   9.586  1.00  0.00     0.029 A 
ATOM     34  N   UNL     1       5.851  -5.350  10.440  1.00  0.00    -0.354 N 
ATOM     35  C   UNL     1       9.932  -5.556   9.095  1.00  0.00     0.074 A 
ATOM     36  C   UNL     1      10.184  -4.597   8.040  1.00  0.00     0.031 C 
ATOM     37  C   UNL     1       3.733  -4.630  10.448  1.00  0.00     0.029 A 
ATOM     38  C   UNL     1       4.634  -5.623  11.022  1.00  0.00     0.049 A 
ATOM     39  H   UNL     1       6.668  -5.863  10.634  1.00  0.00     0.167 HD
ATOM     40  C   UNL     1      10.851  -6.437   9.560  1.00  0.00     0.034 A 
ATOM     41  C   UNL     1       4.282  -6.562  11.922  1.00  0.00     0.034 A 
ATOM     42  C   UNL     1      10.610  -7.367  10.633  1.00  0.00     0.049 A 
ATOM     43  C   UNL     1       5.338  -7.483  12.470  1.00  0.00     0.074 A 
ATOM     44  C   UNL     1      11.502  -8.240  11.233  1.00  0.00     0.029 A 
ATOM     45  N   UNL     1       9.388  -7.554  11.261  1.00  0.00    -0.354 N 
ATOM     46  N   UNL     1       6.615  -7.542  12.181  1.00  0.00    -0.248 NA
ATOM     47  C   UNL     1       4.912  -8.435  13.506  1.00  0.00     0.031 C 
ATOM     48  C   UNL     1      10.813  -8.971  12.208  1.00  0.00     0.029 A 
ATOM     49  C   UNL     1       9.500  -8.531  12.238  1.00  0.00     0.049 A 
ATOM     50  H   UNL     1       8.562  -7.064  11.045  1.00  0.00     0.167 HD
ATOM     51  C   UNL     1       7.152  -8.510  13.022  1.00  0.00     0.074 A 
ATOM     52  C   UNL     1       6.066  -8.989  13.852  1.00  0.00     0.031 C 
ATOM     53  C   UNL     1       8.425  -8.971  13.090  1.00  0.00     0.034 A 
BRANCH  40  54
ATOM     54  C   UNL     1      12.230  -6.401   8.948  1.00  0.00     0.023 A 
ATOM     55  C   UNL     1      13.079  -5.306   9.213  1.00  0.00     0.012 A 
ATOM     56  C   UNL     1      12.711  -7.473   8.171  1.00  0.00     0.148 A 
ATOM     57  C   UNL     1      14.368  -5.260   8.684  1.00  0.00     0.002 A 
ATOM     58  C   UNL     1      14.014  -7.442   7.686  1.00  0.00     0.091 A 
ATOM     59  F   UNL     1      11.886  -8.498   7.914  1.00  0.00    -0.205 F 
ATOM     60  C   UNL     1      14.839  -6.332   7.931  1.00  0.00     0.022 A 
BRANCH  58  61
ATOM     61  S   UNL     1      14.744  -8.808   6.775  1.00  0.00     0.127 S 
ATOM     62  O   UNL     1      14.836  -8.247   5.427  1.00  0.00    -0.237 OA
ATOM     63  O   UNL     1      16.030  -8.978   7.453  1.00  0.00    -0.237 OA
ATOM     64  O   UNL     1      13.826  -9.927   6.924  1.00  0.00    -0.744 OA
ENDBRANCH  58  61
ENDBRANCH  40  54
BRANCH  41  65
ATOM     65  C   UNL     1       2.880  -6.622  12.423  1.00  0.00     0.023 A 
ATOM     66  C   UNL     1       2.602  -6.243  13.751  1.00  0.00     0.012 A 
ATOM     67  C   UNL     1       1.821  -7.026  11.588  1.00  0.00     0.148 A 
ATOM     68  C   UNL     1       1.300  -6.300  14.249  1.00  0.00     0.002 A 
ATOM     69  C   UNL     1       0.519  -7.024  12.073  1.00  0.00     0.091 A 
ATOM     70  F   UNL     1       2.109  -7.393  10.331  1.00  0.00    -0.205 F 
ATOM     71  C   UNL     1       0.258  -6.680  13.408  1.00  0.00     0.022 A 
BRANCH  69  72
ATOM     72  S   UNL     1      -0.897  -7.367  11.022  1.00  0.00     0.127 S 
ATOM     73  O   UNL     1      -1.326  -8.674  11.517  1.00  0.00    -0.237 OA
ATOM     74  O   UNL     1      -1.794  -6.258  11.354  1.00  0.00    -0.237 OA
ATOM     75  O   UNL     1      -0.390  -7.341   9.659  1.00  0.00    -0.744 OA
ENDBRANCH  69  72
ENDBRANCH  41  65
BRANCH  53  76
ATOM     76  C   UNL     1       8.725 -10.026  14.125  1.00  0.00     0.023 A 
ATOM     77  C   UNL     1       8.211 -11.330  13.971  1.00  0.00     0.012 A 
ATOM     78  C   UNL     1       9.543  -9.735  15.234  1.00  0.00     0.148 A 
ATOM     79  C   UNL     1       8.464 -12.311  14.931  1.00  0.00     0.002 A 
ATOM     80  C   UNL     1       9.834 -10.732  16.158  1.00  0.00     0.091 A 
ATOM     81  F   UNL     1      10.009  -8.486  15.378  1.00  0.00    -0.205 F 
ATOM     82  C   UNL     1       9.282 -12.015  16.018  1.00  0.00     0.022 A 
BRANCH  80  83
ATOM     83  S   UNL     1      10.958 -10.461  17.534  1.00  0.00     0.127 S 
ATOM     84  O   UNL     1      10.030 -10.302  18.651  1.00  0.00    -0.237 OA
ATOM     85  O   UNL     1      11.731 -11.704  17.556  1.00  0.00    -0.237 OA
ATOM     86  O   UNL     1      11.734  -9.279  17.184  1.00  0.00    -0.744 OA
ENDBRANCH  80  83
ENDBRANCH  53  76
ENDBRANCH  27  28
ENDBRANCH  19  22
ENDBRANCH  17  18
ENDBRANCH   1  17
TORSDOF 16
