REMARK SMILES CCC(CC)NC(=O)N[C@@H]1C=C[C@@H](C(=O)NCCCNC(=O)c2ccc(-c3c4nc(c(-c5cccc(S(=O)(=O)[O-])c5F)c5ccc([nH]5)c(-c5cccc(S(=O)(=O)[O-])c5F)c5nc(c(-c6cccc(S(=O)(=O)[O-])c6F)c6ccc3[nH]6)C=C5)C=C4)cc2)C1
REMARK SMILES IDX 18 1 17 2 16 3 14 4 15 5 13 7 10 8 11 9 86 10 12 11 9 12
REMARK SMILES IDX 6 13 7 14 8 16 3 18 2 19 1 20 4 21 5 22 19 23 20 24 21 25
REMARK SMILES IDX 22 27 23 28 24 29 85 30 25 31 84 32 26 33 27 34 28 35 78 36
REMARK SMILES IDX 29 37 83 38 77 39 79 40 30 41 82 42 76 43 75 44 31 46 63 47
REMARK SMILES IDX 43 48 62 49 44 50 47 51 61 52 80 53 45 54 46 55 60 57 81 58
REMARK SMILES IDX 48 59 32 60 33 61 41 62 34 63 36 64 42 65 35 66 37 67 38 68
REMARK SMILES IDX 39 69 40 70 64 71 65 72 73 73 66 74 68 75 74 76 67 77 69 78
REMARK SMILES IDX 70 79 71 80 72 81 49 82 50 83 58 84 51 85 53 86 59 87 52 88
REMARK SMILES IDX 54 89 55 90 56 91 57 92
REMARK H PARENT 16 6 6 15 9 17 20 26 79 45 47 56
REMARK Flexibility Score: inf
ROOT
ATOM      1  C   UNL     1       3.724  -1.533   7.205  1.00  0.00     0.042 C 
ENDROOT
BRANCH   1   2
ATOM      2  C   UNL     1       3.050  -0.273   6.666  1.00  0.00     0.117 C 
BRANCH   2   3
ATOM      3  N   UNL     1       4.020   0.668   6.153  1.00  0.00    -0.356 N 
ATOM      4  C   UNL     1       4.418   0.923   4.887  1.00  0.00     0.227 C 
ATOM      5  O   UNL     1       5.309   1.768   4.745  1.00  0.00    -0.274 OA
ATOM      6  H   UNL     1       4.464   1.215   6.841  1.00  0.00     0.163 HD
BRANCH   4   7
ATOM      7  C   UNL     1       3.823   0.235   3.663  1.00  0.00     0.103 C 
ATOM      8  C   UNL     1       2.998  -1.601   2.373  1.00  0.00     0.107 C 
ATOM      9  C   UNL     1       1.954  -0.507   2.522  1.00  0.00    -0.006 C 
ATOM     10  C   UNL     1       3.832  -1.298   3.606  1.00  0.00     0.047 C 
ATOM     11  C   UNL     1       2.405   0.513   3.273  1.00  0.00    -0.016 C 
BRANCH   8  12
ATOM     12  N   UNL     1       3.537  -1.461   1.022  1.00  0.00    -0.332 N 
ATOM     13  N   UNL     1       5.908  -1.586   0.742  1.00  0.00    -0.335 N 
ATOM     14  C   UNL     1       4.646  -1.730   0.332  1.00  0.00     0.315 C 
ATOM     15  H   UNL     1       6.551  -2.051   0.159  1.00  0.00     0.165 HD
ATOM     16  O   UNL     1       4.485  -2.087  -0.842  1.00  0.00    -0.249 OA
ATOM     17  H   UNL     1       2.870  -1.035   0.436  1.00  0.00     0.165 HD
BRANCH  13  18
ATOM     18  C   UNL     1       6.551  -0.900   1.851  1.00  0.00     0.083 C 
BRANCH  18  19
ATOM     19  C   UNL     1       7.552  -1.825   2.554  1.00  0.00     0.021 C 
ATOM     20  C   UNL     1       7.859  -1.373   3.976  1.00  0.00     0.006 C 
ENDBRANCH  18  19
BRANCH  18  21
ATOM     21  C   UNL     1       7.050   0.508   1.484  1.00  0.00     0.021 C 
ATOM     22  C   UNL     1       8.412   0.580   0.820  1.00  0.00     0.006 C 
ENDBRANCH  18  21
ENDBRANCH  13  18
ENDBRANCH   8  12
ENDBRANCH   4   7
ENDBRANCH   2   3
ENDBRANCH   1   2
BRANCH   1  23
ATOM     23  C   UNL     1       4.690  -1.266   8.357  1.00  0.00     0.118 C 
BRANCH  23  24
ATOM     24  N   UNL     1       4.046  -0.547   9.447  1.00  0.00    -0.352 N 
ATOM     25  C   UNL     1       3.509  -1.021  10.614  1.00  0.00     0.251 C 
ATOM     26  H   UNL     1       3.987   0.428   9.326  1.00  0.00     0.163 HD
ATOM     27  O   UNL     1       2.684  -0.335  11.217  1.00  0.00    -0.269 OA
BRANCH  25  28
ATOM     28  C   UNL     1       3.925  -2.331  11.157  1.00  0.00     0.039 A 
ATOM     29  C   UNL     1       2.981  -3.125  11.813  1.00  0.00     0.014 A 
ATOM     30  C   UNL     1       5.259  -2.743  11.090  1.00  0.00     0.014 A 
ATOM     31  C   UNL     1       3.370  -4.344  12.370  1.00  0.00     0.010 A 
ATOM     32  C   UNL     1       5.627  -3.996  11.568  1.00  0.00     0.010 A 
ATOM     33  C   UNL     1       4.693  -4.799  12.235  1.00  0.00    -0.014 A 
BRANCH  33  34
ATOM     34  C   UNL     1       5.105  -6.115  12.784  1.00  0.00     0.031 A 
ATOM     35  C   UNL     1       6.148  -6.206  13.865  1.00  0.00     0.074 A 
ATOM     36  C   UNL     1       4.587  -7.237  12.249  1.00  0.00     0.049 A 
ATOM     37  N   UNL     1       6.609  -7.267  14.475  1.00  0.00    -0.248 NA
ATOM     38  C   UNL     1       6.782  -4.949  14.295  1.00  0.00     0.031 C 
ATOM     39  C   UNL     1       3.658  -7.280  11.117  1.00  0.00     0.029 A 
ATOM     40  N   UNL     1       4.782  -8.556  12.569  1.00  0.00    -0.354 N 
ATOM     41  C   UNL     1       7.607  -6.814  15.329  1.00  0.00     0.074 A 
ATOM     42  C   UNL     1       7.713  -5.385  15.131  1.00  0.00     0.031 C 
ATOM     43  C   UNL     1       3.353  -8.558  10.848  1.00  0.00     0.029 A 
ATOM     44  C   UNL     1       4.074  -9.425  11.774  1.00  0.00     0.049 A 
ATOM     45  H   UNL     1       5.372  -8.851  13.299  1.00  0.00     0.167 HD
ATOM     46  C   UNL     1       8.346  -7.516  16.221  1.00  0.00     0.034 A 
ATOM     47  C   UNL     1       4.005 -10.770  11.795  1.00  0.00     0.034 A 
ATOM     48  C   UNL     1       8.198  -8.929  16.446  1.00  0.00     0.049 A 
ATOM     49  C   UNL     1       4.753 -11.517  12.862  1.00  0.00     0.074 A 
ATOM     50  C   UNL     1       8.810  -9.719  17.403  1.00  0.00     0.029 A 
ATOM     51  N   UNL     1       7.383  -9.767  15.699  1.00  0.00    -0.354 N 
ATOM     52  N   UNL     1       5.548 -11.048  13.794  1.00  0.00    -0.248 NA
ATOM     53  C   UNL     1       4.559 -12.973  12.914  1.00  0.00     0.031 C 
ATOM     54  C   UNL     1       8.381 -11.039  17.220  1.00  0.00     0.029 A 
ATOM     55  C   UNL     1       7.482 -11.067  16.165  1.00  0.00     0.049 A 
ATOM     56  H   UNL     1       6.817  -9.479  14.947  1.00  0.00     0.167 HD
ATOM     57  C   UNL     1       5.927 -12.144  14.559  1.00  0.00     0.074 A 
ATOM     58  C   UNL     1       5.250 -13.296  13.998  1.00  0.00     0.031 C 
ATOM     59  C   UNL     1       6.773 -12.196  15.619  1.00  0.00     0.034 A 
BRANCH  46  60
ATOM     60  C   UNL     1       9.340  -6.753  17.060  1.00  0.00     0.023 A 
ATOM     61  C   UNL     1       8.878  -5.870  18.058  1.00  0.00     0.012 A 
ATOM     62  C   UNL     1      10.727  -6.938  16.894  1.00  0.00     0.148 A 
ATOM     63  C   UNL     1       9.776  -5.152  18.846  1.00  0.00     0.002 A 
ATOM     64  C   UNL     1      11.616  -6.253  17.716  1.00  0.00     0.091 A 
ATOM     65  F   UNL     1      11.152  -7.763  15.927  1.00  0.00    -0.205 F 
ATOM     66  C   UNL     1      11.143  -5.351  18.683  1.00  0.00     0.022 A 
BRANCH  64  67
ATOM     67  S   UNL     1      13.393  -6.504  17.635  1.00  0.00     0.127 S 
ATOM     68  O   UNL     1      13.834  -5.278  16.972  1.00  0.00    -0.237 OA
ATOM     69  O   UNL     1      13.758  -6.595  19.050  1.00  0.00    -0.237 OA
ATOM     70  O   UNL     1      13.589  -7.733  16.881  1.00  0.00    -0.744 OA
ENDBRANCH  64  67
ENDBRANCH  46  60
BRANCH  47  71
ATOM     71  C   UNL     1       3.115 -11.472  10.829  1.00  0.00     0.023 A 
ATOM     72  C   UNL     1       1.915 -12.051  11.287  1.00  0.00     0.012 A 
ATOM     73  C   UNL     1       3.414 -11.505   9.454  1.00  0.00     0.148 A 
ATOM     74  C   UNL     1       1.041 -12.672  10.395  1.00  0.00     0.002 A 
ATOM     75  C   UNL     1       2.510 -12.074   8.563  1.00  0.00     0.091 A 
ATOM     76  F   UNL     1       4.564 -10.955   9.041  1.00  0.00    -0.205 F 
ATOM     77  C   UNL     1       1.331 -12.673   9.034  1.00  0.00     0.022 A 
BRANCH  75  78
ATOM     78  S   UNL     1       2.733 -11.984   6.783  1.00  0.00     0.127 S 
ATOM     79  O   UNL     1       3.035 -13.377   6.450  1.00  0.00    -0.237 OA
ATOM     80  O   UNL     1       1.417 -11.518   6.339  1.00  0.00    -0.237 OA
ATOM     81  O   UNL     1       3.809 -11.033   6.567  1.00  0.00    -0.744 OA
ENDBRANCH  75  78
ENDBRANCH  47  71
BRANCH  59  82
ATOM     82  C   UNL     1       7.002 -13.543  16.253  1.00  0.00     0.023 A 
ATOM     83  C   UNL     1       7.758 -14.517  15.570  1.00  0.00     0.012 A 
ATOM     84  C   UNL     1       6.511 -13.828  17.541  1.00  0.00     0.148 A 
ATOM     85  C   UNL     1       7.987 -15.767  16.143  1.00  0.00     0.002 A 
ATOM     86  C   UNL     1       6.784 -15.058  18.127  1.00  0.00     0.091 A 
ATOM     87  F   UNL     1       5.774 -12.898  18.168  1.00  0.00    -0.205 F 
ATOM     88  C   UNL     1       7.509 -16.034  17.424  1.00  0.00     0.022 A 
BRANCH  86  89
ATOM     89  S   UNL     1       6.288 -15.444  19.809  1.00  0.00     0.127 S 
ATOM     90  O   UNL     1       5.103 -16.271  19.589  1.00  0.00    -0.237 OA
ATOM     91  O   UNL     1       7.451 -16.169  20.323  1.00  0.00    -0.237 OA
ATOM     92  O   UNL     1       6.051 -14.159  20.454  1.00  0.00    -0.744 OA
ENDBRANCH  86  89
ENDBRANCH  59  82
ENDBRANCH  33  34
ENDBRANCH  25  28
ENDBRANCH  23  24
ENDBRANCH   1  23
TORSDOF 17
