REMARK SMILES C[C@@H](CCCO)[NH2+][C@@H](C)CC(=O)NCCCNC(=O)c1ccc(-c2c3nc(c(-c4cccc(S(=O)(=O)[O-])c4F)c4ccc([nH]4)c(-c4cccc(S(=O)(=O)[O-])c4F)c4nc(c(-c5cccc(S(=O)(=O)[O-])c5F)c5ccc2[nH]5)C=C4)C=C3)cc1
REMARK SMILES IDX 11 1 12 2 13 3 10 5 8 6 9 7 7 8 2 11 1 12 3 13 4 14 5 15
REMARK SMILES IDX 6 16 14 18 15 19 16 20 17 21 18 22 19 24 20 25 21 26 82 27
REMARK SMILES IDX 22 28 81 29 23 30 24 31 25 32 75 33 26 34 80 35 74 36 76 37
REMARK SMILES IDX 27 38 79 39 73 40 72 41 28 43 60 44 40 45 59 46 41 47 44 48
REMARK SMILES IDX 58 49 77 50 42 51 43 52 57 54 78 55 45 56 29 57 30 58 38 59
REMARK SMILES IDX 31 60 33 61 39 62 32 63 34 64 35 65 36 66 37 67 61 68 62 69
REMARK SMILES IDX 70 70 63 71 65 72 71 73 64 74 66 75 67 76 68 77 69 78 46 79
REMARK SMILES IDX 47 80 55 81 48 82 50 83 56 84 49 85 51 86 52 87 53 88 54 89
REMARK H PARENT 13 4 7 9 7 10 6 17 17 23 76 42 44 53
REMARK Flexibility Score: inf
ROOT
ATOM      1  C   UNL     1      -3.463   1.680   2.146  1.00  0.00     0.225 C 
ATOM      2  O   UNL     1      -3.876   2.095   3.231  1.00  0.00    -0.275 OA
ATOM      3  N   UNL     1      -3.595   0.351   1.872  1.00  0.00    -0.356 N 
ATOM      4  H   UNL     1      -4.099  -0.167   2.540  1.00  0.00     0.163 HD
ENDROOT
BRANCH   1   5
ATOM      5  C   UNL     1      -2.869   2.633   1.128  1.00  0.00     0.164 C 
BRANCH   5   6
ATOM      6  C   UNL     1      -1.340   2.810   1.260  1.00  0.00     0.188 C 
ATOM      7  C   UNL     1      -0.970   4.262   0.934  1.00  0.00     0.075 C 
BRANCH   6   8
ATOM      8  N   UNL     1      -0.669   1.829   0.408  1.00  0.00    -0.341 N 
ATOM      9  H   UNL     1      -0.875   0.910   0.800  1.00  0.00     0.346 HD
ATOM     10  H   UNL     1      -1.036   2.041  -0.520  1.00  0.00     0.346 HD
BRANCH   8  11
ATOM     11  C   UNL     1       0.773   1.886   0.212  1.00  0.00     0.179 C 
ATOM     12  C   UNL     1       1.320   0.453   0.182  1.00  0.00     0.075 C 
BRANCH  11  13
ATOM     13  C   UNL     1       1.185   2.652  -1.063  1.00  0.00     0.067 C 
BRANCH  13  14
ATOM     14  C   UNL     1       0.872   2.036  -2.439  1.00  0.00     0.034 C 
BRANCH  14  15
ATOM     15  C   UNL     1      -0.580   1.726  -2.788  1.00  0.00     0.156 C 
BRANCH  15  16
ATOM     16  O   UNL     1      -1.447   2.826  -2.552  1.00  0.00    -0.396 OA
ATOM     17  H   UNL     1      -1.432   3.054  -1.610  1.00  0.00     0.210 HD
ENDBRANCH  15  16
ENDBRANCH  14  15
ENDBRANCH  13  14
ENDBRANCH  11  13
ENDBRANCH   8  11
ENDBRANCH   6   8
ENDBRANCH   5   6
ENDBRANCH   1   5
BRANCH   3  18
ATOM     18  C   UNL     1      -3.102  -0.414   0.740  1.00  0.00     0.117 C 
BRANCH  18  19
ATOM     19  C   UNL     1      -1.761  -1.069   1.046  1.00  0.00     0.042 C 
BRANCH  19  20
ATOM     20  C   UNL     1      -1.841  -2.298   1.939  1.00  0.00     0.118 C 
BRANCH  20  21
ATOM     21  N   UNL     1      -2.370  -3.457   1.239  1.00  0.00    -0.352 N 
ATOM     22  C   UNL     1      -1.794  -4.674   0.965  1.00  0.00     0.251 C 
ATOM     23  H   UNL     1      -3.291  -3.353   0.906  1.00  0.00     0.163 HD
ATOM     24  O   UNL     1      -2.364  -5.429   0.179  1.00  0.00    -0.269 OA
BRANCH  22  25
ATOM     25  C   UNL     1      -0.507  -5.090   1.580  1.00  0.00     0.039 A 
ATOM     26  C   UNL     1       0.364  -5.885   0.827  1.00  0.00     0.014 A 
ATOM     27  C   UNL     1      -0.172  -4.769   2.898  1.00  0.00     0.014 A 
ATOM     28  C   UNL     1       1.575  -6.320   1.376  1.00  0.00     0.010 A 
ATOM     29  C   UNL     1       1.075  -5.127   3.414  1.00  0.00     0.010 A 
ATOM     30  C   UNL     1       1.955  -5.924   2.668  1.00  0.00    -0.014 A 
BRANCH  30  31
ATOM     31  C   UNL     1       3.260  -6.340   3.249  1.00  0.00     0.031 A 
ATOM     32  C   UNL     1       3.314  -7.180   4.498  1.00  0.00     0.074 A 
ATOM     33  C   UNL     1       4.407  -5.894   2.698  1.00  0.00     0.049 A 
ATOM     34  N   UNL     1       4.359  -7.610   5.159  1.00  0.00    -0.248 NA
ATOM     35  C   UNL     1       2.028  -7.564   5.101  1.00  0.00     0.031 C 
ATOM     36  C   UNL     1       4.495  -5.000   1.543  1.00  0.00     0.029 A 
ATOM     37  N   UNL     1       5.716  -6.108   3.054  1.00  0.00    -0.354 N 
ATOM     38  C   UNL     1       3.860  -8.273   6.275  1.00  0.00     0.074 A 
ATOM     39  C   UNL     1       2.418  -8.162   6.218  1.00  0.00     0.031 C 
ATOM     40  C   UNL     1       5.785  -4.739   1.286  1.00  0.00     0.029 A 
ATOM     41  C   UNL     1       6.617  -5.423   2.273  1.00  0.00     0.049 A 
ATOM     42  H   UNL     1       5.984  -6.695   3.797  1.00  0.00     0.167 HD
ATOM     43  C   UNL     1       4.534  -8.935   7.246  1.00  0.00     0.034 A 
ATOM     44  C   UNL     1       7.960  -5.343   2.344  1.00  0.00     0.034 A 
ATOM     45  C   UNL     1       5.965  -9.083   7.277  1.00  0.00     0.049 A 
ATOM     46  C   UNL     1       8.691  -6.136   3.392  1.00  0.00     0.074 A 
ATOM     47  C   UNL     1       6.733  -9.834   8.149  1.00  0.00     0.029 A 
ATOM     48  N   UNL     1       6.846  -8.454   6.411  1.00  0.00    -0.354 N 
ATOM     49  N   UNL     1       8.200  -6.911   4.329  1.00  0.00    -0.248 NA
ATOM     50  C   UNL     1      10.159  -6.078   3.368  1.00  0.00     0.031 C 
ATOM     51  C   UNL     1       8.081  -9.632   7.831  1.00  0.00     0.029 A 
ATOM     52  C   UNL     1       8.151  -8.781   6.739  1.00  0.00     0.049 A 
ATOM     53  H   UNL     1       6.582  -7.860   5.671  1.00  0.00     0.167 HD
ATOM     54  C   UNL     1       9.297  -7.453   4.990  1.00  0.00     0.074 A 
ATOM     55  C   UNL     1      10.478  -6.936   4.328  1.00  0.00     0.031 C 
ATOM     56  C   UNL     1       9.322  -8.292   6.055  1.00  0.00     0.034 A 
BRANCH  43  57
ATOM     57  C   UNL     1       3.723  -9.587   8.338  1.00  0.00     0.023 A 
ATOM     58  C   UNL     1       2.926 -10.712   8.044  1.00  0.00     0.012 A 
ATOM     59  C   UNL     1       3.779  -9.111   9.663  1.00  0.00     0.148 A 
ATOM     60  C   UNL     1       2.160 -11.323   9.037  1.00  0.00     0.002 A 
ATOM     61  C   UNL     1       3.051  -9.755  10.658  1.00  0.00     0.091 A 
ATOM     62  F   UNL     1       4.525  -8.028   9.925  1.00  0.00    -0.205 F 
ATOM     63  C   UNL     1       2.230 -10.851  10.344  1.00  0.00     0.022 A 
BRANCH  61  64
ATOM     64  S   UNL     1       3.143  -9.272  12.386  1.00  0.00     0.127 S 
ATOM     65  O   UNL     1       1.862  -8.591  12.570  1.00  0.00    -0.237 OA
ATOM     66  O   UNL     1       3.248 -10.565  13.064  1.00  0.00    -0.237 OA
ATOM     67  O   UNL     1       4.326  -8.431  12.502  1.00  0.00    -0.744 OA
ENDBRANCH  61  64
ENDBRANCH  43  57
BRANCH  44  68
ATOM     68  C   UNL     1       8.695  -4.517   1.345  1.00  0.00     0.023 A 
ATOM     69  C   UNL     1       9.445  -5.151   0.336  1.00  0.00     0.012 A 
ATOM     70  C   UNL     1       8.595  -3.112   1.349  1.00  0.00     0.148 A 
ATOM     71  C   UNL     1      10.098  -4.399  -0.641  1.00  0.00     0.002 A 
ATOM     72  C   UNL     1       9.198  -2.373   0.340  1.00  0.00     0.091 A 
ATOM     73  F   UNL     1       7.881  -2.531   2.324  1.00  0.00    -0.205 F 
ATOM     74  C   UNL     1       9.964  -3.013  -0.647  1.00  0.00     0.022 A 
BRANCH  72  75
ATOM     75  S   UNL     1       8.959  -0.601   0.167  1.00  0.00     0.127 S 
ATOM     76  O   UNL     1      10.304  -0.090   0.429  1.00  0.00    -0.237 OA
ATOM     77  O   UNL     1       8.521  -0.493  -1.226  1.00  0.00    -0.237 OA
ATOM     78  O   UNL     1       7.946  -0.239   1.145  1.00  0.00    -0.744 OA
ENDBRANCH  72  75
ENDBRANCH  44  68
BRANCH  56  79
ATOM     79  C   UNL     1      10.669  -8.729   6.571  1.00  0.00     0.023 A 
ATOM     80  C   UNL     1      11.487  -7.813   7.261  1.00  0.00     0.012 A 
ATOM     81  C   UNL     1      11.093 -10.066   6.433  1.00  0.00     0.148 A 
ATOM     82  C   UNL     1      12.721  -8.211   7.776  1.00  0.00     0.002 A 
ATOM     83  C   UNL     1      12.300 -10.468   6.993  1.00  0.00     0.091 A 
ATOM     84  F   UNL     1      10.310 -10.919   5.757  1.00  0.00    -0.205 F 
ATOM     85  C   UNL     1      13.121  -9.540   7.653  1.00  0.00     0.022 A 
BRANCH  83  86
ATOM     86  S   UNL     1      12.851 -12.178   6.967  1.00  0.00     0.127 S 
ATOM     87  O   UNL     1      13.934 -12.128   5.986  1.00  0.00    -0.237 OA
ATOM     88  O   UNL     1      13.289 -12.384   8.348  1.00  0.00    -0.237 OA
ATOM     89  O   UNL     1      11.690 -12.967   6.578  1.00  0.00    -0.744 OA
ENDBRANCH  83  86
ENDBRANCH  56  79
ENDBRANCH  30  31
ENDBRANCH  22  25
ENDBRANCH  20  21
ENDBRANCH  19  20
ENDBRANCH  18  19
ENDBRANCH   3  18
TORSDOF 20
