REMARK SMILES COc1ccc(C(=O)C2=C(NCCCNC(=O)c3ccc(-c4c5nc(c(-c6cccc(S(=O)(=O)[O-])c6F)c6ccc([nH]6)c(-c6cccc(S(=O)(=O)[O-])c6F)c6nc(c(-c7cccc(S(=O)(=O)[O-])c7F)c7ccc4[nH]7)C=C6)C=C5)cc3)C(=O)N(CC(=O)[O-])[C@H]2c2ccccc2)cc1
REMARK SMILES IDX 13 1 12 2 11 3 10 5 9 6 88 7 81 8 83 9 82 10 7 11 8 12 6 13
REMARK SMILES IDX 3 14 4 15 96 16 5 17 95 18 2 19 1 20 89 21 90 22 94 23 91 24
REMARK SMILES IDX 93 25 92 26 84 27 85 28 86 29 87 30 14 31 15 32 16 33 17 35
REMARK SMILES IDX 18 36 19 37 80 38 20 39 79 40 21 41 22 42 23 43 73 44 24 45
REMARK SMILES IDX 78 46 72 47 74 48 25 49 77 50 71 51 70 52 26 54 58 55 38 56
REMARK SMILES IDX 57 57 39 58 42 59 56 60 75 61 40 62 41 63 55 65 76 66 43 67
REMARK SMILES IDX 27 68 28 69 36 70 29 71 31 72 37 73 30 74 32 75 33 76 34 77
REMARK SMILES IDX 35 78 59 79 60 80 68 81 61 82 63 83 69 84 62 85 64 86 65 87
REMARK SMILES IDX 66 88 67 89 44 90 45 91 53 92 46 93 48 94 54 95 47 96 49 97
REMARK SMILES IDX 50 98 51 99 52 100
REMARK H PARENT 11 4 15 34 74 53 42 64
REMARK Flexibility Score: inf
ROOT
ATOM      1  C   UNL     1       0.766  -1.365   7.627  1.00  0.00     0.042 C 
ENDROOT
BRANCH   1   2
ATOM      2  C   UNL     1       1.346  -0.058   8.147  1.00  0.00     0.115 C 
BRANCH   2   3
ATOM      3  N   UNL     1       2.791  -0.099   8.123  1.00  0.00    -0.380 N 
ATOM      4  H   UNL     1       3.197  -0.781   8.704  1.00  0.00     0.160 HD
BRANCH   3   5
ATOM      5  C   UNL     1       3.681   0.665   7.417  1.00  0.00     0.110 C 
ATOM      6  C   UNL     1       3.620   1.613   6.473  1.00  0.00     0.056 C 
ATOM      7  C   UNL     1       4.940   2.237   6.131  1.00  0.00     0.153 C 
ATOM      8  C   UNL     1       5.144   0.559   7.745  1.00  0.00     0.271 C 
ATOM      9  N   UNL     1       5.816   1.504   7.013  1.00  0.00    -0.320 N 
ATOM     10  O   UNL     1       5.617  -0.224   8.554  1.00  0.00    -0.267 OA
BRANCH   6  11
ATOM     11  C   UNL     1       2.366   2.199   5.975  1.00  0.00     0.193 C 
ATOM     12  O   UNL     1       1.864   3.138   6.589  1.00  0.00    -0.289 OA
BRANCH  11  13
ATOM     13  C   UNL     1       1.753   1.706   4.706  1.00  0.00     0.023 A 
ATOM     14  C   UNL     1       0.670   1.089   2.175  1.00  0.00     0.118 A 
ATOM     15  C   UNL     1       0.018   1.983   3.027  1.00  0.00     0.047 A 
ATOM     16  C   UNL     1       1.823   0.450   2.622  1.00  0.00     0.047 A 
ATOM     17  C   UNL     1       0.556   2.296   4.279  1.00  0.00     0.016 A 
ATOM     18  C   UNL     1       2.344   0.735   3.893  1.00  0.00     0.016 A 
BRANCH  14  19
ATOM     19  O   UNL     1       0.092   0.945   0.946  1.00  0.00    -0.497 OA
ATOM     20  C   UNL     1       0.688   0.005   0.057  1.00  0.00     0.278 C 
ENDBRANCH  14  19
ENDBRANCH  11  13
ENDBRANCH   6  11
BRANCH   7  21
ATOM     21  C   UNL     1       5.344   2.082   4.675  1.00  0.00    -0.021 A 
ATOM     22  C   UNL     1       5.800   0.852   4.161  1.00  0.00     0.006 A 
ATOM     23  C   UNL     1       5.223   3.169   3.796  1.00  0.00     0.006 A 
ATOM     24  C   UNL     1       6.106   0.710   2.808  1.00  0.00     0.000 A 
ATOM     25  C   UNL     1       5.541   3.026   2.444  1.00  0.00     0.000 A 
ATOM     26  C   UNL     1       5.976   1.797   1.950  1.00  0.00     0.000 A 
ENDBRANCH   7  21
BRANCH   9  27
ATOM     27  C   UNL     1       7.249   1.730   7.125  1.00  0.00     0.173 C 
BRANCH  27  28
ATOM     28  C   UNL     1       7.683   2.461   8.386  1.00  0.00     0.061 C 
ATOM     29  O   UNL     1       8.843   2.646   8.728  1.00  0.00    -0.548 OA
ATOM     30  O   UNL     1       6.679   2.985   9.117  1.00  0.00    -0.548 OA
ENDBRANCH  27  28
ENDBRANCH   9  27
ENDBRANCH   3   5
ENDBRANCH   2   3
ENDBRANCH   1   2
BRANCH   1  31
ATOM     31  C   UNL     1       1.074  -2.569   8.511  1.00  0.00     0.118 C 
BRANCH  31  32
ATOM     32  N   UNL     1       0.420  -2.500   9.815  1.00  0.00    -0.352 N 
ATOM     33  C   UNL     1      -0.496  -3.355  10.381  1.00  0.00     0.251 C 
ATOM     34  H   UNL     1       0.672  -1.727  10.370  1.00  0.00     0.163 HD
ATOM     35  O   UNL     1      -1.067  -3.047  11.423  1.00  0.00    -0.269 OA
BRANCH  33  36
ATOM     36  C   UNL     1      -0.806  -4.639   9.717  1.00  0.00     0.039 A 
ATOM     37  C   UNL     1      -2.141  -5.020   9.551  1.00  0.00     0.014 A 
ATOM     38  C   UNL     1       0.224  -5.452   9.242  1.00  0.00     0.014 A 
ATOM     39  C   UNL     1      -2.444  -6.179   8.830  1.00  0.00     0.010 A 
ATOM     40  C   UNL     1      -0.081  -6.557   8.457  1.00  0.00     0.010 A 
ATOM     41  C   UNL     1      -1.417  -6.932   8.241  1.00  0.00    -0.014 A 
BRANCH  41  42
ATOM     42  C   UNL     1      -1.689  -8.115   7.385  1.00  0.00     0.031 A 
ATOM     43  C   UNL     1      -1.149  -9.461   7.784  1.00  0.00     0.074 A 
ATOM     44  C   UNL     1      -2.292  -7.954   6.191  1.00  0.00     0.049 A 
ATOM     45  N   UNL     1      -1.115 -10.574   7.100  1.00  0.00    -0.248 NA
ATOM     46  C   UNL     1      -0.531  -9.553   9.117  1.00  0.00     0.031 C 
ATOM     47  C   UNL     1      -2.809  -6.689   5.664  1.00  0.00     0.029 A 
ATOM     48  N   UNL     1      -2.537  -8.856   5.185  1.00  0.00    -0.354 N 
ATOM     49  C   UNL     1      -0.426 -11.483   7.895  1.00  0.00     0.074 A 
ATOM     50  C   UNL     1      -0.034 -10.781   9.097  1.00  0.00     0.031 C 
ATOM     51  C   UNL     1      -3.310  -6.896   4.436  1.00  0.00     0.029 A 
ATOM     52  C   UNL     1      -3.112  -8.294   4.069  1.00  0.00     0.049 A 
ATOM     53  H   UNL     1      -2.321  -9.814   5.256  1.00  0.00     0.167 HD
ATOM     54  C   UNL     1      -0.166 -12.792   7.659  1.00  0.00     0.034 A 
ATOM     55  C   UNL     1      -3.431  -8.841   2.879  1.00  0.00     0.034 A 
ATOM     56  C   UNL     1      -0.602 -13.496   6.484  1.00  0.00     0.049 A 
ATOM     57  C   UNL     1      -3.159 -10.303   2.650  1.00  0.00     0.074 A 
ATOM     58  C   UNL     1      -0.462 -14.838   6.182  1.00  0.00     0.029 A 
ATOM     59  N   UNL     1      -1.266 -12.913   5.414  1.00  0.00    -0.354 N 
ATOM     60  N   UNL     1      -2.620 -11.179   3.463  1.00  0.00    -0.248 NA
ATOM     61  C   UNL     1      -3.564 -10.859   1.351  1.00  0.00     0.031 C 
ATOM     62  C   UNL     1      -1.027 -15.064   4.922  1.00  0.00     0.029 A 
ATOM     63  C   UNL     1      -1.540 -13.866   4.449  1.00  0.00     0.049 A 
ATOM     64  H   UNL     1      -1.506 -11.960   5.351  1.00  0.00     0.167 HD
ATOM     65  C   UNL     1      -2.663 -12.398   2.794  1.00  0.00     0.074 A 
ATOM     66  C   UNL     1      -3.287 -12.147   1.511  1.00  0.00     0.031 C 
ATOM     67  C   UNL     1      -2.218 -13.612   3.203  1.00  0.00     0.034 A 
BRANCH  54  68
ATOM     68  C   UNL     1       0.586 -13.550   8.722  1.00  0.00     0.023 A 
ATOM     69  C   UNL     1      -0.044 -13.829   9.953  1.00  0.00     0.012 A 
ATOM     70  C   UNL     1       1.901 -14.002   8.504  1.00  0.00     0.148 A 
ATOM     71  C   UNL     1       0.640 -14.498  10.968  1.00  0.00     0.002 A 
ATOM     72  C   UNL     1       2.561 -14.710   9.503  1.00  0.00     0.091 A 
ATOM     73  F   UNL     1       2.497 -13.709   7.338  1.00  0.00    -0.205 F 
ATOM     74  C   UNL     1       1.938 -14.945  10.740  1.00  0.00     0.022 A 
BRANCH  72  75
ATOM     75  S   UNL     1       4.204 -15.397   9.267  1.00  0.00     0.127 S 
ATOM     76  O   UNL     1       5.034 -14.437   9.992  1.00  0.00    -0.237 OA
ATOM     77  O   UNL     1       4.089 -16.708   9.908  1.00  0.00    -0.237 OA
ATOM     78  O   UNL     1       4.407 -15.448   7.826  1.00  0.00    -0.744 OA
ENDBRANCH  72  75
ENDBRANCH  54  68
BRANCH  55  79
ATOM     79  C   UNL     1      -4.124  -8.018   1.848  1.00  0.00     0.023 A 
ATOM     80  C   UNL     1      -5.488  -8.259   1.592  1.00  0.00     0.012 A 
ATOM     81  C   UNL     1      -3.469  -6.978   1.162  1.00  0.00     0.148 A 
ATOM     82  C   UNL     1      -6.182  -7.495   0.653  1.00  0.00     0.002 A 
ATOM     83  C   UNL     1      -4.178  -6.188   0.264  1.00  0.00     0.091 A 
ATOM     84  F   UNL     1      -2.170  -6.768   1.418  1.00  0.00    -0.205 F 
ATOM     85  C   UNL     1      -5.531  -6.454  -0.003  1.00  0.00     0.022 A 
BRANCH  83  86
ATOM     86  S   UNL     1      -3.460  -4.751  -0.543  1.00  0.00     0.127 S 
ATOM     87  O   UNL     1      -3.447  -5.169  -1.943  1.00  0.00    -0.237 OA
ATOM     88  O   UNL     1      -4.434  -3.709  -0.221  1.00  0.00    -0.237 OA
ATOM     89  O   UNL     1      -2.151  -4.564   0.067  1.00  0.00    -0.744 OA
ENDBRANCH  83  86
ENDBRANCH  55  79
BRANCH  67  90
ATOM     90  C   UNL     1      -2.432 -14.784   2.283  1.00  0.00     0.023 A 
ATOM     91  C   UNL     1      -1.637 -14.927   1.129  1.00  0.00     0.012 A 
ATOM     92  C   UNL     1      -3.359 -15.793   2.615  1.00  0.00     0.148 A 
ATOM     93  C   UNL     1      -1.777 -16.045   0.307  1.00  0.00     0.002 A 
ATOM     94  C   UNL     1      -3.459 -16.926   1.817  1.00  0.00     0.091 A 
ATOM     95  F   UNL     1      -4.120 -15.627   3.706  1.00  0.00    -0.205 F 
ATOM     96  C   UNL     1      -2.677 -17.049   0.658  1.00  0.00     0.022 A 
BRANCH  94  97
ATOM     97  S   UNL     1      -4.519 -18.313   2.244  1.00  0.00     0.127 S 
ATOM     98  O   UNL     1      -5.585 -18.189   1.251  1.00  0.00    -0.237 OA
ATOM     99  O   UNL     1      -3.629 -19.457   2.044  1.00  0.00    -0.237 OA
ATOM    100  O   UNL     1      -4.924 -18.098   3.627  1.00  0.00    -0.744 OA
ENDBRANCH  94  97
ENDBRANCH  67  90
ENDBRANCH  41  42
ENDBRANCH  33  36
ENDBRANCH  31  32
ENDBRANCH   1  31
TORSDOF 19
