REMARK SMILES CS(=O)(=O)c1ccc(-c2cc(Cl)cnc2-c2ccc(C(=O)NCCCNC(=O)c3ccc(-c4c5nc(c(-c6cccc(S(=O)(=O)[O-])c6F)c6ccc([nH]6)c(-c6cccc(S(=O)(=O)[O-])c6F)c6nc(c(-c7cccc(S(=O)(=O)[O-])c7F)c7ccc4[nH]7)C=C6)C=C5)cc3)nc2)cc1
REMARK SMILES IDX 24 1 23 2 22 3 20 4 21 5 19 7 16 8 17 9 93 10 18 11 92 12
REMARK SMILES IDX 15 13 9 14 10 15 11 16 14 17 12 18 13 19 8 20 5 21 6 22
REMARK SMILES IDX 95 23 7 24 94 25 2 26 1 27 3 28 4 29 25 30 26 31 27 32 28 34
REMARK SMILES IDX 29 35 30 36 91 37 31 38 90 39 32 40 33 41 34 42 84 43 35 44
REMARK SMILES IDX 89 45 83 46 85 47 36 48 88 49 82 50 81 51 37 53 69 54 49 55
REMARK SMILES IDX 68 56 50 57 53 58 67 59 86 60 51 61 52 62 66 64 87 65 54 66
REMARK SMILES IDX 38 67 39 68 47 69 40 70 42 71 48 72 41 73 43 74 44 75 45 76
REMARK SMILES IDX 46 77 70 78 71 79 79 80 72 81 74 82 80 83 73 84 75 85 76 86
REMARK SMILES IDX 77 87 78 88 55 89 56 90 64 91 57 92 59 93 65 94 58 95 60 96
REMARK SMILES IDX 61 97 62 98 63 99
REMARK H PARENT 22 6 26 33 85 52 53 63
REMARK Flexibility Score: inf
ROOT
ATOM      1  C   UNL     1      -3.043  -3.290  -5.645  1.00  0.00     0.042 C 
ENDROOT
BRANCH   1   2
ATOM      2  C   UNL     1      -3.235  -3.298  -4.129  1.00  0.00     0.118 C 
BRANCH   2   3
ATOM      3  N   UNL     1      -4.078  -4.401  -3.709  1.00  0.00    -0.351 N 
ATOM      4  C   UNL     1      -3.803  -5.646  -3.187  1.00  0.00     0.269 C 
ATOM      5  O   UNL     1      -4.780  -6.327  -2.865  1.00  0.00    -0.268 OA
ATOM      6  H   UNL     1      -5.040  -4.225  -3.821  1.00  0.00     0.163 HD
BRANCH   4   7
ATOM      7  C   UNL     1      -2.409  -6.172  -2.958  1.00  0.00     0.128 A 
ATOM      8  C   UNL     1       0.086  -7.174  -2.279  1.00  0.00     0.019 A 
ATOM      9  C   UNL     1      -0.035  -6.217  -3.287  1.00  0.00     0.014 A 
ATOM     10  C   UNL     1      -1.096  -7.637  -1.716  1.00  0.00     0.122 A 
ATOM     11  C   UNL     1      -1.290  -5.734  -3.652  1.00  0.00     0.035 A 
ATOM     12  N   UNL     1      -2.322  -7.141  -2.005  1.00  0.00    -0.250 NA
BRANCH   8  13
ATOM     13  C   UNL     1       1.398  -7.629  -1.823  1.00  0.00     0.080 A 
ATOM     14  C   UNL     1       2.267  -6.806  -1.070  1.00  0.00     0.010 A 
ATOM     15  C   UNL     1       3.560  -7.301  -0.832  1.00  0.00     0.033 A 
ATOM     16  C   UNL     1       3.929  -8.555  -1.311  1.00  0.00     0.060 A 
ATOM     17  N   UNL     1       1.736  -8.869  -2.262  1.00  0.00    -0.254 NA
ATOM     18  Cl  UNL     1       5.512  -9.160  -1.042  1.00  0.00    -0.083 Cl
ATOM     19  C   UNL     1       2.991  -9.301  -2.002  1.00  0.00     0.132 A 
BRANCH  14  20
ATOM     20  C   UNL     1       1.864  -5.488  -0.535  1.00  0.00    -0.016 A 
ATOM     21  C   UNL     1       1.052  -2.975   0.453  1.00  0.00     0.067 A 
ATOM     22  C   UNL     1       0.346  -4.125   0.808  1.00  0.00     0.021 A 
ATOM     23  C   UNL     1       2.163  -3.064  -0.386  1.00  0.00     0.021 A 
ATOM     24  C   UNL     1       0.760  -5.369   0.329  1.00  0.00     0.010 A 
ATOM     25  C   UNL     1       2.561  -4.316  -0.877  1.00  0.00     0.010 A 
BRANCH  21  26
ATOM     26  S   UNL     1       0.481  -1.422   1.103  1.00  0.00     0.175 S 
ATOM     27  C   UNL     1       1.042  -0.155   0.003  1.00  0.00     0.163 C 
ATOM     28  O   UNL     1       1.152  -1.240   2.375  1.00  0.00    -0.224 OA
ATOM     29  O   UNL     1      -0.969  -1.442   1.016  1.00  0.00    -0.224 OA
ENDBRANCH  21  26
ENDBRANCH  14  20
ENDBRANCH   8  13
ENDBRANCH   4   7
ENDBRANCH   2   3
ENDBRANCH   1   2
BRANCH   1  30
ATOM     30  C   UNL     1      -4.266  -2.784  -6.405  1.00  0.00     0.118 C 
BRANCH  30  31
ATOM     31  N   UNL     1      -4.510  -1.368  -6.155  1.00  0.00    -0.352 N 
ATOM     32  C   UNL     1      -4.514  -0.306  -7.024  1.00  0.00     0.251 C 
ATOM     33  H   UNL     1      -4.701  -1.139  -5.217  1.00  0.00     0.163 HD
ATOM     34  O   UNL     1      -4.480   0.837  -6.575  1.00  0.00    -0.269 OA
BRANCH  32  35
ATOM     35  C   UNL     1      -4.557  -0.529  -8.485  1.00  0.00     0.039 A 
ATOM     36  C   UNL     1      -3.805   0.303  -9.320  1.00  0.00     0.014 A 
ATOM     37  C   UNL     1      -5.369  -1.522  -9.037  1.00  0.00     0.014 A 
ATOM     38  C   UNL     1      -3.827   0.103 -10.702  1.00  0.00     0.010 A 
ATOM     39  C   UNL     1      -5.328  -1.772 -10.406  1.00  0.00     0.010 A 
ATOM     40  C   UNL     1      -4.565  -0.956 -11.254  1.00  0.00    -0.014 A 
BRANCH  40  41
ATOM     41  C   UNL     1      -4.550  -1.235 -12.713  1.00  0.00     0.031 A 
ATOM     42  C   UNL     1      -5.823  -1.158 -13.512  1.00  0.00     0.074 A 
ATOM     43  C   UNL     1      -3.408  -1.653 -13.295  1.00  0.00     0.049 A 
ATOM     44  N   UNL     1      -6.024  -1.447 -14.771  1.00  0.00    -0.248 NA
ATOM     45  C   UNL     1      -7.036  -0.728 -12.796  1.00  0.00     0.031 C 
ATOM     46  C   UNL     1      -2.128  -1.839 -12.607  1.00  0.00     0.029 A 
ATOM     47  N   UNL     1      -3.147  -2.027 -14.589  1.00  0.00    -0.354 N 
ATOM     48  C   UNL     1      -7.386  -1.276 -14.988  1.00  0.00     0.074 A 
ATOM     49  C   UNL     1      -7.969  -0.887 -13.723  1.00  0.00     0.031 C 
ATOM     50  C   UNL     1      -1.219  -2.291 -13.485  1.00  0.00     0.029 A 
ATOM     51  C   UNL     1      -1.856  -2.462 -14.786  1.00  0.00     0.049 A 
ATOM     52  H   UNL     1      -3.818  -1.988 -15.307  1.00  0.00     0.167 HD
ATOM     53  C   UNL     1      -8.085  -1.404 -16.142  1.00  0.00     0.034 A 
ATOM     54  C   UNL     1      -1.258  -2.957 -15.887  1.00  0.00     0.034 A 
ATOM     55  C   UNL     1      -7.491  -1.752 -17.404  1.00  0.00     0.049 A 
ATOM     56  C   UNL     1      -2.048  -3.055 -17.163  1.00  0.00     0.074 A 
ATOM     57  C   UNL     1      -8.093  -1.820 -18.648  1.00  0.00     0.029 A 
ATOM     58  N   UNL     1      -6.161  -2.099 -17.584  1.00  0.00    -0.354 N 
ATOM     59  N   UNL     1      -3.301  -2.739 -17.384  1.00  0.00    -0.248 NA
ATOM     60  C   UNL     1      -1.333  -3.543 -18.352  1.00  0.00     0.031 C 
ATOM     61  C   UNL     1      -7.133  -2.239 -19.575  1.00  0.00     0.029 A 
ATOM     62  C   UNL     1      -5.924  -2.394 -18.915  1.00  0.00     0.049 A 
ATOM     63  H   UNL     1      -5.484  -2.131 -16.869  1.00  0.00     0.167 HD
ATOM     64  C   UNL     1      -3.514  -2.951 -18.741  1.00  0.00     0.074 A 
ATOM     65  C   UNL     1      -2.256  -3.406 -19.295  1.00  0.00     0.031 C 
ATOM     66  C   UNL     1      -4.652  -2.794 -19.461  1.00  0.00     0.034 A 
BRANCH  53  67
ATOM     67  C   UNL     1      -9.565  -1.123 -16.102  1.00  0.00     0.023 A 
ATOM     68  C   UNL     1     -10.021   0.199 -15.918  1.00  0.00     0.012 A 
ATOM     69  C   UNL     1     -10.504  -2.153 -16.307  1.00  0.00     0.148 A 
ATOM     70  C   UNL     1     -11.385   0.485 -15.899  1.00  0.00     0.002 A 
ATOM     71  C   UNL     1     -11.861  -1.853 -16.335  1.00  0.00     0.091 A 
ATOM     72  F   UNL     1     -10.055  -3.407 -16.462  1.00  0.00    -0.205 F 
ATOM     73  C   UNL     1     -12.304  -0.537 -16.118  1.00  0.00     0.022 A 
BRANCH  71  74
ATOM     74  S   UNL     1     -13.121  -3.082 -16.693  1.00  0.00     0.127 S 
ATOM     75  O   UNL     1     -13.781  -3.214 -15.395  1.00  0.00    -0.237 OA
ATOM     76  O   UNL     1     -13.921  -2.412 -17.718  1.00  0.00    -0.237 OA
ATOM     77  O   UNL     1     -12.409  -4.266 -17.154  1.00  0.00    -0.744 OA
ENDBRANCH  71  74
ENDBRANCH  53  67
BRANCH  54  78
ATOM     78  C   UNL     1       0.182  -3.340 -15.844  1.00  0.00     0.023 A 
ATOM     79  C   UNL     1       1.127  -2.563 -16.543  1.00  0.00     0.012 A 
ATOM     80  C   UNL     1       0.625  -4.446 -15.093  1.00  0.00     0.148 A 
ATOM     81  C   UNL     1       2.480  -2.900 -16.524  1.00  0.00     0.002 A 
ATOM     82  C   UNL     1       1.982  -4.743 -15.031  1.00  0.00     0.091 A 
ATOM     83  F   UNL     1      -0.289  -5.178 -14.440  1.00  0.00    -0.205 F 
ATOM     84  C   UNL     1       2.909  -3.983 -15.762  1.00  0.00     0.022 A 
BRANCH  82  85
ATOM     85  S   UNL     1       2.640  -6.031 -13.966  1.00  0.00     0.127 S 
ATOM     86  O   UNL     1       3.083  -7.026 -14.938  1.00  0.00    -0.237 OA
ATOM     87  O   UNL     1       3.717  -5.325 -13.270  1.00  0.00    -0.237 OA
ATOM     88  O   UNL     1       1.536  -6.433 -13.106  1.00  0.00    -0.744 OA
ENDBRANCH  82  85
ENDBRANCH  54  78
BRANCH  66  89
ATOM     89  C   UNL     1      -4.588  -3.066 -20.941  1.00  0.00     0.023 A 
ATOM     90  C   UNL     1      -4.479  -4.389 -21.411  1.00  0.00     0.012 A 
ATOM     91  C   UNL     1      -4.718  -2.011 -21.866  1.00  0.00     0.148 A 
ATOM     92  C   UNL     1      -4.470  -4.655 -22.780  1.00  0.00     0.002 A 
ATOM     93  C   UNL     1      -4.761  -2.288 -23.226  1.00  0.00     0.091 A 
ATOM     94  F   UNL     1      -4.802  -0.757 -21.397  1.00  0.00    -0.205 F 
ATOM     95  C   UNL     1      -4.624  -3.608 -23.686  1.00  0.00     0.022 A 
BRANCH  93  96
ATOM     96  S   UNL     1      -5.057  -1.017 -24.460  1.00  0.00     0.127 S 
ATOM     97  O   UNL     1      -3.750  -0.923 -25.109  1.00  0.00    -0.237 OA
ATOM     98  O   UNL     1      -6.105  -1.622 -25.282  1.00  0.00    -0.237 OA
ATOM     99  O   UNL     1      -5.474   0.169 -23.724  1.00  0.00    -0.744 OA
ENDBRANCH  93  96
ENDBRANCH  66  89
ENDBRANCH  40  41
ENDBRANCH  32  35
ENDBRANCH  30  31
ENDBRANCH   1  30
TORSDOF 16
