REMARK SMILES C[C@H]1[C@H](C(=O)NCCCNC(=O)c2ccc(-c3c4nc(c(-c5cccc(S(=O)(=O)[O-])c5F)c5ccc([nH]5)c(-c5cccc(S(=O)(=O)[O-])c5F)c5nc(c(-c6cccc(S(=O)(=O)[O-])c6F)c6ccc3[nH]6)C=C5)C=C4)cc2)CCN1C(=O)[C@H]1CC=CCC1
REMARK SMILES IDX 8 1 7 2 6 3 4 4 5 5 3 7 1 8 2 9 78 10 76 11 77 12 79 13
REMARK SMILES IDX 80 14 81 15 82 16 86 17 83 18 85 19 84 20 9 21 10 22 11 23
REMARK SMILES IDX 12 25 13 26 14 27 75 28 15 29 74 30 16 31 17 32 18 33 68 34
REMARK SMILES IDX 19 35 73 36 67 37 69 38 20 39 72 40 66 41 65 42 21 44 53 45
REMARK SMILES IDX 33 46 52 47 34 48 37 49 51 50 70 51 35 52 36 53 50 55 71 56
REMARK SMILES IDX 38 57 22 58 23 59 31 60 24 61 26 62 32 63 25 64 27 65 28 66
REMARK SMILES IDX 29 67 30 68 54 69 55 70 63 71 56 72 58 73 64 74 57 75 59 76
REMARK SMILES IDX 60 77 61 78 62 79 39 80 40 81 48 82 41 83 43 84 49 85 42 86
REMARK SMILES IDX 44 87 45 88 46 89 47 90
REMARK H PARENT 6 6 10 24 69 43 37 54
REMARK Flexibility Score: inf
ROOT
ATOM      1  C   UNL     1      -0.651   0.087   4.125  1.00  0.00     0.042 C 
ENDROOT
BRANCH   1   2
ATOM      2  C   UNL     1      -1.348   0.667   2.902  1.00  0.00     0.117 C 
BRANCH   2   3
ATOM      3  N   UNL     1      -0.675   1.841   2.367  1.00  0.00    -0.356 N 
ATOM      4  C   UNL     1      -0.283   2.191   1.119  1.00  0.00     0.225 C 
ATOM      5  O   UNL     1       0.207   3.320   0.997  1.00  0.00    -0.275 OA
ATOM      6  H   UNL     1      -0.462   2.517   3.050  1.00  0.00     0.163 HD
BRANCH   4   7
ATOM      7  C   UNL     1      -0.372   1.291  -0.101  1.00  0.00     0.102 C 
ATOM      8  C   UNL     1       1.456   0.265  -1.454  1.00  0.00     0.032 C 
ATOM      9  C   UNL     1       0.709   0.197  -0.116  1.00  0.00     0.094 C 
ATOM     10  N   UNL     1      -0.028  -1.054   0.027  1.00  0.00    -0.339 N 
ATOM     11  C   UNL     1      -1.707   0.598  -0.357  1.00  0.00     0.037 C 
ATOM     12  C   UNL     1      -1.384  -0.885  -0.470  1.00  0.00     0.120 C 
BRANCH  10  13
ATOM     13  C   UNL     1       0.365  -2.298   0.470  1.00  0.00     0.226 C 
ATOM     14  O   UNL     1      -0.456  -3.227   0.410  1.00  0.00    -0.275 OA
BRANCH  13  15
ATOM     15  C   UNL     1       1.746  -2.621   1.078  1.00  0.00     0.083 C 
ATOM     16  C   UNL     1       2.960  -2.487   0.161  1.00  0.00     0.040 C 
ATOM     17  C   UNL     1       1.982  -2.126   2.507  1.00  0.00     0.018 C 
ATOM     18  C   UNL     1       3.873  -1.337   0.465  1.00  0.00    -0.030 C 
ATOM     19  C   UNL     1       2.772  -0.824   2.647  1.00  0.00     0.028 C 
ATOM     20  C   UNL     1       3.789  -0.595   1.575  1.00  0.00    -0.031 C 
ENDBRANCH  13  15
ENDBRANCH  10  13
ENDBRANCH   4   7
ENDBRANCH   2   3
ENDBRANCH   1   2
BRANCH   1  21
ATOM     21  C   UNL     1      -0.523   1.018   5.322  1.00  0.00     0.118 C 
BRANCH  21  22
ATOM     22  N   UNL     1      -1.734   1.072   6.119  1.00  0.00    -0.352 N 
ATOM     23  C   UNL     1      -1.999   0.554   7.365  1.00  0.00     0.251 C 
ATOM     24  H   UNL     1      -2.483   1.556   5.703  1.00  0.00     0.163 HD
ATOM     25  O   UNL     1      -3.162   0.547   7.766  1.00  0.00    -0.269 OA
BRANCH  23  26
ATOM     26  C   UNL     1      -0.923  -0.009   8.223  1.00  0.00     0.039 A 
ATOM     27  C   UNL     1      -1.210  -1.141   8.994  1.00  0.00     0.014 A 
ATOM     28  C   UNL     1       0.334   0.591   8.333  1.00  0.00     0.014 A 
ATOM     29  C   UNL     1      -0.232  -1.688   9.832  1.00  0.00     0.010 A 
ATOM     30  C   UNL     1       1.337  -0.007   9.101  1.00  0.00     0.010 A 
ATOM     31  C   UNL     1       1.061  -1.141   9.878  1.00  0.00    -0.014 A 
BRANCH  31  32
ATOM     32  C   UNL     1       2.117  -1.736  10.745  1.00  0.00     0.031 A 
ATOM     33  C   UNL     1       2.736  -0.937  11.865  1.00  0.00     0.074 A 
ATOM     34  C   UNL     1       2.567  -2.982  10.494  1.00  0.00     0.049 A 
ATOM     35  N   UNL     1       3.670  -1.290  12.712  1.00  0.00    -0.248 NA
ATOM     36  C   UNL     1       2.265   0.447  12.042  1.00  0.00     0.031 C 
ATOM     37  C   UNL     1       2.123  -3.834   9.389  1.00  0.00     0.029 A 
ATOM     38  N   UNL     1       3.513  -3.741  11.138  1.00  0.00    -0.354 N 
ATOM     39  C   UNL     1       3.919  -0.169  13.497  1.00  0.00     0.074 A 
ATOM     40  C   UNL     1       3.067   0.889  12.999  1.00  0.00     0.031 C 
ATOM     41  C   UNL     1       2.789  -4.998   9.436  1.00  0.00     0.029 A 
ATOM     42  C   UNL     1       3.722  -4.971  10.559  1.00  0.00     0.049 A 
ATOM     43  H   UNL     1       3.996  -3.434  11.939  1.00  0.00     0.167 HD
ATOM     44  C   UNL     1       4.751  -0.037  14.559  1.00  0.00     0.034 A 
ATOM     45  C   UNL     1       4.567  -5.968  10.891  1.00  0.00     0.034 A 
ATOM     46  C   UNL     1       5.562  -1.101  15.089  1.00  0.00     0.049 A 
ATOM     47  C   UNL     1       5.435  -5.821  12.112  1.00  0.00     0.074 A 
ATOM     48  C   UNL     1       6.370  -1.089  16.214  1.00  0.00     0.029 A 
ATOM     49  N   UNL     1       5.673  -2.365  14.533  1.00  0.00    -0.354 N 
ATOM     50  N   UNL     1       5.530  -4.810  12.940  1.00  0.00    -0.248 NA
ATOM     51  C   UNL     1       6.281  -6.970  12.469  1.00  0.00     0.031 C 
ATOM     52  C   UNL     1       6.980  -2.343  16.329  1.00  0.00     0.029 A 
ATOM     53  C   UNL     1       6.538  -3.141  15.287  1.00  0.00     0.049 A 
ATOM     54  H   UNL     1       5.206  -2.667  13.721  1.00  0.00     0.167 HD
ATOM     55  C   UNL     1       6.422  -5.209  13.929  1.00  0.00     0.074 A 
ATOM     56  C   UNL     1       6.816  -6.566  13.613  1.00  0.00     0.031 C 
ATOM     57  C   UNL     1       6.888  -4.507  14.992  1.00  0.00     0.034 A 
BRANCH  44  58
ATOM     58  C   UNL     1       4.772   1.294  15.268  1.00  0.00     0.023 A 
ATOM     59  C   UNL     1       3.660   1.680  16.046  1.00  0.00     0.012 A 
ATOM     60  C   UNL     1       5.901   2.135  15.213  1.00  0.00     0.148 A 
ATOM     61  C   UNL     1       3.655   2.896  16.727  1.00  0.00     0.002 A 
ATOM     62  C   UNL     1       5.905   3.327  15.931  1.00  0.00     0.091 A 
ATOM     63  F   UNL     1       6.941   1.764  14.454  1.00  0.00    -0.205 F 
ATOM     64  C   UNL     1       4.780   3.714  16.678  1.00  0.00     0.022 A 
BRANCH  62  65
ATOM     65  S   UNL     1       7.336   4.412  15.994  1.00  0.00     0.127 S 
ATOM     66  O   UNL     1       6.896   5.528  15.156  1.00  0.00    -0.237 OA
ATOM     67  O   UNL     1       7.424   4.724  17.422  1.00  0.00    -0.237 OA
ATOM     68  O   UNL     1       8.450   3.637  15.474  1.00  0.00    -0.744 OA
ENDBRANCH  62  65
ENDBRANCH  44  58
BRANCH  45  69
ATOM     69  C   UNL     1       4.576  -7.226  10.092  1.00  0.00     0.023 A 
ATOM     70  C   UNL     1       4.045  -8.405  10.650  1.00  0.00     0.012 A 
ATOM     71  C   UNL     1       5.071  -7.251   8.774  1.00  0.00     0.148 A 
ATOM     72  C   UNL     1       4.031  -9.593   9.919  1.00  0.00     0.002 A 
ATOM     73  C   UNL     1       5.002  -8.424   8.032  1.00  0.00     0.091 A 
ATOM     74  F   UNL     1       5.586  -6.122   8.267  1.00  0.00    -0.205 F 
ATOM     75  C   UNL     1       4.498  -9.601   8.607  1.00  0.00     0.022 A 
BRANCH  73  76
ATOM     76  S   UNL     1       5.455  -8.488   6.295  1.00  0.00     0.127 S 
ATOM     77  O   UNL     1       6.715  -9.224   6.340  1.00  0.00    -0.237 OA
ATOM     78  O   UNL     1       4.330  -9.224   5.715  1.00  0.00    -0.237 OA
ATOM     79  O   UNL     1       5.545  -7.099   5.864  1.00  0.00    -0.744 OA
ENDBRANCH  73  76
ENDBRANCH  45  69
BRANCH  57  80
ATOM     80  C   UNL     1       7.865  -5.197  15.909  1.00  0.00     0.023 A 
ATOM     81  C   UNL     1       9.186  -5.427  15.474  1.00  0.00     0.012 A 
ATOM     82  C   UNL     1       7.496  -5.562  17.219  1.00  0.00     0.148 A 
ATOM     83  C   UNL     1      10.113  -6.042  16.315  1.00  0.00     0.002 A 
ATOM     84  C   UNL     1       8.439  -6.133  18.067  1.00  0.00     0.091 A 
ATOM     85  F   UNL     1       6.230  -5.355  17.610  1.00  0.00    -0.205 F 
ATOM     86  C   UNL     1       9.743  -6.384  17.613  1.00  0.00     0.022 A 
BRANCH  84  87
ATOM     87  S   UNL     1       8.074  -6.520  19.783  1.00  0.00     0.127 S 
ATOM     88  O   UNL     1       7.914  -7.972  19.734  1.00  0.00    -0.237 OA
ATOM     89  O   UNL     1       9.281  -6.062  20.472  1.00  0.00    -0.237 OA
ATOM     90  O   UNL     1       6.872  -5.766  20.114  1.00  0.00    -0.744 OA
ENDBRANCH  84  87
ENDBRANCH  57  80
ENDBRANCH  31  32
ENDBRANCH  23  26
ENDBRANCH  21  22
ENDBRANCH   1  21
TORSDOF 15
