REMARK SMILES Cc1ccc(-c2cc([C@@H](C)C(=O)NCCCNC(=O)c3ccc(-c4c5nc(c(-c6cccc(S(=O)(=O)[O-])c6F)c6ccc([nH]6)c(-c6cccc(S(=O)(=O)[O-])c6F)c6nc(c(-c7cccc(S(=O)(=O)[O-])c7F)c7ccc4[nH]7)C=C6)C=C5)cc3)ccc2C[C@H]2CCCC2=O)cc1
REMARK SMILES IDX 15 1 14 2 13 3 11 4 12 5 9 7 10 8 8 9 6 10 7 11 85 12 84 13
REMARK SMILES IDX 83 14 5 15 1 16 2 17 3 18 94 19 4 20 93 21 86 22 87 23 88 24
REMARK SMILES IDX 91 25 89 26 90 27 92 28 16 29 17 30 18 31 19 33 20 34 21 35
REMARK SMILES IDX 82 36 22 37 81 38 23 39 24 40 25 41 75 42 26 43 80 44 74 45
REMARK SMILES IDX 76 46 27 47 79 48 73 49 72 50 28 52 60 53 40 54 59 55 41 56
REMARK SMILES IDX 44 57 58 58 77 59 42 60 43 61 57 63 78 64 45 65 29 66 30 67
REMARK SMILES IDX 38 68 31 69 33 70 39 71 32 72 34 73 35 74 36 75 37 76 61 77
REMARK SMILES IDX 62 78 70 79 63 80 65 81 71 82 64 83 66 84 67 85 68 86 69 87
REMARK SMILES IDX 46 88 47 89 55 90 48 91 50 92 56 93 49 94 51 95 52 96 53 97
REMARK SMILES IDX 54 98
REMARK H PARENT 13 6 17 32 76 51 44 62
REMARK Flexibility Score: inf
ROOT
ATOM      1  C   UNL     1      -8.481   0.349   0.246  1.00  0.00     0.042 C 
ENDROOT
BRANCH   1   2
ATOM      2  C   UNL     1      -8.806   0.911  -1.131  1.00  0.00     0.117 C 
BRANCH   2   3
ATOM      3  N   UNL     1      -7.959   2.042  -1.473  1.00  0.00    -0.356 N 
ATOM      4  C   UNL     1      -6.711   2.128  -2.013  1.00  0.00     0.227 C 
ATOM      5  O   UNL     1      -6.229   3.265  -2.100  1.00  0.00    -0.274 OA
ATOM      6  H   UNL     1      -8.367   2.917  -1.277  1.00  0.00     0.163 HD
BRANCH   4   7
ATOM      7  C   UNL     1      -5.890   0.924  -2.517  1.00  0.00     0.105 C 
ATOM      8  C   UNL     1      -6.612   0.032  -3.524  1.00  0.00     0.023 C 
BRANCH   7   9
ATOM      9  C   UNL     1      -5.130   0.194  -1.417  1.00  0.00    -0.035 A 
ATOM     10  C   UNL     1      -3.084  -0.066  -0.066  1.00  0.00    -0.015 A 
ATOM     11  C   UNL     1      -3.799   0.538  -1.125  1.00  0.00     0.013 A 
ATOM     12  C   UNL     1      -3.783  -0.904   0.831  1.00  0.00    -0.039 A 
ATOM     13  C   UNL     1      -5.076  -1.317   0.483  1.00  0.00     0.004 A 
ATOM     14  C   UNL     1      -5.704  -0.827  -0.664  1.00  0.00     0.005 A 
BRANCH  10  15
ATOM     15  C   UNL     1      -1.615   0.056  -0.032  1.00  0.00    -0.018 A 
ATOM     16  C   UNL     1       2.710   0.192  -0.015  1.00  0.00     0.044 C 
ATOM     17  C   UNL     1       1.212   0.162  -0.036  1.00  0.00    -0.051 A 
ATOM     18  C   UNL     1       0.555  -1.062  -0.173  1.00  0.00     0.004 A 
ATOM     19  C   UNL     1       0.451   1.331   0.092  1.00  0.00     0.004 A 
ATOM     20  C   UNL     1      -0.837  -1.108  -0.185  1.00  0.00     0.009 A 
ATOM     21  C   UNL     1      -0.950   1.280   0.091  1.00  0.00     0.009 A 
ENDBRANCH  10  15
BRANCH  12  22
ATOM     22  C   UNL     1      -3.199  -1.390   2.145  1.00  0.00     0.047 C 
BRANCH  22  23
ATOM     23  C   UNL     1      -3.587  -0.612   3.411  1.00  0.00     0.060 C 
ATOM     24  C   UNL     1      -3.317   0.897   3.422  1.00  0.00     0.012 C 
ATOM     25  C   UNL     1      -5.065  -0.679   3.719  1.00  0.00     0.136 C 
ATOM     26  C   UNL     1      -4.662   1.572   3.176  1.00  0.00     0.009 C 
ATOM     27  C   UNL     1      -5.681   0.684   3.873  1.00  0.00     0.076 C 
ATOM     28  O   UNL     1      -5.681  -1.728   3.868  1.00  0.00    -0.299 OA
ENDBRANCH  22  23
ENDBRANCH  12  22
ENDBRANCH   7   9
ENDBRANCH   4   7
ENDBRANCH   2   3
ENDBRANCH   1   2
BRANCH   1  29
ATOM     29  C   UNL     1      -9.349   0.874   1.377  1.00  0.00     0.118 C 
BRANCH  29  30
ATOM     30  N   UNL     1     -10.167  -0.184   1.969  1.00  0.00    -0.352 N 
ATOM     31  C   UNL     1     -10.842  -0.208   3.175  1.00  0.00     0.251 C 
ATOM     32  H   UNL     1     -10.249  -1.002   1.427  1.00  0.00     0.163 HD
ATOM     33  O   UNL     1     -11.467  -1.213   3.503  1.00  0.00    -0.269 OA
BRANCH  31  34
ATOM     34  C   UNL     1     -10.890   1.028   3.982  1.00  0.00     0.039 A 
ATOM     35  C   UNL     1     -12.141   1.600   4.229  1.00  0.00     0.014 A 
ATOM     36  C   UNL     1      -9.721   1.746   4.216  1.00  0.00     0.014 A 
ATOM     37  C   UNL     1     -12.227   2.972   4.440  1.00  0.00     0.010 A 
ATOM     38  C   UNL     1      -9.807   3.118   4.319  1.00  0.00     0.010 A 
ATOM     39  C   UNL     1     -11.064   3.735   4.354  1.00  0.00    -0.014 A 
BRANCH  39  40
ATOM     40  C   UNL     1     -11.059   5.175   4.142  1.00  0.00     0.031 A 
ATOM     41  C   UNL     1     -10.758   6.108   5.243  1.00  0.00     0.074 A 
ATOM     42  C   UNL     1     -11.188   5.652   2.883  1.00  0.00     0.049 A 
ATOM     43  N   UNL     1     -11.109   7.350   5.245  1.00  0.00    -0.248 NA
ATOM     44  C   UNL     1     -10.047   5.696   6.445  1.00  0.00     0.031 C 
ATOM     45  C   UNL     1     -10.823   6.981   2.406  1.00  0.00     0.029 A 
ATOM     46  N   UNL     1     -11.883   5.081   1.811  1.00  0.00    -0.354 N 
ATOM     47  C   UNL     1     -10.456   7.957   6.295  1.00  0.00     0.074 A 
ATOM     48  C   UNL     1      -9.861   6.874   7.048  1.00  0.00     0.031 C 
ATOM     49  C   UNL     1     -11.510   7.239   1.284  1.00  0.00     0.029 A 
ATOM     50  C   UNL     1     -12.454   6.151   1.098  1.00  0.00     0.049 A 
ATOM     51  H   UNL     1     -11.958   4.123   1.598  1.00  0.00     0.167 HD
ATOM     52  C   UNL     1     -10.348   9.315   6.331  1.00  0.00     0.034 A 
ATOM     53  C   UNL     1     -13.787   6.288   0.845  1.00  0.00     0.034 A 
ATOM     54  C   UNL     1     -11.005   9.941   5.180  1.00  0.00     0.049 A 
ATOM     55  C   UNL     1     -14.364   7.611   1.313  1.00  0.00     0.074 A 
ATOM     56  C   UNL     1     -10.530  10.380   3.954  1.00  0.00     0.029 A 
ATOM     57  N   UNL     1     -12.389   9.946   5.090  1.00  0.00    -0.354 N 
ATOM     58  N   UNL     1     -13.705   8.493   2.010  1.00  0.00    -0.248 NA
ATOM     59  C   UNL     1     -15.749   8.017   1.083  1.00  0.00     0.031 C 
ATOM     60  C   UNL     1     -11.641  10.601   3.103  1.00  0.00     0.029 A 
ATOM     61  C   UNL     1     -12.792  10.306   3.813  1.00  0.00     0.049 A 
ATOM     62  H   UNL     1     -13.001   9.724   5.829  1.00  0.00     0.167 HD
ATOM     63  C   UNL     1     -14.572   9.449   2.479  1.00  0.00     0.074 A 
ATOM     64  C   UNL     1     -15.813   9.164   1.782  1.00  0.00     0.031 C 
ATOM     65  C   UNL     1     -14.208  10.328   3.465  1.00  0.00     0.034 A 
BRANCH  52  66
ATOM     66  C   UNL     1      -9.344  10.040   7.203  1.00  0.00     0.023 A 
ATOM     67  C   UNL     1      -8.775  11.231   6.698  1.00  0.00     0.012 A 
ATOM     68  C   UNL     1      -8.861   9.600   8.454  1.00  0.00     0.148 A 
ATOM     69  C   UNL     1      -7.705  11.876   7.324  1.00  0.00     0.002 A 
ATOM     70  C   UNL     1      -7.738  10.193   9.038  1.00  0.00     0.091 A 
ATOM     71  F   UNL     1      -9.528   8.648   9.120  1.00  0.00    -0.205 F 
ATOM     72  C   UNL     1      -7.154  11.330   8.472  1.00  0.00     0.022 A 
BRANCH  70  73
ATOM     73  S   UNL     1      -6.894   9.457  10.448  1.00  0.00     0.127 S 
ATOM     74  O   UNL     1      -5.486   9.545  10.050  1.00  0.00    -0.237 OA
ATOM     75  O   UNL     1      -7.271  10.345  11.544  1.00  0.00    -0.237 OA
ATOM     76  O   UNL     1      -7.393   8.089  10.534  1.00  0.00    -0.744 OA
ENDBRANCH  70  73
ENDBRANCH  52  66
BRANCH  53  77
ATOM     77  C   UNL     1     -14.533   4.999   0.812  1.00  0.00     0.023 A 
ATOM     78  C   UNL     1     -14.203   4.086  -0.216  1.00  0.00     0.012 A 
ATOM     79  C   UNL     1     -15.234   4.532   1.937  1.00  0.00     0.148 A 
ATOM     80  C   UNL     1     -14.455   2.721  -0.071  1.00  0.00     0.002 A 
ATOM     81  C   UNL     1     -15.479   3.167   2.076  1.00  0.00     0.091 A 
ATOM     82  F   UNL     1     -15.578   5.409   2.889  1.00  0.00    -0.205 F 
ATOM     83  C   UNL     1     -15.062   2.259   1.091  1.00  0.00     0.022 A 
BRANCH  81  84
ATOM     84  S   UNL     1     -16.201   2.501   3.582  1.00  0.00     0.127 S 
ATOM     85  O   UNL     1     -17.619   2.477   3.241  1.00  0.00    -0.237 OA
ATOM     86  O   UNL     1     -15.567   1.186   3.678  1.00  0.00    -0.237 OA
ATOM     87  O   UNL     1     -15.795   3.432   4.624  1.00  0.00    -0.744 OA
ENDBRANCH  81  84
ENDBRANCH  53  77
BRANCH  65  88
ATOM     88  C   UNL     1     -15.140  11.258   4.225  1.00  0.00     0.023 A 
ATOM     89  C   UNL     1     -16.528  11.040   4.308  1.00  0.00     0.012 A 
ATOM     90  C   UNL     1     -14.619  12.314   5.020  1.00  0.00     0.148 A 
ATOM     91  C   UNL     1     -17.362  11.846   5.093  1.00  0.00     0.002 A 
ATOM     92  C   UNL     1     -15.437  13.042   5.883  1.00  0.00     0.091 A 
ATOM     93  F   UNL     1     -13.319  12.637   4.937  1.00  0.00    -0.205 F 
ATOM     94  C   UNL     1     -16.815  12.831   5.902  1.00  0.00     0.022 A 
BRANCH  92  95
ATOM     95  S   UNL     1     -14.715  14.153   7.101  1.00  0.00     0.127 S 
ATOM     96  O   UNL     1     -14.586  15.397   6.347  1.00  0.00    -0.237 OA
ATOM     97  O   UNL     1     -15.733  14.185   8.153  1.00  0.00    -0.237 OA
ATOM     98  O   UNL     1     -13.474  13.501   7.496  1.00  0.00    -0.744 OA
ENDBRANCH  92  95
ENDBRANCH  65  88
ENDBRANCH  39  40
ENDBRANCH  31  34
ENDBRANCH  29  30
ENDBRANCH   1  29
TORSDOF 17
