REMARK SMILES CSc1ccc(-c2cc(C[C@H]3CCCC3=O)ccc2[C@@H](C)C(=O)NCCCNC(=O)c2ccc(-c3c4nc(c(-c5cccc(S(=O)(=O)[O-])c5F)c5ccc([nH]5)c(-c5cccc(S(=O)(=O)[O-])c5F)c5nc(c(-c6cccc(S(=O)(=O)[O-])c6F)c6ccc3[nH]6)C=C5)C=C4)cc2)cc1
REMARK SMILES IDX 26 1 25 2 24 3 22 4 23 5 20 7 21 8 19 9 7 10 8 11 9 12 18 13
REMARK SMILES IDX 17 14 6 15 3 16 4 17 95 18 5 19 94 20 2 21 1 22 10 23 11 24
REMARK SMILES IDX 12 25 15 26 13 27 14 28 16 29 27 30 28 31 29 32 30 34 31 35
REMARK SMILES IDX 32 36 93 37 33 38 92 39 34 40 35 41 36 42 86 43 37 44 91 45
REMARK SMILES IDX 85 46 87 47 38 48 90 49 84 50 83 51 39 53 71 54 51 55 70 56
REMARK SMILES IDX 52 57 55 58 69 59 88 60 53 61 54 62 68 64 89 65 56 66 40 67
REMARK SMILES IDX 41 68 49 69 42 70 44 71 50 72 43 73 45 74 46 75 47 76 48 77
REMARK SMILES IDX 72 78 73 79 81 80 74 81 76 82 82 83 75 84 77 85 78 86 79 87
REMARK SMILES IDX 80 88 57 89 58 90 66 91 59 92 61 93 67 94 60 95 62 96 63 97
REMARK SMILES IDX 64 98 65 99
REMARK H PARENT 24 6 28 33 87 52 55 63
REMARK Flexibility Score: inf
ROOT
ATOM      1  C   UNL     1       0.725   6.058   9.867  1.00  0.00     0.042 C 
ENDROOT
BRANCH   1   2
ATOM      2  C   UNL     1      -0.575   6.029   9.065  1.00  0.00     0.117 C 
BRANCH   2   3
ATOM      3  N   UNL     1      -0.377   6.397   7.678  1.00  0.00    -0.356 N 
ATOM      4  C   UNL     1      -0.251   5.659   6.542  1.00  0.00     0.227 C 
ATOM      5  O   UNL     1      -0.038   6.303   5.506  1.00  0.00    -0.274 OA
ATOM      6  H   UNL     1      -0.324   7.369   7.529  1.00  0.00     0.163 HD
BRANCH   4   7
ATOM      7  C   UNL     1      -0.366   4.124   6.482  1.00  0.00     0.106 C 
ATOM      8  C   UNL     1      -1.674   3.550   7.024  1.00  0.00     0.023 C 
BRANCH   7   9
ATOM      9  C   UNL     1       0.907   3.411   6.933  1.00  0.00    -0.028 A 
ATOM     10  C   UNL     1       1.888   2.970   6.011  1.00  0.00    -0.014 A 
ATOM     11  C   UNL     1       3.117   2.474   6.497  1.00  0.00     0.012 A 
ATOM     12  C   UNL     1       3.351   2.296   7.865  1.00  0.00    -0.047 A 
ATOM     13  C   UNL     1       1.145   3.186   8.299  1.00  0.00     0.005 A 
ATOM     14  C   UNL     1       2.347   2.651   8.762  1.00  0.00     0.004 A 
BRANCH  10  15
ATOM     15  C   UNL     1       1.593   2.764   4.584  1.00  0.00    -0.018 A 
ATOM     16  C   UNL     1       0.903   2.209   1.893  1.00  0.00     0.007 A 
ATOM     17  C   UNL     1       0.928   1.186   2.840  1.00  0.00     0.015 A 
ATOM     18  C   UNL     1       1.220   3.512   2.304  1.00  0.00     0.015 A 
ATOM     19  C   UNL     1       1.269   1.462   4.163  1.00  0.00     0.010 A 
ATOM     20  C   UNL     1       1.573   3.788   3.635  1.00  0.00     0.010 A 
BRANCH  16  21
ATOM     21  S   UNL     1       0.420   1.940   0.193  1.00  0.00    -0.130 SA
ATOM     22  C   UNL     1       0.989   0.241  -0.097  1.00  0.00     0.091 C 
ENDBRANCH  16  21
ENDBRANCH  10  15
BRANCH  12  23
ATOM     23  C   UNL     1       4.613   1.632   8.364  1.00  0.00     0.047 C 
BRANCH  23  24
ATOM     24  C   UNL     1       4.638   0.102   8.251  1.00  0.00     0.060 C 
ATOM     25  C   UNL     1       3.417  -0.651   8.799  1.00  0.00     0.012 C 
ATOM     26  C   UNL     1       4.674  -0.365   6.812  1.00  0.00     0.136 C 
ATOM     27  C   UNL     1       2.527  -0.957   7.598  1.00  0.00     0.009 C 
ATOM     28  C   UNL     1       3.486  -1.215   6.448  1.00  0.00     0.076 C 
ATOM     29  O   UNL     1       5.571  -0.104   6.018  1.00  0.00    -0.299 OA
ENDBRANCH  23  24
ENDBRANCH  12  23
ENDBRANCH   7   9
ENDBRANCH   4   7
ENDBRANCH   2   3
ENDBRANCH   1   2
BRANCH   1  30
ATOM     30  C   UNL     1       1.109   7.440  10.375  1.00  0.00     0.118 C 
BRANCH  30  31
ATOM     31  N   UNL     1       0.187   7.923  11.394  1.00  0.00    -0.352 N 
ATOM     32  C   UNL     1       0.389   8.201  12.723  1.00  0.00     0.251 C 
ATOM     33  H   UNL     1      -0.732   8.076  11.077  1.00  0.00     0.163 HD
ATOM     34  O   UNL     1      -0.589   8.370  13.448  1.00  0.00    -0.269 OA
BRANCH  32  35
ATOM     35  C   UNL     1       1.754   8.297  13.293  1.00  0.00     0.039 A 
ATOM     36  C   UNL     1       1.970   7.853  14.602  1.00  0.00     0.014 A 
ATOM     37  C   UNL     1       2.804   8.878  12.579  1.00  0.00     0.014 A 
ATOM     38  C   UNL     1       3.243   7.949  15.173  1.00  0.00     0.010 A 
ATOM     39  C   UNL     1       4.090   8.895  13.116  1.00  0.00     0.010 A 
ATOM     40  C   UNL     1       4.320   8.450  14.425  1.00  0.00    -0.014 A 
BRANCH  40  41
ATOM     41  C   UNL     1       5.691   8.528  14.994  1.00  0.00     0.031 A 
ATOM     42  C   UNL     1       6.372   9.863  15.150  1.00  0.00     0.074 A 
ATOM     43  C   UNL     1       6.356   7.393  15.287  1.00  0.00     0.049 A 
ATOM     44  N   UNL     1       7.585  10.126  15.563  1.00  0.00    -0.248 NA
ATOM     45  C   UNL     1       5.601  11.056  14.762  1.00  0.00     0.031 C 
ATOM     46  C   UNL     1       5.834   6.037  15.105  1.00  0.00     0.029 A 
ATOM     47  N   UNL     1       7.625   7.197  15.772  1.00  0.00    -0.354 N 
ATOM     48  C   UNL     1       7.738  11.503  15.442  1.00  0.00     0.074 A 
ATOM     49  C   UNL     1       6.504  12.018  14.890  1.00  0.00     0.031 C 
ATOM     50  C   UNL     1       6.771   5.151  15.478  1.00  0.00     0.029 A 
ATOM     51  C   UNL     1       7.969   5.871  15.896  1.00  0.00     0.049 A 
ATOM     52  H   UNL     1       8.231   7.935  16.009  1.00  0.00     0.167 HD
ATOM     53  C   UNL     1       8.797  12.274  15.787  1.00  0.00     0.034 A 
ATOM     54  C   UNL     1       9.122   5.299  16.296  1.00  0.00     0.034 A 
ATOM     55  C   UNL     1       9.998  11.764  16.390  1.00  0.00     0.049 A 
ATOM     56  C   UNL     1      10.262   6.181  16.728  1.00  0.00     0.074 A 
ATOM     57  C   UNL     1      11.085  12.470  16.873  1.00  0.00     0.029 A 
ATOM     58  N   UNL     1      10.273  10.420  16.590  1.00  0.00    -0.354 N 
ATOM     59  N   UNL     1      10.325   7.490  16.763  1.00  0.00    -0.248 NA
ATOM     60  C   UNL     1      11.478   5.509  17.210  1.00  0.00     0.031 C 
ATOM     61  C   UNL     1      12.028  11.551  17.346  1.00  0.00     0.029 A 
ATOM     62  C   UNL     1      11.517  10.274  17.180  1.00  0.00     0.049 A 
ATOM     63  H   UNL     1       9.673   9.678  16.348  1.00  0.00     0.167 HD
ATOM     64  C   UNL     1      11.567   7.799  17.304  1.00  0.00     0.074 A 
ATOM     65  C   UNL     1      12.217   6.538  17.601  1.00  0.00     0.031 C 
ATOM     66  C   UNL     1      12.127   9.015  17.522  1.00  0.00     0.034 A 
BRANCH  53  67
ATOM     67  C   UNL     1       8.683  13.761  15.574  1.00  0.00     0.023 A 
ATOM     68  C   UNL     1       7.828  14.520  16.399  1.00  0.00     0.012 A 
ATOM     69  C   UNL     1       9.466  14.418  14.603  1.00  0.00     0.148 A 
ATOM     70  C   UNL     1       7.725  15.901  16.239  1.00  0.00     0.002 A 
ATOM     71  C   UNL     1       9.391  15.801  14.480  1.00  0.00     0.091 A 
ATOM     72  F   UNL     1      10.258  13.679  13.814  1.00  0.00    -0.205 F 
ATOM     73  C   UNL     1       8.514  16.542  15.288  1.00  0.00     0.022 A 
BRANCH  71  74
ATOM     74  S   UNL     1      10.424  16.730  13.341  1.00  0.00     0.127 S 
ATOM     75  O   UNL     1       9.450  17.147  12.333  1.00  0.00    -0.237 OA
ATOM     76  O   UNL     1      10.924  17.811  14.190  1.00  0.00    -0.237 OA
ATOM     77  O   UNL     1      11.446  15.801  12.877  1.00  0.00    -0.744 OA
ENDBRANCH  71  74
ENDBRANCH  53  67
BRANCH  54  78
ATOM     78  C   UNL     1       9.224   3.814  16.381  1.00  0.00     0.023 A 
ATOM     79  C   UNL     1       9.283   3.200  17.648  1.00  0.00     0.012 A 
ATOM     80  C   UNL     1       9.222   3.006  15.228  1.00  0.00     0.148 A 
ATOM     81  C   UNL     1       9.371   1.813  17.764  1.00  0.00     0.002 A 
ATOM     82  C   UNL     1       9.251   1.622  15.351  1.00  0.00     0.091 A 
ATOM     83  F   UNL     1       9.177   3.608  14.030  1.00  0.00    -0.205 F 
ATOM     84  C   UNL     1       9.344   1.023  16.617  1.00  0.00     0.022 A 
BRANCH  82  85
ATOM     85  S   UNL     1       9.075   0.526  13.939  1.00  0.00     0.127 S 
ATOM     86  O   UNL     1      10.425  -0.011  13.805  1.00  0.00    -0.237 OA
ATOM     87  O   UNL     1       8.075  -0.430  14.418  1.00  0.00    -0.237 OA
ATOM     88  O   UNL     1       8.613   1.369  12.843  1.00  0.00    -0.744 OA
ENDBRANCH  82  85
ENDBRANCH  54  78
BRANCH  66  89
ATOM     89  C   UNL     1      13.498   9.053  18.143  1.00  0.00     0.023 A 
ATOM     90  C   UNL     1      14.623   8.684  17.380  1.00  0.00     0.012 A 
ATOM     91  C   UNL     1      13.678   9.530  19.457  1.00  0.00     0.148 A 
ATOM     92  C   UNL     1      15.904   8.761  17.925  1.00  0.00     0.002 A 
ATOM     93  C   UNL     1      14.962   9.649  19.976  1.00  0.00     0.091 A 
ATOM     94  F   UNL     1      12.593   9.857  20.174  1.00  0.00    -0.205 F 
ATOM     95  C   UNL     1      16.074   9.255  19.216  1.00  0.00     0.022 A 
BRANCH  93  96
ATOM     96  S   UNL     1      15.281  10.366  21.592  1.00  0.00     0.127 S 
ATOM     97  O   UNL     1      15.632   9.184  22.378  1.00  0.00    -0.237 OA
ATOM     98  O   UNL     1      16.399  11.269  21.317  1.00  0.00    -0.237 OA
ATOM     99  O   UNL     1      14.048  11.036  21.984  1.00  0.00    -0.744 OA
ENDBRANCH  93  96
ENDBRANCH  66  89
ENDBRANCH  40  41
ENDBRANCH  32  35
ENDBRANCH  30  31
ENDBRANCH   1  30
TORSDOF 18
