REMARK SMILES C[C@@H]1[C@@H](C(=O)NCCCNC(=O)c2ccc(-c3c4nc(c(-c5cccc(S(=O)(=O)[O-])c5F)c5ccc([nH]5)c(-c5cccc(S(=O)(=O)[O-])c5F)c5nc(c(-c6cccc(S(=O)(=O)[O-])c6F)c6ccc3[nH]6)C=C5)C=C4)cc2)CCN1C(=O)Nc1nccs1
REMARK SMILES IDX 8 1 7 2 6 3 4 4 5 5 3 7 1 8 2 9 78 10 76 11 77 12 79 13
REMARK SMILES IDX 80 14 81 15 82 17 83 18 86 19 84 20 85 21 9 22 10 23 11 24
REMARK SMILES IDX 12 26 13 27 14 28 75 29 15 30 74 31 16 32 17 33 18 34 68 35
REMARK SMILES IDX 19 36 73 37 67 38 69 39 20 40 72 41 66 42 65 43 21 45 53 46
REMARK SMILES IDX 33 47 52 48 34 49 37 50 51 51 70 52 35 53 36 54 50 56 71 57
REMARK SMILES IDX 38 58 22 59 23 60 31 61 24 62 26 63 32 64 25 65 27 66 28 67
REMARK SMILES IDX 29 68 30 69 54 70 55 71 63 72 56 73 58 74 64 75 57 76 59 77
REMARK SMILES IDX 60 78 61 79 62 80 39 81 40 82 48 83 41 84 43 85 49 86 42 87
REMARK SMILES IDX 44 88 45 89 46 90 47 91
REMARK H PARENT 6 6 81 16 10 25 69 44 37 55
REMARK Flexibility Score: inf
ROOT
ATOM      1  C   UNL     1      -2.991   4.169  -1.158  1.00  0.00     0.042 C 
ENDROOT
BRANCH   1   2
ATOM      2  C   UNL     1      -2.704   2.730  -0.774  1.00  0.00     0.117 C 
BRANCH   2   3
ATOM      3  N   UNL     1      -1.905   2.025  -1.758  1.00  0.00    -0.356 N 
ATOM      4  C   UNL     1      -0.866   1.165  -1.562  1.00  0.00     0.225 C 
ATOM      5  O   UNL     1      -0.361   0.645  -2.556  1.00  0.00    -0.275 OA
ATOM      6  H   UNL     1      -2.146   2.190  -2.699  1.00  0.00     0.163 HD
BRANCH   4   7
ATOM      7  C   UNL     1      -0.353   0.944  -0.143  1.00  0.00     0.102 C 
ATOM      8  C   UNL     1       1.724   0.233   1.088  1.00  0.00     0.032 C 
ATOM      9  C   UNL     1       0.816  -0.058  -0.117  1.00  0.00     0.096 C 
ATOM     10  N   UNL     1       0.166  -1.371   0.021  1.00  0.00    -0.321 N 
ATOM     11  C   UNL     1      -1.374   0.273   0.778  1.00  0.00     0.037 C 
ATOM     12  C   UNL     1      -1.199  -1.206   0.492  1.00  0.00     0.122 C 
BRANCH  10  13
ATOM     13  C   UNL     1       0.507  -2.602  -0.461  1.00  0.00     0.323 C 
ATOM     14  O   UNL     1      -0.256  -3.566  -0.295  1.00  0.00    -0.248 OA
ATOM     15  N   UNL     1       1.563  -2.838  -1.259  1.00  0.00    -0.283 N 
ATOM     16  H   UNL     1       1.487  -3.669  -1.782  1.00  0.00     0.174 HD
BRANCH  15  17
ATOM     17  C   UNL     1       2.714  -2.156  -1.485  1.00  0.00     0.190 A 
ATOM     18  N   UNL     1       3.325  -1.256  -0.761  1.00  0.00    -0.228 NA
ATOM     19  S   UNL     1       3.493  -2.591  -2.945  1.00  0.00    -0.105 S 
ATOM     20  C   UNL     1       4.408  -0.759  -1.455  1.00  0.00     0.125 A 
ATOM     21  C   UNL     1       4.634  -1.336  -2.685  1.00  0.00     0.088 A 
ENDBRANCH  15  17
ENDBRANCH  10  13
ENDBRANCH   4   7
ENDBRANCH   2   3
ENDBRANCH   1   2
BRANCH   1  22
ATOM     22  C   UNL     1      -3.720   4.331  -2.481  1.00  0.00     0.118 C 
BRANCH  22  23
ATOM     23  N   UNL     1      -5.040   3.712  -2.495  1.00  0.00    -0.352 N 
ATOM     24  C   UNL     1      -6.294   4.281  -2.526  1.00  0.00     0.251 C 
ATOM     25  H   UNL     1      -5.034   2.728  -2.479  1.00  0.00     0.163 HD
ATOM     26  O   UNL     1      -7.283   3.577  -2.374  1.00  0.00    -0.269 OA
BRANCH  24  27
ATOM     27  C   UNL     1      -6.441   5.743  -2.707  1.00  0.00     0.039 A 
ATOM     28  C   UNL     1      -7.371   6.435  -1.927  1.00  0.00     0.014 A 
ATOM     29  C   UNL     1      -5.654   6.435  -3.628  1.00  0.00     0.014 A 
ATOM     30  C   UNL     1      -7.442   7.829  -2.009  1.00  0.00     0.010 A 
ATOM     31  C   UNL     1      -5.641   7.824  -3.620  1.00  0.00     0.010 A 
ATOM     32  C   UNL     1      -6.541   8.540  -2.819  1.00  0.00    -0.014 A 
BRANCH  32  33
ATOM     33  C   UNL     1      -6.519  10.026  -2.849  1.00  0.00     0.031 A 
ATOM     34  C   UNL     1      -6.732  10.758  -4.149  1.00  0.00     0.074 A 
ATOM     35  C   UNL     1      -6.210  10.714  -1.732  1.00  0.00     0.049 A 
ATOM     36  N   UNL     1      -6.667  12.042  -4.392  1.00  0.00    -0.248 NA
ATOM     37  C   UNL     1      -7.022   9.940  -5.340  1.00  0.00     0.031 C 
ATOM     38  C   UNL     1      -5.896  10.121  -0.429  1.00  0.00     0.029 A 
ATOM     39  N   UNL     1      -6.081  12.064  -1.517  1.00  0.00    -0.354 N 
ATOM     40  C   UNL     1      -6.863  12.179  -5.762  1.00  0.00     0.074 A 
ATOM     41  C   UNL     1      -7.005  10.847  -6.304  1.00  0.00     0.031 C 
ATOM     42  C   UNL     1      -5.627  11.100   0.449  1.00  0.00     0.029 A 
ATOM     43  C   UNL     1      -5.710  12.387  -0.232  1.00  0.00     0.049 A 
ATOM     44  H   UNL     1      -6.240  12.738  -2.217  1.00  0.00     0.167 HD
ATOM     45  C   UNL     1      -6.954  13.312  -6.499  1.00  0.00     0.034 A 
ATOM     46  C   UNL     1      -5.457  13.585   0.333  1.00  0.00     0.034 A 
ATOM     47  C   UNL     1      -6.864  14.636  -5.949  1.00  0.00     0.049 A 
ATOM     48  C   UNL     1      -5.606  14.830  -0.499  1.00  0.00     0.074 A 
ATOM     49  C   UNL     1      -7.035  15.848  -6.594  1.00  0.00     0.029 A 
ATOM     50  N   UNL     1      -6.576  14.925  -4.624  1.00  0.00    -0.354 N 
ATOM     51  N   UNL     1      -5.946  14.945  -1.760  1.00  0.00    -0.248 NA
ATOM     52  C   UNL     1      -5.372  16.113   0.179  1.00  0.00     0.031 C 
ATOM     53  C   UNL     1      -6.823  16.871  -5.664  1.00  0.00     0.029 A 
ATOM     54  C   UNL     1      -6.554  16.295  -4.433  1.00  0.00     0.049 A 
ATOM     55  H   UNL     1      -6.412  14.253  -3.923  1.00  0.00     0.167 HD
ATOM     56  C   UNL     1      -6.006  16.310  -2.016  1.00  0.00     0.074 A 
ATOM     57  C   UNL     1      -5.686  16.982  -0.774  1.00  0.00     0.031 C 
ATOM     58  C   UNL     1      -6.287  16.949  -3.178  1.00  0.00     0.034 A 
BRANCH  45  59
ATOM     59  C   UNL     1      -7.217  13.166  -7.976  1.00  0.00     0.023 A 
ATOM     60  C   UNL     1      -8.477  12.712  -8.418  1.00  0.00     0.012 A 
ATOM     61  C   UNL     1      -6.242  13.529  -8.926  1.00  0.00     0.148 A 
ATOM     62  C   UNL     1      -8.749  12.582  -9.779  1.00  0.00     0.002 A 
ATOM     63  C   UNL     1      -6.538  13.444 -10.281  1.00  0.00     0.091 A 
ATOM     64  F   UNL     1      -5.043  13.939  -8.488  1.00  0.00    -0.205 F 
ATOM     65  C   UNL     1      -7.785  12.959 -10.709  1.00  0.00     0.022 A 
BRANCH  63  66
ATOM     66  S   UNL     1      -5.396  13.981 -11.559  1.00  0.00     0.127 S 
ATOM     67  O   UNL     1      -5.014  12.708 -12.167  1.00  0.00    -0.237 OA
ATOM     68  O   UNL     1      -6.248  14.826 -12.397  1.00  0.00    -0.237 OA
ATOM     69  O   UNL     1      -4.326  14.690 -10.871  1.00  0.00    -0.744 OA
ENDBRANCH  63  66
ENDBRANCH  45  59
BRANCH  46  70
ATOM     70  C   UNL     1      -5.103  13.669   1.779  1.00  0.00     0.023 A 
ATOM     71  C   UNL     1      -6.025  14.231   2.684  1.00  0.00     0.012 A 
ATOM     72  C   UNL     1      -3.875  13.181   2.265  1.00  0.00     0.148 A 
ATOM     73  C   UNL     1      -5.716  14.338   4.041  1.00  0.00     0.002 A 
ATOM     74  C   UNL     1      -3.597  13.239   3.626  1.00  0.00     0.091 A 
ATOM     75  F   UNL     1      -3.007  12.658   1.387  1.00  0.00    -0.205 F 
ATOM     76  C   UNL     1      -4.507  13.834   4.513  1.00  0.00     0.022 A 
BRANCH  74  77
ATOM     77  S   UNL     1      -2.125  12.497   4.341  1.00  0.00     0.127 S 
ATOM     78  O   UNL     1      -1.363  13.675   4.746  1.00  0.00    -0.237 OA
ATOM     79  O   UNL     1      -2.688  11.716   5.444  1.00  0.00    -0.237 OA
ATOM     80  O   UNL     1      -1.533  11.694   3.279  1.00  0.00    -0.744 OA
ENDBRANCH  74  77
ENDBRANCH  46  70
BRANCH  58  81
ATOM     81  C   UNL     1      -6.309  18.455  -3.160  1.00  0.00     0.023 A 
ATOM     82  C   UNL     1      -5.104  19.176  -3.053  1.00  0.00     0.012 A 
ATOM     83  C   UNL     1      -7.521  19.154  -3.329  1.00  0.00     0.148 A 
ATOM     84  C   UNL     1      -5.108  20.570  -3.080  1.00  0.00     0.002 A 
ATOM     85  C   UNL     1      -7.512  20.541  -3.408  1.00  0.00     0.091 A 
ATOM     86  F   UNL     1      -8.659  18.450  -3.412  1.00  0.00    -0.205 F 
ATOM     87  C   UNL     1      -6.309  21.251  -3.270  1.00  0.00     0.022 A 
BRANCH  85  88
ATOM     88  S   UNL     1      -8.994  21.496  -3.750  1.00  0.00     0.127 S 
ATOM     89  O   UNL     1      -9.242  22.134  -2.458  1.00  0.00    -0.237 OA
ATOM     90  O   UNL     1      -8.540  22.406  -4.802  1.00  0.00    -0.237 OA
ATOM     91  O   UNL     1     -10.003  20.536  -4.175  1.00  0.00    -0.744 OA
ENDBRANCH  85  88
ENDBRANCH  58  81
ENDBRANCH  32  33
ENDBRANCH  24  27
ENDBRANCH  22  23
ENDBRANCH   1  22
TORSDOF 15
