REMARK SMILES O=C1CCCC2=C1[C@H](c1ccc([N+](=O)[O-])cc1)CC(=O)N2c1ccccc1C(=O)NCCCNC(=O)c1ccc(-c2c3nc(c(-c4cccc(S(=O)(=O)[O-])c4F)c4ccc([nH]4)c(-c4cccc(S(=O)(=O)[O-])c4F)c4nc(c(-c5cccc(S(=O)(=O)[O-])c5F)c5ccc2[nH]5)C=C4)C=C3)cc1
REMARK SMILES IDX 32 1 31 2 30 3 28 4 29 5 27 7 22 8 23 9 24 10 26 11 25 12
REMARK SMILES IDX 21 13 1 14 2 15 3 16 7 17 4 18 6 19 8 20 5 21 18 22 19 23
REMARK SMILES IDX 20 24 9 25 10 26 17 27 11 28 16 29 12 30 13 31 14 32 15 33
REMARK SMILES IDX 33 34 34 35 35 36 36 38 37 39 38 40 99 41 39 42 98 43 40 44
REMARK SMILES IDX 41 45 42 46 92 47 43 48 97 49 91 50 93 51 44 52 96 53 90 54
REMARK SMILES IDX 89 55 45 57 77 58 57 59 76 60 58 61 61 62 75 63 94 64 59 65
REMARK SMILES IDX 60 66 74 68 95 69 62 70 46 71 47 72 55 73 48 74 50 75 56 76
REMARK SMILES IDX 49 77 51 78 52 79 53 80 54 81 78 82 79 83 87 84 80 85 82 86
REMARK SMILES IDX 88 87 81 88 83 89 84 90 85 91 86 92 63 93 64 94 72 95 65 96
REMARK SMILES IDX 67 97 73 98 66 99 68 100 69 101 70 102 71 103
REMARK H PARENT 30 6 34 37 93 56 61 67
REMARK Flexibility Score: inf
ROOT
ATOM      1  C   UNL     1       4.028  -1.014   3.170  1.00  0.00     0.042 C 
ENDROOT
BRANCH   1   2
ATOM      2  C   UNL     1       4.755  -0.916   1.821  1.00  0.00     0.118 C 
BRANCH   2   3
ATOM      3  N   UNL     1       6.173  -0.631   1.897  1.00  0.00    -0.352 N 
ATOM      4  C   UNL     1       7.283  -0.800   1.105  1.00  0.00     0.253 C 
ATOM      5  O   UNL     1       8.252  -0.179   1.577  1.00  0.00    -0.269 OA
ATOM      6  H   UNL     1       6.405  -0.196   2.749  1.00  0.00     0.163 HD
BRANCH   4   7
ATOM      7  C   UNL     1       7.532  -1.566  -0.194  1.00  0.00     0.063 A 
ATOM      8  C   UNL     1       6.724  -2.264  -1.123  1.00  0.00     0.061 A 
ATOM      9  C   UNL     1       7.328  -2.857  -2.279  1.00  0.00     0.027 A 
ATOM     10  C   UNL     1       8.691  -2.846  -2.524  1.00  0.00     0.002 A 
ATOM     11  C   UNL     1       8.935  -1.592  -0.495  1.00  0.00     0.016 A 
ATOM     12  C   UNL     1       9.505  -2.216  -1.615  1.00  0.00     0.001 A 
BRANCH   8  13
ATOM     13  N   UNL     1       5.309  -2.495  -1.085  1.00  0.00    -0.284 N 
ATOM     14  O   UNL     1       0.852  -0.959  -0.893  1.00  0.00    -0.294 OA
ATOM     15  C   UNL     1       2.050  -0.695  -0.876  1.00  0.00     0.161 C 
ATOM     16  C   UNL     1       2.550   0.735  -0.813  1.00  0.00     0.081 C 
ATOM     17  C   UNL     1       3.060  -1.795  -0.869  1.00  0.00     0.023 C 
ATOM     18  C   UNL     1       3.718   0.940  -1.751  1.00  0.00     0.015 C 
ATOM     19  C   UNL     1       4.348  -1.479  -1.140  1.00  0.00     0.033 C 
ATOM     20  C   UNL     1       2.592  -3.242  -0.670  1.00  0.00     0.064 C 
ATOM     21  C   UNL     1       4.823  -0.087  -1.524  1.00  0.00     0.055 C 
ATOM     22  C   UNL     1       3.477  -4.096  -1.560  1.00  0.00     0.114 C 
ATOM     23  C   UNL     1       4.923  -3.859  -1.192  1.00  0.00     0.232 C 
ATOM     24  O   UNL     1       5.689  -4.819  -1.083  1.00  0.00    -0.274 OA
BRANCH  20  25
ATOM     25  C   UNL     1       2.559  -3.749   0.781  1.00  0.00    -0.039 A 
ATOM     26  C   UNL     1       3.388  -4.771   1.315  1.00  0.00     0.011 A 
ATOM     27  C   UNL     1       1.630  -3.188   1.645  1.00  0.00     0.011 A 
ATOM     28  C   UNL     1       3.420  -5.087   2.683  1.00  0.00     0.086 A 
ATOM     29  C   UNL     1       1.644  -3.530   2.997  1.00  0.00     0.086 A 
ATOM     30  C   UNL     1       2.576  -4.406   3.534  1.00  0.00     0.269 A 
BRANCH  30  31
ATOM     31  N   UNL     1       2.780  -4.430   4.984  1.00  0.00     0.062 N 
ATOM     32  O   UNL     1       3.249  -5.456   5.487  1.00  0.00    -0.258 OA
ATOM     33  O   UNL     1       2.554  -3.373   5.600  1.00  0.00    -0.258 OA
ENDBRANCH  30  31
ENDBRANCH  20  25
ENDBRANCH   8  13
ENDBRANCH   4   7
ENDBRANCH   2   3
ENDBRANCH   1   2
BRANCH   1  34
ATOM     34  C   UNL     1       2.938   0.010   3.579  1.00  0.00     0.118 C 
BRANCH  34  35
ATOM     35  N   UNL     1       1.824   0.327   2.674  1.00  0.00    -0.352 N 
ATOM     36  C   UNL     1       0.451   0.127   2.640  1.00  0.00     0.251 C 
ATOM     37  H   UNL     1       2.137   0.811   1.876  1.00  0.00     0.163 HD
ATOM     38  O   UNL     1      -0.177   0.794   1.813  1.00  0.00    -0.269 OA
BRANCH  36  39
ATOM     39  C   UNL     1      -0.310  -0.867   3.454  1.00  0.00     0.039 A 
ATOM     40  C   UNL     1      -1.353  -1.603   2.843  1.00  0.00     0.014 A 
ATOM     41  C   UNL     1       0.005  -1.171   4.767  1.00  0.00     0.014 A 
ATOM     42  C   UNL     1      -1.988  -2.691   3.499  1.00  0.00     0.010 A 
ATOM     43  C   UNL     1      -0.551  -2.319   5.368  1.00  0.00     0.010 A 
ATOM     44  C   UNL     1      -1.573  -3.101   4.772  1.00  0.00    -0.014 A 
BRANCH  44  45
ATOM     45  C   UNL     1      -2.209  -4.233   5.564  1.00  0.00     0.031 A 
ATOM     46  C   UNL     1      -2.533  -3.986   7.033  1.00  0.00     0.074 A 
ATOM     47  C   UNL     1      -2.416  -5.495   5.108  1.00  0.00     0.049 A 
ATOM     48  N   UNL     1      -2.808  -4.838   7.990  1.00  0.00    -0.248 NA
ATOM     49  C   UNL     1      -2.413  -2.596   7.504  1.00  0.00     0.031 C 
ATOM     50  C   UNL     1      -2.091  -6.015   3.779  1.00  0.00     0.029 A 
ATOM     51  N   UNL     1      -2.936  -6.603   5.761  1.00  0.00    -0.354 N 
ATOM     52  C   UNL     1      -2.750  -4.098   9.167  1.00  0.00     0.074 A 
ATOM     53  C   UNL     1      -2.276  -2.783   8.805  1.00  0.00     0.031 C 
ATOM     54  C   UNL     1      -2.422  -7.322   3.715  1.00  0.00     0.029 A 
ATOM     55  C   UNL     1      -2.977  -7.754   4.999  1.00  0.00     0.049 A 
ATOM     56  H   UNL     1      -3.250  -6.572   6.693  1.00  0.00     0.167 HD
ATOM     57  C   UNL     1      -3.153  -4.409  10.423  1.00  0.00     0.034 A 
ATOM     58  C   UNL     1      -3.417  -9.002   5.289  1.00  0.00     0.034 A 
ATOM     59  C   UNL     1      -3.820  -5.628  10.775  1.00  0.00     0.049 A 
ATOM     60  C   UNL     1      -4.019  -9.302   6.650  1.00  0.00     0.074 A 
ATOM     61  C   UNL     1      -4.411  -5.970  11.978  1.00  0.00     0.029 A 
ATOM     62  N   UNL     1      -4.028  -6.685   9.909  1.00  0.00    -0.354 N 
ATOM     63  N   UNL     1      -4.115  -8.529   7.704  1.00  0.00    -0.248 NA
ATOM     64  C   UNL     1      -4.627 -10.633   6.842  1.00  0.00     0.031 C 
ATOM     65  C   UNL     1      -4.989  -7.236  11.835  1.00  0.00     0.029 A 
ATOM     66  C   UNL     1      -4.769  -7.668  10.538  1.00  0.00     0.049 A 
ATOM     67  H   UNL     1      -3.698  -6.731   8.983  1.00  0.00     0.167 HD
ATOM     68  C   UNL     1      -4.842  -9.251   8.650  1.00  0.00     0.074 A 
ATOM     69  C   UNL     1      -5.172 -10.522   8.047  1.00  0.00     0.031 C 
ATOM     70  C   UNL     1      -5.194  -8.891   9.910  1.00  0.00     0.034 A 
BRANCH  57  71
ATOM     71  C   UNL     1      -3.005  -3.335  11.475  1.00  0.00     0.023 A 
ATOM     72  C   UNL     1      -3.747  -2.139  11.354  1.00  0.00     0.012 A 
ATOM     73  C   UNL     1      -2.134  -3.495  12.569  1.00  0.00     0.148 A 
ATOM     74  C   UNL     1      -3.550  -1.083  12.238  1.00  0.00     0.002 A 
ATOM     75  C   UNL     1      -1.999  -2.463  13.491  1.00  0.00     0.091 A 
ATOM     76  F   UNL     1      -1.437  -4.635  12.675  1.00  0.00    -0.205 F 
ATOM     77  C   UNL     1      -2.681  -1.248  13.310  1.00  0.00     0.022 A 
BRANCH  75  78
ATOM     78  S   UNL     1      -1.000  -2.612  14.975  1.00  0.00     0.127 S 
ATOM     79  O   UNL     1       0.120  -1.722  14.669  1.00  0.00    -0.237 OA
ATOM     80  O   UNL     1      -1.911  -2.110  16.006  1.00  0.00    -0.237 OA
ATOM     81  O   UNL     1      -0.667  -4.023  15.096  1.00  0.00    -0.744 OA
ENDBRANCH  75  78
ENDBRANCH  57  71
BRANCH  58  82
ATOM     82  C   UNL     1      -3.437 -10.073   4.239  1.00  0.00     0.023 A 
ATOM     83  C   UNL     1      -4.678 -10.476   3.699  1.00  0.00     0.012 A 
ATOM     84  C   UNL     1      -2.266 -10.723   3.804  1.00  0.00     0.148 A 
ATOM     85  C   UNL     1      -4.760 -11.531   2.789  1.00  0.00     0.002 A 
ATOM     86  C   UNL     1      -2.349 -11.741   2.855  1.00  0.00     0.091 A 
ATOM     87  F   UNL     1      -1.096 -10.343   4.334  1.00  0.00    -0.205 F 
ATOM     88  C   UNL     1      -3.596 -12.159   2.362  1.00  0.00     0.022 A 
BRANCH  86  89
ATOM     89  S   UNL     1      -0.902 -12.546   2.155  1.00  0.00     0.127 S 
ATOM     90  O   UNL     1      -1.052 -13.916   2.645  1.00  0.00    -0.237 OA
ATOM     91  O   UNL     1      -1.136 -12.380   0.719  1.00  0.00    -0.237 OA
ATOM     92  O   UNL     1       0.245 -11.815   2.669  1.00  0.00    -0.744 OA
ENDBRANCH  86  89
ENDBRANCH  58  82
BRANCH  70  93
ATOM     93  C   UNL     1      -6.067  -9.818  10.719  1.00  0.00     0.023 A 
ATOM     94  C   UNL     1      -5.542 -11.012  11.249  1.00  0.00     0.012 A 
ATOM     95  C   UNL     1      -7.386  -9.441  11.047  1.00  0.00     0.148 A 
ATOM     96  C   UNL     1      -6.323 -11.829  12.068  1.00  0.00     0.002 A 
ATOM     97  C   UNL     1      -8.143 -10.235  11.903  1.00  0.00     0.091 A 
ATOM     98  F   UNL     1      -7.879  -8.310  10.521  1.00  0.00    -0.205 F 
ATOM     99  C   UNL     1      -7.617 -11.435  12.405  1.00  0.00     0.022 A 
BRANCH  97 100
ATOM    100  S   UNL     1      -9.776  -9.745  12.471  1.00  0.00     0.127 S 
ATOM    101  O   UNL     1     -10.643 -10.599  11.662  1.00  0.00    -0.237 OA
ATOM    102  O   UNL     1      -9.732 -10.095  13.892  1.00  0.00    -0.237 OA
ATOM    103  O   UNL     1      -9.877  -8.316  12.208  1.00  0.00    -0.744 OA
ENDBRANCH  97 100
ENDBRANCH  70  93
ENDBRANCH  44  45
ENDBRANCH  36  39
ENDBRANCH  34  35
ENDBRANCH   1  34
TORSDOF 16
