REMARK SMILES O=C(NCCCNC(=O)[C@@H](c1ccccc1)N1C(=O)/C(=C\c2ccc(-c3ccc(F)cc3)o2)SC1=S)c1ccc(-c2c3nc(c(-c4cccc(S(=O)(=O)[O-])c4F)c4ccc([nH]4)c(-c4cccc(S(=O)(=O)[O-])c4F)c4nc(c(-c5cccc(S(=O)(=O)[O-])c5F)c5ccc2[nH]5)C=C4)C=C3)cc1
REMARK SMILES IDX 5 1 4 2 3 3 1 4 2 5 37 7 38 8 99 9 39 10 98 11 40 12 41 13
REMARK SMILES IDX 42 14 92 15 43 16 97 17 91 18 93 19 44 20 96 21 90 22 89 23
REMARK SMILES IDX 45 25 77 26 57 27 76 28 58 29 61 30 75 31 94 32 59 33 60 34
REMARK SMILES IDX 74 36 95 37 62 38 46 39 47 40 55 41 48 42 50 43 56 44 49 45
REMARK SMILES IDX 51 46 52 47 53 48 54 49 78 50 79 51 87 52 80 53 82 54 88 55
REMARK SMILES IDX 81 56 83 57 84 58 85 59 86 60 63 61 64 62 72 63 65 64 67 65
REMARK SMILES IDX 73 66 66 67 68 68 69 69 70 70 71 71 6 72 7 73 8 74 9 76
REMARK SMILES IDX 10 77 11 78 12 79 16 80 13 81 15 82 14 83 17 84 18 85 35 86
REMARK SMILES IDX 19 87 20 88 34 89 36 90 21 91 22 92 23 93 33 94 24 95 25 96
REMARK SMILES IDX 26 97 27 98 32 99 28 100 31 101 29 102 30 103
REMARK H PARENT 3 6 93 24 61 35 7 75
REMARK Flexibility Score: inf
ROOT
ATOM      1  C   UNL     1       5.007   0.938  -1.768  1.00  0.00     0.042 C 
ENDROOT
BRANCH   1   2
ATOM      2  C   UNL     1       4.365   1.523  -0.531  1.00  0.00     0.118 C 
BRANCH   2   3
ATOM      3  N   UNL     1       2.960   1.160  -0.389  1.00  0.00    -0.352 N 
ATOM      4  O   UNL     1       1.135  -0.064   0.062  1.00  0.00    -0.269 OA
ATOM      5  C   UNL     1       2.338   0.105   0.246  1.00  0.00     0.251 C 
ATOM      6  H   UNL     1       2.339   1.784  -0.830  1.00  0.00     0.163 HD
BRANCH   5   7
ATOM      7  C   UNL     1       3.097  -0.842   1.099  1.00  0.00     0.039 A 
ATOM      8  C   UNL     1       4.178  -0.413   1.858  1.00  0.00     0.014 A 
ATOM      9  C   UNL     1       2.707  -2.185   1.178  1.00  0.00     0.014 A 
ATOM     10  C   UNL     1       5.010  -1.335   2.472  1.00  0.00     0.010 A 
ATOM     11  C   UNL     1       3.450  -3.092   1.950  1.00  0.00     0.010 A 
ATOM     12  C   UNL     1       4.638  -2.685   2.570  1.00  0.00    -0.014 A 
BRANCH  12  13
ATOM     13  C   UNL     1       5.481  -3.576   3.416  1.00  0.00     0.031 A 
ATOM     14  C   UNL     1       6.138  -4.813   2.868  1.00  0.00     0.074 A 
ATOM     15  C   UNL     1       5.715  -3.199   4.692  1.00  0.00     0.049 A 
ATOM     16  N   UNL     1       6.987  -5.616   3.460  1.00  0.00    -0.248 NA
ATOM     17  C   UNL     1       5.796  -5.217   1.495  1.00  0.00     0.031 C 
ATOM     18  C   UNL     1       5.082  -2.055   5.358  1.00  0.00     0.029 A 
ATOM     19  N   UNL     1       6.566  -3.699   5.644  1.00  0.00    -0.354 N 
ATOM     20  C   UNL     1       7.250  -6.636   2.554  1.00  0.00     0.074 A 
ATOM     21  C   UNL     1       6.462  -6.358   1.371  1.00  0.00     0.031 C 
ATOM     22  C   UNL     1       5.624  -1.889   6.570  1.00  0.00     0.029 A 
ATOM     23  C   UNL     1       6.581  -2.962   6.807  1.00  0.00     0.049 A 
ATOM     24  H   UNL     1       7.112  -4.506   5.510  1.00  0.00     0.167 HD
ATOM     25  C   UNL     1       8.084  -7.696   2.688  1.00  0.00     0.034 A 
ATOM     26  C   UNL     1       7.277  -3.128   7.947  1.00  0.00     0.034 A 
ATOM     27  C   UNL     1       8.895  -7.944   3.852  1.00  0.00     0.049 A 
ATOM     28  C   UNL     1       8.240  -4.272   8.039  1.00  0.00     0.074 A 
ATOM     29  C   UNL     1       9.794  -8.975   4.071  1.00  0.00     0.029 A 
ATOM     30  N   UNL     1       8.914  -7.154   4.992  1.00  0.00    -0.354 N 
ATOM     31  N   UNL     1       8.545  -5.164   7.128  1.00  0.00    -0.248 NA
ATOM     32  C   UNL     1       8.971  -4.423   9.303  1.00  0.00     0.031 C 
ATOM     33  C   UNL     1      10.350  -8.811   5.345  1.00  0.00     0.029 A 
ATOM     34  C   UNL     1       9.809  -7.670   5.914  1.00  0.00     0.049 A 
ATOM     35  H   UNL     1       8.370  -6.344   5.125  1.00  0.00     0.167 HD
ATOM     36  C   UNL     1       9.502  -5.984   7.708  1.00  0.00     0.074 A 
ATOM     37  C   UNL     1       9.766  -5.448   9.029  1.00  0.00     0.031 C 
ATOM     38  C   UNL     1      10.085  -7.101   7.208  1.00  0.00     0.034 A 
BRANCH  25  39
ATOM     39  C   UNL     1       8.206  -8.650   1.527  1.00  0.00     0.023 A 
ATOM     40  C   UNL     1       8.937  -8.261   0.387  1.00  0.00     0.012 A 
ATOM     41  C   UNL     1       7.676  -9.954   1.595  1.00  0.00     0.148 A 
ATOM     42  C   UNL     1       9.122  -9.145  -0.676  1.00  0.00     0.002 A 
ATOM     43  C   UNL     1       7.896 -10.843   0.548  1.00  0.00     0.091 A 
ATOM     44  F   UNL     1       6.967 -10.301   2.679  1.00  0.00    -0.205 F 
ATOM     45  C   UNL     1       8.612 -10.438  -0.591  1.00  0.00     0.022 A 
BRANCH  43  46
ATOM     46  S   UNL     1       7.342 -12.552   0.589  1.00  0.00     0.127 S 
ATOM     47  O   UNL     1       6.278 -12.541  -0.414  1.00  0.00    -0.237 OA
ATOM     48  O   UNL     1       8.548 -13.277   0.189  1.00  0.00    -0.237 OA
ATOM     49  O   UNL     1       6.909 -12.801   1.956  1.00  0.00    -0.744 OA
ENDBRANCH  43  46
ENDBRANCH  25  39
BRANCH  26  50
ATOM     50  C   UNL     1       7.094  -2.167   9.072  1.00  0.00     0.023 A 
ATOM     51  C   UNL     1       8.147  -1.308   9.439  1.00  0.00     0.012 A 
ATOM     52  C   UNL     1       5.858  -2.060   9.739  1.00  0.00     0.148 A 
ATOM     53  C   UNL     1       7.977  -0.376  10.465  1.00  0.00     0.002 A 
ATOM     54  C   UNL     1       5.674  -1.083  10.709  1.00  0.00     0.091 A 
ATOM     55  F   UNL     1       4.873  -2.902   9.396  1.00  0.00    -0.205 F 
ATOM     56  C   UNL     1       6.737  -0.251  11.088  1.00  0.00     0.022 A 
BRANCH  54  57
ATOM     57  S   UNL     1       4.054  -0.759  11.415  1.00  0.00     0.127 S 
ATOM     58  O   UNL     1       4.122  -1.496  12.673  1.00  0.00    -0.237 OA
ATOM     59  O   UNL     1       4.060   0.698  11.552  1.00  0.00    -0.237 OA
ATOM     60  O   UNL     1       3.106  -1.255  10.426  1.00  0.00    -0.744 OA
ENDBRANCH  54  57
ENDBRANCH  26  50
BRANCH  38  61
ATOM     61  C   UNL     1      11.063  -7.814   8.102  1.00  0.00     0.023 A 
ATOM     62  C   UNL     1      10.584  -8.541   9.210  1.00  0.00     0.012 A 
ATOM     63  C   UNL     1      12.444  -7.790   7.833  1.00  0.00     0.148 A 
ATOM     64  C   UNL     1      11.469  -9.200  10.062  1.00  0.00     0.002 A 
ATOM     65  C   UNL     1      13.317  -8.486   8.661  1.00  0.00     0.091 A 
ATOM     66  F   UNL     1      12.882  -7.073   6.788  1.00  0.00    -0.205 F 
ATOM     67  C   UNL     1      12.833  -9.181   9.782  1.00  0.00     0.022 A 
BRANCH  65  68
ATOM     68  S   UNL     1      15.078  -8.580   8.324  1.00  0.00     0.127 S 
ATOM     69  O   UNL     1      15.616  -7.605   9.270  1.00  0.00    -0.237 OA
ATOM     70  O   UNL     1      15.386  -9.975   8.644  1.00  0.00    -0.237 OA
ATOM     71  O   UNL     1      15.228  -8.242   6.915  1.00  0.00    -0.744 OA
ENDBRANCH  65  68
ENDBRANCH  38  61
ENDBRANCH  12  13
ENDBRANCH   5   7
ENDBRANCH   2   3
ENDBRANCH   1   2
BRANCH   1  72
ATOM     72  C   UNL     1       4.585   1.623  -3.049  1.00  0.00     0.117 C 
BRANCH  72  73
ATOM     73  N   UNL     1       5.011   3.000  -3.183  1.00  0.00    -0.354 N 
ATOM     74  C   UNL     1       5.699   3.583  -4.208  1.00  0.00     0.247 C 
ATOM     75  H   UNL     1       4.772   3.595  -2.437  1.00  0.00     0.163 HD
ATOM     76  O   UNL     1       5.984   4.778  -4.067  1.00  0.00    -0.272 OA
BRANCH  74  77
ATOM     77  C   UNL     1       6.132   2.810  -5.498  1.00  0.00     0.211 C 
BRANCH  77  78
ATOM     78  C   UNL     1       7.148   1.688  -5.208  1.00  0.00    -0.016 A 
ATOM     79  C   UNL     1       7.239   0.509  -5.965  1.00  0.00     0.006 A 
ATOM     80  C   UNL     1       8.056   1.833  -4.137  1.00  0.00     0.006 A 
ATOM     81  C   UNL     1       8.054  -0.551  -5.556  1.00  0.00     0.000 A 
ATOM     82  C   UNL     1       8.897   0.787  -3.748  1.00  0.00     0.000 A 
ATOM     83  C   UNL     1       8.868  -0.420  -4.437  1.00  0.00     0.000 A 
ENDBRANCH  77  78
BRANCH  77  84
ATOM     84  N   UNL     1       4.947   2.533  -6.374  1.00  0.00    -0.276 N 
ATOM     85  C   UNL     1       4.274   1.327  -6.368  1.00  0.00     0.267 C 
ATOM     86  C   UNL     1       4.379   3.498  -7.190  1.00  0.00     0.149 C 
ATOM     87  O   UNL     1       4.444   0.393  -5.607  1.00  0.00    -0.268 OA
ATOM     88  C   UNL     1       3.256   1.255  -7.446  1.00  0.00     0.084 C 
ATOM     89  S   UNL     1       3.014   2.823  -8.092  1.00  0.00    -0.054 SA
ATOM     90  S   UNL     1       4.815   5.095  -7.401  1.00  0.00    -0.052 S 
ATOM     91  C   UNL     1       2.678   0.137  -7.913  1.00  0.00     0.068 C 
BRANCH  91  92
ATOM     92  C   UNL     1       3.009  -1.159  -7.423  1.00  0.00     0.128 A 
ATOM     93  C   UNL     1       2.727  -1.747  -6.195  1.00  0.00     0.051 A 
ATOM     94  O   UNL     1       3.747  -2.065  -8.155  1.00  0.00    -0.457 OA
ATOM     95  C   UNL     1       3.364  -3.007  -6.158  1.00  0.00     0.051 A 
ATOM     96  C   UNL     1       3.965  -3.171  -7.385  1.00  0.00     0.134 A 
BRANCH  96  97
ATOM     97  C   UNL     1       4.722  -4.257  -7.992  1.00  0.00     0.017 A 
ATOM     98  C   UNL     1       5.767  -4.006  -8.894  1.00  0.00     0.015 A 
ATOM     99  C   UNL     1       4.411  -5.588  -7.670  1.00  0.00     0.015 A 
ATOM    100  C   UNL     1       6.476  -5.064  -9.470  1.00  0.00     0.040 A 
ATOM    101  C   UNL     1       5.112  -6.646  -8.253  1.00  0.00     0.040 A 
ATOM    102  C   UNL     1       6.136  -6.374  -9.149  1.00  0.00     0.123 A 
ATOM    103  F   UNL     1       6.804  -7.387  -9.718  1.00  0.00    -0.207 F 
ENDBRANCH  96  97
ENDBRANCH  91  92
ENDBRANCH  77  84
ENDBRANCH  74  77
ENDBRANCH  72  73
ENDBRANCH   1  72
TORSDOF 17
