REMARK SMILES C[N@H+]1Cc2ccccc2C[C@@H]1C(=O)NCCC(=O)NCC(=O)NCCCNC(=O)c1ccc(-c2c3nc(c(-c4cccc(S(=O)(=O)[O-])c4F)c4ccc([nH]4)c(-c4cccc(S(=O)(=O)[O-])c4F)c4nc(c(-c5cccc(S(=O)(=O)[O-])c5F)c5ccc2[nH]5)C=C4)C=C3)cc1
REMARK SMILES IDX 24 1 23 2 21 3 22 4 20 6 19 7 17 8 18 9 16 11 15 12 14 13
REMARK SMILES IDX 12 14 13 15 11 17 1 18 2 19 3 20 4 22 10 23 5 24 9 25 6 26
REMARK SMILES IDX 8 27 7 28 25 29 26 30 27 31 28 32 29 34 30 35 31 36 92 37
REMARK SMILES IDX 32 38 91 39 33 40 34 41 35 42 85 43 36 44 90 45 84 46 86 47
REMARK SMILES IDX 37 48 89 49 83 50 82 51 38 53 70 54 50 55 69 56 51 57 54 58
REMARK SMILES IDX 68 59 87 60 52 61 53 62 67 64 88 65 55 66 39 67 40 68 48 69
REMARK SMILES IDX 41 70 43 71 49 72 42 73 44 74 45 75 46 76 47 77 71 78 72 79
REMARK SMILES IDX 80 80 73 81 75 82 81 83 74 84 76 85 77 86 78 87 79 88 56 89
REMARK SMILES IDX 57 90 65 91 58 92 60 93 66 94 59 95 61 96 62 97 63 98 64 99
REMARK H PARENT 23 5 19 10 14 16 2 21 27 33 86 52 54 63
REMARK Flexibility Score: inf
ROOT
ATOM      1  C   UNL     1      -4.732   3.956   2.318  1.00  0.00     0.117 C 
ENDROOT
BRANCH   1   2
ATOM      2  N   UNL     1      -5.834   3.449   1.513  1.00  0.00    -0.355 N 
ATOM      3  C   UNL     1      -6.303   3.752   0.270  1.00  0.00     0.239 C 
ATOM      4  O   UNL     1      -7.244   3.064  -0.143  1.00  0.00    -0.273 OA
ATOM      5  H   UNL     1      -6.349   2.739   1.960  1.00  0.00     0.163 HD
BRANCH   3   6
ATOM      6  C   UNL     1      -5.609   4.742  -0.685  1.00  0.00     0.216 C 
BRANCH   6   7
ATOM      7  N   UNL     1      -4.915   5.870  -0.093  1.00  0.00    -0.347 N 
ATOM      8  C   UNL     1      -3.592   6.187  -0.084  1.00  0.00     0.222 C 
ATOM      9  O   UNL     1      -3.231   7.169   0.564  1.00  0.00    -0.275 OA
ATOM     10  H   UNL     1      -5.495   6.510   0.379  1.00  0.00     0.164 HD
BRANCH   8  11
ATOM     11  C   UNL     1      -2.575   5.330  -0.807  1.00  0.00     0.121 C 
BRANCH  11  12
ATOM     12  C   UNL     1      -1.994   4.223   0.078  1.00  0.00     0.126 C 
BRANCH  12  13
ATOM     13  N   UNL     1      -2.809   3.012   0.053  1.00  0.00    -0.350 N 
ATOM     14  C   UNL     1      -2.695   1.930  -0.760  1.00  0.00     0.278 C 
ATOM     15  O   UNL     1      -3.682   1.669  -1.458  1.00  0.00    -0.268 OA
ATOM     16  H   UNL     1      -3.539   2.975   0.714  1.00  0.00     0.163 HD
BRANCH  14  17
ATOM     17  C   UNL     1      -1.503   0.954  -0.675  1.00  0.00     0.278 C 
ATOM     18  C   UNL     1      -3.141  -0.797  -0.011  1.00  0.00     0.333 C 
ATOM     19  N   UNL     1      -1.806  -0.227   0.198  1.00  0.00    -0.323 N 
ATOM     20  C   UNL     1      -0.796  -1.277  -0.052  1.00  0.00     0.299 C 
ATOM     21  H   UNL     1      -1.781   0.109   1.161  1.00  0.00     0.348 HD
ATOM     22  C   UNL     1       0.634  -0.782  -0.003  1.00  0.00     0.010 A 
ATOM     23  C   UNL     1      -0.201   1.587  -0.170  1.00  0.00     0.111 C 
ATOM     24  C   UNL     1       1.691  -1.700   0.048  1.00  0.00     0.010 A 
ATOM     25  C   UNL     1       0.924   0.590  -0.073  1.00  0.00    -0.033 A 
ATOM     26  C   UNL     1       3.014  -1.255   0.069  1.00  0.00     0.001 A 
ATOM     27  C   UNL     1       2.251   1.031  -0.019  1.00  0.00     0.004 A 
ATOM     28  C   UNL     1       3.293   0.109   0.047  1.00  0.00     0.000 A 
ENDBRANCH  14  17
ENDBRANCH  12  13
ENDBRANCH  11  12
ENDBRANCH   8  11
ENDBRANCH   6   7
ENDBRANCH   3   6
ENDBRANCH   1   2
BRANCH   1  29
ATOM     29  C   UNL     1      -5.178   4.626   3.600  1.00  0.00     0.042 C 
BRANCH  29  30
ATOM     30  C   UNL     1      -5.641   3.629   4.649  1.00  0.00     0.118 C 
BRANCH  30  31
ATOM     31  N   UNL     1      -4.556   2.795   5.166  1.00  0.00    -0.352 N 
ATOM     32  C   UNL     1      -3.949   2.775   6.400  1.00  0.00     0.251 C 
ATOM     33  H   UNL     1      -4.201   2.138   4.523  1.00  0.00     0.163 HD
ATOM     34  O   UNL     1      -2.940   2.093   6.570  1.00  0.00    -0.269 OA
BRANCH  32  35
ATOM     35  C   UNL     1      -4.484   3.591   7.510  1.00  0.00     0.039 A 
ATOM     36  C   UNL     1      -3.601   4.274   8.351  1.00  0.00     0.014 A 
ATOM     37  C   UNL     1      -5.859   3.700   7.712  1.00  0.00     0.014 A 
ATOM     38  C   UNL     1      -4.103   5.146   9.321  1.00  0.00     0.010 A 
ATOM     39  C   UNL     1      -6.353   4.659   8.585  1.00  0.00     0.010 A 
ATOM     40  C   UNL     1      -5.484   5.390   9.407  1.00  0.00    -0.014 A 
BRANCH  40  41
ATOM     41  C   UNL     1      -6.056   6.401  10.334  1.00  0.00     0.031 A 
ATOM     42  C   UNL     1      -7.101   5.991  11.340  1.00  0.00     0.074 A 
ATOM     43  C   UNL     1      -5.739   7.703  10.184  1.00  0.00     0.049 A 
ATOM     44  N   UNL     1      -7.828   6.740  12.127  1.00  0.00    -0.248 NA
ATOM     45  C   UNL     1      -7.404   4.552  11.439  1.00  0.00     0.031 C 
ATOM     46  C   UNL     1      -4.820   8.244   9.179  1.00  0.00     0.029 A 
ATOM     47  N   UNL     1      -6.186   8.816  10.853  1.00  0.00    -0.354 N 
ATOM     48  C   UNL     1      -8.706   5.875  12.769  1.00  0.00     0.074 A 
ATOM     49  C   UNL     1      -8.453   4.551  12.248  1.00  0.00     0.031 C 
ATOM     50  C   UNL     1      -4.766   9.580   9.302  1.00  0.00     0.029 A 
ATOM     51  C   UNL     1      -5.670   9.996  10.369  1.00  0.00     0.049 A 
ATOM     52  H   UNL     1      -6.816   8.773  11.608  1.00  0.00     0.167 HD
ATOM     53  C   UNL     1      -9.615   6.148  13.735  1.00  0.00     0.034 A 
ATOM     54  C   UNL     1      -5.903  11.271  10.738  1.00  0.00     0.034 A 
ATOM     55  C   UNL     1      -9.806   7.451  14.309  1.00  0.00     0.049 A 
ATOM     56  C   UNL     1      -6.850  11.538  11.876  1.00  0.00     0.074 A 
ATOM     57  C   UNL     1     -10.623   7.815  15.365  1.00  0.00     0.029 A 
ATOM     58  N   UNL     1      -9.163   8.602  13.883  1.00  0.00    -0.354 N 
ATOM     59  N   UNL     1      -7.555  10.685  12.579  1.00  0.00    -0.248 NA
ATOM     60  C   UNL     1      -7.006  12.938  12.298  1.00  0.00     0.031 C 
ATOM     61  C   UNL     1     -10.475   9.190  15.576  1.00  0.00     0.029 A 
ATOM     62  C   UNL     1      -9.559   9.678  14.657  1.00  0.00     0.049 A 
ATOM     63  H   UNL     1      -8.520   8.648  13.140  1.00  0.00     0.167 HD
ATOM     64  C   UNL     1      -8.213  11.438  13.543  1.00  0.00     0.074 A 
ATOM     65  C   UNL     1      -7.804  12.814  13.350  1.00  0.00     0.031 C 
ATOM     66  C   UNL     1      -9.094  11.031  14.490  1.00  0.00     0.034 A 
BRANCH  53  67
ATOM     67  C   UNL     1     -10.411   4.995  14.290  1.00  0.00     0.023 A 
ATOM     68  C   UNL     1      -9.767   4.043  15.107  1.00  0.00     0.012 A 
ATOM     69  C   UNL     1     -11.793   4.874  14.046  1.00  0.00     0.148 A 
ATOM     70  C   UNL     1     -10.475   2.968  15.641  1.00  0.00     0.002 A 
ATOM     71  C   UNL     1     -12.502   3.824  14.619  1.00  0.00     0.091 A 
ATOM     72  F   UNL     1     -12.384   5.775  13.248  1.00  0.00    -0.205 F 
ATOM     73  C   UNL     1     -11.843   2.864  15.406  1.00  0.00     0.022 A 
BRANCH  71  74
ATOM     74  S   UNL     1     -14.280   3.645  14.440  1.00  0.00     0.127 S 
ATOM     75  O   UNL     1     -14.371   2.516  13.514  1.00  0.00    -0.237 OA
ATOM     76  O   UNL     1     -14.701   3.345  15.809  1.00  0.00    -0.237 OA
ATOM     77  O   UNL     1     -14.760   4.919  13.924  1.00  0.00    -0.744 OA
ENDBRANCH  71  74
ENDBRANCH  53  67
BRANCH  54  78
ATOM     78  C   UNL     1      -5.165  12.383  10.075  1.00  0.00     0.023 A 
ATOM     79  C   UNL     1      -4.155  13.058  10.788  1.00  0.00     0.012 A 
ATOM     80  C   UNL     1      -5.425  12.751   8.741  1.00  0.00     0.148 A 
ATOM     81  C   UNL     1      -3.438  14.098  10.196  1.00  0.00     0.002 A 
ATOM     82  C   UNL     1      -4.672  13.753   8.139  1.00  0.00     0.091 A 
ATOM     83  F   UNL     1      -6.399  12.106   8.081  1.00  0.00    -0.205 F 
ATOM     84  C   UNL     1      -3.688  14.438   8.869  1.00  0.00     0.022 A 
BRANCH  82  85
ATOM     85  S   UNL     1      -4.839  14.165   6.398  1.00  0.00     0.127 S 
ATOM     86  O   UNL     1      -5.563  15.431   6.458  1.00  0.00    -0.237 OA
ATOM     87  O   UNL     1      -3.442  14.274   5.974  1.00  0.00    -0.237 OA
ATOM     88  O   UNL     1      -5.558  13.046   5.803  1.00  0.00    -0.744 OA
ENDBRANCH  82  85
ENDBRANCH  54  78
BRANCH  66  89
ATOM     89  C   UNL     1      -9.659  12.076  15.414  1.00  0.00     0.023 A 
ATOM     90  C   UNL     1     -10.638  12.969  14.937  1.00  0.00     0.012 A 
ATOM     91  C   UNL     1      -9.284  12.117  16.771  1.00  0.00     0.148 A 
ATOM     92  C   UNL     1     -11.219  13.904  15.791  1.00  0.00     0.002 A 
ATOM     93  C   UNL     1      -9.900  13.022  17.627  1.00  0.00     0.091 A 
ATOM     94  F   UNL     1      -8.336  11.271  17.200  1.00  0.00    -0.205 F 
ATOM     95  C   UNL     1     -10.860  13.922  17.137  1.00  0.00     0.022 A 
BRANCH  93  96
ATOM     96  S   UNL     1      -9.566  13.052  19.392  1.00  0.00     0.127 S 
ATOM     97  O   UNL     1      -8.737  14.249  19.518  1.00  0.00    -0.237 OA
ATOM     98  O   UNL     1     -10.909  13.177  19.962  1.00  0.00    -0.237 OA
ATOM     99  O   UNL     1      -8.900  11.792  19.694  1.00  0.00    -0.744 OA
ENDBRANCH  93  96
ENDBRANCH  66  89
ENDBRANCH  40  41
ENDBRANCH  32  35
ENDBRANCH  30  31
ENDBRANCH  29  30
ENDBRANCH   1  29
TORSDOF 18
