REMARK SMILES O=C(/C=C/C(=O)NNC(=O)CSc1ccc2ccccc2n1)NCCCNC(=O)c1ccc(-c2c3nc(c(-c4cccc(S(=O)(=O)[O-])c4F)c4ccc([nH]4)c(-c4cccc(S(=O)(=O)[O-])c4F)c4nc(c(-c5cccc(S(=O)(=O)[O-])c5F)c5ccc2[nH]5)C=C4)C=C3)cc1
REMARK SMILES IDX 24 1 23 2 1 3 2 4 3 6 4 7 5 8 6 9 7 10 8 12 9 13 10 15 11 16
REMARK SMILES IDX 12 17 13 18 14 19 22 20 15 21 21 22 16 23 20 24 17 25 19 26
REMARK SMILES IDX 18 27 25 28 26 29 27 30 28 31 29 33 30 34 31 35 92 36 32 37
REMARK SMILES IDX 91 38 33 39 34 40 35 41 85 42 36 43 90 44 84 45 86 46 37 47
REMARK SMILES IDX 89 48 83 49 82 50 38 52 70 53 50 54 69 55 51 56 54 57 68 58
REMARK SMILES IDX 87 59 52 60 53 61 67 63 88 64 55 65 39 66 40 67 48 68 41 69
REMARK SMILES IDX 43 70 49 71 42 72 44 73 45 74 46 75 47 76 71 77 72 78 80 79
REMARK SMILES IDX 73 80 75 81 81 82 74 83 76 84 77 85 78 86 79 87 56 88 57 89
REMARK SMILES IDX 65 90 58 91 60 92 66 93 59 94 61 95 62 96 63 97 64 98
REMARK H PARENT 23 5 7 11 8 14 27 32 86 51 54 62
REMARK Flexibility Score: inf
ROOT
ATOM      1  C   UNL     1       2.234  -2.325  -1.023  1.00  0.00     0.118 C 
ENDROOT
BRANCH   1   2
ATOM      2  N   UNL     1       2.868  -1.220  -0.323  1.00  0.00    -0.352 N 
ATOM      3  O   UNL     1       0.928  -0.043   0.060  1.00  0.00    -0.270 OA
ATOM      4  C   UNL     1       2.138  -0.174   0.180  1.00  0.00     0.244 C 
ATOM      5  H   UNL     1       3.846  -1.223  -0.207  1.00  0.00     0.163 HD
BRANCH   4   6
ATOM      6  C   UNL     1       2.887   0.800   1.007  1.00  0.00     0.077 C 
ATOM      7  C   UNL     1       4.102   1.262   0.690  1.00  0.00     0.078 C 
BRANCH   7   8
ATOM      8  C   UNL     1       4.881   2.250   1.477  1.00  0.00     0.262 C 
ATOM      9  O   UNL     1       6.097   2.082   1.572  1.00  0.00    -0.268 OA
ATOM     10  N   UNL     1       4.306   3.366   2.023  1.00  0.00    -0.264 N 
ATOM     11  H   UNL     1       4.911   3.993   2.481  1.00  0.00     0.191 HD
BRANCH  10  12
ATOM     12  N   UNL     1       2.957   3.709   1.999  1.00  0.00    -0.267 N 
ATOM     13  C   UNL     1       2.373   4.604   2.865  1.00  0.00     0.248 C 
ATOM     14  H   UNL     1       2.385   3.284   1.320  1.00  0.00     0.191 HD
ATOM     15  O   UNL     1       1.143   4.663   2.933  1.00  0.00    -0.272 OA
BRANCH  13  16
ATOM     16  C   UNL     1       3.232   5.604   3.613  1.00  0.00     0.178 C 
BRANCH  16  17
ATOM     17  S   UNL     1       4.348   4.884   4.840  1.00  0.00    -0.096 SA
BRANCH  17  18
ATOM     18  C   UNL     1       3.190   4.107   5.940  1.00  0.00     0.097 A 
ATOM     19  C   UNL     1       2.321   4.847   6.728  1.00  0.00     0.036 A 
ATOM     20  N   UNL     1       3.305   2.766   6.032  1.00  0.00    -0.241 NA
ATOM     21  C   UNL     1       1.545   4.174   7.669  1.00  0.00     0.013 A 
ATOM     22  C   UNL     1       2.565   2.119   6.947  1.00  0.00     0.072 A 
ATOM     23  C   UNL     1       1.668   2.787   7.806  1.00  0.00     0.000 A 
ATOM     24  C   UNL     1       2.697   0.744   7.076  1.00  0.00     0.029 A 
ATOM     25  C   UNL     1       0.942   2.065   8.772  1.00  0.00     0.010 A 
ATOM     26  C   UNL     1       1.980   0.022   8.035  1.00  0.00     0.002 A 
ATOM     27  C   UNL     1       1.104   0.685   8.887  1.00  0.00     0.001 A 
ENDBRANCH  17  18
ENDBRANCH  16  17
ENDBRANCH  13  16
ENDBRANCH  10  12
ENDBRANCH   7   8
ENDBRANCH   4   6
ENDBRANCH   1   2
BRANCH   1  28
ATOM     28  C   UNL     1       2.551  -2.358  -2.513  1.00  0.00     0.042 C 
BRANCH  28  29
ATOM     29  C   UNL     1       4.028  -2.546  -2.844  1.00  0.00     0.118 C 
BRANCH  29  30
ATOM     30  N   UNL     1       4.579  -3.795  -2.330  1.00  0.00    -0.352 N 
ATOM     31  C   UNL     1       5.224  -4.817  -2.988  1.00  0.00     0.251 C 
ATOM     32  H   UNL     1       4.473  -3.927  -1.360  1.00  0.00     0.163 HD
ATOM     33  O   UNL     1       5.483  -5.854  -2.388  1.00  0.00    -0.269 OA
BRANCH  31  34
ATOM     34  C   UNL     1       5.584  -4.676  -4.416  1.00  0.00     0.039 A 
ATOM     35  C   UNL     1       5.342  -5.746  -5.282  1.00  0.00     0.014 A 
ATOM     36  C   UNL     1       6.158  -3.499  -4.902  1.00  0.00     0.014 A 
ATOM     37  C   UNL     1       5.604  -5.607  -6.648  1.00  0.00     0.010 A 
ATOM     38  C   UNL     1       6.344  -3.334  -6.271  1.00  0.00     0.010 A 
ATOM     39  C   UNL     1       6.067  -4.385  -7.160  1.00  0.00    -0.014 A 
BRANCH  39  40
ATOM     40  C   UNL     1       6.249  -4.171  -8.620  1.00  0.00     0.031 A 
ATOM     41  C   UNL     1       7.609  -3.841  -9.175  1.00  0.00     0.074 A 
ATOM     42  C   UNL     1       5.173  -4.173  -9.432  1.00  0.00     0.049 A 
ATOM     43  N   UNL     1       7.946  -3.526 -10.398  1.00  0.00    -0.248 NA
ATOM     44  C   UNL     1       8.733  -3.835  -8.224  1.00  0.00     0.031 C 
ATOM     45  C   UNL     1       3.792  -4.412  -9.007  1.00  0.00     0.029 A 
ATOM     46  N   UNL     1       5.066  -3.934 -10.781  1.00  0.00    -0.354 N 
ATOM     47  C   UNL     1       9.307  -3.248 -10.359  1.00  0.00     0.074 A 
ATOM     48  C   UNL     1       9.729  -3.401  -8.983  1.00  0.00     0.031 C 
ATOM     49  C   UNL     1       2.978  -4.305 -10.069  1.00  0.00     0.029 A 
ATOM     50  C   UNL     1       3.770  -3.952 -11.243  1.00  0.00     0.049 A 
ATOM     51  H   UNL     1       5.843  -3.765 -11.361  1.00  0.00     0.167 HD
ATOM     52  C   UNL     1      10.136  -2.919 -11.377  1.00  0.00     0.034 A 
ATOM     53  C   UNL     1       3.271  -3.693 -12.468  1.00  0.00     0.034 A 
ATOM     54  C   UNL     1       9.720  -2.802 -12.749  1.00  0.00     0.049 A 
ATOM     55  C   UNL     1       4.217  -3.346 -13.586  1.00  0.00     0.074 A 
ATOM     56  C   UNL     1      10.501  -2.559 -13.865  1.00  0.00     0.029 A 
ATOM     57  N   UNL     1       8.410  -2.905 -13.191  1.00  0.00    -0.354 N 
ATOM     58  N   UNL     1       5.523  -3.236 -13.557  1.00  0.00    -0.248 NA
ATOM     59  C   UNL     1       3.626  -3.118 -14.913  1.00  0.00     0.031 C 
ATOM     60  C   UNL     1       9.658  -2.480 -14.978  1.00  0.00     0.029 A 
ATOM     61  C   UNL     1       8.358  -2.715 -14.561  1.00  0.00     0.049 A 
ATOM     62  H   UNL     1       7.633  -3.087 -12.616  1.00  0.00     0.167 HD
ATOM     63  C   UNL     1       5.912  -2.968 -14.864  1.00  0.00     0.074 A 
ATOM     64  C   UNL     1       4.705  -2.946 -15.664  1.00  0.00     0.031 C 
ATOM     65  C   UNL     1       7.157  -2.750 -15.355  1.00  0.00     0.034 A 
BRANCH  52  66
ATOM     66  C   UNL     1      11.592  -2.698 -11.055  1.00  0.00     0.023 A 
ATOM     67  C   UNL     1      12.402  -3.794 -10.692  1.00  0.00     0.012 A 
ATOM     68  C   UNL     1      12.173  -1.420 -11.173  1.00  0.00     0.148 A 
ATOM     69  C   UNL     1      13.756  -3.616 -10.415  1.00  0.00     0.002 A 
ATOM     70  C   UNL     1      13.534  -1.259 -10.943  1.00  0.00     0.091 A 
ATOM     71  F   UNL     1      11.384  -0.387 -11.502  1.00  0.00    -0.205 F 
ATOM     72  C   UNL     1      14.324  -2.352 -10.551  1.00  0.00     0.022 A 
BRANCH  70  73
ATOM     73  S   UNL     1      14.378   0.310 -11.172  1.00  0.00     0.127 S 
ATOM     74  O   UNL     1      14.709   0.670  -9.794  1.00  0.00    -0.237 OA
ATOM     75  O   UNL     1      15.525  -0.076 -11.994  1.00  0.00    -0.237 OA
ATOM     76  O   UNL     1      13.423   1.188 -11.834  1.00  0.00    -0.744 OA
ENDBRANCH  70  73
ENDBRANCH  52  66
BRANCH  53  77
ATOM     77  C   UNL     1       1.805  -3.799 -12.714  1.00  0.00     0.023 A 
ATOM     78  C   UNL     1       1.310  -4.843 -13.520  1.00  0.00     0.012 A 
ATOM     79  C   UNL     1       0.898  -2.886 -12.142  1.00  0.00     0.148 A 
ATOM     80  C   UNL     1      -0.056  -4.957 -13.779  1.00  0.00     0.002 A 
ATOM     81  C   UNL     1      -0.466  -3.038 -12.357  1.00  0.00     0.091 A 
ATOM     82  F   UNL     1       1.389  -1.893 -11.386  1.00  0.00    -0.205 F 
ATOM     83  C   UNL     1      -0.944  -4.061 -13.191  1.00  0.00     0.022 A 
BRANCH  81  84
ATOM     84  S   UNL     1      -1.693  -2.011 -11.539  1.00  0.00     0.127 S 
ATOM     85  O   UNL     1      -2.231  -1.241 -12.657  1.00  0.00    -0.237 OA
ATOM     86  O   UNL     1      -2.603  -3.015 -10.987  1.00  0.00    -0.237 OA
ATOM     87  O   UNL     1      -0.962  -1.246 -10.538  1.00  0.00    -0.744 OA
ENDBRANCH  81  84
ENDBRANCH  53  77
BRANCH  65  88
ATOM     88  C   UNL     1       7.300  -2.517 -16.837  1.00  0.00     0.023 A 
ATOM     89  C   UNL     1       6.878  -1.300 -17.405  1.00  0.00     0.012 A 
ATOM     90  C   UNL     1       7.942  -3.475 -17.648  1.00  0.00     0.148 A 
ATOM     91  C   UNL     1       7.069  -1.049 -18.764  1.00  0.00     0.002 A 
ATOM     92  C   UNL     1       8.176  -3.197 -18.989  1.00  0.00     0.091 A 
ATOM     93  F   UNL     1       8.320  -4.634 -17.090  1.00  0.00    -0.205 F 
ATOM     94  C   UNL     1       7.729  -1.990 -19.552  1.00  0.00     0.022 A 
BRANCH  92  95
ATOM     95  S   UNL     1       9.106  -4.302 -20.057  1.00  0.00     0.127 S 
ATOM     96  O   UNL     1       8.070  -4.768 -20.978  1.00  0.00    -0.237 OA
ATOM     97  O   UNL     1      10.091  -3.399 -20.652  1.00  0.00    -0.237 OA
ATOM     98  O   UNL     1       9.669  -5.326 -19.187  1.00  0.00    -0.744 OA
ENDBRANCH  92  95
ENDBRANCH  65  88
ENDBRANCH  39  40
ENDBRANCH  31  34
ENDBRANCH  29  30
ENDBRANCH  28  29
ENDBRANCH   1  28
TORSDOF 18
