REMARK SMILES Cc1cc(C)c2c(=O)n(CCCC(=O)NCCCNC(=O)c3ccc(-c4c5nc(c(-c6cccc(S(=O)(=O)[O-])c6F)c6ccc([nH]6)c(-c6cccc(S(=O)(=O)[O-])c6F)c6nc(c(-c7cccc(S(=O)(=O)[O-])c7F)c7ccc4[nH]7)C=C6)C=C5)cc3)sc2n1
REMARK SMILES IDX 17 1 16 2 15 3 13 4 14 5 12 7 11 8 10 9 9 10 1 11 2 12 3 13
REMARK SMILES IDX 87 14 4 15 86 16 5 17 6 18 85 19 7 20 8 21 18 22 19 23 20 24
REMARK SMILES IDX 21 26 22 27 23 28 84 29 24 30 83 31 25 32 26 33 27 34 77 35
REMARK SMILES IDX 28 36 82 37 76 38 78 39 29 40 81 41 75 42 74 43 30 45 62 46
REMARK SMILES IDX 42 47 61 48 43 49 46 50 60 51 79 52 44 53 45 54 59 56 80 57
REMARK SMILES IDX 47 58 31 59 32 60 40 61 33 62 35 63 41 64 34 65 36 66 37 67
REMARK SMILES IDX 38 68 39 69 63 70 64 71 72 72 65 73 67 74 73 75 66 76 68 77
REMARK SMILES IDX 69 78 70 79 71 80 48 81 49 82 57 83 50 84 52 85 58 86 51 87
REMARK SMILES IDX 53 88 54 89 55 90 56 91
REMARK H PARENT 15 6 19 25 78 44 46 55
REMARK Flexibility Score: inf
ROOT
ATOM      1  C   UNL     1      -1.802   6.118   3.165  1.00  0.00     0.042 C 
ENDROOT
BRANCH   1   2
ATOM      2  C   UNL     1      -0.732   6.212   2.073  1.00  0.00     0.117 C 
BRANCH   2   3
ATOM      3  N   UNL     1      -0.089   7.511   2.048  1.00  0.00    -0.356 N 
ATOM      4  C   UNL     1       1.145   7.905   2.455  1.00  0.00     0.220 C 
ATOM      5  O   UNL     1       1.474   9.073   2.240  1.00  0.00    -0.275 OA
ATOM      6  H   UNL     1      -0.643   8.232   1.671  1.00  0.00     0.163 HD
BRANCH   4   7
ATOM      7  C   UNL     1       2.150   6.939   3.044  1.00  0.00     0.102 C 
BRANCH   7   8
ATOM      8  C   UNL     1       1.994   6.475   4.496  1.00  0.00     0.033 C 
BRANCH   8   9
ATOM      9  C   UNL     1       1.035   5.342   4.880  1.00  0.00     0.139 C 
BRANCH   9  10
ATOM     10  N   UNL     1       1.085   4.044   4.224  1.00  0.00    -0.262 N 
ATOM     11  C   UNL     1       0.747  -0.369   0.015  1.00  0.00     0.067 C 
ATOM     12  C   UNL     1       0.572   0.411   1.283  1.00  0.00     0.039 A 
ATOM     13  C   UNL     1      -0.295  -0.024   2.295  1.00  0.00     0.027 A 
ATOM     14  N   UNL     1       1.312   1.537   1.389  1.00  0.00    -0.241 NA
ATOM     15  C   UNL     1      -0.459   0.747   3.459  1.00  0.00    -0.033 A 
ATOM     16  C   UNL     1       1.125   2.256   2.509  1.00  0.00     0.146 A 
ATOM     17  C   UNL     1      -1.292   0.252   4.600  1.00  0.00     0.045 C 
ATOM     18  C   UNL     1       0.230   1.952   3.515  1.00  0.00     0.081 A 
ATOM     19  S   UNL     1       2.113   3.664   2.915  1.00  0.00    -0.035 S 
ATOM     20  C   UNL     1       0.154   3.041   4.519  1.00  0.00     0.270 A 
ATOM     21  O   UNL     1      -0.671   3.057   5.409  1.00  0.00    -0.268 OA
ENDBRANCH   9  10
ENDBRANCH   8   9
ENDBRANCH   7   8
ENDBRANCH   4   7
ENDBRANCH   2   3
ENDBRANCH   1   2
BRANCH   1  22
ATOM     22  C   UNL     1      -3.145   6.635   2.707  1.00  0.00     0.118 C 
BRANCH  22  23
ATOM     23  N   UNL     1      -3.877   5.695   1.846  1.00  0.00    -0.352 N 
ATOM     24  C   UNL     1      -5.166   5.859   1.356  1.00  0.00     0.251 C 
ATOM     25  H   UNL     1      -3.407   4.868   1.592  1.00  0.00     0.163 HD
ATOM     26  O   UNL     1      -5.819   4.915   0.930  1.00  0.00    -0.269 OA
BRANCH  24  27
ATOM     27  C   UNL     1      -5.708   7.228   1.355  1.00  0.00     0.039 A 
ATOM     28  C   UNL     1      -6.980   7.551   1.834  1.00  0.00     0.014 A 
ATOM     29  C   UNL     1      -4.807   8.217   0.986  1.00  0.00     0.014 A 
ATOM     30  C   UNL     1      -7.291   8.898   2.016  1.00  0.00     0.010 A 
ATOM     31  C   UNL     1      -5.010   9.484   1.438  1.00  0.00     0.010 A 
ATOM     32  C   UNL     1      -6.283   9.857   1.835  1.00  0.00    -0.014 A 
BRANCH  32  33
ATOM     33  C   UNL     1      -6.483  11.274   2.094  1.00  0.00     0.031 A 
ATOM     34  C   UNL     1      -6.968  11.598   3.461  1.00  0.00     0.074 A 
ATOM     35  C   UNL     1      -6.036  12.218   1.233  1.00  0.00     0.049 A 
ATOM     36  N   UNL     1      -8.133  12.049   3.787  1.00  0.00    -0.248 NA
ATOM     37  C   UNL     1      -6.123  11.244   4.612  1.00  0.00     0.031 C 
ATOM     38  C   UNL     1      -5.235  12.046   0.008  1.00  0.00     0.029 A 
ATOM     39  N   UNL     1      -6.077  13.567   1.357  1.00  0.00    -0.354 N 
ATOM     40  C   UNL     1      -8.086  12.258   5.163  1.00  0.00     0.074 A 
ATOM     41  C   UNL     1      -6.919  11.561   5.637  1.00  0.00     0.031 C 
ATOM     42  C   UNL     1      -4.647  13.217  -0.321  1.00  0.00     0.029 A 
ATOM     43  C   UNL     1      -5.190  14.252   0.532  1.00  0.00     0.049 A 
ATOM     44  H   UNL     1      -6.686  14.025   1.981  1.00  0.00     0.167 HD
ATOM     45  C   UNL     1      -8.883  13.183   5.767  1.00  0.00     0.034 A 
ATOM     46  C   UNL     1      -4.904  15.576   0.584  1.00  0.00     0.034 A 
ATOM     47  C   UNL     1      -9.899  13.666   4.866  1.00  0.00     0.049 A 
ATOM     48  C   UNL     1      -6.031  16.220   1.298  1.00  0.00     0.074 A 
ATOM     49  C   UNL     1     -10.950  13.086   4.184  1.00  0.00     0.029 A 
ATOM     50  N   UNL     1      -9.641  14.856   4.227  1.00  0.00    -0.354 N 
ATOM     51  N   UNL     1      -7.249  16.254   0.832  1.00  0.00    -0.248 NA
ATOM     52  C   UNL     1      -5.897  16.408   2.732  1.00  0.00     0.031 C 
ATOM     53  C   UNL     1     -10.940  13.712   2.903  1.00  0.00     0.029 A 
ATOM     54  C   UNL     1      -9.941  14.689   2.900  1.00  0.00     0.049 A 
ATOM     55  H   UNL     1      -9.302  15.679   4.647  1.00  0.00     0.167 HD
ATOM     56  C   UNL     1      -8.046  16.001   1.941  1.00  0.00     0.074 A 
ATOM     57  C   UNL     1      -7.168  16.207   3.094  1.00  0.00     0.031 C 
ATOM     58  C   UNL     1      -9.247  15.361   1.820  1.00  0.00     0.034 A 
BRANCH  45  59
ATOM     59  C   UNL     1      -8.569  13.906   7.051  1.00  0.00     0.023 A 
ATOM     60  C   UNL     1      -9.615  14.629   7.666  1.00  0.00     0.012 A 
ATOM     61  C   UNL     1      -7.264  14.112   7.553  1.00  0.00     0.148 A 
ATOM     62  C   UNL     1      -9.372  15.529   8.710  1.00  0.00     0.002 A 
ATOM     63  C   UNL     1      -7.037  14.944   8.644  1.00  0.00     0.091 A 
ATOM     64  F   UNL     1      -6.214  13.607   6.899  1.00  0.00    -0.205 F 
ATOM     65  C   UNL     1      -8.084  15.678   9.208  1.00  0.00     0.022 A 
BRANCH  63  66
ATOM     66  S   UNL     1      -5.405  15.131   9.373  1.00  0.00     0.127 S 
ATOM     67  O   UNL     1      -5.071  16.502   9.000  1.00  0.00    -0.237 OA
ATOM     68  O   UNL     1      -5.691  14.927  10.794  1.00  0.00    -0.237 OA
ATOM     69  O   UNL     1      -4.587  14.086   8.773  1.00  0.00    -0.744 OA
ENDBRANCH  63  66
ENDBRANCH  45  59
BRANCH  46  70
ATOM     70  C   UNL     1      -3.620  16.282   0.359  1.00  0.00     0.023 A 
ATOM     71  C   UNL     1      -3.629  17.672   0.129  1.00  0.00     0.012 A 
ATOM     72  C   UNL     1      -2.393  15.669   0.696  1.00  0.00     0.148 A 
ATOM     73  C   UNL     1      -2.467  18.438   0.282  1.00  0.00     0.002 A 
ATOM     74  C   UNL     1      -1.242  16.437   0.857  1.00  0.00     0.091 A 
ATOM     75  F   UNL     1      -2.379  14.354   0.953  1.00  0.00    -0.205 F 
ATOM     76  C   UNL     1      -1.278  17.824   0.663  1.00  0.00     0.022 A 
BRANCH  74  77
ATOM     77  S   UNL     1       0.317  15.732   1.411  1.00  0.00     0.127 S 
ATOM     78  O   UNL     1       1.252  16.246   0.410  1.00  0.00    -0.237 OA
ATOM     79  O   UNL     1       0.456  16.323   2.740  1.00  0.00    -0.237 OA
ATOM     80  O   UNL     1       0.129  14.288   1.378  1.00  0.00    -0.744 OA
ENDBRANCH  74  77
ENDBRANCH  46  70
BRANCH  58  81
ATOM     81  C   UNL     1      -9.787  15.111   0.428  1.00  0.00     0.023 A 
ATOM     82  C   UNL     1      -9.141  14.262  -0.497  1.00  0.00     0.012 A 
ATOM     83  C   UNL     1     -11.075  15.580   0.124  1.00  0.00     0.148 A 
ATOM     84  C   UNL     1      -9.761  13.899  -1.698  1.00  0.00     0.002 A 
ATOM     85  C   UNL     1     -11.709  15.177  -1.046  1.00  0.00     0.091 A 
ATOM     86  F   UNL     1     -11.679  16.386   1.011  1.00  0.00    -0.205 F 
ATOM     87  C   UNL     1     -11.053  14.344  -1.965  1.00  0.00     0.022 A 
BRANCH  85  88
ATOM     88  S   UNL     1     -13.421  15.599  -1.378  1.00  0.00     0.127 S 
ATOM     89  O   UNL     1     -13.290  16.589  -2.445  1.00  0.00    -0.237 OA
ATOM     90  O   UNL     1     -13.984  14.315  -1.800  1.00  0.00    -0.237 OA
ATOM     91  O   UNL     1     -13.963  16.101  -0.121  1.00  0.00    -0.744 OA
ENDBRANCH  85  88
ENDBRANCH  58  81
ENDBRANCH  32  33
ENDBRANCH  24  27
ENDBRANCH  22  23
ENDBRANCH   1  22
TORSDOF 16
