REMARK SMILES COc1ccc(NC(=O)[C@@H]2CC=CC[C@H]2C(=O)NCCCNC(=O)c2ccc(-c3c4nc(c(-c5cccc(S(=O)(=O)[O-])c5F)c5ccc([nH]5)c(-c5cccc(S(=O)(=O)[O-])c5F)c5nc(c(-c6cccc(S(=O)(=O)[O-])c6F)c6ccc3[nH]6)C=C5)C=C4)cc2)cc1Cl
REMARK SMILES IDX 20 1 19 2 18 3 16 4 17 5 15 7 10 8 11 9 12 10 14 11 13 12
REMARK SMILES IDX 8 13 7 14 9 16 6 17 3 18 4 19 89 20 5 21 88 22 90 23 2 24
REMARK SMILES IDX 1 25 21 26 22 27 23 28 24 30 25 31 26 32 87 33 27 34 86 35
REMARK SMILES IDX 28 36 29 37 30 38 80 39 31 40 85 41 79 42 81 43 32 44 84 45
REMARK SMILES IDX 78 46 77 47 33 49 65 50 45 51 64 52 46 53 49 54 63 55 82 56
REMARK SMILES IDX 47 57 48 58 62 60 83 61 50 62 34 63 35 64 43 65 36 66 38 67
REMARK SMILES IDX 44 68 37 69 39 70 40 71 41 72 42 73 66 74 67 75 75 76 68 77
REMARK SMILES IDX 70 78 76 79 69 80 71 81 72 82 73 83 74 84 51 85 52 86 60 87
REMARK SMILES IDX 53 88 55 89 61 90 54 91 56 92 57 93 58 94 59 95
REMARK H PARENT 18 6 7 15 22 29 81 48 49 59
REMARK Flexibility Score: inf
ROOT
ATOM      1  C   UNL     1       2.817  -6.064   5.648  1.00  0.00     0.042 C 
ENDROOT
BRANCH   1   2
ATOM      2  C   UNL     1       2.022  -6.655   4.497  1.00  0.00     0.117 C 
BRANCH   2   3
ATOM      3  N   UNL     1       0.929  -7.485   4.969  1.00  0.00    -0.356 N 
ATOM      4  C   UNL     1      -0.413  -7.332   4.873  1.00  0.00     0.224 C 
ATOM      5  O   UNL     1      -1.124  -8.180   5.417  1.00  0.00    -0.275 OA
ATOM      6  H   UNL     1       1.212  -8.302   5.439  1.00  0.00     0.163 HD
BRANCH   4   7
ATOM      7  C   UNL     1      -1.036  -6.181   4.110  1.00  0.00     0.095 C 
ATOM      8  C   UNL     1      -0.868  -4.818   4.797  1.00  0.00     0.095 C 
ATOM      9  C   UNL     1      -1.466  -3.655   3.998  1.00  0.00     0.041 C 
ATOM     10  C   UNL     1      -1.181  -3.751   2.530  1.00  0.00    -0.030 C 
ATOM     11  C   UNL     1      -0.643  -6.199   2.618  1.00  0.00     0.041 C 
ATOM     12  C   UNL     1      -0.798  -4.880   1.921  1.00  0.00    -0.030 C 
BRANCH   8  13
ATOM     13  C   UNL     1      -1.216  -4.628   6.274  1.00  0.00     0.228 C 
ATOM     14  N   UNL     1      -2.310  -5.043   6.956  1.00  0.00    -0.326 N 
ATOM     15  H   UNL     1      -2.334  -4.675   7.869  1.00  0.00     0.169 HD
ATOM     16  O   UNL     1      -0.412  -3.972   6.958  1.00  0.00    -0.274 OA
BRANCH  14  17
ATOM     17  C   UNL     1      -3.415  -5.861   6.694  1.00  0.00     0.042 A 
ATOM     18  C   UNL     1      -5.204  -7.978   6.312  1.00  0.00     0.137 A 
ATOM     19  C   UNL     1      -4.806  -7.189   5.234  1.00  0.00     0.050 A 
ATOM     20  C   UNL     1      -4.827  -7.616   7.604  1.00  0.00     0.085 A 
ATOM     21  C   UNL     1      -3.964  -6.091   5.441  1.00  0.00     0.030 A 
ATOM     22  C   UNL     1      -3.946  -6.549   7.795  1.00  0.00     0.050 A 
ATOM     23  Cl  UNL     1      -5.388  -8.488   8.983  1.00  0.00    -0.080 Cl
BRANCH  18  24
ATOM     24  O   UNL     1      -5.811  -9.181   6.074  1.00  0.00    -0.495 OA
ATOM     25  C   UNL     1      -7.184  -9.044   5.739  1.00  0.00     0.278 C 
ENDBRANCH  18  24
ENDBRANCH  14  17
ENDBRANCH   8  13
ENDBRANCH   4   7
ENDBRANCH   2   3
ENDBRANCH   1   2
BRANCH   1  26
ATOM     26  C   UNL     1       3.426  -7.114   6.564  1.00  0.00     0.118 C 
BRANCH  26  27
ATOM     27  N   UNL     1       4.289  -8.046   5.844  1.00  0.00    -0.352 N 
ATOM     28  C   UNL     1       5.640  -8.241   5.943  1.00  0.00     0.251 C 
ATOM     29  H   UNL     1       3.830  -8.620   5.188  1.00  0.00     0.163 HD
ATOM     30  O   UNL     1       6.222  -8.903   5.079  1.00  0.00    -0.269 OA
BRANCH  28  31
ATOM     31  C   UNL     1       6.394  -7.666   7.072  1.00  0.00     0.039 A 
ATOM     32  C   UNL     1       7.669  -7.141   6.847  1.00  0.00     0.014 A 
ATOM     33  C   UNL     1       5.853  -7.667   8.360  1.00  0.00     0.014 A 
ATOM     34  C   UNL     1       8.382  -6.584   7.910  1.00  0.00     0.010 A 
ATOM     35  C   UNL     1       6.516  -7.016   9.391  1.00  0.00     0.010 A 
ATOM     36  C   UNL     1       7.802  -6.500   9.187  1.00  0.00    -0.014 A 
BRANCH  36  37
ATOM     37  C   UNL     1       8.540  -5.922  10.335  1.00  0.00     0.031 A 
ATOM     38  C   UNL     1       8.845  -6.778  11.537  1.00  0.00     0.074 A 
ATOM     39  C   UNL     1       8.866  -4.615  10.331  1.00  0.00     0.049 A 
ATOM     40  N   UNL     1       9.438  -6.449  12.655  1.00  0.00    -0.248 NA
ATOM     41  C   UNL     1       8.393  -8.180  11.493  1.00  0.00     0.031 C 
ATOM     42  C   UNL     1       8.535  -3.664   9.268  1.00  0.00     0.029 A 
ATOM     43  N   UNL     1       9.525  -3.856  11.263  1.00  0.00    -0.354 N 
ATOM     44  C   UNL     1       9.393  -7.584  13.456  1.00  0.00     0.074 A 
ATOM     45  C   UNL     1       8.671  -8.596  12.719  1.00  0.00     0.031 C 
ATOM     46  C   UNL     1       9.000  -2.450   9.605  1.00  0.00     0.029 A 
ATOM     47  C   UNL     1       9.641  -2.532  10.913  1.00  0.00     0.049 A 
ATOM     48  H   UNL     1       9.882  -4.225  12.104  1.00  0.00     0.167 HD
ATOM     49  C   UNL     1       9.941  -7.785  14.678  1.00  0.00     0.034 A 
ATOM     50  C   UNL     1      10.204  -1.502  11.573  1.00  0.00     0.034 A 
ATOM     51  C   UNL     1      10.706  -6.792  15.381  1.00  0.00     0.049 A 
ATOM     52  C   UNL     1      10.876  -1.767  12.893  1.00  0.00     0.074 A 
ATOM     53  C   UNL     1      11.377  -6.913  16.584  1.00  0.00     0.029 A 
ATOM     54  N   UNL     1      10.905  -5.493  14.940  1.00  0.00    -0.354 N 
ATOM     55  N   UNL     1      10.963  -2.891  13.564  1.00  0.00    -0.248 NA
ATOM     56  C   UNL     1      11.569  -0.636  13.525  1.00  0.00     0.031 C 
ATOM     57  C   UNL     1      11.973  -5.682  16.876  1.00  0.00     0.029 A 
ATOM     58  C   UNL     1      11.692  -4.801  15.843  1.00  0.00     0.049 A 
ATOM     59  H   UNL     1      10.540  -5.118  14.106  1.00  0.00     0.167 HD
ATOM     60  C   UNL     1      11.748  -2.612  14.676  1.00  0.00     0.074 A 
ATOM     61  C   UNL     1      12.131  -1.218  14.576  1.00  0.00     0.031 C 
ATOM     62  C   UNL     1      12.108  -3.430  15.696  1.00  0.00     0.034 A 
BRANCH  49  63
ATOM     63  C   UNL     1       9.787  -9.151  15.295  1.00  0.00     0.023 A 
ATOM     64  C   UNL     1      10.476 -10.247  14.733  1.00  0.00     0.012 A 
ATOM     65  C   UNL     1       8.998  -9.351  16.444  1.00  0.00     0.148 A 
ATOM     66  C   UNL     1      10.348 -11.524  15.276  1.00  0.00     0.002 A 
ATOM     67  C   UNL     1       8.914 -10.619  17.009  1.00  0.00     0.091 A 
ATOM     68  F   UNL     1       8.331  -8.305  16.953  1.00  0.00    -0.205 F 
ATOM     69  C   UNL     1       9.576 -11.708  16.419  1.00  0.00     0.022 A 
BRANCH  67  70
ATOM     70  S   UNL     1       8.012 -10.945  18.528  1.00  0.00     0.127 S 
ATOM     71  O   UNL     1       6.857 -11.692  18.031  1.00  0.00    -0.237 OA
ATOM     72  O   UNL     1       8.972 -11.745  19.290  1.00  0.00    -0.237 OA
ATOM     73  O   UNL     1       7.714  -9.643  19.105  1.00  0.00    -0.744 OA
ENDBRANCH  67  70
ENDBRANCH  49  63
BRANCH  50  74
ATOM     74  C   UNL     1      10.230  -0.148  10.951  1.00  0.00     0.023 A 
ATOM     75  C   UNL     1      11.448   0.369  10.470  1.00  0.00     0.012 A 
ATOM     76  C   UNL     1       9.052   0.608  10.794  1.00  0.00     0.148 A 
ATOM     77  C   UNL     1      11.500   1.629   9.873  1.00  0.00     0.002 A 
ATOM     78  C   UNL     1       9.102   1.839  10.149  1.00  0.00     0.091 A 
ATOM     79  F   UNL     1       7.904   0.101  11.265  1.00  0.00    -0.205 F 
ATOM     80  C   UNL     1      10.327   2.359   9.704  1.00  0.00     0.022 A 
BRANCH  78  81
ATOM     81  S   UNL     1       7.623   2.786   9.768  1.00  0.00     0.127 S 
ATOM     82  O   UNL     1       7.744   3.912  10.692  1.00  0.00    -0.237 OA
ATOM     83  O   UNL     1       7.836   3.122   8.358  1.00  0.00    -0.237 OA
ATOM     84  O   UNL     1       6.507   1.885  10.007  1.00  0.00    -0.744 OA
ENDBRANCH  78  81
ENDBRANCH  50  74
BRANCH  62  85
ATOM     85  C   UNL     1      12.993  -2.854  16.770  1.00  0.00     0.023 A 
ATOM     86  C   UNL     1      12.465  -1.932  17.695  1.00  0.00     0.012 A 
ATOM     87  C   UNL     1      14.328  -3.282  16.904  1.00  0.00     0.148 A 
ATOM     88  C   UNL     1      13.263  -1.416  18.715  1.00  0.00     0.002 A 
ATOM     89  C   UNL     1      15.103  -2.802  17.953  1.00  0.00     0.091 A 
ATOM     90  F   UNL     1      14.819  -4.146  16.003  1.00  0.00    -0.205 F 
ATOM     91  C   UNL     1      14.576  -1.860  18.851  1.00  0.00     0.022 A 
BRANCH  89  92
ATOM     92  S   UNL     1      16.771  -3.394  18.260  1.00  0.00     0.127 S 
ATOM     93  O   UNL     1      17.578  -2.275  17.777  1.00  0.00    -0.237 OA
ATOM     94  O   UNL     1      16.778  -3.569  19.713  1.00  0.00    -0.237 OA
ATOM     95  O   UNL     1      16.899  -4.633  17.505  1.00  0.00    -0.744 OA
ENDBRANCH  89  92
ENDBRANCH  62  85
ENDBRANCH  36  37
ENDBRANCH  28  31
ENDBRANCH  26  27
ENDBRANCH   1  26
TORSDOF 16
