REMARK SMILES O=C1C[N@@H+](Cc2ccc(C(=O)NCCCNC(=O)c3ccc(-c4c5nc(c(-c6cccc(S(=O)(=O)[O-])c6F)c6ccc([nH]6)c(-c6cccc(S(=O)(=O)[O-])c6F)c6nc(c(-c7cccc(S(=O)(=O)[O-])c7F)c7ccc4[nH]7)C=C6)C=C5)cc3)cc2)CCN1
REMARK SMILES IDX 14 1 13 2 12 3 10 4 11 5 9 7 6 8 7 9 83 10 8 11 82 12 5 13
REMARK SMILES IDX 4 14 1 15 2 16 3 17 86 18 85 19 84 21 15 23 16 24 17 25
REMARK SMILES IDX 18 27 19 28 20 29 81 30 21 31 80 32 22 33 23 34 24 35 74 36
REMARK SMILES IDX 25 37 79 38 73 39 75 40 26 41 78 42 72 43 71 44 27 46 59 47
REMARK SMILES IDX 39 48 58 49 40 50 43 51 57 52 76 53 41 54 42 55 56 57 77 58
REMARK SMILES IDX 44 59 28 60 29 61 37 62 30 63 32 64 38 65 31 66 33 67 34 68
REMARK SMILES IDX 35 69 36 70 60 71 61 72 69 73 62 74 64 75 70 76 63 77 65 78
REMARK SMILES IDX 66 79 67 80 68 81 45 82 46 83 54 84 47 85 49 86 55 87 48 88
REMARK SMILES IDX 50 89 51 90 52 91 53 92
REMARK H PARENT 12 6 86 20 4 22 16 26 75 45 43 56
REMARK Flexibility Score: inf
ROOT
ATOM      1  C   UNL     1      -1.470   5.852   2.594  1.00  0.00     0.042 C 
ENDROOT
BRANCH   1   2
ATOM      2  C   UNL     1      -0.186   5.036   2.465  1.00  0.00     0.118 C 
BRANCH   2   3
ATOM      3  N   UNL     1       0.374   4.695   3.764  1.00  0.00    -0.352 N 
ATOM      4  C   UNL     1       0.434   3.491   4.423  1.00  0.00     0.251 C 
ATOM      5  O   UNL     1       1.081   3.404   5.463  1.00  0.00    -0.269 OA
ATOM      6  H   UNL     1       0.774   5.452   4.250  1.00  0.00     0.163 HD
BRANCH   4   7
ATOM      7  C   UNL     1      -0.197   2.281   3.850  1.00  0.00     0.039 A 
ATOM      8  C   UNL     1      -1.184   0.017   2.530  1.00  0.00     0.006 A 
ATOM      9  C   UNL     1       0.071  -0.018   3.153  1.00  0.00     0.010 A 
ATOM     10  C   UNL     1      -1.990   1.153   2.690  1.00  0.00     0.010 A 
ATOM     11  C   UNL     1       0.564   1.109   3.809  1.00  0.00     0.014 A 
ATOM     12  C   UNL     1      -1.501   2.279   3.354  1.00  0.00     0.014 A 
BRANCH   8  13
ATOM     13  C   UNL     1      -1.651  -1.130   1.668  1.00  0.00     0.299 C 
BRANCH  13  14
ATOM     14  N   UNL     1      -1.227  -1.117   0.265  1.00  0.00    -0.322 N 
ATOM     15  O   UNL     1       2.317  -0.233   0.180  1.00  0.00    -0.269 OA
ATOM     16  C   UNL     1       1.106  -0.160  -0.029  1.00  0.00     0.275 C 
ATOM     17  C   UNL     1       0.199  -1.392   0.031  1.00  0.00     0.363 C 
ATOM     18  N   UNL     1       0.563   1.022  -0.450  1.00  0.00    -0.346 N 
ATOM     19  C   UNL     1      -0.858   1.264  -0.543  1.00  0.00     0.177 C 
ATOM     20  H   UNL     1       1.176   1.749  -0.705  1.00  0.00     0.163 HD
ATOM     21  C   UNL     1      -1.717  -0.011  -0.561  1.00  0.00     0.284 C 
ATOM     22  H   UNL     1      -1.732  -1.935  -0.077  1.00  0.00     0.348 HD
ENDBRANCH  13  14
ENDBRANCH   8  13
ENDBRANCH   4   7
ENDBRANCH   2   3
ENDBRANCH   1   2
BRANCH   1  23
ATOM     23  C   UNL     1      -1.257   7.253   3.159  1.00  0.00     0.118 C 
BRANCH  23  24
ATOM     24  N   UNL     1      -0.537   8.120   2.237  1.00  0.00    -0.352 N 
ATOM     25  C   UNL     1      -0.896   9.332   1.701  1.00  0.00     0.251 C 
ATOM     26  H   UNL     1       0.345   7.785   1.955  1.00  0.00     0.163 HD
ATOM     27  O   UNL     1      -0.221   9.804   0.789  1.00  0.00    -0.269 OA
BRANCH  25  28
ATOM     28  C   UNL     1      -2.087  10.064   2.193  1.00  0.00     0.039 A 
ATOM     29  C   UNL     1      -2.895  10.728   1.265  1.00  0.00     0.014 A 
ATOM     30  C   UNL     1      -2.393  10.134   3.555  1.00  0.00     0.014 A 
ATOM     31  C   UNL     1      -4.034  11.414   1.696  1.00  0.00     0.010 A 
ATOM     32  C   UNL     1      -3.570  10.752   3.974  1.00  0.00     0.010 A 
ATOM     33  C   UNL     1      -4.400  11.407   3.052  1.00  0.00    -0.014 A 
BRANCH  33  34
ATOM     34  C   UNL     1      -5.657  12.055   3.511  1.00  0.00     0.031 A 
ATOM     35  C   UNL     1      -5.622  13.202   4.484  1.00  0.00     0.074 A 
ATOM     36  C   UNL     1      -6.842  11.548   3.118  1.00  0.00     0.049 A 
ATOM     37  N   UNL     1      -6.619  13.864   5.012  1.00  0.00    -0.248 NA
ATOM     38  C   UNL     1      -4.298  13.645   4.948  1.00  0.00     0.031 C 
ATOM     39  C   UNL     1      -7.013  10.377   2.257  1.00  0.00     0.029 A 
ATOM     40  N   UNL     1      -8.126  11.930   3.419  1.00  0.00    -0.354 N 
ATOM     41  C   UNL     1      -6.050  14.769   5.900  1.00  0.00     0.074 A 
ATOM     42  C   UNL     1      -4.619  14.553   5.859  1.00  0.00     0.031 C 
ATOM     43  C   UNL     1      -8.324  10.133   2.101  1.00  0.00     0.029 A 
ATOM     44  C   UNL     1      -9.086  11.110   2.873  1.00  0.00     0.049 A 
ATOM     45  H   UNL     1      -8.339  12.716   3.972  1.00  0.00     0.167 HD
ATOM     46  C   UNL     1      -6.657  15.710   6.663  1.00  0.00     0.034 A 
ATOM     47  C   UNL     1     -10.428  11.131   2.987  1.00  0.00     0.034 A 
ATOM     48  C   UNL     1      -8.076  15.950   6.670  1.00  0.00     0.049 A 
ATOM     49  C   UNL     1     -11.081  12.225   3.785  1.00  0.00     0.074 A 
ATOM     50  C   UNL     1      -8.775  16.958   7.311  1.00  0.00     0.029 A 
ATOM     51  N   UNL     1      -9.016  15.162   6.023  1.00  0.00    -0.354 N 
ATOM     52  N   UNL     1     -10.519  13.195   4.464  1.00  0.00    -0.248 NA
ATOM     53  C   UNL     1     -12.550  12.253   3.800  1.00  0.00     0.031 C 
ATOM     54  C   UNL     1     -10.140  16.758   7.080  1.00  0.00     0.029 A 
ATOM     55  C   UNL     1     -10.290  15.647   6.267  1.00  0.00     0.049 A 
ATOM     56  H   UNL     1      -8.808  14.374   5.471  1.00  0.00     0.167 HD
ATOM     57  C   UNL     1     -11.562  13.964   4.967  1.00  0.00     0.074 A 
ATOM     58  C   UNL     1     -12.790  13.360   4.491  1.00  0.00     0.031 C 
ATOM     59  C   UNL     1     -11.507  15.062   5.762  1.00  0.00     0.034 A 
BRANCH  46  60
ATOM     60  C   UNL     1      -5.782  16.580   7.530  1.00  0.00     0.023 A 
ATOM     61  C   UNL     1      -4.934  17.537   6.934  1.00  0.00     0.012 A 
ATOM     62  C   UNL     1      -5.831  16.483   8.934  1.00  0.00     0.148 A 
ATOM     63  C   UNL     1      -4.118  18.351   7.718  1.00  0.00     0.002 A 
ATOM     64  C   UNL     1      -5.050  17.332   9.711  1.00  0.00     0.091 A 
ATOM     65  F   UNL     1      -6.626  15.555   9.485  1.00  0.00    -0.205 F 
ATOM     66  C   UNL     1      -4.183  18.256   9.105  1.00  0.00     0.022 A 
BRANCH  64  67
ATOM     67  S   UNL     1      -5.127  17.341  11.506  1.00  0.00     0.127 S 
ATOM     68  O   UNL     1      -3.867  16.689  11.859  1.00  0.00    -0.237 OA
ATOM     69  O   UNL     1      -5.177  18.773  11.806  1.00  0.00    -0.237 OA
ATOM     70  O   UNL     1      -6.335  16.608  11.858  1.00  0.00    -0.744 OA
ENDBRANCH  64  67
ENDBRANCH  46  60
BRANCH  47  71
ATOM     71  C   UNL     1     -11.238  10.103   2.274  1.00  0.00     0.023 A 
ATOM     72  C   UNL     1     -11.994  10.472   1.145  1.00  0.00     0.012 A 
ATOM     73  C   UNL     1     -11.206   8.751   2.670  1.00  0.00     0.148 A 
ATOM     74  C   UNL     1     -12.722   9.517   0.435  1.00  0.00     0.002 A 
ATOM     75  C   UNL     1     -11.884   7.796   1.923  1.00  0.00     0.091 A 
ATOM     76  F   UNL     1     -10.485   8.425   3.752  1.00  0.00    -0.205 F 
ATOM     77  C   UNL     1     -12.657   8.178   0.816  1.00  0.00     0.022 A 
BRANCH  75  78
ATOM     78  S   UNL     1     -11.738   6.035   2.248  1.00  0.00     0.127 S 
ATOM     79  O   UNL     1     -13.085   5.701   2.701  1.00  0.00    -0.237 OA
ATOM     80  O   UNL     1     -11.383   5.516   0.927  1.00  0.00    -0.237 OA
ATOM     81  O   UNL     1     -10.684   5.903   3.247  1.00  0.00    -0.744 OA
ENDBRANCH  75  78
ENDBRANCH  47  71
BRANCH  59  82
ATOM     82  C   UNL     1     -12.812  15.703   6.159  1.00  0.00     0.023 A 
ATOM     83  C   UNL     1     -13.657  15.059   7.084  1.00  0.00     0.012 A 
ATOM     84  C   UNL     1     -13.168  16.974   5.668  1.00  0.00     0.148 A 
ATOM     85  C   UNL     1     -14.852  15.654   7.488  1.00  0.00     0.002 A 
ATOM     86  C   UNL     1     -14.335  17.584   6.113  1.00  0.00     0.091 A 
ATOM     87  F   UNL     1     -12.362  17.564   4.773  1.00  0.00    -0.205 F 
ATOM     88  C   UNL     1     -15.185  16.920   7.012  1.00  0.00     0.022 A 
BRANCH  86  89
ATOM     89  S   UNL     1     -14.795  19.252   5.628  1.00  0.00     0.127 S 
ATOM     90  O   UNL     1     -15.907  19.001   4.713  1.00  0.00    -0.237 OA
ATOM     91  O   UNL     1     -15.180  19.852   6.906  1.00  0.00    -0.237 OA
ATOM     92  O   UNL     1     -13.606  19.835   5.022  1.00  0.00    -0.744 OA
ENDBRANCH  86  89
ENDBRANCH  59  82
ENDBRANCH  33  34
ENDBRANCH  25  28
ENDBRANCH  23  24
ENDBRANCH   1  23
TORSDOF 15
