REMARK SMILES Cc1c(NC(=O)c2ccc(Br)cc2N)cccc1C(=O)NCCCNC(=O)c1ccc(-c2c3nc(c(-c4cccc(S(=O)(=O)[O-])c4F)c4ccc([nH]4)c(-c4cccc(S(=O)(=O)[O-])c4F)c4nc(c(-c5cccc(S(=O)(=O)[O-])c5F)c5ccc2[nH]5)C=C4)C=C3)cc1
REMARK SMILES IDX 23 1 22 2 21 3 19 4 20 5 18 7 1 8 2 9 3 10 15 11 17 12 16 13
REMARK SMILES IDX 4 14 5 15 6 17 7 18 8 19 13 20 9 21 12 22 10 23 11 24 14 25
REMARK SMILES IDX 24 28 25 29 26 30 27 32 28 33 29 34 90 35 30 36 89 37 31 38
REMARK SMILES IDX 32 39 33 40 83 41 34 42 88 43 82 44 84 45 35 46 87 47 81 48
REMARK SMILES IDX 80 49 36 51 68 52 48 53 67 54 49 55 52 56 66 57 85 58 50 59
REMARK SMILES IDX 51 60 65 62 86 63 53 64 37 65 38 66 46 67 39 68 41 69 47 70
REMARK SMILES IDX 40 71 42 72 43 73 44 74 45 75 69 76 70 77 78 78 71 79 73 80
REMARK SMILES IDX 79 81 72 82 74 83 75 84 76 85 77 86 54 87 55 88 63 89 56 90
REMARK SMILES IDX 58 91 64 92 57 93 59 94 60 95 61 96 62 97
REMARK H PARENT 21 6 4 16 14 26 14 27 25 31 84 50 52 61
REMARK Flexibility Score: inf
ROOT
ATOM      1  C   UNL     1       4.206   0.941  -0.458  1.00  0.00     0.042 C 
ENDROOT
BRANCH   1   2
ATOM      2  C   UNL     1       3.357   1.634   0.612  1.00  0.00     0.118 C 
BRANCH   2   3
ATOM      3  N   UNL     1       2.235   2.354   0.036  1.00  0.00    -0.352 N 
ATOM      4  C   UNL     1       0.904   2.092  -0.170  1.00  0.00     0.251 C 
ATOM      5  O   UNL     1       0.251   3.019  -0.664  1.00  0.00    -0.269 OA
ATOM      6  H   UNL     1       2.492   3.248  -0.285  1.00  0.00     0.163 HD
BRANCH   4   7
ATOM      7  C   UNL     1       0.146   0.838   0.180  1.00  0.00     0.044 A 
ATOM      8  C   UNL     1       1.885  -0.912  -0.483  1.00  0.00     0.047 C 
ATOM      9  C   UNL     1       0.568  -0.505   0.097  1.00  0.00    -0.015 A 
ATOM     10  C   UNL     1      -0.337  -1.558   0.392  1.00  0.00     0.045 A 
ATOM     11  C   UNL     1      -1.681  -1.304   0.644  1.00  0.00     0.026 A 
ATOM     12  C   UNL     1      -1.221   1.061   0.465  1.00  0.00     0.014 A 
ATOM     13  C   UNL     1      -2.125   0.012   0.671  1.00  0.00     0.003 A 
BRANCH  10  14
ATOM     14  N   UNL     1       0.183  -2.861   0.421  1.00  0.00    -0.322 N 
ATOM     15  C   UNL     1      -0.241  -4.028  -0.161  1.00  0.00     0.257 C 
ATOM     16  H   UNL     1       1.003  -2.955   0.958  1.00  0.00     0.170 HD
ATOM     17  O   UNL     1       0.360  -5.068   0.114  1.00  0.00    -0.269 OA
BRANCH  15  18
ATOM     18  C   UNL     1      -1.355  -4.089  -1.139  1.00  0.00     0.063 A 
ATOM     19  C   UNL     1      -2.204  -5.199  -0.977  1.00  0.00     0.017 A 
ATOM     20  C   UNL     1      -1.558  -3.197  -2.214  1.00  0.00     0.045 A 
ATOM     21  C   UNL     1      -3.280  -5.406  -1.835  1.00  0.00     0.016 A 
ATOM     22  C   UNL     1      -2.665  -3.409  -3.051  1.00  0.00     0.042 A 
ATOM     23  C   UNL     1      -3.517  -4.497  -2.858  1.00  0.00     0.020 A 
ATOM     24  Br  UNL     1      -4.977  -4.762  -4.027  1.00  0.00    -0.051 Br
BRANCH  20  25
ATOM     25  N   UNL     1      -0.650  -2.224  -2.613  1.00  0.00    -0.398 N 
ATOM     26  H   UNL     1       0.144  -2.036  -2.062  1.00  0.00     0.156 HD
ATOM     27  H   UNL     1      -0.800  -1.723  -3.447  1.00  0.00     0.156 HD
ENDBRANCH  20  25
ENDBRANCH  15  18
ENDBRANCH  10  14
ENDBRANCH   4   7
ENDBRANCH   2   3
ENDBRANCH   1   2
BRANCH   1  28
ATOM     28  C   UNL     1       5.513   1.596  -0.856  1.00  0.00     0.118 C 
BRANCH  28  29
ATOM     29  N   UNL     1       6.513   0.551  -1.132  1.00  0.00    -0.352 N 
ATOM     30  C   UNL     1       7.603   0.562  -1.986  1.00  0.00     0.251 C 
ATOM     31  H   UNL     1       6.388  -0.286  -0.631  1.00  0.00     0.163 HD
ATOM     32  O   UNL     1       8.333  -0.402  -2.100  1.00  0.00    -0.269 OA
BRANCH  30  33
ATOM     33  C   UNL     1       7.861   1.831  -2.686  1.00  0.00     0.039 A 
ATOM     34  C   UNL     1       8.790   2.677  -2.077  1.00  0.00     0.014 A 
ATOM     35  C   UNL     1       6.857   2.309  -3.527  1.00  0.00     0.014 A 
ATOM     36  C   UNL     1       8.540   4.039  -2.075  1.00  0.00     0.010 A 
ATOM     37  C   UNL     1       6.581   3.660  -3.475  1.00  0.00     0.010 A 
ATOM     38  C   UNL     1       7.366   4.498  -2.668  1.00  0.00    -0.014 A 
BRANCH  38  39
ATOM     39  C   UNL     1       6.886   5.859  -2.509  1.00  0.00     0.031 A 
ATOM     40  C   UNL     1       7.358   6.870  -3.462  1.00  0.00     0.074 A 
ATOM     41  C   UNL     1       6.035   6.206  -1.518  1.00  0.00     0.049 A 
ATOM     42  N   UNL     1       7.369   8.136  -3.232  1.00  0.00    -0.248 NA
ATOM     43  C   UNL     1       7.940   6.494  -4.741  1.00  0.00     0.031 C 
ATOM     44  C   UNL     1       5.273   7.445  -1.410  1.00  0.00     0.029 A 
ATOM     45  N   UNL     1       5.885   5.599  -0.269  1.00  0.00    -0.354 N 
ATOM     46  C   UNL     1       7.685   8.758  -4.417  1.00  0.00     0.074 A 
ATOM     47  C   UNL     1       8.142   7.697  -5.281  1.00  0.00     0.031 C 
ATOM     48  C   UNL     1       4.975   7.657  -0.120  1.00  0.00     0.029 A 
ATOM     49  C   UNL     1       5.670   6.645   0.654  1.00  0.00     0.049 A 
ATOM     50  H   UNL     1       5.921   4.635  -0.072  1.00  0.00     0.167 HD
ATOM     51  C   UNL     1       7.363  10.073  -4.568  1.00  0.00     0.034 A 
ATOM     52  C   UNL     1       6.451   6.873   1.751  1.00  0.00     0.034 A 
ATOM     53  C   UNL     1       6.896  10.654  -3.294  1.00  0.00     0.049 A 
ATOM     54  C   UNL     1       7.050   8.274   1.794  1.00  0.00     0.074 A 
ATOM     55  C   UNL     1       5.648  10.954  -2.767  1.00  0.00     0.029 A 
ATOM     56  N   UNL     1       7.787  10.752  -2.233  1.00  0.00    -0.354 N 
ATOM     57  N   UNL     1       6.838   9.211   0.911  1.00  0.00    -0.248 NA
ATOM     58  C   UNL     1       8.057   8.660   2.779  1.00  0.00     0.031 C 
ATOM     59  C   UNL     1       5.801  11.218  -1.373  1.00  0.00     0.029 A 
ATOM     60  C   UNL     1       7.142  11.102  -1.055  1.00  0.00     0.049 A 
ATOM     61  H   UNL     1       8.755  10.593  -2.308  1.00  0.00     0.167 HD
ATOM     62  C   UNL     1       7.772  10.211   1.071  1.00  0.00     0.074 A 
ATOM     63  C   UNL     1       8.501   9.818   2.266  1.00  0.00     0.031 C 
ATOM     64  C   UNL     1       7.932  11.232   0.167  1.00  0.00     0.034 A 
BRANCH  51  65
ATOM     65  C   UNL     1       7.168  10.752  -5.918  1.00  0.00     0.023 A 
ATOM     66  C   UNL     1       6.375  11.920  -5.945  1.00  0.00     0.012 A 
ATOM     67  C   UNL     1       7.614  10.292  -7.180  1.00  0.00     0.148 A 
ATOM     68  C   UNL     1       5.953  12.519  -7.139  1.00  0.00     0.002 A 
ATOM     69  C   UNL     1       7.136  10.840  -8.374  1.00  0.00     0.091 A 
ATOM     70  F   UNL     1       8.585   9.383  -7.256  1.00  0.00    -0.205 F 
ATOM     71  C   UNL     1       6.299  11.954  -8.357  1.00  0.00     0.022 A 
BRANCH  69  72
ATOM     72  S   UNL     1       7.494  10.107  -9.984  1.00  0.00     0.127 S 
ATOM     73  O   UNL     1       6.152   9.930 -10.544  1.00  0.00    -0.237 OA
ATOM     74  O   UNL     1       8.290  11.146 -10.632  1.00  0.00    -0.237 OA
ATOM     75  O   UNL     1       8.195   8.856  -9.717  1.00  0.00    -0.744 OA
ENDBRANCH  69  72
ENDBRANCH  51  65
BRANCH  52  76
ATOM     76  C   UNL     1       7.149   5.642   2.238  1.00  0.00     0.023 A 
ATOM     77  C   UNL     1       6.342   4.539   2.607  1.00  0.00     0.012 A 
ATOM     78  C   UNL     1       8.504   5.420   1.947  1.00  0.00     0.148 A 
ATOM     79  C   UNL     1       6.827   3.235   2.494  1.00  0.00     0.002 A 
ATOM     80  C   UNL     1       8.983   4.119   1.854  1.00  0.00     0.091 A 
ATOM     81  F   UNL     1       9.296   6.464   1.679  1.00  0.00    -0.205 F 
ATOM     82  C   UNL     1       8.135   3.024   2.068  1.00  0.00     0.022 A 
BRANCH  80  83
ATOM     83  S   UNL     1      10.676   3.829   1.336  1.00  0.00     0.127 S 
ATOM     84  O   UNL     1      11.393   3.963   2.599  1.00  0.00    -0.237 OA
ATOM     85  O   UNL     1      10.617   2.470   0.800  1.00  0.00    -0.237 OA
ATOM     86  O   UNL     1      10.918   4.855   0.332  1.00  0.00    -0.744 OA
ENDBRANCH  80  83
ENDBRANCH  52  76
BRANCH  64  87
ATOM     87  C   UNL     1       8.908  12.404   0.313  1.00  0.00     0.023 A 
ATOM     88  C   UNL     1       9.495  12.748   1.546  1.00  0.00     0.012 A 
ATOM     89  C   UNL     1       9.216  13.269  -0.775  1.00  0.00     0.148 A 
ATOM     90  C   UNL     1      10.448  13.767   1.671  1.00  0.00     0.002 A 
ATOM     91  C   UNL     1      10.140  14.306  -0.646  1.00  0.00     0.091 A 
ATOM     92  F   UNL     1       8.571  13.137  -1.938  1.00  0.00    -0.205 F 
ATOM     93  C   UNL     1      10.787  14.533   0.568  1.00  0.00     0.022 A 
BRANCH  91  94
ATOM     94  S   UNL     1      10.528  15.430  -1.996  1.00  0.00     0.127 S 
ATOM     95  O   UNL     1       9.903  16.669  -1.533  1.00  0.00    -0.237 OA
ATOM     96  O   UNL     1      11.991  15.440  -1.972  1.00  0.00    -0.237 OA
ATOM     97  O   UNL     1       9.943  14.846  -3.194  1.00  0.00    -0.744 OA
ENDBRANCH  91  94
ENDBRANCH  64  87
ENDBRANCH  38  39
ENDBRANCH  30  33
ENDBRANCH  28  29
ENDBRANCH   1  28
TORSDOF 16
