REMARK SMILES O=C(Cn1c(-c2nc(-c3ccc(C(F)(F)F)cc3)no2)cc2ccccc21)NCCCNC(=O)c1ccc(-c2c3nc(c(-c4cccc(S(=O)(=O)[O-])c4F)c4ccc([nH]4)c(-c4cccc(S(=O)(=O)[O-])c4F)c4nc(c(-c5cccc(S(=O)(=O)[O-])c5F)c5ccc2[nH]5)C=C4)C=C3)cc1
REMARK SMILES IDX 29 1 28 2 1 3 2 4 3 6 4 7 5 8 27 9 21 10 22 11 26 12 23 13
REMARK SMILES IDX 25 14 24 15 6 16 7 17 20 18 8 19 19 20 9 21 10 22 18 23
REMARK SMILES IDX 11 24 17 25 12 26 13 27 14 28 15 29 16 30 30 31 31 32 32 33
REMARK SMILES IDX 33 34 34 36 35 37 36 38 97 39 37 40 96 41 38 42 39 43 40 44
REMARK SMILES IDX 90 45 41 46 95 47 89 48 91 49 42 50 94 51 88 52 87 53 43 55
REMARK SMILES IDX 75 56 55 57 74 58 56 59 59 60 73 61 92 62 57 63 58 64 72 66
REMARK SMILES IDX 93 67 60 68 44 69 45 70 53 71 46 72 48 73 54 74 47 75 49 76
REMARK SMILES IDX 50 77 51 78 52 79 76 80 77 81 85 82 78 83 80 84 86 85 79 86
REMARK SMILES IDX 81 87 82 88 83 89 84 90 61 91 62 92 70 93 63 94 65 95 71 96
REMARK SMILES IDX 64 97 66 98 67 99 68 100 69 101
REMARK H PARENT 28 5 32 35 91 54 59 65
REMARK Flexibility Score: inf
ROOT
ATOM      1  C   UNL     1       2.186  -2.037   1.322  1.00  0.00     0.117 C 
ENDROOT
BRANCH   1   2
ATOM      2  N   UNL     1       2.756  -1.061   0.408  1.00  0.00    -0.354 N 
ATOM      3  O   UNL     1       1.163   0.578   0.659  1.00  0.00    -0.273 OA
ATOM      4  C   UNL     1       2.241   0.204   0.208  1.00  0.00     0.239 C 
ATOM      5  H   UNL     1       3.559  -1.318  -0.101  1.00  0.00     0.163 HD
BRANCH   4   6
ATOM      6  C   UNL     1       3.144   1.113  -0.618  1.00  0.00     0.222 C 
BRANCH   6   7
ATOM      7  N   UNL     1       3.901   2.039   0.222  1.00  0.00    -0.327 N 
ATOM      8  C   UNL     1       3.704   3.406   0.325  1.00  0.00     0.109 A 
ATOM      9  C   UNL     1       4.930   1.646   1.072  1.00  0.00     0.049 A 
ATOM     10  C   UNL     1       4.548   3.865   1.318  1.00  0.00     0.042 A 
ATOM     11  C   UNL     1       5.258   2.758   1.852  1.00  0.00     0.000 A 
ATOM     12  C   UNL     1       5.574   0.410   1.264  1.00  0.00     0.027 A 
ATOM     13  C   UNL     1       6.158   2.599   2.926  1.00  0.00     0.010 A 
ATOM     14  C   UNL     1       6.451   0.270   2.343  1.00  0.00     0.002 A 
ATOM     15  C   UNL     1       6.721   1.344   3.180  1.00  0.00     0.001 A 
BRANCH   8  16
ATOM     16  C   UNL     1       2.712   4.157  -0.388  1.00  0.00     0.274 A 
ATOM     17  N   UNL     1       2.926   5.283  -1.047  1.00  0.00    -0.185 NA
ATOM     18  O   UNL     1       1.393   3.790  -0.400  1.00  0.00    -0.332 OA
ATOM     19  C   UNL     1       1.659   5.634  -1.461  1.00  0.00     0.202 A 
ATOM     20  N   UNL     1       0.704   4.767  -1.097  1.00  0.00    -0.057 NA
BRANCH  19  21
ATOM     21  C   UNL     1       1.323   6.811  -2.250  1.00  0.00     0.023 A 
ATOM     22  C   UNL     1       0.385   7.725  -1.749  1.00  0.00     0.013 A 
ATOM     23  C   UNL     1       1.766   6.946  -3.571  1.00  0.00     0.013 A 
ATOM     24  C   UNL     1      -0.168   8.706  -2.576  1.00  0.00     0.014 A 
ATOM     25  C   UNL     1       1.202   7.924  -4.405  1.00  0.00     0.014 A 
ATOM     26  C   UNL     1       0.202   8.788  -3.926  1.00  0.00     0.056 A 
BRANCH  26  27
ATOM     27  C   UNL     1      -0.527   9.743  -4.843  1.00  0.00     0.416 C 
ATOM     28  F   UNL     1      -1.857   9.453  -4.937  1.00  0.00    -0.166 F 
ATOM     29  F   UNL     1      -0.461  11.036  -4.420  1.00  0.00    -0.166 F 
ATOM     30  F   UNL     1      -0.059   9.744  -6.122  1.00  0.00    -0.166 F 
ENDBRANCH  26  27
ENDBRANCH  19  21
ENDBRANCH   8  16
ENDBRANCH   6   7
ENDBRANCH   4   6
ENDBRANCH   1   2
BRANCH   1  31
ATOM     31  C   UNL     1       2.608  -3.468   0.974  1.00  0.00     0.042 C 
BRANCH  31  32
ATOM     32  C   UNL     1       4.120  -3.717   0.984  1.00  0.00     0.118 C 
BRANCH  32  33
ATOM     33  N   UNL     1       4.754  -3.577   2.277  1.00  0.00    -0.352 N 
ATOM     34  C   UNL     1       5.179  -4.479   3.218  1.00  0.00     0.251 C 
ATOM     35  H   UNL     1       4.913  -2.640   2.534  1.00  0.00     0.163 HD
ATOM     36  O   UNL     1       6.016  -4.061   4.023  1.00  0.00    -0.269 OA
BRANCH  34  37
ATOM     37  C   UNL     1       4.622  -5.849   3.390  1.00  0.00     0.039 A 
ATOM     38  C   UNL     1       3.741  -6.474   2.512  1.00  0.00     0.014 A 
ATOM     39  C   UNL     1       4.939  -6.496   4.602  1.00  0.00     0.014 A 
ATOM     40  C   UNL     1       3.092  -7.642   2.889  1.00  0.00     0.010 A 
ATOM     41  C   UNL     1       4.306  -7.676   4.977  1.00  0.00     0.010 A 
ATOM     42  C   UNL     1       3.336  -8.214   4.142  1.00  0.00    -0.014 A 
BRANCH  42  43
ATOM     43  C   UNL     1       2.632  -9.454   4.458  1.00  0.00     0.031 A 
ATOM     44  C   UNL     1       2.912 -10.542   3.482  1.00  0.00     0.074 A 
ATOM     45  C   UNL     1       1.838  -9.625   5.536  1.00  0.00     0.049 A 
ATOM     46  N   UNL     1       2.103 -11.028   2.598  1.00  0.00    -0.248 NA
ATOM     47  C   UNL     1       4.300 -11.013   3.347  1.00  0.00     0.031 C 
ATOM     48  C   UNL     1       1.697  -8.725   6.685  1.00  0.00     0.029 A 
ATOM     49  N   UNL     1       1.070 -10.698   5.896  1.00  0.00    -0.354 N 
ATOM     50  C   UNL     1       2.812 -12.054   1.979  1.00  0.00     0.074 A 
ATOM     51  C   UNL     1       4.195 -11.876   2.335  1.00  0.00     0.031 C 
ATOM     52  C   UNL     1       1.118  -9.394   7.708  1.00  0.00     0.029 A 
ATOM     53  C   UNL     1       0.709 -10.707   7.244  1.00  0.00     0.049 A 
ATOM     54  H   UNL     1       0.796 -11.400   5.262  1.00  0.00     0.167 HD
ATOM     55  C   UNL     1       2.171 -13.144   1.478  1.00  0.00     0.034 A 
ATOM     56  C   UNL     1       0.173 -11.749   7.927  1.00  0.00     0.034 A 
ATOM     57  C   UNL     1       0.755 -12.935   1.388  1.00  0.00     0.049 A 
ATOM     58  C   UNL     1      -0.499 -12.612   6.934  1.00  0.00     0.074 A 
ATOM     59  C   UNL     1      -0.120 -12.278   0.554  1.00  0.00     0.029 A 
ATOM     60  N   UNL     1       0.105 -13.178   2.567  1.00  0.00    -0.354 N 
ATOM     61  N   UNL     1      -1.545 -12.241   6.251  1.00  0.00    -0.248 NA
ATOM     62  C   UNL     1       0.164 -13.825   6.467  1.00  0.00     0.031 C 
ATOM     63  C   UNL     1      -1.276 -11.992   1.340  1.00  0.00     0.029 A 
ATOM     64  C   UNL     1      -1.089 -12.518   2.616  1.00  0.00     0.049 A 
ATOM     65  H   UNL     1       0.453 -13.754   3.285  1.00  0.00     0.167 HD
ATOM     66  C   UNL     1      -1.392 -12.892   5.045  1.00  0.00     0.074 A 
ATOM     67  C   UNL     1      -0.461 -13.981   5.299  1.00  0.00     0.031 C 
ATOM     68  C   UNL     1      -1.749 -12.289   3.880  1.00  0.00     0.034 A 
BRANCH  55  69
ATOM     69  C   UNL     1       2.729 -14.545   1.546  1.00  0.00     0.023 A 
ATOM     70  C   UNL     1       2.135 -15.545   0.748  1.00  0.00     0.012 A 
ATOM     71  C   UNL     1       3.608 -14.972   2.568  1.00  0.00     0.148 A 
ATOM     72  C   UNL     1       2.421 -16.902   0.948  1.00  0.00     0.002 A 
ATOM     73  C   UNL     1       3.946 -16.311   2.714  1.00  0.00     0.091 A 
ATOM     74  F   UNL     1       4.009 -14.098   3.498  1.00  0.00    -0.205 F 
ATOM     75  C   UNL     1       3.342 -17.285   1.918  1.00  0.00     0.022 A 
BRANCH  73  76
ATOM     76  S   UNL     1       5.144 -16.854   3.938  1.00  0.00     0.127 S 
ATOM     77  O   UNL     1       4.293 -17.540   4.899  1.00  0.00    -0.237 OA
ATOM     78  O   UNL     1       6.011 -17.718   3.139  1.00  0.00    -0.237 OA
ATOM     79  O   UNL     1       5.794 -15.631   4.409  1.00  0.00    -0.744 OA
ENDBRANCH  73  76
ENDBRANCH  55  69
BRANCH  56  80
ATOM     80  C   UNL     1       0.396 -12.231   9.318  1.00  0.00     0.023 A 
ATOM     81  C   UNL     1      -0.415 -13.283   9.807  1.00  0.00     0.012 A 
ATOM     82  C   UNL     1       1.583 -11.936  10.018  1.00  0.00     0.148 A 
ATOM     83  C   UNL     1      -0.002 -14.083  10.879  1.00  0.00     0.002 A 
ATOM     84  C   UNL     1       1.986 -12.731  11.090  1.00  0.00     0.091 A 
ATOM     85  F   UNL     1       2.368 -10.946   9.578  1.00  0.00    -0.205 F 
ATOM     86  C   UNL     1       1.210 -13.821  11.505  1.00  0.00     0.022 A 
BRANCH  84  87
ATOM     87  S   UNL     1       3.546 -12.455  11.941  1.00  0.00     0.127 S 
ATOM     88  O   UNL     1       3.164 -12.628  13.345  1.00  0.00    -0.237 OA
ATOM     89  O   UNL     1       4.379 -13.526  11.399  1.00  0.00    -0.237 OA
ATOM     90  O   UNL     1       3.947 -11.099  11.596  1.00  0.00    -0.744 OA
ENDBRANCH  84  87
ENDBRANCH  56  80
BRANCH  68  91
ATOM     91  C   UNL     1      -2.778 -11.207   3.940  1.00  0.00     0.023 A 
ATOM     92  C   UNL     1      -2.511  -9.909   4.414  1.00  0.00     0.012 A 
ATOM     93  C   UNL     1      -4.025 -11.494   3.365  1.00  0.00     0.148 A 
ATOM     94  C   UNL     1      -3.481  -8.909   4.302  1.00  0.00     0.002 A 
ATOM     95  C   UNL     1      -4.969 -10.492   3.221  1.00  0.00     0.091 A 
ATOM     96  F   UNL     1      -4.244 -12.745   2.931  1.00  0.00    -0.205 F 
ATOM     97  C   UNL     1      -4.703  -9.196   3.691  1.00  0.00     0.022 A 
BRANCH  95  98
ATOM     98  S   UNL     1      -6.512 -10.775   2.355  1.00  0.00     0.127 S 
ATOM     99  O   UNL     1      -7.498 -10.597   3.420  1.00  0.00    -0.237 OA
ATOM    100  O   UNL     1      -6.497  -9.714   1.348  1.00  0.00    -0.237 OA
ATOM    101  O   UNL     1      -6.431 -12.123   1.806  1.00  0.00    -0.744 OA
ENDBRANCH  95  98
ENDBRANCH  68  91
ENDBRANCH  42  43
ENDBRANCH  34  37
ENDBRANCH  32  33
ENDBRANCH  31  32
ENDBRANCH   1  31
TORSDOF 17
