REMARK SMILES O=C(C[C@@H]1CN(C(=O)NC[C@H]2C[C@H]3CC[C@@H]2C3)CCO1)NCCCNC(=O)c1ccc(-c2c3nc(c(-c4cccc(S(=O)(=O)[O-])c4F)c4ccc([nH]4)c(-c4cccc(S(=O)(=O)[O-])c4F)c4nc(c(-c5cccc(S(=O)(=O)[O-])c5F)c5ccc2[nH]5)C=C4)C=C3)cc1
REMARK SMILES IDX 22 1 21 2 1 3 2 4 3 6 4 7 5 8 20 9 6 10 19 11 18 12 7 13
REMARK SMILES IDX 8 14 9 15 10 17 11 18 12 19 16 20 13 21 15 22 17 23 14 24
REMARK SMILES IDX 23 25 24 26 25 27 26 28 27 30 28 31 29 32 90 33 30 34 89 35
REMARK SMILES IDX 31 36 32 37 33 38 83 39 34 40 88 41 82 42 84 43 35 44 87 45
REMARK SMILES IDX 81 46 80 47 36 49 68 50 48 51 67 52 49 53 52 54 66 55 85 56
REMARK SMILES IDX 50 57 51 58 65 60 86 61 53 62 37 63 38 64 46 65 39 66 41 67
REMARK SMILES IDX 47 68 40 69 42 70 43 71 44 72 45 73 69 74 70 75 78 76 71 77
REMARK SMILES IDX 73 78 79 79 72 80 74 81 75 82 76 83 77 84 54 85 55 86 63 87
REMARK SMILES IDX 56 88 58 89 64 90 57 91 59 92 60 93 61 94 62 95
REMARK H PARENT 21 5 9 16 25 29 84 48 52 59
REMARK Flexibility Score: inf
ROOT
ATOM      1  C   UNL     1       0.791  -8.258   0.870  1.00  0.00     0.117 C 
ENDROOT
BRANCH   1   2
ATOM      2  N   UNL     1       1.512  -7.355   0.003  1.00  0.00    -0.356 N 
ATOM      3  O   UNL     1       3.604  -8.261   0.297  1.00  0.00    -0.275 OA
ATOM      4  C   UNL     1       2.862  -7.439  -0.232  1.00  0.00     0.222 C 
ATOM      5  H   UNL     1       1.007  -6.639  -0.445  1.00  0.00     0.163 HD
BRANCH   4   6
ATOM      6  C   UNL     1       3.402  -6.338  -1.116  1.00  0.00     0.133 C 
BRANCH   6   7
ATOM      7  C   UNL     1       2.727  -6.143  -2.480  1.00  0.00     0.147 C 
ATOM      8  C   UNL     1       2.398  -4.650  -2.707  1.00  0.00     0.154 C 
ATOM      9  O   UNL     1       1.521  -6.913  -2.629  1.00  0.00    -0.374 OA
ATOM     10  N   UNL     1       1.804  -4.434  -4.026  1.00  0.00    -0.320 N 
ATOM     11  C   UNL     1       1.020  -6.791  -3.970  1.00  0.00     0.182 C 
ATOM     12  C   UNL     1       0.670  -5.336  -4.288  1.00  0.00     0.150 C 
BRANCH  10  13
ATOM     13  C   UNL     1       1.998  -3.415  -4.903  1.00  0.00     0.317 C 
ATOM     14  O   UNL     1       1.248  -3.253  -5.874  1.00  0.00    -0.249 OA
ATOM     15  N   UNL     1       2.991  -2.521  -4.832  1.00  0.00    -0.338 N 
ATOM     16  H   UNL     1       2.866  -1.828  -5.519  1.00  0.00     0.165 HD
BRANCH  15  17
ATOM     17  C   UNL     1       4.192  -2.243  -4.069  1.00  0.00     0.121 C 
BRANCH  17  18
ATOM     18  C   UNL     1       5.483  -2.942  -4.521  1.00  0.00     0.012 C 
ATOM     19  C   UNL     1       5.574  -4.457  -4.277  1.00  0.00     0.009 C 
ATOM     20  C   UNL     1       5.948  -2.810  -5.997  1.00  0.00    -0.006 C 
ATOM     21  C   UNL     1       6.159  -4.994  -5.592  1.00  0.00    -0.011 C 
ATOM     22  C   UNL     1       4.989  -3.453  -7.013  1.00  0.00     0.004 C 
ATOM     23  C   UNL     1       7.079  -3.852  -6.021  1.00  0.00     0.007 C 
ATOM     24  C   UNL     1       5.051  -4.944  -6.661  1.00  0.00     0.004 C 
ENDBRANCH  17  18
ENDBRANCH  15  17
ENDBRANCH  10  13
ENDBRANCH   6   7
ENDBRANCH   4   6
ENDBRANCH   1   2
BRANCH   1  25
ATOM     25  C   UNL     1       0.269  -7.566   2.123  1.00  0.00     0.042 C 
BRANCH  25  26
ATOM     26  C   UNL     1      -0.624  -6.353   1.870  1.00  0.00     0.118 C 
BRANCH  26  27
ATOM     27  N   UNL     1      -1.821  -6.661   1.101  1.00  0.00    -0.352 N 
ATOM     28  C   UNL     1      -3.144  -6.406   1.367  1.00  0.00     0.251 C 
ATOM     29  H   UNL     1      -1.654  -7.128   0.251  1.00  0.00     0.163 HD
ATOM     30  O   UNL     1      -4.000  -6.869   0.615  1.00  0.00    -0.269 OA
BRANCH  28  31
ATOM     31  C   UNL     1      -3.557  -5.610   2.547  1.00  0.00     0.039 A 
ATOM     32  C   UNL     1      -4.683  -6.024   3.267  1.00  0.00     0.014 A 
ATOM     33  C   UNL     1      -2.881  -4.449   2.933  1.00  0.00     0.014 A 
ATOM     34  C   UNL     1      -5.091  -5.312   4.399  1.00  0.00     0.010 A 
ATOM     35  C   UNL     1      -3.244  -3.784   4.106  1.00  0.00     0.010 A 
ATOM     36  C   UNL     1      -4.357  -4.202   4.849  1.00  0.00    -0.014 A 
BRANCH  36  37
ATOM     37  C   UNL     1      -4.737  -3.495   6.103  1.00  0.00     0.031 A 
ATOM     38  C   UNL     1      -5.169  -2.052   6.080  1.00  0.00     0.074 A 
ATOM     39  C   UNL     1      -4.636  -4.140   7.284  1.00  0.00     0.049 A 
ATOM     40  N   UNL     1      -5.548  -1.290   7.074  1.00  0.00    -0.248 NA
ATOM     41  C   UNL     1      -5.149  -1.367   4.777  1.00  0.00     0.031 C 
ATOM     42  C   UNL     1      -4.140  -5.507   7.460  1.00  0.00     0.029 A 
ATOM     43  N   UNL     1      -4.927  -3.727   8.560  1.00  0.00    -0.354 N 
ATOM     44  C   UNL     1      -5.782  -0.034   6.526  1.00  0.00     0.074 A 
ATOM     45  C   UNL     1      -5.467  -0.126   5.117  1.00  0.00     0.031 C 
ATOM     46  C   UNL     1      -4.175  -5.823   8.764  1.00  0.00     0.029 A 
ATOM     47  C   UNL     1      -4.676  -4.680   9.520  1.00  0.00     0.049 A 
ATOM     48  H   UNL     1      -5.281  -2.832   8.769  1.00  0.00     0.167 HD
ATOM     49  C   UNL     1      -6.248   1.086   7.130  1.00  0.00     0.034 A 
ATOM     50  C   UNL     1      -4.838  -4.643  10.858  1.00  0.00     0.034 A 
ATOM     51  C   UNL     1      -6.608   1.166   8.522  1.00  0.00     0.049 A 
ATOM     52  C   UNL     1      -5.424  -3.411  11.493  1.00  0.00     0.074 A 
ATOM     53  C   UNL     1      -7.176   2.228   9.205  1.00  0.00     0.029 A 
ATOM     54  N   UNL     1      -6.432   0.147   9.445  1.00  0.00    -0.354 N 
ATOM     55  N   UNL     1      -5.805  -2.292  10.926  1.00  0.00    -0.248 NA
ATOM     56  C   UNL     1      -5.643  -3.453  12.946  1.00  0.00     0.031 C 
ATOM     57  C   UNL     1      -7.329   1.856  10.545  1.00  0.00     0.029 A 
ATOM     58  C   UNL     1      -6.876   0.555  10.692  1.00  0.00     0.049 A 
ATOM     59  H   UNL     1      -6.048  -0.737   9.244  1.00  0.00     0.167 HD
ATOM     60  C   UNL     1      -6.341  -1.512  11.945  1.00  0.00     0.074 A 
ATOM     61  C   UNL     1      -6.259  -2.298  13.159  1.00  0.00     0.031 C 
ATOM     62  C   UNL     1      -6.840  -0.253  11.884  1.00  0.00     0.034 A 
BRANCH  49  63
ATOM     63  C   UNL     1      -6.462   2.307   6.272  1.00  0.00     0.023 A 
ATOM     64  C   UNL     1      -7.529   2.325   5.349  1.00  0.00     0.012 A 
ATOM     65  C   UNL     1      -5.657   3.454   6.418  1.00  0.00     0.148 A 
ATOM     66  C   UNL     1      -7.770   3.450   4.561  1.00  0.00     0.002 A 
ATOM     67  C   UNL     1      -5.931   4.588   5.660  1.00  0.00     0.091 A 
ATOM     68  F   UNL     1      -4.636   3.413   7.285  1.00  0.00    -0.205 F 
ATOM     69  C   UNL     1      -6.979   4.583   4.724  1.00  0.00     0.022 A 
BRANCH  67  70
ATOM     70  S   UNL     1      -5.019   6.124   5.850  1.00  0.00     0.127 S 
ATOM     71  O   UNL     1      -4.227   6.151   4.621  1.00  0.00    -0.237 OA
ATOM     72  O   UNL     1      -6.094   7.117   5.904  1.00  0.00    -0.237 OA
ATOM     73  O   UNL     1      -4.258   5.988   7.083  1.00  0.00    -0.744 OA
ENDBRANCH  67  70
ENDBRANCH  49  63
BRANCH  50  74
ATOM     74  C   UNL     1      -4.524  -5.848  11.677  1.00  0.00     0.023 A 
ATOM     75  C   UNL     1      -5.578  -6.584  12.254  1.00  0.00     0.012 A 
ATOM     76  C   UNL     1      -3.199  -6.285  11.864  1.00  0.00     0.148 A 
ATOM     77  C   UNL     1      -5.316  -7.713  13.030  1.00  0.00     0.002 A 
ATOM     78  C   UNL     1      -2.949  -7.442  12.592  1.00  0.00     0.091 A 
ATOM     79  F   UNL     1      -2.209  -5.564  11.318  1.00  0.00    -0.205 F 
ATOM     80  C   UNL     1      -4.004  -8.149  13.190  1.00  0.00     0.022 A 
BRANCH  78  81
ATOM     81  S   UNL     1      -1.303  -8.148  12.736  1.00  0.00     0.127 S 
ATOM     82  O   UNL     1      -0.967  -7.842  14.124  1.00  0.00    -0.237 OA
ATOM     83  O   UNL     1      -1.554  -9.563  12.460  1.00  0.00    -0.237 OA
ATOM     84  O   UNL     1      -0.500  -7.476  11.724  1.00  0.00    -0.744 OA
ENDBRANCH  78  81
ENDBRANCH  50  74
BRANCH  62  85
ATOM     85  C   UNL     1      -7.365   0.351  13.161  1.00  0.00     0.023 A 
ATOM     86  C   UNL     1      -6.466   0.740  14.173  1.00  0.00     0.012 A 
ATOM     87  C   UNL     1      -8.744   0.582  13.337  1.00  0.00     0.148 A 
ATOM     88  C   UNL     1      -6.932   1.314  15.356  1.00  0.00     0.002 A 
ATOM     89  C   UNL     1      -9.198   1.198  14.498  1.00  0.00     0.091 A 
ATOM     90  F   UNL     1      -9.589   0.186  12.373  1.00  0.00    -0.205 F 
ATOM     91  C   UNL     1      -8.295   1.553  15.513  1.00  0.00     0.022 A 
BRANCH  89  92
ATOM     92  S   UNL     1     -10.925   1.627  14.739  1.00  0.00     0.127 S 
ATOM     93  O   UNL     1     -11.373   0.570  15.643  1.00  0.00    -0.237 OA
ATOM     94  O   UNL     1     -10.837   2.954  15.351  1.00  0.00    -0.237 OA
ATOM     95  O   UNL     1     -11.525   1.618  13.412  1.00  0.00    -0.744 OA
ENDBRANCH  89  92
ENDBRANCH  62  85
ENDBRANCH  36  37
ENDBRANCH  28  31
ENDBRANCH  26  27
ENDBRANCH  25  26
ENDBRANCH   1  25
TORSDOF 17
