REMARK SMILES Cc1cccc(-c2cccc(O)c2)c1C(=O)NCCCNC(=O)c1ccc(-c2c3nc(c(-c4cccc(S(=O)(=O)[O-])c4F)c4ccc([nH]4)c(-c4cccc(S(=O)(=O)[O-])c4F)c4nc(c(-c5cccc(S(=O)(=O)[O-])c5F)c5ccc2[nH]5)C=C4)C=C3)cc1
REMARK SMILES IDX 19 1 18 2 17 3 15 4 16 5 14 7 1 8 2 9 3 10 4 11 6 12 5 13
REMARK SMILES IDX 7 14 8 15 13 16 9 17 11 18 10 19 12 20 20 22 21 23 22 24
REMARK SMILES IDX 23 26 24 27 25 28 86 29 26 30 85 31 27 32 28 33 29 34 79 35
REMARK SMILES IDX 30 36 84 37 78 38 80 39 31 40 83 41 77 42 76 43 32 45 64 46
REMARK SMILES IDX 44 47 63 48 45 49 48 50 62 51 81 52 46 53 47 54 61 56 82 57
REMARK SMILES IDX 49 58 33 59 34 60 42 61 35 62 37 63 43 64 36 65 38 66 39 67
REMARK SMILES IDX 40 68 41 69 65 70 66 71 74 72 67 73 69 74 75 75 68 76 70 77
REMARK SMILES IDX 71 78 72 79 73 80 50 81 51 82 59 83 52 84 54 85 60 86 53 87
REMARK SMILES IDX 55 88 56 89 57 90 58 91
REMARK H PARENT 17 6 12 21 21 25 80 44 48 55
REMARK Flexibility Score: inf
ROOT
ATOM      1  C   UNL     1       4.137   0.582  -0.513  1.00  0.00     0.042 C 
ENDROOT
BRANCH   1   2
ATOM      2  C   UNL     1       3.321   1.134   0.660  1.00  0.00     0.118 C 
BRANCH   2   3
ATOM      3  N   UNL     1       2.300   2.046   0.197  1.00  0.00    -0.352 N 
ATOM      4  C   UNL     1       0.987   1.988  -0.198  1.00  0.00     0.252 C 
ATOM      5  O   UNL     1       0.613   3.063  -0.670  1.00  0.00    -0.269 OA
ATOM      6  H   UNL     1       2.642   2.968   0.151  1.00  0.00     0.163 HD
BRANCH   4   7
ATOM      7  C   UNL     1       0.001   0.830  -0.074  1.00  0.00     0.050 A 
ATOM      8  C   UNL     1       1.599  -1.105  -0.769  1.00  0.00     0.045 C 
ATOM      9  C   UNL     1       0.322  -0.550  -0.222  1.00  0.00    -0.038 A 
ATOM     10  C   UNL     1      -0.645  -1.555   0.026  1.00  0.00     0.004 A 
ATOM     11  C   UNL     1      -1.962  -1.243   0.279  1.00  0.00     0.001 A 
ATOM     12  C   UNL     1      -1.392   1.143   0.123  1.00  0.00    -0.005 A 
ATOM     13  C   UNL     1      -2.332   0.088   0.287  1.00  0.00     0.009 A 
BRANCH  12  14
ATOM     14  C   UNL     1      -2.017   2.493   0.118  1.00  0.00    -0.014 A 
ATOM     15  C   UNL     1      -2.035   3.295  -1.037  1.00  0.00     0.009 A 
ATOM     16  C   UNL     1      -2.756   2.942   1.228  1.00  0.00     0.055 A 
ATOM     17  C   UNL     1      -2.688   4.531  -1.059  1.00  0.00     0.004 A 
ATOM     18  C   UNL     1      -3.449   4.149   1.183  1.00  0.00     0.116 A 
ATOM     19  C   UNL     1      -3.405   4.959   0.054  1.00  0.00     0.046 A 
BRANCH  18  20
ATOM     20  O   UNL     1      -4.189   4.500   2.275  1.00  0.00    -0.508 OA
ATOM     21  H   UNL     1      -4.667   5.306   2.278  1.00  0.00     0.293 HD
ENDBRANCH  18  20
ENDBRANCH  12  14
ENDBRANCH   4   7
ENDBRANCH   2   3
ENDBRANCH   1   2
BRANCH   1  22
ATOM     22  C   UNL     1       5.402   1.343  -0.881  1.00  0.00     0.118 C 
BRANCH  22  23
ATOM     23  N   UNL     1       6.492   0.393  -1.145  1.00  0.00    -0.352 N 
ATOM     24  C   UNL     1       7.600   0.507  -1.966  1.00  0.00     0.251 C 
ATOM     25  H   UNL     1       6.422  -0.461  -0.661  1.00  0.00     0.163 HD
ATOM     26  O   UNL     1       8.399  -0.404  -2.078  1.00  0.00    -0.269 OA
BRANCH  24  27
ATOM     27  C   UNL     1       7.802   1.809  -2.623  1.00  0.00     0.039 A 
ATOM     28  C   UNL     1       8.747   2.656  -2.042  1.00  0.00     0.014 A 
ATOM     29  C   UNL     1       6.789   2.289  -3.450  1.00  0.00     0.014 A 
ATOM     30  C   UNL     1       8.513   4.023  -2.060  1.00  0.00     0.010 A 
ATOM     31  C   UNL     1       6.523   3.643  -3.412  1.00  0.00     0.010 A 
ATOM     32  C   UNL     1       7.335   4.487  -2.641  1.00  0.00    -0.014 A 
BRANCH  32  33
ATOM     33  C   UNL     1       6.873   5.857  -2.497  1.00  0.00     0.031 A 
ATOM     34  C   UNL     1       7.352   6.862  -3.454  1.00  0.00     0.074 A 
ATOM     35  C   UNL     1       6.019   6.214  -1.513  1.00  0.00     0.049 A 
ATOM     36  N   UNL     1       7.374   8.129  -3.226  1.00  0.00    -0.248 NA
ATOM     37  C   UNL     1       7.922   6.480  -4.736  1.00  0.00     0.031 C 
ATOM     38  C   UNL     1       5.267   7.459  -1.408  1.00  0.00     0.029 A 
ATOM     39  N   UNL     1       5.858   5.609  -0.265  1.00  0.00    -0.354 N 
ATOM     40  C   UNL     1       7.682   8.747  -4.416  1.00  0.00     0.074 A 
ATOM     41  C   UNL     1       8.124   7.680  -5.282  1.00  0.00     0.031 C 
ATOM     42  C   UNL     1       4.967   7.674  -0.118  1.00  0.00     0.029 A 
ATOM     43  C   UNL     1       5.654   6.657   0.657  1.00  0.00     0.049 A 
ATOM     44  H   UNL     1       5.882   4.645  -0.068  1.00  0.00     0.167 HD
ATOM     45  C   UNL     1       7.365  10.064  -4.567  1.00  0.00     0.034 A 
ATOM     46  C   UNL     1       6.441   6.878   1.751  1.00  0.00     0.034 A 
ATOM     47  C   UNL     1       6.901  10.649  -3.294  1.00  0.00     0.049 A 
ATOM     48  C   UNL     1       7.046   8.276   1.793  1.00  0.00     0.074 A 
ATOM     49  C   UNL     1       5.654  10.954  -2.768  1.00  0.00     0.029 A 
ATOM     50  N   UNL     1       7.792  10.747  -2.234  1.00  0.00    -0.354 N 
ATOM     51  N   UNL     1       6.839   9.214   0.909  1.00  0.00    -0.248 NA
ATOM     52  C   UNL     1       8.055   8.660   2.778  1.00  0.00     0.031 C 
ATOM     53  C   UNL     1       5.807  11.222  -1.375  1.00  0.00     0.029 A 
ATOM     54  C   UNL     1       7.147  11.102  -1.056  1.00  0.00     0.049 A 
ATOM     55  H   UNL     1       8.760  10.585  -2.307  1.00  0.00     0.167 HD
ATOM     56  C   UNL     1       7.775  10.211   1.070  1.00  0.00     0.074 A 
ATOM     57  C   UNL     1       8.502   9.817   2.266  1.00  0.00     0.031 C 
ATOM     58  C   UNL     1       7.937  11.233   0.166  1.00  0.00     0.034 A 
BRANCH  45  59
ATOM     59  C   UNL     1       7.170  10.745  -5.917  1.00  0.00     0.023 A 
ATOM     60  C   UNL     1       6.376  11.912  -5.943  1.00  0.00     0.012 A 
ATOM     61  C   UNL     1       7.620  10.287  -7.179  1.00  0.00     0.148 A 
ATOM     62  C   UNL     1       5.954  12.512  -7.137  1.00  0.00     0.002 A 
ATOM     63  C   UNL     1       7.141  10.835  -8.372  1.00  0.00     0.091 A 
ATOM     64  F   UNL     1       8.595   9.381  -7.253  1.00  0.00    -0.205 F 
ATOM     65  C   UNL     1       6.301  11.948  -8.354  1.00  0.00     0.022 A 
BRANCH  63  66
ATOM     66  S   UNL     1       7.499  10.105  -9.983  1.00  0.00     0.127 S 
ATOM     67  O   UNL     1       6.158   9.930 -10.544  1.00  0.00    -0.237 OA
ATOM     68  O   UNL     1       8.296  11.145 -10.630  1.00  0.00    -0.237 OA
ATOM     69  O   UNL     1       8.199   8.854  -9.718  1.00  0.00    -0.744 OA
ENDBRANCH  63  66
ENDBRANCH  45  59
BRANCH  46  70
ATOM     70  C   UNL     1       7.134   5.643   2.233  1.00  0.00     0.023 A 
ATOM     71  C   UNL     1       6.322   4.540   2.591  1.00  0.00     0.012 A 
ATOM     72  C   UNL     1       8.489   5.417   1.944  1.00  0.00     0.148 A 
ATOM     73  C   UNL     1       6.801   3.235   2.465  1.00  0.00     0.002 A 
ATOM     74  C   UNL     1       8.964   4.114   1.845  1.00  0.00     0.091 A 
ATOM     75  F   UNL     1       9.289   6.459   1.688  1.00  0.00    -0.205 F 
ATOM     76  C   UNL     1       8.110   3.021   2.044  1.00  0.00     0.022 A 
BRANCH  74  77
ATOM     77  S   UNL     1      10.661   3.822   1.340  1.00  0.00     0.127 S 
ATOM     78  O   UNL     1      11.370   3.963   2.607  1.00  0.00    -0.237 OA
ATOM     79  O   UNL     1      10.609   2.460   0.812  1.00  0.00    -0.237 OA
ATOM     80  O   UNL     1      10.910   4.843   0.332  1.00  0.00    -0.744 OA
ENDBRANCH  74  77
ENDBRANCH  46  70
BRANCH  58  81
ATOM     81  C   UNL     1       8.912  12.404   0.312  1.00  0.00     0.023 A 
ATOM     82  C   UNL     1       9.498  12.747   1.546  1.00  0.00     0.012 A 
ATOM     83  C   UNL     1       9.220  13.270  -0.774  1.00  0.00     0.148 A 
ATOM     84  C   UNL     1      10.450  13.767   1.671  1.00  0.00     0.002 A 
ATOM     85  C   UNL     1      10.142  14.308  -0.645  1.00  0.00     0.091 A 
ATOM     86  F   UNL     1       8.575  13.137  -1.938  1.00  0.00    -0.205 F 
ATOM     87  C   UNL     1      10.789  14.535   0.570  1.00  0.00     0.022 A 
BRANCH  85  88
ATOM     88  S   UNL     1      10.529  15.434  -1.994  1.00  0.00     0.127 S 
ATOM     89  O   UNL     1       9.904  16.672  -1.528  1.00  0.00    -0.237 OA
ATOM     90  O   UNL     1      11.992  15.445  -1.970  1.00  0.00    -0.237 OA
ATOM     91  O   UNL     1       9.945  14.852  -3.193  1.00  0.00    -0.744 OA
ENDBRANCH  85  88
ENDBRANCH  58  81
ENDBRANCH  32  33
ENDBRANCH  24  27
ENDBRANCH  22  23
ENDBRANCH   1  22
TORSDOF 15
