REMARK SMILES O=C(NCCCNC(=O)c1nccnc1C(=O)Nc1ccc(-n2cncn2)c(Cl)c1)c1ccc(-c2c3nc(c(-c4cccc(S(=O)(=O)[O-])c4F)c4ccc([nH]4)c(-c4cccc(S(=O)(=O)[O-])c4F)c4nc(c(-c5cccc(S(=O)(=O)[O-])c5F)c5ccc2[nH]5)C=C4)C=C3)cc1
REMARK SMILES IDX 5 1 4 2 3 3 1 4 2 5 31 7 32 8 93 9 33 10 92 11 34 12 35 13
REMARK SMILES IDX 36 14 86 15 37 16 91 17 85 18 87 19 38 20 90 21 84 22 83 23
REMARK SMILES IDX 39 25 71 26 51 27 70 28 52 29 55 30 69 31 88 32 53 33 54 34
REMARK SMILES IDX 68 36 89 37 56 38 40 39 41 40 49 41 42 42 44 43 50 44 43 45
REMARK SMILES IDX 45 46 46 47 47 48 48 49 72 50 73 51 81 52 74 53 76 54 82 55
REMARK SMILES IDX 75 56 77 57 78 58 79 59 80 60 57 61 58 62 66 63 59 64 61 65
REMARK SMILES IDX 67 66 60 67 62 68 63 69 64 70 65 71 6 72 7 73 8 74 9 76
REMARK SMILES IDX 10 77 11 78 15 79 12 80 14 81 13 82 16 83 17 84 18 85 19 87
REMARK SMILES IDX 20 88 30 89 21 90 28 91 22 92 29 93 23 94 24 95 27 96 25 97
REMARK SMILES IDX 26 98
REMARK H PARENT 3 6 87 24 55 35 7 75 18 86
REMARK Flexibility Score: inf
ROOT
ATOM      1  C   UNL     1       4.809  -2.577   0.220  1.00  0.00     0.042 C 
ENDROOT
BRANCH   1   2
ATOM      2  C   UNL     1       4.613  -1.240  -0.493  1.00  0.00     0.118 C 
BRANCH   2   3
ATOM      3  N   UNL     1       3.268  -0.868  -0.879  1.00  0.00    -0.352 N 
ATOM      4  O   UNL     1       1.308   0.168  -0.924  1.00  0.00    -0.269 OA
ATOM      5  C   UNL     1       2.235  -0.247  -0.226  1.00  0.00     0.251 C 
ATOM      6  H   UNL     1       3.049  -1.112  -1.807  1.00  0.00     0.163 HD
BRANCH   5   7
ATOM      7  C   UNL     1       2.130  -0.150   1.252  1.00  0.00     0.039 A 
ATOM      8  C   UNL     1       3.194  -0.294   2.140  1.00  0.00     0.014 A 
ATOM      9  C   UNL     1       0.836   0.047   1.767  1.00  0.00     0.014 A 
ATOM     10  C   UNL     1       2.959  -0.402   3.502  1.00  0.00     0.010 A 
ATOM     11  C   UNL     1       0.597  -0.021   3.133  1.00  0.00     0.010 A 
ATOM     12  C   UNL     1       1.657  -0.300   3.991  1.00  0.00    -0.014 A 
BRANCH  12  13
ATOM     13  C   UNL     1       1.483  -0.326   5.437  1.00  0.00     0.031 A 
ATOM     14  C   UNL     1       2.104   0.830   6.139  1.00  0.00     0.074 A 
ATOM     15  C   UNL     1       0.731  -1.246   6.071  1.00  0.00     0.049 A 
ATOM     16  N   UNL     1       3.065   0.820   7.006  1.00  0.00    -0.248 NA
ATOM     17  C   UNL     1       1.709   2.177   5.699  1.00  0.00     0.031 C 
ATOM     18  C   UNL     1      -0.151  -2.242   5.460  1.00  0.00     0.029 A 
ATOM     19  N   UNL     1       0.480  -1.382   7.405  1.00  0.00    -0.354 N 
ATOM     20  C   UNL     1       3.229   2.151   7.395  1.00  0.00     0.074 A 
ATOM     21  C   UNL     1       2.531   2.940   6.418  1.00  0.00     0.031 C 
ATOM     22  C   UNL     1      -1.024  -2.685   6.391  1.00  0.00     0.029 A 
ATOM     23  C   UNL     1      -0.682  -2.099   7.675  1.00  0.00     0.049 A 
ATOM     24  H   UNL     1       1.062  -1.010   8.107  1.00  0.00     0.167 HD
ATOM     25  C   UNL     1       3.691   2.475   8.635  1.00  0.00     0.034 A 
ATOM     26  C   UNL     1      -1.369  -2.119   8.844  1.00  0.00     0.034 A 
ATOM     27  C   UNL     1       4.370   1.358   9.245  1.00  0.00     0.049 A 
ATOM     28  C   UNL     1      -0.455  -1.654   9.911  1.00  0.00     0.074 A 
ATOM     29  C   UNL     1       5.454   0.564   8.929  1.00  0.00     0.029 A 
ATOM     30  N   UNL     1       3.695   0.695  10.239  1.00  0.00    -0.354 N 
ATOM     31  N   UNL     1       0.583  -2.327  10.320  1.00  0.00    -0.248 NA
ATOM     32  C   UNL     1      -0.466  -0.242  10.258  1.00  0.00     0.031 C 
ATOM     33  C   UNL     1       5.119  -0.732   9.421  1.00  0.00     0.029 A 
ATOM     34  C   UNL     1       3.876  -0.644  10.049  1.00  0.00     0.049 A 
ATOM     35  H   UNL     1       3.172   1.111  10.962  1.00  0.00     0.167 HD
ATOM     36  C   UNL     1       1.547  -1.357  10.555  1.00  0.00     0.074 A 
ATOM     37  C   UNL     1       0.810  -0.097  10.623  1.00  0.00     0.031 C 
ATOM     38  C   UNL     1       2.873  -1.632  10.375  1.00  0.00     0.034 A 
BRANCH  25  39
ATOM     39  C   UNL     1       3.153   3.618   9.490  1.00  0.00     0.023 A 
ATOM     40  C   UNL     1       3.711   3.754  10.785  1.00  0.00     0.012 A 
ATOM     41  C   UNL     1       1.950   4.321   9.248  1.00  0.00     0.148 A 
ATOM     42  C   UNL     1       3.038   4.419  11.816  1.00  0.00     0.002 A 
ATOM     43  C   UNL     1       1.313   5.032  10.261  1.00  0.00     0.091 A 
ATOM     44  F   UNL     1       1.337   4.236   8.069  1.00  0.00    -0.205 F 
ATOM     45  C   UNL     1       1.829   5.046  11.556  1.00  0.00     0.022 A 
BRANCH  43  46
ATOM     46  S   UNL     1      -0.237   5.897   9.965  1.00  0.00     0.127 S 
ATOM     47  O   UNL     1      -1.184   5.032  10.673  1.00  0.00    -0.237 OA
ATOM     48  O   UNL     1       0.019   7.188  10.612  1.00  0.00    -0.237 OA
ATOM     49  O   UNL     1      -0.388   5.969   8.527  1.00  0.00    -0.744 OA
ENDBRANCH  43  46
ENDBRANCH  25  39
BRANCH  26  50
ATOM     50  C   UNL     1      -2.827  -2.247   9.074  1.00  0.00     0.023 A 
ATOM     51  C   UNL     1      -3.303  -2.625  10.346  1.00  0.00     0.012 A 
ATOM     52  C   UNL     1      -3.758  -1.740   8.140  1.00  0.00     0.148 A 
ATOM     53  C   UNL     1      -4.653  -2.476  10.685  1.00  0.00     0.002 A 
ATOM     54  C   UNL     1      -5.101  -1.606   8.476  1.00  0.00     0.091 A 
ATOM     55  F   UNL     1      -3.311  -1.298   6.957  1.00  0.00    -0.205 F 
ATOM     56  C   UNL     1      -5.551  -1.961   9.753  1.00  0.00     0.022 A 
BRANCH  54  57
ATOM     57  S   UNL     1      -6.311  -0.938   7.326  1.00  0.00     0.127 S 
ATOM     58  O   UNL     1      -7.394  -1.917   7.425  1.00  0.00    -0.237 OA
ATOM     59  O   UNL     1      -6.605   0.364   7.919  1.00  0.00    -0.237 OA
ATOM     60  O   UNL     1      -5.651  -0.908   6.027  1.00  0.00    -0.744 OA
ENDBRANCH  54  57
ENDBRANCH  26  50
BRANCH  38  61
ATOM     61  C   UNL     1       3.291  -3.070  10.234  1.00  0.00     0.023 A 
ATOM     62  C   UNL     1       2.865  -3.879   9.161  1.00  0.00     0.012 A 
ATOM     63  C   UNL     1       4.278  -3.556  11.107  1.00  0.00     0.148 A 
ATOM     64  C   UNL     1       3.397  -5.158   8.979  1.00  0.00     0.002 A 
ATOM     65  C   UNL     1       4.841  -4.806  10.892  1.00  0.00     0.091 A 
ATOM     66  F   UNL     1       4.673  -2.769  12.120  1.00  0.00    -0.205 F 
ATOM     67  C   UNL     1       4.396  -5.615   9.835  1.00  0.00     0.022 A 
BRANCH  65  68
ATOM     68  S   UNL     1       6.224  -5.390  11.874  1.00  0.00     0.127 S 
ATOM     69  O   UNL     1       5.586  -6.372  12.746  1.00  0.00    -0.237 OA
ATOM     70  O   UNL     1       7.113  -5.957  10.858  1.00  0.00    -0.237 OA
ATOM     71  O   UNL     1       6.765  -4.212  12.542  1.00  0.00    -0.744 OA
ENDBRANCH  65  68
ENDBRANCH  38  61
ENDBRANCH  12  13
ENDBRANCH   5   7
ENDBRANCH   2   3
ENDBRANCH   1   2
BRANCH   1  72
ATOM     72  C   UNL     1       4.146  -3.809  -0.390  1.00  0.00     0.118 C 
BRANCH  72  73
ATOM     73  N   UNL     1       4.239  -3.925  -1.837  1.00  0.00    -0.351 N 
ATOM     74  C   UNL     1       4.844  -4.905  -2.599  1.00  0.00     0.272 C 
ATOM     75  H   UNL     1       3.808  -3.200  -2.346  1.00  0.00     0.163 HD
ATOM     76  O   UNL     1       4.512  -5.085  -3.768  1.00  0.00    -0.267 OA
BRANCH  74  77
ATOM     77  C   UNL     1       5.809  -5.826  -1.987  1.00  0.00     0.159 A 
ATOM     78  N   UNL     1       5.154  -6.736  -1.180  1.00  0.00    -0.247 NA
ATOM     79  C   UNL     1       7.181  -5.859  -2.211  1.00  0.00     0.159 A 
ATOM     80  C   UNL     1       5.903  -7.677  -0.583  1.00  0.00     0.132 A 
ATOM     81  N   UNL     1       7.907  -6.840  -1.559  1.00  0.00    -0.247 NA
ATOM     82  C   UNL     1       7.261  -7.724  -0.766  1.00  0.00     0.132 A 
BRANCH  79  83
ATOM     83  C   UNL     1       8.125  -5.052  -3.099  1.00  0.00     0.276 C 
ATOM     84  O   UNL     1       9.345  -5.201  -2.922  1.00  0.00    -0.267 OA
ATOM     85  N   UNL     1       7.828  -4.333  -4.236  1.00  0.00    -0.321 N 
ATOM     86  H   UNL     1       8.516  -4.408  -4.936  1.00  0.00     0.170 HD
BRANCH  85  87
ATOM     87  C   UNL     1       6.762  -3.526  -4.598  1.00  0.00     0.043 A 
ATOM     88  C   UNL     1       6.323  -2.489  -3.789  1.00  0.00     0.028 A 
ATOM     89  C   UNL     1       6.176  -3.730  -5.846  1.00  0.00     0.049 A 
ATOM     90  C   UNL     1       5.138  -1.832  -4.120  1.00  0.00     0.032 A 
ATOM     91  C   UNL     1       4.939  -3.143  -6.132  1.00  0.00     0.068 A 
ATOM     92  C   UNL     1       4.351  -2.298  -5.187  1.00  0.00     0.085 A 
ATOM     93  Cl  UNL     1       4.266  -3.474  -7.687  1.00  0.00    -0.082 Cl
BRANCH  92  94
ATOM     94  N   UNL     1       2.950  -2.069  -5.096  1.00  0.00    -0.220 N 
ATOM     95  C   UNL     1       1.907  -2.790  -5.629  1.00  0.00     0.226 A 
ATOM     96  N   UNL     1       2.446  -1.194  -4.180  1.00  0.00    -0.155 NA
ATOM     97  N   UNL     1       0.756  -2.353  -5.171  1.00  0.00    -0.223 NA
ATOM     98  C   UNL     1       1.130  -1.392  -4.285  1.00  0.00     0.246 A 
ENDBRANCH  92  94
ENDBRANCH  85  87
ENDBRANCH  79  83
ENDBRANCH  74  77
ENDBRANCH  72  73
ENDBRANCH   1  72
TORSDOF 16
