REMARK SMILES Cc1coc2cc3c(cc12)[C@@H](C)[C@H](CCC(=O)N[C@@H](Cc1c[nH]c2ccccc12)C(=O)NCCCNC(=O)c1ccc(-c2c4nc(c(-c5cccc(S(=O)(=O)[O-])c5F)c5ccc([nH]5)c(-c5cccc(S(=O)(=O)[O-])c5F)c5nc(c(-c6cccc(S(=O)(=O)[O-])c6F)c6ccc2[nH]6)C=C5)C=C4)cc1)C(=O)O3
REMARK SMILES IDX 33 1 32 2 30 3 31 4 19 6 18 7 16 8 17 9 15 11 14 12 13 13
REMARK SMILES IDX 1 14 2 15 3 16 10 17 4 18 5 19 9 20 6 21 8 22 7 23 11 24
REMARK SMILES IDX 104 25 12 26 102 27 103 28 20 29 21 30 22 31 29 32 23 33
REMARK SMILES IDX 24 34 28 35 25 37 27 38 26 39 34 40 35 41 36 42 37 43 38 45
REMARK SMILES IDX 39 46 40 47 101 48 41 49 100 50 42 51 43 52 44 53 94 54
REMARK SMILES IDX 45 55 99 56 93 57 95 58 46 59 98 60 92 61 91 62 47 64 79 65
REMARK SMILES IDX 59 66 78 67 60 68 63 69 77 70 96 71 61 72 62 73 76 75 97 76
REMARK SMILES IDX 64 77 48 78 49 79 57 80 50 81 52 82 58 83 51 84 53 85 54 86
REMARK SMILES IDX 55 87 56 88 80 89 81 90 89 91 82 92 84 93 90 94 83 95 85 96
REMARK SMILES IDX 86 97 87 98 88 99 65 100 66 101 74 102 67 103 69 104 75 105
REMARK SMILES IDX 68 106 70 107 71 108 72 109 73 110
REMARK H PARENT 32 5 18 10 23 36 36 44 95 63 63 74
REMARK Flexibility Score: inf
ROOT
ATOM      1  C   UNL     1      -5.359  -2.365  -8.017  1.00  0.00     0.117 C 
ENDROOT
BRANCH   1   2
ATOM      2  N   UNL     1      -5.380  -3.788  -8.219  1.00  0.00    -0.354 N 
ATOM      3  C   UNL     1      -4.643  -4.689  -7.494  1.00  0.00     0.242 C 
ATOM      4  O   UNL     1      -4.953  -5.883  -7.548  1.00  0.00    -0.273 OA
ATOM      5  H   UNL     1      -5.964  -4.141  -8.929  1.00  0.00     0.163 HD
BRANCH   3   6
ATOM      6  C   UNL     1      -3.442  -4.215  -6.641  1.00  0.00     0.175 C 
BRANCH   6   7
ATOM      7  N   UNL     1      -2.393  -3.684  -7.545  1.00  0.00    -0.344 N 
ATOM      8  C   UNL     1      -1.093  -3.995  -7.822  1.00  0.00     0.220 C 
ATOM      9  O   UNL     1      -0.526  -3.318  -8.685  1.00  0.00    -0.275 OA
ATOM     10  H   UNL     1      -2.712  -2.918  -8.076  1.00  0.00     0.164 HD
BRANCH   8  11
ATOM     11  C   UNL     1      -0.302  -5.102  -7.109  1.00  0.00     0.101 C 
BRANCH  11  12
ATOM     12  C   UNL     1       0.421  -4.801  -5.757  1.00  0.00     0.026 C 
BRANCH  12  13
ATOM     13  C   UNL     1      -0.452  -4.007  -4.793  1.00  0.00     0.107 C 
ATOM     14  C   UNL     1       0.915   0.297   0.823  1.00  0.00     0.048 C 
ATOM     15  C   UNL     1       0.571   0.626  -0.573  1.00  0.00    -0.005 A 
ATOM     16  C   UNL     1       0.515   1.884  -1.142  1.00  0.00     0.199 A 
ATOM     17  C   UNL     1       0.361  -0.300  -1.636  1.00  0.00     0.024 A 
ATOM     18  O   UNL     1       0.378   1.796  -2.486  1.00  0.00    -0.464 OA
ATOM     19  C   UNL     1       0.364   0.475  -2.789  1.00  0.00     0.137 A 
ATOM     20  C   UNL     1       0.239  -1.708  -1.743  1.00  0.00     0.020 A 
ATOM     21  C   UNL     1       0.416  -0.038  -4.065  1.00  0.00     0.095 A 
ATOM     22  C   UNL     1       0.245  -2.288  -3.017  1.00  0.00    -0.001 A 
ATOM     23  C   UNL     1       0.440  -1.430  -4.123  1.00  0.00     0.138 A 
ATOM     24  C   UNL     1      -0.079  -3.773  -3.294  1.00  0.00     0.034 C 
ATOM     25  O   UNL     1       0.599  -1.973  -5.375  1.00  0.00    -0.426 OA
ATOM     26  C   UNL     1      -1.303  -4.206  -2.443  1.00  0.00     0.014 C 
ATOM     27  C   UNL     1      -0.564  -2.641  -5.371  1.00  0.00     0.314 C 
ATOM     28  O   UNL     1      -1.624  -2.142  -5.696  1.00  0.00    -0.251 OA
ENDBRANCH  12  13
ENDBRANCH  11  12
ENDBRANCH   8  11
ENDBRANCH   6   7
BRANCH   6  29
ATOM     29  C   UNL     1      -3.894  -3.449  -5.331  1.00  0.00     0.072 C 
BRANCH  29  30
ATOM     30  C   UNL     1      -4.558  -2.061  -5.210  1.00  0.00    -0.020 A 
ATOM     31  C   UNL     1      -5.756  -1.922  -4.516  1.00  0.00     0.087 A 
ATOM     32  C   UNL     1      -4.213  -0.689  -5.634  1.00  0.00     0.003 A 
ATOM     33  N   UNL     1      -6.199  -0.635  -4.611  1.00  0.00    -0.361 N 
ATOM     34  C   UNL     1      -5.298   0.133  -5.299  1.00  0.00     0.046 A 
ATOM     35  C   UNL     1      -3.165  -0.028  -6.335  1.00  0.00     0.010 A 
ATOM     36  H   UNL     1      -7.048  -0.305  -4.237  1.00  0.00     0.166 HD
ATOM     37  C   UNL     1      -5.392   1.491  -5.652  1.00  0.00     0.026 A 
ATOM     38  C   UNL     1      -3.207   1.341  -6.636  1.00  0.00     0.001 A 
ATOM     39  C   UNL     1      -4.324   2.087  -6.320  1.00  0.00     0.002 A 
ENDBRANCH  29  30
ENDBRANCH   6  29
ENDBRANCH   3   6
ENDBRANCH   1   2
BRANCH   1  40
ATOM     40  C   UNL     1      -5.605  -1.474  -9.206  1.00  0.00     0.042 C 
BRANCH  40  41
ATOM     41  C   UNL     1      -7.042  -1.504  -9.698  1.00  0.00     0.118 C 
BRANCH  41  42
ATOM     42  N   UNL     1      -8.028  -1.306  -8.652  1.00  0.00    -0.352 N 
ATOM     43  C   UNL     1      -8.725  -0.231  -8.182  1.00  0.00     0.251 C 
ATOM     44  H   UNL     1      -8.243  -2.138  -8.171  1.00  0.00     0.163 HD
ATOM     45  O   UNL     1      -9.633  -0.485  -7.385  1.00  0.00    -0.269 OA
BRANCH  43  46
ATOM     46  C   UNL     1      -8.423   1.190  -8.485  1.00  0.00     0.039 A 
ATOM     47  C   UNL     1      -7.228   1.647  -9.033  1.00  0.00     0.014 A 
ATOM     48  C   UNL     1      -9.358   2.133  -8.017  1.00  0.00     0.014 A 
ATOM     49  C   UNL     1      -6.901   2.994  -8.955  1.00  0.00     0.010 A 
ATOM     50  C   UNL     1      -9.051   3.486  -7.969  1.00  0.00     0.010 A 
ATOM     51  C   UNL     1      -7.789   3.902  -8.366  1.00  0.00    -0.014 A 
BRANCH  51  52
ATOM     52  C   UNL     1      -7.403   5.309  -8.343  1.00  0.00     0.031 A 
ATOM     53  C   UNL     1      -7.135   5.840  -9.707  1.00  0.00     0.074 A 
ATOM     54  C   UNL     1      -7.338   6.068  -7.228  1.00  0.00     0.049 A 
ATOM     55  N   UNL     1      -5.988   6.169 -10.203  1.00  0.00    -0.248 NA
ATOM     56  C   UNL     1      -8.222   5.789 -10.698  1.00  0.00     0.031 C 
ATOM     57  C   UNL     1      -7.798   5.736  -5.876  1.00  0.00     0.029 A 
ATOM     58  N   UNL     1      -6.927   7.362  -7.088  1.00  0.00    -0.354 N 
ATOM     59  C   UNL     1      -6.253   6.604 -11.499  1.00  0.00     0.074 A 
ATOM     60  C   UNL     1      -7.584   6.158 -11.809  1.00  0.00     0.031 C 
ATOM     61  C   UNL     1      -7.880   6.869  -5.137  1.00  0.00     0.029 A 
ATOM     62  C   UNL     1      -7.339   7.976  -5.904  1.00  0.00     0.049 A 
ATOM     63  H   UNL     1      -6.385   7.825  -7.767  1.00  0.00     0.167 HD
ATOM     64  C   UNL     1      -5.450   7.523 -12.101  1.00  0.00     0.034 A 
ATOM     65  C   UNL     1      -7.281   9.303  -5.607  1.00  0.00     0.034 A 
ATOM     66  C   UNL     1      -4.169   7.596 -11.445  1.00  0.00     0.049 A 
ATOM     67  C   UNL     1      -6.258   9.894  -6.496  1.00  0.00     0.074 A 
ATOM     68  C   UNL     1      -3.126   6.721 -11.223  1.00  0.00     0.029 A 
ATOM     69  N   UNL     1      -4.003   8.624 -10.551  1.00  0.00    -0.354 N 
ATOM     70  N   UNL     1      -4.990   9.606  -6.421  1.00  0.00    -0.248 NA
ATOM     71  C   UNL     1      -6.709  10.460  -7.755  1.00  0.00     0.031 C 
ATOM     72  C   UNL     1      -2.654   7.034  -9.915  1.00  0.00     0.029 A 
ATOM     73  C   UNL     1      -3.382   8.127  -9.439  1.00  0.00     0.049 A 
ATOM     74  H   UNL     1      -4.282   9.558 -10.687  1.00  0.00     0.167 HD
ATOM     75  C   UNL     1      -4.593   9.498  -7.745  1.00  0.00     0.074 A 
ATOM     76  C   UNL     1      -5.665  10.129  -8.518  1.00  0.00     0.031 C 
ATOM     77  C   UNL     1      -3.587   8.651  -8.107  1.00  0.00     0.034 A 
BRANCH  64  78
ATOM     78  C   UNL     1      -5.948   8.646 -12.990  1.00  0.00     0.023 A 
ATOM     79  C   UNL     1      -4.970   9.503 -13.546  1.00  0.00     0.012 A 
ATOM     80  C   UNL     1      -7.292   9.079 -13.072  1.00  0.00     0.148 A 
ATOM     81  C   UNL     1      -5.303  10.750 -14.084  1.00  0.00     0.002 A 
ATOM     82  C   UNL     1      -7.627  10.287 -13.674  1.00  0.00     0.091 A 
ATOM     83  F   UNL     1      -8.260   8.394 -12.462  1.00  0.00    -0.205 F 
ATOM     84  C   UNL     1      -6.632  11.143 -14.150  1.00  0.00     0.022 A 
BRANCH  82  85
ATOM     85  S   UNL     1      -9.335  10.829 -13.830  1.00  0.00     0.127 S 
ATOM     86  O   UNL     1      -9.362  11.976 -12.927  1.00  0.00    -0.237 OA
ATOM     87  O   UNL     1      -9.408  11.159 -15.254  1.00  0.00    -0.237 OA
ATOM     88  O   UNL     1     -10.152   9.689 -13.438  1.00  0.00    -0.744 OA
ENDBRANCH  82  85
ENDBRANCH  64  78
BRANCH  65  89
ATOM     89  C   UNL     1      -8.236  10.179  -4.873  1.00  0.00     0.023 A 
ATOM     90  C   UNL     1      -7.830  11.472  -4.467  1.00  0.00     0.012 A 
ATOM     91  C   UNL     1      -9.618   9.895  -4.875  1.00  0.00     0.148 A 
ATOM     92  C   UNL     1      -8.767  12.457  -4.125  1.00  0.00     0.002 A 
ATOM     93  C   UNL     1     -10.547  10.880  -4.542  1.00  0.00     0.091 A 
ATOM     94  F   UNL     1     -10.025   8.691  -5.296  1.00  0.00    -0.205 F 
ATOM     95  C   UNL     1     -10.126  12.166  -4.177  1.00  0.00     0.022 A 
BRANCH  93  96
ATOM     96  S   UNL     1     -12.322  10.603  -4.646  1.00  0.00     0.127 S 
ATOM     97  O   UNL     1     -12.770  11.030  -3.320  1.00  0.00    -0.237 OA
ATOM     98  O   UNL     1     -12.702  11.496  -5.737  1.00  0.00    -0.237 OA
ATOM     99  O   UNL     1     -12.489   9.180  -4.909  1.00  0.00    -0.744 OA
ENDBRANCH  93  96
ENDBRANCH  65  89
BRANCH  77 100
ATOM    100  C   UNL     1      -2.749   8.027  -7.017  1.00  0.00     0.023 A 
ATOM    101  C   UNL     1      -3.265   7.088  -6.098  1.00  0.00     0.012 A 
ATOM    102  C   UNL     1      -1.362   8.236  -7.071  1.00  0.00     0.148 A 
ATOM    103  C   UNL     1      -2.408   6.371  -5.254  1.00  0.00     0.002 A 
ATOM    104  C   UNL     1      -0.511   7.485  -6.271  1.00  0.00     0.091 A 
ATOM    105  F   UNL     1      -0.895   9.136  -7.949  1.00  0.00    -0.205 F 
ATOM    106  C   UNL     1      -1.030   6.556  -5.355  1.00  0.00     0.022 A 
BRANCH 104 107
ATOM    107  S   UNL     1       1.270   7.572  -6.462  1.00  0.00     0.127 S 
ATOM    108  O   UNL     1       1.681   8.204  -5.210  1.00  0.00    -0.237 OA
ATOM    109  O   UNL     1       1.638   6.161  -6.587  1.00  0.00    -0.237 OA
ATOM    110  O   UNL     1       1.512   8.359  -7.665  1.00  0.00    -0.744 OA
ENDBRANCH 104 107
ENDBRANCH  77 100
ENDBRANCH  51  52
ENDBRANCH  43  46
ENDBRANCH  41  42
ENDBRANCH  40  41
ENDBRANCH   1  40
TORSDOF 19
