REMARK SMILES CN(CC(=O)NCCCNC(=O)c1ccc(-c2c3nc(c(-c4cccc(S(=O)(=O)[O-])c4F)c4ccc([nH]4)c(-c4cccc(S(=O)(=O)[O-])c4F)c4nc(c(-c5cccc(S(=O)(=O)[O-])c5F)c5ccc2[nH]5)C=C4)C=C3)cc1)c1ncc(-c2nnnn2-c2ccccc2)c(-c2ccc(Cl)cc2)n1
REMARK SMILES IDX 7 1 6 2 4 3 5 4 3 6 2 7 1 8 76 9 77 10 99 11 78 12 91 13
REMARK SMILES IDX 79 14 92 15 93 16 98 17 94 18 97 19 95 20 96 21 80 22 81 23
REMARK SMILES IDX 84 24 82 25 83 26 85 27 86 28 90 29 87 30 89 31 88 32 8 33
REMARK SMILES IDX 9 34 10 35 11 36 12 38 13 39 14 40 75 41 15 42 74 43 16 44
REMARK SMILES IDX 17 45 18 46 68 47 19 48 73 49 67 50 69 51 20 52 72 53 66 54
REMARK SMILES IDX 65 55 21 57 53 58 33 59 52 60 34 61 37 62 51 63 70 64 35 65
REMARK SMILES IDX 36 66 50 68 71 69 38 70 22 71 23 72 31 73 24 74 26 75 32 76
REMARK SMILES IDX 25 77 27 78 28 79 29 80 30 81 54 82 55 83 63 84 56 85 58 86
REMARK SMILES IDX 64 87 57 88 59 89 60 90 61 91 62 92 39 93 40 94 48 95 41 96
REMARK SMILES IDX 43 97 49 98 42 99 44 100 45 101 46 102 47 103
REMARK H PARENT 6 5 10 37 69 56 37 67
REMARK Flexibility Score: inf
ROOT
ATOM      1  C   UNL     1      -2.316  -0.076  -0.194  1.00  0.00     0.117 C 
ENDROOT
BRANCH   1   2
ATOM      2  N   UNL     1      -2.581  -0.562   1.145  1.00  0.00    -0.354 N 
ATOM      3  C   UNL     1      -1.731  -0.618   2.216  1.00  0.00     0.239 C 
ATOM      4  O   UNL     1      -2.196  -0.987   3.300  1.00  0.00    -0.273 OA
ATOM      5  H   UNL     1      -3.493  -0.896   1.305  1.00  0.00     0.163 HD
BRANCH   3   6
ATOM      6  C   UNL     1      -0.295  -0.093   2.092  1.00  0.00     0.219 C 
BRANCH   6   7
ATOM      7  N   UNL     1       0.524  -0.763   1.085  1.00  0.00    -0.335 N 
ATOM      8  C   UNL     1       1.333  -0.002   0.159  1.00  0.00     0.147 C 
BRANCH   7   9
ATOM      9  C   UNL     1       0.909  -2.063   1.335  1.00  0.00     0.226 A 
ATOM     10  N   UNL     1      -0.002  -2.907   1.825  1.00  0.00    -0.221 NA
ATOM     11  N   UNL     1       2.167  -2.442   1.057  1.00  0.00    -0.212 NA
ATOM     12  C   UNL     1       0.357  -4.196   1.958  1.00  0.00     0.129 A 
ATOM     13  C   UNL     1       2.521  -3.741   1.239  1.00  0.00     0.087 A 
ATOM     14  C   UNL     1       1.608  -4.693   1.652  1.00  0.00     0.066 A 
BRANCH  13  15
ATOM     15  C   UNL     1       3.948  -4.020   1.001  1.00  0.00     0.001 A 
ATOM     16  C   UNL     1       4.927  -3.388   1.791  1.00  0.00     0.012 A 
ATOM     17  C   UNL     1       4.382  -4.916   0.009  1.00  0.00     0.012 A 
ATOM     18  C   UNL     1       6.286  -3.666   1.619  1.00  0.00     0.021 A 
ATOM     19  C   UNL     1       5.742  -5.197  -0.166  1.00  0.00     0.021 A 
ATOM     20  C   UNL     1       6.688  -4.576   0.645  1.00  0.00     0.041 A 
ATOM     21  Cl  UNL     1       8.360  -4.931   0.449  1.00  0.00    -0.084 Cl
ENDBRANCH  13  15
BRANCH  14  22
ATOM     22  C   UNL     1       1.887  -6.108   1.819  1.00  0.00     0.190 A 
ATOM     23  N   UNL     1       2.676  -6.640   2.734  1.00  0.00    -0.108 NA
ATOM     24  N   UNL     1       1.195  -7.141   1.195  1.00  0.00    -0.193 N 
ATOM     25  N   UNL     1       2.395  -7.979   2.753  1.00  0.00    -0.023 NA
ATOM     26  N   UNL     1       1.438  -8.279   1.887  1.00  0.00    -0.040 NA
BRANCH  24  27
ATOM     27  C   UNL     1       0.310  -7.104   0.092  1.00  0.00     0.069 A 
ATOM     28  C   UNL     1      -0.759  -8.007   0.038  1.00  0.00     0.028 A 
ATOM     29  C   UNL     1       0.498  -6.184  -0.950  1.00  0.00     0.028 A 
ATOM     30  C   UNL     1      -1.657  -7.956  -1.030  1.00  0.00     0.002 A 
ATOM     31  C   UNL     1      -0.381  -6.168  -2.034  1.00  0.00     0.002 A 
ATOM     32  C   UNL     1      -1.464  -7.043  -2.067  1.00  0.00     0.000 A 
ENDBRANCH  24  27
ENDBRANCH  14  22
ENDBRANCH   7   9
ENDBRANCH   6   7
ENDBRANCH   3   6
ENDBRANCH   1   2
BRANCH   1  33
ATOM     33  C   UNL     1      -2.142  -1.202  -1.207  1.00  0.00     0.042 C 
BRANCH  33  34
ATOM     34  C   UNL     1      -3.398  -2.044  -1.424  1.00  0.00     0.118 C 
BRANCH  34  35
ATOM     35  N   UNL     1      -4.521  -1.264  -1.937  1.00  0.00    -0.352 N 
ATOM     36  C   UNL     1      -5.219  -1.375  -3.113  1.00  0.00     0.251 C 
ATOM     37  H   UNL     1      -4.827  -0.542  -1.342  1.00  0.00     0.163 HD
ATOM     38  O   UNL     1      -6.016  -0.490  -3.429  1.00  0.00    -0.269 OA
BRANCH  36  39
ATOM     39  C   UNL     1      -5.011  -2.530  -4.011  1.00  0.00     0.039 A 
ATOM     40  C   UNL     1      -4.904  -2.304  -5.387  1.00  0.00     0.014 A 
ATOM     41  C   UNL     1      -4.934  -3.831  -3.508  1.00  0.00     0.014 A 
ATOM     42  C   UNL     1      -4.624  -3.370  -6.246  1.00  0.00     0.010 A 
ATOM     43  C   UNL     1      -4.589  -4.881  -4.356  1.00  0.00     0.010 A 
ATOM     44  C   UNL     1      -4.411  -4.658  -5.729  1.00  0.00    -0.014 A 
BRANCH  44  45
ATOM     45  C   UNL     1      -3.923  -5.766  -6.591  1.00  0.00     0.031 A 
ATOM     46  C   UNL     1      -4.746  -7.006  -6.794  1.00  0.00     0.074 A 
ATOM     47  C   UNL     1      -2.676  -5.695  -7.101  1.00  0.00     0.049 A 
ATOM     48  N   UNL     1      -4.430  -8.108  -7.422  1.00  0.00    -0.248 NA
ATOM     49  C   UNL     1      -6.090  -7.019  -6.194  1.00  0.00     0.031 C 
ATOM     50  C   UNL     1      -1.753  -4.572  -6.921  1.00  0.00     0.029 A 
ATOM     51  N   UNL     1      -1.956  -6.600  -7.841  1.00  0.00    -0.354 N 
ATOM     52  C   UNL     1      -5.517  -8.959  -7.270  1.00  0.00     0.074 A 
ATOM     53  C   UNL     1      -6.494  -8.252  -6.468  1.00  0.00     0.031 C 
ATOM     54  C   UNL     1      -0.590  -4.856  -7.526  1.00  0.00     0.029 A 
ATOM     55  C   UNL     1      -0.665  -6.197  -8.097  1.00  0.00     0.049 A 
ATOM     56  H   UNL     1      -2.327  -7.455  -8.158  1.00  0.00     0.167 HD
ATOM     57  C   UNL     1      -5.695 -10.206  -7.768  1.00  0.00     0.034 A 
ATOM     58  C   UNL     1       0.355  -6.842  -8.695  1.00  0.00     0.034 A 
ATOM     59  C   UNL     1      -4.731 -10.896  -8.585  1.00  0.00     0.049 A 
ATOM     60  C   UNL     1       0.134  -8.229  -9.231  1.00  0.00     0.074 A 
ATOM     61  C   UNL     1      -4.859 -12.125  -9.210  1.00  0.00     0.029 A 
ATOM     62  N   UNL     1      -3.457 -10.434  -8.873  1.00  0.00    -0.354 N 
ATOM     63  N   UNL     1      -0.958  -8.953  -9.217  1.00  0.00    -0.248 NA
ATOM     64  C   UNL     1       1.278  -8.880  -9.886  1.00  0.00     0.031 C 
ATOM     65  C   UNL     1      -3.646 -12.424  -9.840  1.00  0.00     0.029 A 
ATOM     66  C   UNL     1      -2.775 -11.366  -9.639  1.00  0.00     0.049 A 
ATOM     67  H   UNL     1      -3.089  -9.570  -8.576  1.00  0.00     0.167 HD
ATOM     68  C   UNL     1      -0.641 -10.134  -9.877  1.00  0.00     0.074 A 
ATOM     69  C   UNL     1       0.738 -10.015 -10.307  1.00  0.00     0.031 C 
ATOM     70  C   UNL     1      -1.415 -11.227 -10.091  1.00  0.00     0.034 A 
BRANCH  57  71
ATOM     71  C   UNL     1      -6.998 -10.902  -7.471  1.00  0.00     0.023 A 
ATOM     72  C   UNL     1      -8.184 -10.459  -8.091  1.00  0.00     0.012 A 
ATOM     73  C   UNL     1      -7.037 -12.037  -6.637  1.00  0.00     0.148 A 
ATOM     74  C   UNL     1      -9.394 -11.111  -7.858  1.00  0.00     0.002 A 
ATOM     75  C   UNL     1      -8.238 -12.709  -6.446  1.00  0.00     0.091 A 
ATOM     76  F   UNL     1      -5.903 -12.432  -6.042  1.00  0.00    -0.205 F 
ATOM     77  C   UNL     1      -9.419 -12.241  -7.045  1.00  0.00     0.022 A 
BRANCH  75  78
ATOM     78  S   UNL     1      -8.363 -14.219  -5.481  1.00  0.00     0.127 S 
ATOM     79  O   UNL     1      -9.124 -13.763  -4.318  1.00  0.00    -0.237 OA
ATOM     80  O   UNL     1      -9.100 -15.101  -6.385  1.00  0.00    -0.237 OA
ATOM     81  O   UNL     1      -6.995 -14.634  -5.206  1.00  0.00    -0.744 OA
ENDBRANCH  75  78
ENDBRANCH  57  71
BRANCH  58  82
ATOM     82  C   UNL     1       1.679  -6.171  -8.832  1.00  0.00     0.023 A 
ATOM     83  C   UNL     1       2.137  -5.790 -10.108  1.00  0.00     0.012 A 
ATOM     84  C   UNL     1       2.469  -5.883  -7.703  1.00  0.00     0.148 A 
ATOM     85  C   UNL     1       3.374  -5.163 -10.259  1.00  0.00     0.002 A 
ATOM     86  C   UNL     1       3.671  -5.204  -7.853  1.00  0.00     0.091 A 
ATOM     87  F   UNL     1       2.018  -6.263  -6.498  1.00  0.00    -0.205 F 
ATOM     88  C   UNL     1       4.136  -4.860  -9.132  1.00  0.00     0.022 A 
BRANCH  86  89
ATOM     89  S   UNL     1       4.643  -4.651  -6.448  1.00  0.00     0.127 S 
ATOM     90  O   UNL     1       5.827  -5.499  -6.550  1.00  0.00    -0.237 OA
ATOM     91  O   UNL     1       4.862  -3.241  -6.772  1.00  0.00    -0.237 OA
ATOM     92  O   UNL     1       3.807  -4.873  -5.275  1.00  0.00    -0.744 OA
ENDBRANCH  86  89
ENDBRANCH  58  82
BRANCH  70  93
ATOM     93  C   UNL     1      -0.798 -12.386 -10.831  1.00  0.00     0.023 A 
ATOM     94  C   UNL     1       0.173 -13.184 -10.193  1.00  0.00     0.012 A 
ATOM     95  C   UNL     1      -1.232 -12.729 -12.126  1.00  0.00     0.148 A 
ATOM     96  C   UNL     1       0.723 -14.287 -10.844  1.00  0.00     0.002 A 
ATOM     97  C   UNL     1      -0.716 -13.860 -12.749  1.00  0.00     0.091 A 
ATOM     98  F   UNL     1      -2.146 -11.949 -12.721  1.00  0.00    -0.205 F 
ATOM     99  C   UNL     1       0.271 -14.632 -12.115  1.00  0.00     0.022 A 
BRANCH  97 100
ATOM    100  S   UNL     1      -1.300 -14.438 -14.346  1.00  0.00     0.127 S 
ATOM    101  O   UNL     1      -0.123 -14.227 -15.188  1.00  0.00    -0.237 OA
ATOM    102  O   UNL     1      -1.610 -15.841 -14.071  1.00  0.00    -0.237 OA
ATOM    103  O   UNL     1      -2.454 -13.613 -14.678  1.00  0.00    -0.744 OA
ENDBRANCH  97 100
ENDBRANCH  70  93
ENDBRANCH  44  45
ENDBRANCH  36  39
ENDBRANCH  34  35
ENDBRANCH  33  34
ENDBRANCH   1  33
TORSDOF 18
