REMARK SMILES CCC[C@H](CNC(=O)N1C[C@H]2CCC[N@H+]2C[C@@H]1C)C(=O)NCCCNC(=O)c1ccc(-c2c3nc(c(-c4cccc(S(=O)(=O)[O-])c4F)c4ccc([nH]4)c(-c4cccc(S(=O)(=O)[O-])c4F)c4nc(c(-c5cccc(S(=O)(=O)[O-])c5F)c5ccc2[nH]5)C=C4)C=C3)cc1
REMARK SMILES IDX 23 1 22 2 21 3 19 4 20 5 4 7 3 8 2 9 1 10 5 11 6 12 7 13
REMARK SMILES IDX 8 15 9 16 10 17 17 18 11 19 16 20 18 21 12 22 15 23 13 24
REMARK SMILES IDX 14 25 24 27 25 28 26 29 27 31 28 32 29 33 90 34 30 35 89 36
REMARK SMILES IDX 31 37 32 38 33 39 83 40 34 41 88 42 82 43 84 44 35 45 87 46
REMARK SMILES IDX 81 47 80 48 36 50 68 51 48 52 67 53 49 54 52 55 66 56 85 57
REMARK SMILES IDX 50 58 51 59 65 61 86 62 53 63 37 64 38 65 46 66 39 67 41 68
REMARK SMILES IDX 47 69 40 70 42 71 43 72 44 73 45 74 69 75 70 76 78 77 71 78
REMARK SMILES IDX 73 79 79 80 72 81 74 82 75 83 76 84 77 85 54 86 55 87 63 88
REMARK SMILES IDX 56 89 58 90 64 91 57 92 59 93 60 94 61 95 62 96
REMARK H PARENT 21 6 6 14 15 26 25 30 84 49 52 60
REMARK Flexibility Score: inf
ROOT
ATOM      1  C   UNL     1       0.549   5.870   1.462  1.00  0.00     0.042 C 
ENDROOT
BRANCH   1   2
ATOM      2  C   UNL     1      -0.168   5.259   0.275  1.00  0.00     0.117 C 
BRANCH   2   3
ATOM      3  N   UNL     1       0.718   5.026  -0.851  1.00  0.00    -0.356 N 
ATOM      4  C   UNL     1       0.905   3.899  -1.589  1.00  0.00     0.224 C 
ATOM      5  O   UNL     1       1.670   3.955  -2.554  1.00  0.00    -0.275 OA
ATOM      6  H   UNL     1       1.264   5.799  -1.122  1.00  0.00     0.163 HD
BRANCH   4   7
ATOM      7  C   UNL     1       0.238   2.592  -1.203  1.00  0.00     0.097 C 
BRANCH   7   8
ATOM      8  C   UNL     1      -1.303   2.501  -1.278  1.00  0.00     0.015 C 
BRANCH   8   9
ATOM      9  C   UNL     1      -2.178   3.677  -1.741  1.00  0.00    -0.003 C 
ATOM     10  C   UNL     1      -1.839   4.350  -3.061  1.00  0.00     0.004 C 
ENDBRANCH   8   9
ENDBRANCH   7   8
BRANCH   7  11
ATOM     11  C   UNL     1       0.922   2.163   0.111  1.00  0.00     0.131 C 
BRANCH  11  12
ATOM     12  N   UNL     1       0.459   0.944   0.723  1.00  0.00    -0.337 N 
ATOM     13  C   UNL     1       1.172  -0.104   1.194  1.00  0.00     0.318 C 
ATOM     14  H   UNL     1      -0.518   0.862   0.812  1.00  0.00     0.165 HD
ATOM     15  O   UNL     1       0.553  -1.155   1.373  1.00  0.00    -0.249 OA
BRANCH  13  16
ATOM     16  N   UNL     1       2.528  -0.006   1.355  1.00  0.00    -0.311 N 
ATOM     17  C   UNL     1       3.299  -1.193   1.016  1.00  0.00     0.186 C 
ATOM     18  C   UNL     1       3.313   1.143   1.896  1.00  0.00     0.139 C 
ATOM     19  C   UNL     1       4.267  -1.613   2.124  1.00  0.00     0.204 C 
ATOM     20  C   UNL     1       4.822   0.790   2.118  1.00  0.00     0.287 C 
ATOM     21  C   UNL     1       2.704   1.746   3.163  1.00  0.00     0.037 C 
ATOM     22  C   UNL     1       5.246  -2.673   1.623  1.00  0.00     0.073 C 
ATOM     23  N   UNL     1       5.095  -0.532   2.699  1.00  0.00    -0.329 N 
ATOM     24  C   UNL     1       6.490  -2.426   2.448  1.00  0.00     0.068 C 
ATOM     25  C   UNL     1       6.507  -0.914   2.575  1.00  0.00     0.262 C 
ATOM     26  H   UNL     1       4.850  -0.429   3.684  1.00  0.00     0.348 HD
ENDBRANCH  13  16
ENDBRANCH  11  12
ENDBRANCH   7  11
ENDBRANCH   4   7
ENDBRANCH   2   3
ENDBRANCH   1   2
BRANCH   1  27
ATOM     27  C   UNL     1       1.018   7.291   1.195  1.00  0.00     0.118 C 
BRANCH  27  28
ATOM     28  N   UNL     1      -0.085   8.195   0.883  1.00  0.00    -0.352 N 
ATOM     29  C   UNL     1      -0.498   9.327   1.538  1.00  0.00     0.251 C 
ATOM     30  H   UNL     1      -0.610   7.957   0.085  1.00  0.00     0.163 HD
ATOM     31  O   UNL     1      -1.577   9.841   1.252  1.00  0.00    -0.269 OA
BRANCH  29  32
ATOM     32  C   UNL     1       0.355   9.911   2.590  1.00  0.00     0.039 A 
ATOM     33  C   UNL     1      -0.232  10.377   3.768  1.00  0.00     0.014 A 
ATOM     34  C   UNL     1       1.739   9.981   2.415  1.00  0.00     0.014 A 
ATOM     35  C   UNL     1       0.582  10.858   4.794  1.00  0.00     0.010 A 
ATOM     36  C   UNL     1       2.550  10.351   3.478  1.00  0.00     0.010 A 
ATOM     37  C   UNL     1       1.981  10.816   4.671  1.00  0.00    -0.014 A 
BRANCH  37  38
ATOM     38  C   UNL     1       2.870  11.271   5.768  1.00  0.00     0.031 A 
ATOM     39  C   UNL     1       3.842  12.398   5.529  1.00  0.00     0.074 A 
ATOM     40  C   UNL     1       2.867  10.614   6.946  1.00  0.00     0.049 A 
ATOM     41  N   UNL     1       4.738  12.896   6.339  1.00  0.00    -0.248 NA
ATOM     42  C   UNL     1       3.835  13.024   4.194  1.00  0.00     0.031 C 
ATOM     43  C   UNL     1       2.042   9.445   7.263  1.00  0.00     0.029 A 
ATOM     44  N   UNL     1       3.603  10.816   8.085  1.00  0.00    -0.354 N 
ATOM     45  C   UNL     1       5.431  13.849   5.602  1.00  0.00     0.074 A 
ATOM     46  C   UNL     1       4.874  13.844   4.269  1.00  0.00     0.031 C 
ATOM     47  C   UNL     1       2.315   9.038   8.514  1.00  0.00     0.029 A 
ATOM     48  C   UNL     1       3.355   9.893   9.075  1.00  0.00     0.049 A 
ATOM     49  H   UNL     1       4.249  11.553   8.186  1.00  0.00     0.167 HD
ATOM     50  C   UNL     1       6.423  14.674   6.006  1.00  0.00     0.034 A 
ATOM     51  C   UNL     1       3.913   9.746  10.293  1.00  0.00     0.034 A 
ATOM     52  C   UNL     1       6.926  14.723   7.350  1.00  0.00     0.049 A 
ATOM     53  C   UNL     1       4.958  10.733  10.738  1.00  0.00     0.074 A 
ATOM     54  C   UNL     1       7.841  15.608   7.891  1.00  0.00     0.029 A 
ATOM     55  N   UNL     1       6.566  13.849   8.361  1.00  0.00    -0.354 N 
ATOM     56  N   UNL     1       5.466  11.748  10.083  1.00  0.00    -0.248 NA
ATOM     57  C   UNL     1       5.475  10.583  12.106  1.00  0.00     0.031 C 
ATOM     58  C   UNL     1       8.062  15.245   9.222  1.00  0.00     0.029 A 
ATOM     59  C   UNL     1       7.251  14.163   9.521  1.00  0.00     0.049 A 
ATOM     60  H   UNL     1       5.918  13.113   8.269  1.00  0.00     0.167 HD
ATOM     61  C   UNL     1       6.327  12.382  10.971  1.00  0.00     0.074 A 
ATOM     62  C   UNL     1       6.254  11.650  12.218  1.00  0.00     0.031 C 
ATOM     63  C   UNL     1       7.119  13.464  10.771  1.00  0.00     0.034 A 
BRANCH  50  64
ATOM     64  C   UNL     1       7.010  15.630   5.002  1.00  0.00     0.023 A 
ATOM     65  C   UNL     1       6.262  16.743   4.570  1.00  0.00     0.012 A 
ATOM     66  C   UNL     1       8.343  15.480   4.571  1.00  0.00     0.148 A 
ATOM     67  C   UNL     1       6.825  17.683   3.708  1.00  0.00     0.002 A 
ATOM     68  C   UNL     1       8.912  16.446   3.751  1.00  0.00     0.091 A 
ATOM     69  F   UNL     1       9.028  14.402   4.977  1.00  0.00    -0.205 F 
ATOM     70  C   UNL     1       8.152  17.542   3.311  1.00  0.00     0.022 A 
BRANCH  68  71
ATOM     71  S   UNL     1      10.638  16.405   3.257  1.00  0.00     0.127 S 
ATOM     72  O   UNL     1      10.526  16.215   1.811  1.00  0.00    -0.237 OA
ATOM     73  O   UNL     1      11.103  17.730   3.665  1.00  0.00    -0.237 OA
ATOM     74  O   UNL     1      11.241  15.295   3.982  1.00  0.00    -0.744 OA
ENDBRANCH  68  71
ENDBRANCH  50  64
BRANCH  51  75
ATOM     75  C   UNL     1       3.470   8.649  11.200  1.00  0.00     0.023 A 
ATOM     76  C   UNL     1       2.778   8.960  12.388  1.00  0.00     0.012 A 
ATOM     77  C   UNL     1       3.744   7.301  10.900  1.00  0.00     0.148 A 
ATOM     78  C   UNL     1       2.417   7.954  13.286  1.00  0.00     0.002 A 
ATOM     79  C   UNL     1       3.327   6.300  11.769  1.00  0.00     0.091 A 
ATOM     80  F   UNL     1       4.411   7.024   9.771  1.00  0.00    -0.205 F 
ATOM     81  C   UNL     1       2.684   6.624  12.973  1.00  0.00     0.022 A 
BRANCH  79  82
ATOM     82  S   UNL     1       3.510   4.558  11.374  1.00  0.00     0.127 S 
ATOM     83  O   UNL     1       4.617   4.169  12.244  1.00  0.00    -0.237 OA
ATOM     84  O   UNL     1       2.205   4.020  11.758  1.00  0.00    -0.237 OA
ATOM     85  O   UNL     1       3.777   4.511   9.942  1.00  0.00    -0.744 OA
ENDBRANCH  79  82
ENDBRANCH  51  75
BRANCH  63  86
ATOM     86  C   UNL     1       7.923  13.968  11.939  1.00  0.00     0.023 A 
ATOM     87  C   UNL     1       9.024  13.229  12.413  1.00  0.00     0.012 A 
ATOM     88  C   UNL     1       7.622  15.215  12.522  1.00  0.00     0.148 A 
ATOM     89  C   UNL     1       9.788  13.704  13.479  1.00  0.00     0.002 A 
ATOM     90  C   UNL     1       8.422  15.708  13.544  1.00  0.00     0.091 A 
ATOM     91  F   UNL     1       6.559  15.895  12.067  1.00  0.00    -0.205 F 
ATOM     92  C   UNL     1       9.495  14.947  14.035  1.00  0.00     0.022 A 
BRANCH  90  93
ATOM     93  S   UNL     1       8.180  17.344  14.245  1.00  0.00     0.127 S 
ATOM     94  O   UNL     1       7.610  17.026  15.553  1.00  0.00    -0.237 OA
ATOM     95  O   UNL     1       9.546  17.868  14.286  1.00  0.00    -0.237 OA
ATOM     96  O   UNL     1       7.292  18.046  13.329  1.00  0.00    -0.744 OA
ENDBRANCH  90  93
ENDBRANCH  63  86
ENDBRANCH  37  38
ENDBRANCH  29  32
ENDBRANCH  27  28
ENDBRANCH   1  27
TORSDOF 18
