REMARK SMILES CC(=O)NCCc1c[nH]c2ccc(C(=O)NCCCNC(=O)c3ccc(-c4c5nc(c(-c6cccc(S(=O)(=O)[O-])c6F)c6ccc([nH]6)c(-c6cccc(S(=O)(=O)[O-])c6F)c6nc(c(-c7cccc(S(=O)(=O)[O-])c7F)c7ccc4[nH]7)C=C6)C=C5)cc3)cc12
REMARK SMILES IDX 18 1 17 2 16 3 14 4 15 5 13 7 7 8 8 9 87 10 9 11 10 12 86 13
REMARK SMILES IDX 11 15 12 16 6 17 5 18 4 19 1 20 2 21 3 22 19 24 20 25 21 26
REMARK SMILES IDX 22 28 23 29 24 30 85 31 25 32 84 33 26 34 27 35 28 36 78 37
REMARK SMILES IDX 29 38 83 39 77 40 79 41 30 42 82 43 76 44 75 45 31 47 63 48
REMARK SMILES IDX 43 49 62 50 44 51 47 52 61 53 80 54 45 55 46 56 60 58 81 59
REMARK SMILES IDX 48 60 32 61 33 62 41 63 34 64 36 65 42 66 35 67 37 68 38 69
REMARK SMILES IDX 39 70 40 71 64 72 65 73 73 74 66 75 68 76 74 77 67 78 69 79
REMARK SMILES IDX 70 80 71 81 72 82 49 83 50 84 58 85 51 86 53 87 59 88 52 89
REMARK SMILES IDX 54 90 55 91 56 92 57 93
REMARK H PARENT 16 6 9 14 4 23 20 27 79 46 47 57
REMARK Flexibility Score: inf
ROOT
ATOM      1  C   UNL     1       1.044   0.377   9.766  1.00  0.00     0.042 C 
ENDROOT
BRANCH   1   2
ATOM      2  C   UNL     1       0.135   0.219   8.548  1.00  0.00     0.118 C 
BRANCH   2   3
ATOM      3  N   UNL     1       0.729   0.839   7.381  1.00  0.00    -0.352 N 
ATOM      4  C   UNL     1       1.474   0.352   6.341  1.00  0.00     0.251 C 
ATOM      5  O   UNL     1       1.864   1.171   5.507  1.00  0.00    -0.269 OA
ATOM      6  H   UNL     1       0.563   1.808   7.325  1.00  0.00     0.163 HD
BRANCH   4   7
ATOM      7  C   UNL     1       1.781  -1.092   6.135  1.00  0.00     0.040 A 
ATOM      8  C   UNL     1       2.658  -3.499   3.275  1.00  0.00    -0.021 A 
ATOM      9  C   UNL     1       2.791  -4.837   3.597  1.00  0.00     0.087 A 
ATOM     10  C   UNL     1       2.323  -2.817   4.487  1.00  0.00     0.003 A 
ATOM     11  N   UNL     1       2.583  -4.979   4.944  1.00  0.00    -0.361 N 
ATOM     12  C   UNL     1       2.317  -3.756   5.514  1.00  0.00     0.046 A 
ATOM     13  C   UNL     1       2.044  -1.474   4.806  1.00  0.00     0.024 A 
ATOM     14  H   UNL     1       2.618  -5.832   5.433  1.00  0.00     0.166 HD
ATOM     15  C   UNL     1       2.100  -3.408   6.850  1.00  0.00     0.027 A 
ATOM     16  C   UNL     1       1.862  -2.056   7.141  1.00  0.00     0.016 A 
BRANCH   8  17
ATOM     17  C   UNL     1       2.864  -2.875   1.928  1.00  0.00     0.059 C 
BRANCH  17  18
ATOM     18  C   UNL     1       1.575  -2.733   1.115  1.00  0.00     0.120 C 
BRANCH  18  19
ATOM     19  N   UNL     1       0.659  -1.745   1.663  1.00  0.00    -0.356 N 
ATOM     20  C   UNL     1       0.992  -0.050  -0.090  1.00  0.00     0.114 C 
ATOM     21  C   UNL     1       0.332  -0.515   1.177  1.00  0.00     0.216 C 
ATOM     22  O   UNL     1      -0.503   0.172   1.762  1.00  0.00    -0.275 OA
ATOM     23  H   UNL     1       0.212  -2.002   2.502  1.00  0.00     0.163 HD
ENDBRANCH  18  19
ENDBRANCH  17  18
ENDBRANCH   8  17
ENDBRANCH   4   7
ENDBRANCH   2   3
ENDBRANCH   1   2
BRANCH   1  24
ATOM     24  C   UNL     1       1.064   1.802  10.317  1.00  0.00     0.118 C 
BRANCH  24  25
ATOM     25  N   UNL     1      -0.213   2.164  10.918  1.00  0.00    -0.352 N 
ATOM     26  C   UNL     1      -0.507   2.539  12.204  1.00  0.00     0.251 C 
ATOM     27  H   UNL     1      -0.984   2.134  10.306  1.00  0.00     0.163 HD
ATOM     28  O   UNL     1      -1.679   2.553  12.572  1.00  0.00    -0.269 OA
BRANCH  26  29
ATOM     29  C   UNL     1       0.568   2.926  13.144  1.00  0.00     0.039 A 
ATOM     30  C   UNL     1       0.463   2.540  14.484  1.00  0.00     0.014 A 
ATOM     31  C   UNL     1       1.642   3.718  12.728  1.00  0.00     0.014 A 
ATOM     32  C   UNL     1       1.453   2.916  15.396  1.00  0.00     0.010 A 
ATOM     33  C   UNL     1       2.664   4.030  13.622  1.00  0.00     0.010 A 
ATOM     34  C   UNL     1       2.572   3.647  14.968  1.00  0.00    -0.014 A 
BRANCH  34  35
ATOM     35  C   UNL     1       3.652   4.028  15.915  1.00  0.00     0.031 A 
ATOM     36  C   UNL     1       3.933   5.479  16.202  1.00  0.00     0.074 A 
ATOM     37  C   UNL     1       4.432   3.069  16.451  1.00  0.00     0.049 A 
ATOM     38  N   UNL     1       4.866   6.006  16.952  1.00  0.00    -0.248 NA
ATOM     39  C   UNL     1       3.070   6.471  15.537  1.00  0.00     0.031 C 
ATOM     40  C   UNL     1       4.309   1.634  16.188  1.00  0.00     0.029 A 
ATOM     41  N   UNL     1       5.500   3.158  17.308  1.00  0.00    -0.354 N 
ATOM     42  C   UNL     1       4.729   7.383  16.820  1.00  0.00     0.074 A 
ATOM     43  C   UNL     1       3.644   7.612  15.891  1.00  0.00     0.031 C 
ATOM     44  C   UNL     1       5.261   0.978  16.869  1.00  0.00     0.029 A 
ATOM     45  C   UNL     1       6.078   1.944  17.597  1.00  0.00     0.049 A 
ATOM     46  H   UNL     1       5.822   4.011  17.681  1.00  0.00     0.167 HD
ATOM     47  C   UNL     1       5.423   8.369  17.437  1.00  0.00     0.034 A 
ATOM     48  C   UNL     1       7.148   1.643  18.358  1.00  0.00     0.034 A 
ATOM     49  C   UNL     1       6.468   8.135  18.397  1.00  0.00     0.049 A 
ATOM     50  C   UNL     1       7.866   2.754  19.077  1.00  0.00     0.074 A 
ATOM     51  C   UNL     1       7.174   9.062  19.145  1.00  0.00     0.029 A 
ATOM     52  N   UNL     1       6.961   6.886  18.741  1.00  0.00    -0.354 N 
ATOM     53  N   UNL     1       7.619   4.042  19.062  1.00  0.00    -0.248 NA
ATOM     54  C   UNL     1       8.984   2.368  19.949  1.00  0.00     0.031 C 
ATOM     55  C   UNL     1       8.105   8.372  19.929  1.00  0.00     0.029 A 
ATOM     56  C   UNL     1       7.962   7.015  19.687  1.00  0.00     0.049 A 
ATOM     57  H   UNL     1       6.644   6.032  18.367  1.00  0.00     0.167 HD
ATOM     58  C   UNL     1       8.522   4.614  19.950  1.00  0.00     0.074 A 
ATOM     59  C   UNL     1       9.309   3.529  20.501  1.00  0.00     0.031 C 
ATOM     60  C   UNL     1       8.696   5.920  20.269  1.00  0.00     0.034 A 
BRANCH  47  61
ATOM     61  C   UNL     1       5.033   9.794  17.138  1.00  0.00     0.023 A 
ATOM     62  C   UNL     1       3.810  10.296  17.628  1.00  0.00     0.012 A 
ATOM     63  C   UNL     1       5.894  10.652  16.426  1.00  0.00     0.148 A 
ATOM     64  C   UNL     1       3.432  11.616  17.383  1.00  0.00     0.002 A 
ATOM     65  C   UNL     1       5.531  11.980  16.224  1.00  0.00     0.091 A 
ATOM     66  F   UNL     1       7.045  10.155  15.950  1.00  0.00    -0.205 F 
ATOM     67  C   UNL     1       4.296  12.459  16.690  1.00  0.00     0.022 A 
BRANCH  65  68
ATOM     68  S   UNL     1       6.609  13.168  15.416  1.00  0.00     0.127 S 
ATOM     69  O   UNL     1       5.925  13.367  14.139  1.00  0.00    -0.237 OA
ATOM     70  O   UNL     1       6.545  14.312  16.326  1.00  0.00    -0.237 OA
ATOM     71  O   UNL     1       7.917  12.533  15.333  1.00  0.00    -0.744 OA
ENDBRANCH  65  68
ENDBRANCH  47  61
BRANCH  48  72
ATOM     72  C   UNL     1       7.554   0.221  18.543  1.00  0.00     0.023 A 
ATOM     73  C   UNL     1       7.356  -0.395  19.795  1.00  0.00     0.012 A 
ATOM     74  C   UNL     1       8.103  -0.532  17.487  1.00  0.00     0.148 A 
ATOM     75  C   UNL     1       7.727  -1.723  20.002  1.00  0.00     0.002 A 
ATOM     76  C   UNL     1       8.419  -1.872  17.684  1.00  0.00     0.091 A 
ATOM     77  F   UNL     1       8.294   0.074  16.307  1.00  0.00    -0.205 F 
ATOM     78  C   UNL     1       8.249  -2.464  18.945  1.00  0.00     0.022 A 
BRANCH  76  79
ATOM     79  S   UNL     1       8.969  -2.937  16.346  1.00  0.00     0.127 S 
ATOM     80  O   UNL     1      10.380  -3.122  16.670  1.00  0.00    -0.237 OA
ATOM     81  O   UNL     1       8.132  -4.122  16.538  1.00  0.00    -0.237 OA
ATOM     82  O   UNL     1       8.689  -2.201  15.120  1.00  0.00    -0.744 OA
ENDBRANCH  76  79
ENDBRANCH  48  72
BRANCH  60  83
ATOM     83  C   UNL     1       9.750   6.254  21.292  1.00  0.00     0.023 A 
ATOM     84  C   UNL     1      11.113   6.161  20.950  1.00  0.00     0.012 A 
ATOM     85  C   UNL     1       9.387   6.728  22.568  1.00  0.00     0.148 A 
ATOM     86  C   UNL     1      12.100   6.502  21.874  1.00  0.00     0.002 A 
ATOM     87  C   UNL     1      10.375   7.112  23.467  1.00  0.00     0.091 A 
ATOM     88  F   UNL     1       8.085   6.789  22.882  1.00  0.00    -0.205 F 
ATOM     89  C   UNL     1      11.732   6.989  23.126  1.00  0.00     0.022 A 
BRANCH  87  90
ATOM     90  S   UNL     1       9.989   7.840  25.063  1.00  0.00     0.127 S 
ATOM     91  O   UNL     1      10.287   6.737  25.974  1.00  0.00    -0.237 OA
ATOM     92  O   UNL     1      10.930   8.959  25.132  1.00  0.00    -0.237 OA
ATOM     93  O   UNL     1       8.589   8.236  24.994  1.00  0.00    -0.744 OA
ENDBRANCH  87  90
ENDBRANCH  60  83
ENDBRANCH  34  35
ENDBRANCH  26  29
ENDBRANCH  24  25
ENDBRANCH   1  24
TORSDOF 16
