REMARK SMILES N#Cc1ccccc1C[C@@H](NC(=O)OCC1c2ccccc2-c2ccccc21)C(=O)NCCCNC(=O)c1ccc(-c2c3nc(c(-c4cccc(S(=O)(=O)[O-])c4F)c4ccc([nH]4)c(-c4cccc(S(=O)(=O)[O-])c4F)c4nc(c(-c5cccc(S(=O)(=O)[O-])c5F)c5ccc2[nH]5)C=C4)C=C3)cc1
REMARK SMILES IDX 32 1 31 2 29 3 30 4 10 6 9 7 8 8 3 9 4 10 5 11 7 12 6 13
REMARK SMILES IDX 2 14 1 15 11 16 12 17 13 19 14 20 15 21 16 22 17 23 28 24
REMARK SMILES IDX 18 25 22 26 23 27 27 28 19 29 21 30 24 31 26 32 20 33 25 34
REMARK SMILES IDX 33 35 34 36 35 37 36 38 37 40 38 41 39 42 100 43 40 44 99 45
REMARK SMILES IDX 41 46 42 47 43 48 93 49 44 50 98 51 92 52 94 53 45 54 97 55
REMARK SMILES IDX 91 56 90 57 46 59 78 60 58 61 77 62 59 63 62 64 76 65 95 66
REMARK SMILES IDX 60 67 61 68 75 70 96 71 63 72 47 73 48 74 56 75 49 76 51 77
REMARK SMILES IDX 57 78 50 79 52 80 53 81 54 82 55 83 79 84 80 85 88 86 81 87
REMARK SMILES IDX 83 88 89 89 82 90 84 91 85 92 86 93 87 94 64 95 65 96 73 97
REMARK SMILES IDX 66 98 68 99 74 100 67 101 69 102 70 103 71 104 72 105
REMARK H PARENT 31 5 11 18 35 39 94 58 62 69
REMARK Flexibility Score: inf
ROOT
ATOM      1  C   UNL     1      -0.157  -5.341   0.917  1.00  0.00     0.117 C 
ENDROOT
BRANCH   1   2
ATOM      2  N   UNL     1      -1.098  -5.298  -0.196  1.00  0.00    -0.354 N 
ATOM      3  C   UNL     1      -1.119  -4.463  -1.282  1.00  0.00     0.243 C 
ATOM      4  O   UNL     1      -1.922  -4.691  -2.188  1.00  0.00    -0.273 OA
ATOM      5  H   UNL     1      -1.821  -5.966  -0.164  1.00  0.00     0.163 HD
BRANCH   3   6
ATOM      6  C   UNL     1      -0.170  -3.249  -1.333  1.00  0.00     0.179 C 
BRANCH   6   7
ATOM      7  C   UNL     1      -0.540  -2.295  -0.156  1.00  0.00     0.072 C 
BRANCH   7   8
ATOM      8  C   UNL     1       0.191  -0.967  -0.084  1.00  0.00    -0.028 A 
ATOM      9  C   UNL     1      -0.480   0.268  -0.187  1.00  0.00     0.055 A 
ATOM     10  C   UNL     1       0.245   1.467  -0.112  1.00  0.00     0.020 A 
ATOM     11  C   UNL     1       1.626   1.453   0.074  1.00  0.00     0.001 A 
ATOM     12  C   UNL     1       1.571  -0.952   0.194  1.00  0.00     0.005 A 
ATOM     13  C   UNL     1       2.288   0.243   0.238  1.00  0.00     0.000 A 
BRANCH   9  14
ATOM     14  C   UNL     1      -1.910   0.353  -0.324  1.00  0.00     0.099 C 
ATOM     15  N   UNL     1      -3.059   0.418  -0.438  1.00  0.00    -0.192 NA
ENDBRANCH   9  14
ENDBRANCH   7   8
ENDBRANCH   6   7
BRANCH   6  16
ATOM     16  N   UNL     1       1.256  -3.586  -1.430  1.00  0.00    -0.309 N 
ATOM     17  C   UNL     1       1.841  -4.797  -1.218  1.00  0.00     0.407 C 
ATOM     18  H   UNL     1       1.861  -2.849  -1.677  1.00  0.00     0.167 HD
ATOM     19  O   UNL     1       2.889  -4.883  -0.594  1.00  0.00    -0.225 OA
BRANCH  17  20
ATOM     20  O   UNL     1       1.173  -5.819  -1.805  1.00  0.00    -0.449 OA
BRANCH  20  21
ATOM     21  C   UNL     1       1.740  -7.137  -1.664  1.00  0.00     0.248 C 
BRANCH  21  22
ATOM     22  C   UNL     1       2.534  -7.548  -2.916  1.00  0.00     0.088 C 
ATOM     23  C   UNL     1       3.793  -6.701  -3.078  1.00  0.00    -0.029 A 
ATOM     24  C   UNL     1       3.133  -8.939  -2.730  1.00  0.00    -0.029 A 
ATOM     25  C   UNL     1       3.886  -5.352  -3.385  1.00  0.00     0.005 A 
ATOM     26  C   UNL     1       4.934  -7.465  -2.770  1.00  0.00    -0.014 A 
ATOM     27  C   UNL     1       4.540  -8.850  -2.630  1.00  0.00    -0.014 A 
ATOM     28  C   UNL     1       2.480 -10.160  -2.656  1.00  0.00     0.005 A 
ATOM     29  C   UNL     1       5.117  -4.723  -3.214  1.00  0.00     0.000 A 
ATOM     30  C   UNL     1       6.164  -6.846  -2.626  1.00  0.00     0.009 A 
ATOM     31  C   UNL     1       5.307  -9.992  -2.477  1.00  0.00     0.009 A 
ATOM     32  C   UNL     1       3.256 -11.311  -2.499  1.00  0.00     0.000 A 
ATOM     33  C   UNL     1       6.242  -5.461  -2.815  1.00  0.00     0.001 A 
ATOM     34  C   UNL     1       4.656 -11.228  -2.417  1.00  0.00     0.001 A 
ENDBRANCH  21  22
ENDBRANCH  20  21
ENDBRANCH  17  20
ENDBRANCH   6  16
ENDBRANCH   3   6
ENDBRANCH   1   2
BRANCH   1  35
ATOM     35  C   UNL     1      -0.857  -5.363   2.255  1.00  0.00     0.042 C 
BRANCH  35  36
ATOM     36  C   UNL     1      -1.550  -6.688   2.494  1.00  0.00     0.118 C 
BRANCH  36  37
ATOM     37  N   UNL     1      -0.609  -7.804   2.565  1.00  0.00    -0.352 N 
ATOM     38  C   UNL     1      -0.388  -8.685   3.593  1.00  0.00     0.251 C 
ATOM     39  H   UNL     1      -0.056  -7.943   1.762  1.00  0.00     0.163 HD
ATOM     40  O   UNL     1       0.575  -9.445   3.563  1.00  0.00    -0.269 OA
BRANCH  38  41
ATOM     41  C   UNL     1      -1.315  -8.685   4.738  1.00  0.00     0.039 A 
ATOM     42  C   UNL     1      -0.800  -8.717   6.033  1.00  0.00     0.014 A 
ATOM     43  C   UNL     1      -2.691  -8.582   4.519  1.00  0.00     0.014 A 
ATOM     44  C   UNL     1      -1.670  -8.579   7.112  1.00  0.00     0.010 A 
ATOM     45  C   UNL     1      -3.533  -8.312   5.585  1.00  0.00     0.010 A 
ATOM     46  C   UNL     1      -3.036  -8.331   6.894  1.00  0.00    -0.014 A 
BRANCH  46  47
ATOM     47  C   UNL     1      -3.967  -8.103   8.024  1.00  0.00     0.031 A 
ATOM     48  C   UNL     1      -5.151  -9.013   8.216  1.00  0.00     0.074 A 
ATOM     49  C   UNL     1      -3.789  -7.036   8.828  1.00  0.00     0.049 A 
ATOM     50  N   UNL     1      -6.094  -8.953   9.117  1.00  0.00    -0.248 NA
ATOM     51  C   UNL     1      -5.316 -10.116   7.251  1.00  0.00     0.031 C 
ATOM     52  C   UNL     1      -2.729  -6.035   8.687  1.00  0.00     0.029 A 
ATOM     53  N   UNL     1      -4.511  -6.603   9.911  1.00  0.00    -0.354 N 
ATOM     54  C   UNL     1      -6.981  -9.976   8.806  1.00  0.00     0.074 A 
ATOM     55  C   UNL     1      -6.487 -10.618   7.610  1.00  0.00     0.031 C 
ATOM     56  C   UNL     1      -2.861  -5.114   9.654  1.00  0.00     0.029 A 
ATOM     57  C   UNL     1      -4.038  -5.431  10.455  1.00  0.00     0.049 A 
ATOM     58  H   UNL     1      -5.293  -7.084  10.265  1.00  0.00     0.167 HD
ATOM     59  C   UNL     1      -8.092 -10.364   9.471  1.00  0.00     0.034 A 
ATOM     60  C   UNL     1      -4.511  -4.687  11.473  1.00  0.00     0.034 A 
ATOM     61  C   UNL     1      -8.559  -9.742  10.679  1.00  0.00     0.049 A 
ATOM     62  C   UNL     1      -5.732  -5.160  12.213  1.00  0.00     0.074 A 
ATOM     63  C   UNL     1      -9.617 -10.121  11.484  1.00  0.00     0.029 A 
ATOM     64  N   UNL     1      -8.013  -8.601  11.242  1.00  0.00    -0.354 N 
ATOM     65  N   UNL     1      -6.463  -6.227  12.002  1.00  0.00    -0.248 NA
ATOM     66  C   UNL     1      -6.173  -4.346  13.354  1.00  0.00     0.031 C 
ATOM     67  C   UNL     1      -9.746  -9.175  12.505  1.00  0.00     0.029 A 
ATOM     68  C   UNL     1      -8.728  -8.245  12.372  1.00  0.00     0.049 A 
ATOM     69  H   UNL     1      -7.232  -8.115  10.891  1.00  0.00     0.167 HD
ATOM     70  C   UNL     1      -7.426  -6.233  13.004  1.00  0.00     0.074 A 
ATOM     71  C   UNL     1      -7.170  -5.075  13.835  1.00  0.00     0.031 C 
ATOM     72  C   UNL     1      -8.437  -7.113  13.213  1.00  0.00     0.034 A 
BRANCH  59  73
ATOM     73  C   UNL     1      -8.873 -11.529   8.921  1.00  0.00     0.023 A 
ATOM     74  C   UNL     1      -8.331 -12.829   8.967  1.00  0.00     0.012 A 
ATOM     75  C   UNL     1     -10.174 -11.340   8.418  1.00  0.00     0.148 A 
ATOM     76  C   UNL     1      -9.058 -13.919   8.490  1.00  0.00     0.002 A 
ATOM     77  C   UNL     1     -10.914 -12.436   7.995  1.00  0.00     0.091 A 
ATOM     78  F   UNL     1     -10.662 -10.093   8.361  1.00  0.00    -0.205 F 
ATOM     79  C   UNL     1     -10.353 -13.724   8.017  1.00  0.00     0.022 A 
BRANCH  77  80
ATOM     80  S   UNL     1     -12.619 -12.302   7.451  1.00  0.00     0.127 S 
ATOM     81  O   UNL     1     -12.505 -12.656   6.036  1.00  0.00    -0.237 OA
ATOM     82  O   UNL     1     -13.283 -13.309   8.280  1.00  0.00    -0.237 OA
ATOM     83  O   UNL     1     -13.023 -10.929   7.717  1.00  0.00    -0.744 OA
ENDBRANCH  77  80
ENDBRANCH  59  73
BRANCH  60  84
ATOM     84  C   UNL     1      -3.814  -3.431  11.870  1.00  0.00     0.023 A 
ATOM     85  C   UNL     1      -3.157  -3.354  13.113  1.00  0.00     0.012 A 
ATOM     86  C   UNL     1      -3.795  -2.313  11.013  1.00  0.00     0.148 A 
ATOM     87  C   UNL     1      -2.534  -2.172  13.516  1.00  0.00     0.002 A 
ATOM     88  C   UNL     1      -3.119  -1.160  11.393  1.00  0.00     0.091 A 
ATOM     89  F   UNL     1      -4.430  -2.405   9.836  1.00  0.00    -0.205 F 
ATOM     90  C   UNL     1      -2.507  -1.079  12.653  1.00  0.00     0.022 A 
BRANCH  88  91
ATOM     91  S   UNL     1      -2.921   0.245  10.294  1.00  0.00     0.127 S 
ATOM     92  O   UNL     1      -3.734   1.261  10.958  1.00  0.00    -0.237 OA
ATOM     93  O   UNL     1      -1.477   0.472  10.356  1.00  0.00    -0.237 OA
ATOM     94  O   UNL     1      -3.404  -0.199   8.994  1.00  0.00    -0.744 OA
ENDBRANCH  88  91
ENDBRANCH  60  84
BRANCH  72  95
ATOM     95  C   UNL     1      -9.314  -6.896  14.418  1.00  0.00     0.023 A 
ATOM     96  C   UNL     1     -10.211  -5.811  14.460  1.00  0.00     0.012 A 
ATOM     97  C   UNL     1      -9.293  -7.818  15.483  1.00  0.00     0.148 A 
ATOM     98  C   UNL     1     -11.042  -5.623  15.564  1.00  0.00     0.002 A 
ATOM     99  C   UNL     1     -10.165  -7.658  16.551  1.00  0.00     0.091 A 
ATOM    100  F   UNL     1      -8.422  -8.837  15.429  1.00  0.00    -0.205 F 
ATOM    101  C   UNL     1     -11.028  -6.552  16.602  1.00  0.00     0.022 A 
BRANCH  99 102
ATOM    102  S   UNL     1     -10.289  -8.858  17.881  1.00  0.00     0.127 S 
ATOM    103  O   UNL     1      -9.739  -8.109  19.009  1.00  0.00    -0.237 OA
ATOM    104  O   UNL     1     -11.732  -9.093  17.949  1.00  0.00    -0.237 OA
ATOM    105  O   UNL     1      -9.506 -10.012  17.460  1.00  0.00    -0.744 OA
ENDBRANCH  99 102
ENDBRANCH  72  95
ENDBRANCH  46  47
ENDBRANCH  38  41
ENDBRANCH  36  37
ENDBRANCH  35  36
ENDBRANCH   1  35
TORSDOF 20
