REMARK SMILES C[C@@H]1CCC[N@@H+]([C@@H]2CCC[C@]([NH3+])(C(=O)NCCCNC(=O)c3ccc(-c4c5nc(c(-c6cccc(S(=O)(=O)[O-])c6F)c6ccc([nH]6)c(-c6cccc(S(=O)(=O)[O-])c6F)c6nc(c(-c7cccc(S(=O)(=O)[O-])c7F)c7ccc4[nH]7)C=C6)C=C5)cc3)C2)C1
REMARK SMILES IDX 18 1 17 2 16 3 15 4 13 5 14 6 11 8 7 9 8 10 85 11 9 12 10 13
REMARK SMILES IDX 6 14 1 15 2 16 3 17 86 18 4 19 5 20 12 22 19 26 20 27 21 29
REMARK SMILES IDX 22 30 23 31 84 32 24 33 83 34 25 35 26 36 27 37 77 38 28 39
REMARK SMILES IDX 82 40 76 41 78 42 29 43 81 44 75 45 74 46 30 48 62 49 42 50
REMARK SMILES IDX 61 51 43 52 46 53 60 54 79 55 44 56 45 57 59 59 80 60 47 61
REMARK SMILES IDX 31 62 32 63 40 64 33 65 35 66 41 67 34 68 36 69 37 70 38 71
REMARK SMILES IDX 39 72 63 73 64 74 72 75 65 76 67 77 73 78 66 79 68 80 69 81
REMARK SMILES IDX 70 82 71 83 48 84 49 85 57 86 50 87 52 88 58 89 51 90 53 91
REMARK SMILES IDX 54 92 55 93 56 94
REMARK H PARENT 15 7 6 21 12 23 12 24 12 25 19 28 78 47 46 58
REMARK Flexibility Score: inf
ROOT
ATOM      1  C   UNL     1       4.878   2.440  -8.352  1.00  0.00     0.118 C 
ENDROOT
BRANCH   1   2
ATOM      2  C   UNL     1       3.544   2.337  -7.643  1.00  0.00     0.042 C 
BRANCH   2   3
ATOM      3  C   UNL     1       3.458   1.127  -6.736  1.00  0.00     0.118 C 
BRANCH   3   4
ATOM      4  N   UNL     1       4.363   1.211  -5.595  1.00  0.00    -0.351 N 
ATOM      5  C   UNL     1       4.107   1.213  -4.247  1.00  0.00     0.281 C 
ATOM      6  O   UNL     1       5.067   1.259  -3.477  1.00  0.00    -0.268 OA
ATOM      7  H   UNL     1       5.317   1.276  -5.831  1.00  0.00     0.163 HD
BRANCH   5   8
ATOM      8  C   UNL     1       2.637   1.183  -3.753  1.00  0.00     0.179 C 
ATOM      9  C   UNL     1       1.038   1.069  -1.737  1.00  0.00     0.190 C 
ATOM     10  C   UNL     1       0.169   0.081  -2.554  1.00  0.00     0.065 C 
ATOM     11  C   UNL     1       2.521   1.155  -2.210  1.00  0.00     0.144 C 
ATOM     12  C   UNL     1       0.482  -0.066  -4.029  1.00  0.00     0.013 C 
ATOM     13  C   UNL     1       1.976  -0.128  -4.231  1.00  0.00     0.079 C 
BRANCH   9  14
ATOM     14  N   UNL     1       0.898   0.942  -0.264  1.00  0.00    -0.332 N 
ATOM     15  C   UNL     1      -2.665  -0.049   0.843  1.00  0.00     0.013 C 
ATOM     16  C   UNL     1      -1.287  -0.254   0.218  1.00  0.00     0.041 C 
ATOM     17  C   UNL     1      -0.523  -1.397   0.895  1.00  0.00     0.015 C 
ATOM     18  C   UNL     1      -0.479   1.059   0.234  1.00  0.00     0.265 C 
ATOM     19  C   UNL     1       0.929  -1.487   0.428  1.00  0.00     0.062 C 
ATOM     20  C   UNL     1       1.622  -0.125   0.427  1.00  0.00     0.262 C 
ATOM     21  H   UNL     1       1.415   1.780   0.004  1.00  0.00     0.348 HD
ENDBRANCH   9  14
BRANCH   8  22
ATOM     22  N   UNL     1       1.975   2.434  -4.202  1.00  0.00    -0.345 N 
ATOM     23  H   UNL     1       1.004   2.437  -3.888  1.00  0.00     0.345 HD
ATOM     24  H   UNL     1       2.003   2.487  -5.220  1.00  0.00     0.345 HD
ATOM     25  H   UNL     1       2.463   3.237  -3.806  1.00  0.00     0.345 HD
ENDBRANCH   8  22
ENDBRANCH   5   8
ENDBRANCH   3   4
ENDBRANCH   2   3
ENDBRANCH   1   2
BRANCH   1  26
ATOM     26  N   UNL     1       5.130   1.297  -9.224  1.00  0.00    -0.352 N 
ATOM     27  C   UNL     1       5.207   1.239 -10.596  1.00  0.00     0.251 C 
ATOM     28  H   UNL     1       5.266   0.439  -8.760  1.00  0.00     0.163 HD
ATOM     29  O   UNL     1       5.204   0.158 -11.166  1.00  0.00    -0.269 OA
BRANCH  27  30
ATOM     30  C   UNL     1       5.275   2.498 -11.366  1.00  0.00     0.039 A 
ATOM     31  C   UNL     1       4.517   2.634 -12.530  1.00  0.00     0.014 A 
ATOM     32  C   UNL     1       6.069   3.552 -10.912  1.00  0.00     0.014 A 
ATOM     33  C   UNL     1       4.501   3.861 -13.197  1.00  0.00     0.010 A 
ATOM     34  C   UNL     1       5.954   4.800 -11.503  1.00  0.00     0.010 A 
ATOM     35  C   UNL     1       5.187   4.965 -12.664  1.00  0.00    -0.014 A 
BRANCH  35  36
ATOM     36  C   UNL     1       5.144   6.302 -13.305  1.00  0.00     0.031 A 
ATOM     37  C   UNL     1       6.426   6.952 -13.754  1.00  0.00     0.074 A 
ATOM     38  C   UNL     1       3.978   6.973 -13.378  1.00  0.00     0.049 A 
ATOM     39  N   UNL     1       6.620   8.154 -14.228  1.00  0.00    -0.248 NA
ATOM     40  C   UNL     1       7.662   6.159 -13.615  1.00  0.00     0.031 C 
ATOM     41  C   UNL     1       2.683   6.483 -12.899  1.00  0.00     0.029 A 
ATOM     42  N   UNL     1       3.699   8.228 -13.857  1.00  0.00    -0.354 N 
ATOM     43  C   UNL     1       7.993   8.277 -14.397  1.00  0.00     0.074 A 
ATOM     44  C   UNL     1       8.591   7.046 -13.934  1.00  0.00     0.031 C 
ATOM     45  C   UNL     1       1.749   7.422 -13.115  1.00  0.00     0.029 A 
ATOM     46  C   UNL     1       2.381   8.594 -13.711  1.00  0.00     0.049 A 
ATOM     47  H   UNL     1       4.378   8.812 -14.266  1.00  0.00     0.167 HD
ATOM     48  C   UNL     1       8.694   9.308 -14.924  1.00  0.00     0.034 A 
ATOM     49  C   UNL     1       1.756   9.748 -14.015  1.00  0.00     0.034 A 
ATOM     50  C   UNL     1       8.088  10.506 -15.435  1.00  0.00     0.049 A 
ATOM     51  C   UNL     1       2.550  10.862 -14.643  1.00  0.00     0.074 A 
ATOM     52  C   UNL     1       8.695  11.570 -16.075  1.00  0.00     0.029 A 
ATOM     53  N   UNL     1       6.735  10.799 -15.361  1.00  0.00    -0.354 N 
ATOM     54  N   UNL     1       3.827  10.900 -14.937  1.00  0.00    -0.248 NA
ATOM     55  C   UNL     1       1.812  12.078 -15.014  1.00  0.00     0.031 C 
ATOM     56  C   UNL     1       7.711  12.520 -16.367  1.00  0.00     0.029 A 
ATOM     57  C   UNL     1       6.487  12.032 -15.938  1.00  0.00     0.049 A 
ATOM     58  H   UNL     1       6.052  10.216 -14.958  1.00  0.00     0.167 HD
ATOM     59  C   UNL     1       4.038  12.122 -15.564  1.00  0.00     0.074 A 
ATOM     60  C   UNL     1       2.752  12.788 -15.622  1.00  0.00     0.031 C 
ATOM     61  C   UNL     1       5.192  12.652 -16.039  1.00  0.00     0.034 A 
BRANCH  48  62
ATOM     62  C   UNL     1      10.190   9.159 -15.025  1.00  0.00     0.023 A 
ATOM     63  C   UNL     1      10.739   8.242 -15.945  1.00  0.00     0.012 A 
ATOM     64  C   UNL     1      11.052   9.959 -14.250  1.00  0.00     0.148 A 
ATOM     65  C   UNL     1      12.120   8.093 -16.063  1.00  0.00     0.002 A 
ATOM     66  C   UNL     1      12.427   9.841 -14.409  1.00  0.00     0.091 A 
ATOM     67  F   UNL     1      10.512  10.809 -13.365  1.00  0.00    -0.205 F 
ATOM     68  C   UNL     1      12.963   8.900 -15.304  1.00  0.00     0.022 A 
BRANCH  66  69
ATOM     69  S   UNL     1      13.597  10.891 -13.541  1.00  0.00     0.127 S 
ATOM     70  O   UNL     1      14.214   9.942 -12.615  1.00  0.00    -0.237 OA
ATOM     71  O   UNL     1      14.471  11.339 -14.626  1.00  0.00    -0.237 OA
ATOM     72  O   UNL     1      12.808  11.945 -12.921  1.00  0.00    -0.744 OA
ENDBRANCH  66  69
ENDBRANCH  48  62
BRANCH  49  73
ATOM     73  C   UNL     1       0.288   9.885 -13.791  1.00  0.00     0.023 A 
ATOM     74  C   UNL     1      -0.577   9.941 -14.901  1.00  0.00     0.012 A 
ATOM     75  C   UNL     1      -0.256   9.933 -12.493  1.00  0.00     0.148 A 
ATOM     76  C   UNL     1      -1.954  10.081 -14.724  1.00  0.00     0.002 A 
ATOM     77  C   UNL     1      -1.633  10.016 -12.323  1.00  0.00     0.091 A 
ATOM     78  F   UNL     1       0.584   9.885 -11.450  1.00  0.00    -0.205 F 
ATOM     79  C   UNL     1      -2.483  10.109 -13.436  1.00  0.00     0.022 A 
BRANCH  77  80
ATOM     80  S   UNL     1      -2.412   9.925 -10.707  1.00  0.00     0.127 S 
ATOM     81  O   UNL     1      -2.904  11.289 -10.535  1.00  0.00    -0.237 OA
ATOM     82  O   UNL     1      -3.450   8.917 -10.929  1.00  0.00    -0.237 OA
ATOM     83  O   UNL     1      -1.361   9.510  -9.787  1.00  0.00    -0.744 OA
ENDBRANCH  77  80
ENDBRANCH  49  73
BRANCH  61  84
ATOM     84  C   UNL     1       5.121  13.997 -16.712  1.00  0.00     0.023 A 
ATOM     85  C   UNL     1       4.920  15.159 -15.943  1.00  0.00     0.012 A 
ATOM     86  C   UNL     1       5.345  14.112 -18.098  1.00  0.00     0.148 A 
ATOM     87  C   UNL     1       4.912  16.415 -16.549  1.00  0.00     0.002 A 
ATOM     88  C   UNL     1       5.389  15.369 -18.687  1.00  0.00     0.091 A 
ATOM     89  F   UNL     1       5.518  12.990 -18.813  1.00  0.00    -0.205 F 
ATOM     90  C   UNL     1       5.160  16.521 -17.917  1.00  0.00     0.022 A 
BRANCH  88  91
ATOM     91  S   UNL     1       5.801  15.608 -20.418  1.00  0.00     0.127 S 
ATOM     92  O   UNL     1       4.515  16.023 -20.976  1.00  0.00    -0.237 OA
ATOM     93  O   UNL     1       6.809  16.667 -20.353  1.00  0.00    -0.237 OA
ATOM     94  O   UNL     1       6.302  14.325 -20.894  1.00  0.00    -0.744 OA
ENDBRANCH  88  91
ENDBRANCH  61  84
ENDBRANCH  35  36
ENDBRANCH  27  30
ENDBRANCH   1  26
TORSDOF 15
