REMARK SMILES O=C(NCCCNC(=O)c1ccc(-c2c3nc(c(-c4cccc(S(=O)(=O)[O-])c4F)c4ccc([nH]4)c(-c4cccc(S(=O)(=O)[O-])c4F)c4nc(c(-c5cccc(S(=O)(=O)[O-])c5F)c5ccc2[nH]5)C=C4)C=C3)cc1)C1=Cc2cc(Cl)ccc2O[C@@H]1C(F)(F)F
REMARK SMILES IDX 6 1 5 2 4 3 3 4 1 5 2 6 73 8 74 9 83 10 75 11 82 12 76 13
REMARK SMILES IDX 81 14 77 15 80 16 78 17 79 18 84 19 85 20 86 21 87 22 7 23
REMARK SMILES IDX 8 24 9 26 10 27 11 28 72 29 12 30 71 31 13 32 14 33 15 34
REMARK SMILES IDX 65 35 16 36 70 37 64 38 66 39 17 40 69 41 63 42 62 43 18 45
REMARK SMILES IDX 50 46 30 47 49 48 31 49 34 50 48 51 67 52 32 53 33 54 47 56
REMARK SMILES IDX 68 57 35 58 19 59 20 60 28 61 21 62 23 63 29 64 22 65 24 66
REMARK SMILES IDX 25 67 26 68 27 69 51 70 52 71 60 72 53 73 55 74 61 75 54 76
REMARK SMILES IDX 56 77 57 78 58 79 59 80 36 81 37 82 45 83 38 84 40 85 46 86
REMARK SMILES IDX 39 87 41 88 42 89 43 90 44 91
REMARK H PARENT 3 7 7 25 66 44 34 55
REMARK Flexibility Score: inf
ROOT
ATOM      1  C   UNL     1       4.059  -4.001   0.287  1.00  0.00     0.118 C 
ENDROOT
BRANCH   1   2
ATOM      2  C   UNL     1       4.059  -2.581   0.840  1.00  0.00     0.042 C 
BRANCH   2   3
ATOM      3  C   UNL     1       3.268  -1.613  -0.031  1.00  0.00     0.118 C 
BRANCH   3   4
ATOM      4  N   UNL     1       2.268  -0.844   0.712  1.00  0.00    -0.352 N 
ATOM      5  O   UNL     1       1.095   0.991   1.332  1.00  0.00    -0.270 OA
ATOM      6  C   UNL     1       2.127   0.511   0.885  1.00  0.00     0.251 C 
ATOM      7  H   UNL     1       1.583  -1.389   1.163  1.00  0.00     0.163 HD
BRANCH   6   8
ATOM      8  C   UNL     1       3.224   1.373   0.409  1.00  0.00     0.067 C 
ATOM      9  C   UNL     1       4.392   1.367   1.065  1.00  0.00     0.025 C 
ATOM     10  C   UNL     1       3.092   1.924  -0.976  1.00  0.00     0.314 C 
ATOM     11  C   UNL     1       5.514   1.075   0.160  1.00  0.00     0.019 A 
ATOM     12  O   UNL     1       4.170   1.510  -1.849  1.00  0.00    -0.475 OA
ATOM     13  C   UNL     1       6.631   0.426   0.701  1.00  0.00     0.032 A 
ATOM     14  C   UNL     1       5.312   1.053  -1.235  1.00  0.00     0.128 A 
ATOM     15  C   UNL     1       7.482  -0.297  -0.135  1.00  0.00     0.041 A 
ATOM     16  C   UNL     1       6.189   0.355  -2.066  1.00  0.00     0.048 A 
ATOM     17  Cl  UNL     1       8.754  -1.230   0.550  1.00  0.00    -0.084 Cl
ATOM     18  C   UNL     1       7.259  -0.346  -1.511  1.00  0.00     0.024 A 
BRANCH  10  19
ATOM     19  C   UNL     1       2.985   3.457  -0.936  1.00  0.00     0.429 C 
ATOM     20  F   UNL     1       2.702   3.958  -2.164  1.00  0.00    -0.167 F 
ATOM     21  F   UNL     1       1.998   3.877  -0.110  1.00  0.00    -0.167 F 
ATOM     22  F   UNL     1       4.132   4.046  -0.522  1.00  0.00    -0.167 F 
ENDBRANCH  10  19
ENDBRANCH   6   8
ENDBRANCH   3   4
ENDBRANCH   2   3
ENDBRANCH   1   2
BRANCH   1  23
ATOM     23  N   UNL     1       4.679  -4.139  -1.026  1.00  0.00    -0.352 N 
ATOM     24  C   UNL     1       5.496  -5.138  -1.528  1.00  0.00     0.251 C 
ATOM     25  H   UNL     1       4.485  -3.407  -1.655  1.00  0.00     0.163 HD
ATOM     26  O   UNL     1       5.948  -5.030  -2.651  1.00  0.00    -0.269 OA
BRANCH  24  27
ATOM     27  C   UNL     1       5.854  -6.307  -0.682  1.00  0.00     0.039 A 
ATOM     28  C   UNL     1       7.148  -6.831  -0.765  1.00  0.00     0.014 A 
ATOM     29  C   UNL     1       4.942  -6.868   0.210  1.00  0.00     0.014 A 
ATOM     30  C   UNL     1       7.539  -7.855   0.104  1.00  0.00     0.010 A 
ATOM     31  C   UNL     1       5.375  -7.778   1.166  1.00  0.00     0.010 A 
ATOM     32  C   UNL     1       6.671  -8.305   1.112  1.00  0.00    -0.014 A 
BRANCH  32  33
ATOM     33  C   UNL     1       7.088  -9.331   2.105  1.00  0.00     0.031 A 
ATOM     34  C   UNL     1       6.290 -10.603   2.269  1.00  0.00     0.074 A 
ATOM     35  C   UNL     1       8.131  -9.082   2.924  1.00  0.00     0.049 A 
ATOM     36  N   UNL     1       6.481 -11.595   3.100  1.00  0.00    -0.248 NA
ATOM     37  C   UNL     1       5.093 -10.763   1.424  1.00  0.00     0.031 C 
ATOM     38  C   UNL     1       8.906  -7.838   2.958  1.00  0.00     0.029 A 
ATOM     39  N   UNL     1       8.711  -9.856   3.897  1.00  0.00    -0.354 N 
ATOM     40  C   UNL     1       5.408 -12.460   2.913  1.00  0.00     0.074 A 
ATOM     41  C   UNL     1       4.538 -11.851   1.934  1.00  0.00     0.031 C 
ATOM     42  C   UNL     1       9.877  -7.947   3.879  1.00  0.00     0.029 A 
ATOM     43  C   UNL     1       9.781  -9.253   4.519  1.00  0.00     0.049 A 
ATOM     44  H   UNL     1       8.392 -10.758   4.129  1.00  0.00     0.167 HD
ATOM     45  C   UNL     1       5.185 -13.675   3.469  1.00  0.00     0.034 A 
ATOM     46  C   UNL     1      10.599  -9.709   5.487  1.00  0.00     0.034 A 
ATOM     47  C   UNL     1       6.094 -14.311   4.382  1.00  0.00     0.049 A 
ATOM     48  C   UNL     1      10.400 -11.108   6.002  1.00  0.00     0.074 A 
ATOM     49  C   UNL     1       6.029 -15.585   4.916  1.00  0.00     0.029 A 
ATOM     50  N   UNL     1       7.238 -13.720   4.893  1.00  0.00    -0.354 N 
ATOM     51  N   UNL     1       9.479 -11.984   5.678  1.00  0.00    -0.248 NA
ATOM     52  C   UNL     1      11.381 -11.601   6.978  1.00  0.00     0.031 C 
ATOM     53  C   UNL     1       7.127 -15.757   5.766  1.00  0.00     0.029 A 
ATOM     54  C   UNL     1       7.889 -14.601   5.738  1.00  0.00     0.049 A 
ATOM     55  H   UNL     1       7.543 -12.807   4.686  1.00  0.00     0.167 HD
ATOM     56  C   UNL     1       9.787 -13.140   6.385  1.00  0.00     0.074 A 
ATOM     57  C   UNL     1      11.000 -12.862   7.127  1.00  0.00     0.031 C 
ATOM     58  C   UNL     1       9.120 -14.320   6.432  1.00  0.00     0.034 A 
BRANCH  45  59
ATOM     59  C   UNL     1       3.946 -14.424   3.046  1.00  0.00     0.023 A 
ATOM     60  C   UNL     1       3.848 -14.929   1.732  1.00  0.00     0.012 A 
ATOM     61  C   UNL     1       2.899 -14.668   3.956  1.00  0.00     0.148 A 
ATOM     62  C   UNL     1       2.714 -15.625   1.318  1.00  0.00     0.002 A 
ATOM     63  C   UNL     1       1.793 -15.407   3.551  1.00  0.00     0.091 A 
ATOM     64  F   UNL     1       2.996 -14.163   5.194  1.00  0.00    -0.205 F 
ATOM     65  C   UNL     1       1.692 -15.873   2.230  1.00  0.00     0.022 A 
BRANCH  63  66
ATOM     66  S   UNL     1       0.461 -15.855   4.670  1.00  0.00     0.127 S 
ATOM     67  O   UNL     1      -0.642 -15.045   4.155  1.00  0.00    -0.237 OA
ATOM     68  O   UNL     1       0.327 -17.292   4.426  1.00  0.00    -0.237 OA
ATOM     69  O   UNL     1       0.923 -15.505   6.006  1.00  0.00    -0.744 OA
ENDBRANCH  63  66
ENDBRANCH  45  59
BRANCH  46  70
ATOM     70  C   UNL     1      11.738  -8.870   5.960  1.00  0.00     0.023 A 
ATOM     71  C   UNL     1      13.056  -9.240   5.627  1.00  0.00     0.012 A 
ATOM     72  C   UNL     1      11.524  -7.697   6.709  1.00  0.00     0.148 A 
ATOM     73  C   UNL     1      14.142  -8.480   6.063  1.00  0.00     0.002 A 
ATOM     74  C   UNL     1      12.607  -6.913   7.092  1.00  0.00     0.091 A 
ATOM     75  F   UNL     1      10.265  -7.365   7.024  1.00  0.00    -0.205 F 
ATOM     76  C   UNL     1      13.918  -7.312   6.786  1.00  0.00     0.022 A 
BRANCH  74  77
ATOM     77  S   UNL     1      12.404  -5.325   7.907  1.00  0.00     0.127 S 
ATOM     78  O   UNL     1      12.848  -5.627   9.265  1.00  0.00    -0.237 OA
ATOM     79  O   UNL     1      13.309  -4.471   7.137  1.00  0.00    -0.237 OA
ATOM     80  O   UNL     1      10.994  -4.988   7.760  1.00  0.00    -0.744 OA
ENDBRANCH  74  77
ENDBRANCH  46  70
BRANCH  58  81
ATOM     81  C   UNL     1       9.704 -15.410   7.291  1.00  0.00     0.023 A 
ATOM     82  C   UNL     1       9.672 -15.291   8.694  1.00  0.00     0.012 A 
ATOM     83  C   UNL     1      10.247 -16.571   6.707  1.00  0.00     0.148 A 
ATOM     84  C   UNL     1      10.216 -16.288   9.502  1.00  0.00     0.002 A 
ATOM     85  C   UNL     1      10.738 -17.584   7.520  1.00  0.00     0.091 A 
ATOM     86  F   UNL     1      10.287 -16.659   5.369  1.00  0.00    -0.205 F 
ATOM     87  C   UNL     1      10.739 -17.439   8.916  1.00  0.00     0.022 A 
BRANCH  85  88
ATOM     88  S   UNL     1      11.335 -19.139   6.847  1.00  0.00     0.127 S 
ATOM     89  O   UNL     1      12.783 -18.959   6.917  1.00  0.00    -0.237 OA
ATOM     90  O   UNL     1      10.795 -20.118   7.792  1.00  0.00    -0.237 OA
ATOM     91  O   UNL     1      10.774 -19.230   5.505  1.00  0.00    -0.744 OA
ENDBRANCH  85  88
ENDBRANCH  58  81
ENDBRANCH  32  33
ENDBRANCH  24  27
ENDBRANCH   1  23
TORSDOF 14
