REMARK SMILES N#Cc1ccc(C[N@H+]2CCCC[C@H]2C(=O)NCCCNC(=O)c2ccc(-c3c4nc(c(-c5cccc(S(=O)(=O)[O-])c5F)c5ccc([nH]5)c(-c5cccc(S(=O)(=O)[O-])c5F)c5nc(c(-c6cccc(S(=O)(=O)[O-])c6F)c6ccc3[nH]6)C=C5)C=C4)cc2)c(F)c1
REMARK SMILES IDX 18 1 17 2 16 3 14 4 15 5 13 7 8 8 9 9 10 11 12 12 11 13 7 14
REMARK SMILES IDX 6 15 3 16 4 17 88 18 5 19 86 20 87 21 2 22 1 23 19 24 20 25
REMARK SMILES IDX 21 26 22 28 23 29 24 30 85 31 25 32 84 33 26 34 27 35 28 36
REMARK SMILES IDX 78 37 29 38 83 39 77 40 79 41 30 42 82 43 76 44 75 45 31 47
REMARK SMILES IDX 63 48 43 49 62 50 44 51 47 52 61 53 80 54 45 55 46 56 60 58
REMARK SMILES IDX 81 59 48 60 32 61 33 62 41 63 34 64 36 65 42 66 35 67 37 68
REMARK SMILES IDX 38 69 39 70 40 71 64 72 65 73 73 74 66 75 68 76 74 77 67 78
REMARK SMILES IDX 69 79 70 80 71 81 72 82 49 83 50 84 58 85 51 86 53 87 59 88
REMARK SMILES IDX 52 89 54 90 55 91 56 92 57 93
REMARK H PARENT 16 6 8 10 20 27 79 46 47 57
REMARK Flexibility Score: inf
ROOT
ATOM      1  C   UNL     1       2.916  -4.618   2.368  1.00  0.00     0.042 C 
ENDROOT
BRANCH   1   2
ATOM      2  C   UNL     1       2.938  -3.692   1.154  1.00  0.00     0.118 C 
BRANCH   2   3
ATOM      3  N   UNL     1       2.028  -2.588   1.368  1.00  0.00    -0.351 N 
ATOM      4  C   UNL     1       2.303  -1.315   1.766  1.00  0.00     0.278 C 
ATOM      5  O   UNL     1       1.373  -0.706   2.300  1.00  0.00    -0.268 OA
ATOM      6  H   UNL     1       1.078  -2.784   1.203  1.00  0.00     0.163 HD
BRANCH   4   7
ATOM      7  C   UNL     1       3.706  -0.713   1.486  1.00  0.00     0.274 C 
ATOM      8  N   UNL     1       3.707   0.762   1.304  1.00  0.00    -0.321 N 
ATOM      9  C   UNL     1       3.309   1.504   2.501  1.00  0.00     0.263 C 
ATOM     10  H   UNL     1       4.694   0.990   1.187  1.00  0.00     0.349 HD
ATOM     11  C   UNL     1       4.129   1.099   3.737  1.00  0.00     0.062 C 
ATOM     12  C   UNL     1       4.670  -1.078   2.621  1.00  0.00     0.076 C 
ATOM     13  C   UNL     1       4.257  -0.409   3.925  1.00  0.00     0.012 C 
BRANCH   8  14
ATOM     14  C   UNL     1       3.149   1.255   0.033  1.00  0.00     0.302 C 
BRANCH  14  15
ATOM     15  C   UNL     1       1.687   0.990  -0.241  1.00  0.00     0.042 A 
ATOM     16  C   UNL     1      -1.024   0.262  -0.359  1.00  0.00     0.055 A 
ATOM     17  C   UNL     1      -0.655   1.529   0.105  1.00  0.00     0.020 A 
ATOM     18  C   UNL     1      -0.052  -0.601  -0.863  1.00  0.00     0.059 A 
ATOM     19  C   UNL     1       0.695   1.890   0.171  1.00  0.00     0.014 A 
ATOM     20  C   UNL     1       1.285  -0.215  -0.830  1.00  0.00     0.133 A 
ATOM     21  F   UNL     1       2.208  -1.076  -1.285  1.00  0.00    -0.206 F 
BRANCH  16  22
ATOM     22  C   UNL     1      -2.392  -0.166  -0.282  1.00  0.00     0.099 C 
ATOM     23  N   UNL     1      -3.493  -0.518  -0.216  1.00  0.00    -0.192 NA
ENDBRANCH  16  22
ENDBRANCH  14  15
ENDBRANCH   8  14
ENDBRANCH   4   7
ENDBRANCH   2   3
ENDBRANCH   1   2
BRANCH   1  24
ATOM     24  C   UNL     1       1.534  -5.194   2.675  1.00  0.00     0.118 C 
BRANCH  24  25
ATOM     25  N   UNL     1       1.008  -5.995   1.579  1.00  0.00    -0.352 N 
ATOM     26  C   UNL     1       0.543  -7.285   1.590  1.00  0.00     0.251 C 
ATOM     27  H   UNL     1       0.983  -5.546   0.703  1.00  0.00     0.163 HD
ATOM     28  O   UNL     1       0.330  -7.862   0.527  1.00  0.00    -0.269 OA
BRANCH  26  29
ATOM     29  C   UNL     1       0.324  -7.982   2.875  1.00  0.00     0.039 A 
ATOM     30  C   UNL     1       0.750  -9.306   2.998  1.00  0.00     0.014 A 
ATOM     31  C   UNL     1      -0.297  -7.341   3.951  1.00  0.00     0.014 A 
ATOM     32  C   UNL     1       0.606  -9.966   4.219  1.00  0.00     0.010 A 
ATOM     33  C   UNL     1      -0.363  -7.973   5.191  1.00  0.00     0.010 A 
ATOM     34  C   UNL     1       0.086  -9.293   5.339  1.00  0.00    -0.014 A 
BRANCH  34  35
ATOM     35  C   UNL     1       0.045  -9.959   6.668  1.00  0.00     0.031 A 
ATOM     36  C   UNL     1      -1.264 -10.196   7.373  1.00  0.00     0.074 A 
ATOM     37  C   UNL     1       1.203 -10.314   7.261  1.00  0.00     0.049 A 
ATOM     38  N   UNL     1      -1.480 -10.757   8.534  1.00  0.00    -0.248 NA
ATOM     39  C   UNL     1      -2.487  -9.730   6.698  1.00  0.00     0.031 C 
ATOM     40  C   UNL     1       2.542 -10.073   6.715  1.00  0.00     0.029 A 
ATOM     41  N   UNL     1       1.445 -10.939   8.459  1.00  0.00    -0.354 N 
ATOM     42  C   UNL     1      -2.854 -10.699   8.738  1.00  0.00     0.074 A 
ATOM     43  C   UNL     1      -3.419 -10.011   7.598  1.00  0.00     0.031 C 
ATOM     44  C   UNL     1       3.460 -10.556   7.566  1.00  0.00     0.029 A 
ATOM     45  C   UNL     1       2.783 -11.098   8.738  1.00  0.00     0.049 A 
ATOM     46  H   UNL     1       0.729 -11.243   9.062  1.00  0.00     0.167 HD
ATOM     47  C   UNL     1      -3.582 -11.198   9.765  1.00  0.00     0.034 A 
ATOM     48  C   UNL     1       3.398 -11.605   9.824  1.00  0.00     0.034 A 
ATOM     49  C   UNL     1      -3.020 -11.894  10.892  1.00  0.00     0.049 A 
ATOM     50  C   UNL     1       2.561 -12.144  10.952  1.00  0.00     0.074 A 
ATOM     51  C   UNL     1      -3.683 -12.486  11.953  1.00  0.00     0.029 A 
ATOM     52  N   UNL     1      -1.665 -12.079  11.116  1.00  0.00    -0.354 N 
ATOM     53  N   UNL     1       1.256 -12.207  11.056  1.00  0.00    -0.248 NA
ATOM     54  C   UNL     1       3.281 -12.716  12.098  1.00  0.00     0.031 C 
ATOM     55  C   UNL     1      -2.728 -12.991  12.840  1.00  0.00     0.029 A 
ATOM     56  C   UNL     1      -1.471 -12.762  12.305  1.00  0.00     0.049 A 
ATOM     57  H   UNL     1      -0.946 -11.770  10.519  1.00  0.00     0.167 HD
ATOM     58  C   UNL     1       1.001 -12.858  12.257  1.00  0.00     0.074 A 
ATOM     59  C   UNL     1       2.286 -13.198  12.829  1.00  0.00     0.031 C 
ATOM     60  C   UNL     1      -0.190 -13.137  12.843  1.00  0.00     0.034 A 
BRANCH  47  61
ATOM     61  C   UNL     1      -5.081 -11.051   9.706  1.00  0.00     0.023 A 
ATOM     62  C   UNL     1      -5.819 -11.805   8.771  1.00  0.00     0.012 A 
ATOM     63  C   UNL     1      -5.766 -10.244  10.636  1.00  0.00     0.148 A 
ATOM     64  C   UNL     1      -7.212 -11.740   8.745  1.00  0.00     0.002 A 
ATOM     65  C   UNL     1      -7.156 -10.220  10.635  1.00  0.00     0.091 A 
ATOM     66  F   UNL     1      -5.046  -9.525  11.509  1.00  0.00    -0.205 F 
ATOM     67  C   UNL     1      -7.879 -10.958   9.684  1.00  0.00     0.022 A 
BRANCH  65  68
ATOM     68  S   UNL     1      -8.115  -9.313  11.853  1.00  0.00     0.127 S 
ATOM     69  O   UNL     1      -8.791  -8.322  11.017  1.00  0.00    -0.237 OA
ATOM     70  O   UNL     1      -8.989 -10.356  12.391  1.00  0.00    -0.237 OA
ATOM     71  O   UNL     1      -7.154  -8.768  12.802  1.00  0.00    -0.744 OA
ENDBRANCH  65  68
ENDBRANCH  47  61
BRANCH  48  72
ATOM     72  C   UNL     1       4.887 -11.641   9.904  1.00  0.00     0.023 A 
ATOM     73  C   UNL     1       5.561 -12.878   9.940  1.00  0.00     0.012 A 
ATOM     74  C   UNL     1       5.637 -10.451   9.975  1.00  0.00     0.148 A 
ATOM     75  C   UNL     1       6.946 -12.930  10.105  1.00  0.00     0.002 A 
ATOM     76  C   UNL     1       7.021 -10.508  10.073  1.00  0.00     0.091 A 
ATOM     77  F   UNL     1       4.979  -9.283   9.947  1.00  0.00    -0.205 F 
ATOM     78  C   UNL     1       7.676 -11.746  10.165  1.00  0.00     0.022 A 
BRANCH  76  79
ATOM     79  S   UNL     1       8.048  -9.037  10.024  1.00  0.00     0.127 S 
ATOM     80  O   UNL     1       8.546  -8.974  11.395  1.00  0.00    -0.237 OA
ATOM     81  O   UNL     1       9.047  -9.401   9.020  1.00  0.00    -0.237 OA
ATOM     82  O   UNL     1       7.162  -7.952   9.621  1.00  0.00    -0.744 OA
ENDBRANCH  76  79
ENDBRANCH  48  72
BRANCH  60  83
ATOM     83  C   UNL     1      -0.164 -13.896  14.145  1.00  0.00     0.023 A 
ATOM     84  C   UNL     1       0.331 -13.284  15.315  1.00  0.00     0.012 A 
ATOM     85  C   UNL     1      -0.673 -15.208  14.215  1.00  0.00     0.148 A 
ATOM     86  C   UNL     1       0.366 -13.984  16.520  1.00  0.00     0.002 A 
ATOM     87  C   UNL     1      -0.690 -15.877  15.432  1.00  0.00     0.091 A 
ATOM     88  F   UNL     1      -1.127 -15.778  13.090  1.00  0.00    -0.205 F 
ATOM     89  C   UNL     1      -0.153 -15.275  16.581  1.00  0.00     0.022 A 
BRANCH  87  90
ATOM     90  S   UNL     1      -1.426 -17.503  15.629  1.00  0.00     0.127 S 
ATOM     91  O   UNL     1      -0.249 -18.333  15.885  1.00  0.00    -0.237 OA
ATOM     92  O   UNL     1      -2.299 -17.307  16.786  1.00  0.00    -0.237 OA
ATOM     93  O   UNL     1      -2.125 -17.785  14.382  1.00  0.00    -0.744 OA
ENDBRANCH  87  90
ENDBRANCH  60  83
ENDBRANCH  34  35
ENDBRANCH  26  29
ENDBRANCH  24  25
ENDBRANCH   1  24
TORSDOF 16
