REMARK SMILES O=C(NCCCNC(=O)[C@H]1[C@H]2CC[C@H](C2)[C@@H]1C(=O)Nc1sc2c(c1C(=O)NC1CCCCC1)CCCC2)c1ccc(-c2c3nc(c(-c4cccc(S(=O)(=O)[O-])c4F)c4ccc([nH]4)c(-c4cccc(S(=O)(=O)[O-])c4F)c4nc(c(-c5cccc(S(=O)(=O)[O-])c5F)c5ccc2[nH]5)C=C4)C=C3)cc1
REMARK SMILES IDX 5 1 4 2 3 3 1 4 2 5 38 7 39 8 100 9 40 10 99 11 41 12 42 13
REMARK SMILES IDX 43 14 93 15 44 16 98 17 92 18 94 19 45 20 97 21 91 22 90 23
REMARK SMILES IDX 46 25 78 26 58 27 77 28 59 29 62 30 76 31 95 32 60 33 61 34
REMARK SMILES IDX 75 36 96 37 63 38 47 39 48 40 56 41 49 42 51 43 57 44 50 45
REMARK SMILES IDX 52 46 53 47 54 48 55 49 79 50 80 51 88 52 81 53 83 54 89 55
REMARK SMILES IDX 82 56 84 57 85 58 86 59 87 60 64 61 65 62 73 63 66 64 68 65
REMARK SMILES IDX 74 66 67 67 69 68 70 69 71 70 72 71 6 72 7 73 8 74 9 76
REMARK SMILES IDX 10 77 11 78 16 79 12 80 15 81 14 82 13 83 17 84 18 85 19 86
REMARK SMILES IDX 20 88 21 89 24 90 22 91 23 92 37 93 34 94 36 95 35 96 25 97
REMARK SMILES IDX 26 98 27 99 28 101 29 102 33 103 30 104 32 105 31 106
REMARK H PARENT 3 6 94 24 62 35 7 75 19 87 27 100
REMARK Flexibility Score: inf
ROOT
ATOM      1  C   UNL     1       7.267   4.526  -1.478  1.00  0.00     0.042 C 
ENDROOT
BRANCH   1   2
ATOM      2  C   UNL     1       8.646   4.580  -2.117  1.00  0.00     0.118 C 
BRANCH   2   3
ATOM      3  N   UNL     1       9.123   3.260  -2.496  1.00  0.00    -0.352 N 
ATOM      4  O   UNL     1       9.516   1.554  -3.910  1.00  0.00    -0.269 OA
ATOM      5  C   UNL     1       9.379   2.770  -3.748  1.00  0.00     0.251 C 
ATOM      6  H   UNL     1       9.284   2.635  -1.752  1.00  0.00     0.163 HD
BRANCH   5   7
ATOM      7  C   UNL     1       9.489   3.699  -4.890  1.00  0.00     0.039 A 
ATOM      8  C   UNL     1      10.176   4.908  -4.742  1.00  0.00     0.014 A 
ATOM      9  C   UNL     1       8.941   3.348  -6.125  1.00  0.00     0.014 A 
ATOM     10  C   UNL     1      10.216   5.815  -5.791  1.00  0.00     0.010 A 
ATOM     11  C   UNL     1       9.073   4.217  -7.211  1.00  0.00     0.010 A 
ATOM     12  C   UNL     1       9.710   5.457  -7.050  1.00  0.00    -0.014 A 
BRANCH  12  13
ATOM     13  C   UNL     1      10.017   6.324  -8.212  1.00  0.00     0.031 A 
ATOM     14  C   UNL     1       8.935   7.001  -8.999  1.00  0.00     0.074 A 
ATOM     15  C   UNL     1      11.313   6.466  -8.558  1.00  0.00     0.049 A 
ATOM     16  N   UNL     1       9.054   7.782 -10.041  1.00  0.00    -0.248 NA
ATOM     17  C   UNL     1       7.544   6.775  -8.575  1.00  0.00     0.031 C 
ATOM     18  C   UNL     1      12.439   5.805  -7.888  1.00  0.00     0.029 A 
ATOM     19  N   UNL     1      11.907   7.192  -9.557  1.00  0.00    -0.354 N 
ATOM     20  C   UNL     1       7.760   8.104 -10.428  1.00  0.00     0.074 A 
ATOM     21  C   UNL     1       6.866   7.444  -9.501  1.00  0.00     0.031 C 
ATOM     22  C   UNL     1      13.583   6.165  -8.483  1.00  0.00     0.029 A 
ATOM     23  C   UNL     1      13.271   7.022  -9.618  1.00  0.00     0.049 A 
ATOM     24  H   UNL     1      11.407   7.777 -10.171  1.00  0.00     0.167 HD
ATOM     25  C   UNL     1       7.364   8.884 -11.462  1.00  0.00     0.034 A 
ATOM     26  C   UNL     1      14.170   7.469 -10.513  1.00  0.00     0.034 A 
ATOM     27  C   UNL     1       8.269   9.557 -12.357  1.00  0.00     0.049 A 
ATOM     28  C   UNL     1      13.690   8.335 -11.639  1.00  0.00     0.074 A 
ATOM     29  C   UNL     1       7.965  10.445 -13.375  1.00  0.00     0.029 A 
ATOM     30  N   UNL     1       9.646   9.400 -12.364  1.00  0.00    -0.354 N 
ATOM     31  N   UNL     1      12.477   8.765 -11.888  1.00  0.00    -0.248 NA
ATOM     32  C   UNL     1      14.703   8.798 -12.597  1.00  0.00     0.031 C 
ATOM     33  C   UNL     1       9.153  10.789 -14.026  1.00  0.00     0.029 A 
ATOM     34  C   UNL     1      10.203  10.147 -13.389  1.00  0.00     0.049 A 
ATOM     35  H   UNL     1      10.154   8.839 -11.733  1.00  0.00     0.167 HD
ATOM     36  C   UNL     1      12.583   9.562 -13.019  1.00  0.00     0.074 A 
ATOM     37  C   UNL     1      13.985   9.589 -13.382  1.00  0.00     0.031 C 
ATOM     38  C   UNL     1      11.605  10.194 -13.712  1.00  0.00     0.034 A 
BRANCH  25  39
ATOM     39  C   UNL     1       5.889   9.081 -11.691  1.00  0.00     0.023 A 
ATOM     40  C   UNL     1       5.156   9.935 -10.843  1.00  0.00     0.012 A 
ATOM     41  C   UNL     1       5.262   8.524 -12.824  1.00  0.00     0.148 A 
ATOM     42  C   UNL     1       3.817  10.223 -11.114  1.00  0.00     0.002 A 
ATOM     43  C   UNL     1       3.941   8.848 -13.110  1.00  0.00     0.091 A 
ATOM     44  F   UNL     1       5.975   7.702 -13.607  1.00  0.00    -0.205 F 
ATOM     45  C   UNL     1       3.216   9.691 -12.252  1.00  0.00     0.022 A 
BRANCH  43  46
ATOM     46  S   UNL     1       3.100   8.285 -14.594  1.00  0.00     0.127 S 
ATOM     47  O   UNL     1       2.054   7.429 -14.033  1.00  0.00    -0.237 OA
ATOM     48  O   UNL     1       2.617   9.541 -15.166  1.00  0.00    -0.237 OA
ATOM     49  O   UNL     1       4.103   7.594 -15.391  1.00  0.00    -0.744 OA
ENDBRANCH  43  46
ENDBRANCH  25  39
BRANCH  26  50
ATOM     50  C   UNL     1      15.606   7.096 -10.382  1.00  0.00     0.023 A 
ATOM     51  C   UNL     1      16.564   8.087 -10.099  1.00  0.00     0.012 A 
ATOM     52  C   UNL     1      16.025   5.758 -10.529  1.00  0.00     0.148 A 
ATOM     53  C   UNL     1      17.917   7.760 -10.007  1.00  0.00     0.002 A 
ATOM     54  C   UNL     1      17.365   5.430 -10.372  1.00  0.00     0.091 A 
ATOM     55  F   UNL     1      15.101   4.829 -10.814  1.00  0.00    -0.205 F 
ATOM     56  C   UNL     1      18.316   6.432 -10.133  1.00  0.00     0.022 A 
BRANCH  54  57
ATOM     57  S   UNL     1      17.936   3.727 -10.376  1.00  0.00     0.127 S 
ATOM     58  O   UNL     1      18.561   3.625 -11.692  1.00  0.00    -0.237 OA
ATOM     59  O   UNL     1      18.868   3.716  -9.248  1.00  0.00    -0.237 OA
ATOM     60  O   UNL     1      16.742   2.918 -10.171  1.00  0.00    -0.744 OA
ENDBRANCH  54  57
ENDBRANCH  26  50
BRANCH  38  61
ATOM     61  C   UNL     1      12.022  10.984 -14.923  1.00  0.00     0.023 A 
ATOM     62  C   UNL     1      12.444  10.309 -16.086  1.00  0.00     0.012 A 
ATOM     63  C   UNL     1      11.942  12.390 -14.928  1.00  0.00     0.148 A 
ATOM     64  C   UNL     1      12.818  11.023 -17.223  1.00  0.00     0.002 A 
ATOM     65  C   UNL     1      12.265  13.092 -16.082  1.00  0.00     0.091 A 
ATOM     66  F   UNL     1      11.554  13.012 -13.806  1.00  0.00    -0.205 F 
ATOM     67  C   UNL     1      12.717  12.412 -17.225  1.00  0.00     0.022 A 
BRANCH  65  68
ATOM     68  S   UNL     1      12.076  14.873 -16.212  1.00  0.00     0.127 S 
ATOM     69  O   UNL     1      13.468  15.316 -16.283  1.00  0.00    -0.237 OA
ATOM     70  O   UNL     1      11.327  15.014 -17.461  1.00  0.00    -0.237 OA
ATOM     71  O   UNL     1      11.351  15.291 -15.020  1.00  0.00    -0.744 OA
ENDBRANCH  65  68
ENDBRANCH  38  61
ENDBRANCH  12  13
ENDBRANCH   5   7
ENDBRANCH   2   3
ENDBRANCH   1   2
BRANCH   1  72
ATOM     72  C   UNL     1       7.265   3.820  -0.128  1.00  0.00     0.117 C 
BRANCH  72  73
ATOM     73  N   UNL     1       8.045   4.542   0.847  1.00  0.00    -0.356 N 
ATOM     74  C   UNL     1       7.708   5.471   1.762  1.00  0.00     0.224 C 
ATOM     75  H   UNL     1       9.003   4.313   0.843  1.00  0.00     0.163 HD
ATOM     76  O   UNL     1       8.649   5.895   2.446  1.00  0.00    -0.275 OA
BRANCH  74  77
ATOM     77  C   UNL     1       6.273   5.907   2.073  1.00  0.00     0.094 C 
ATOM     78  C   UNL     1       6.387   7.340   2.704  1.00  0.00     0.002 C 
ATOM     79  C   UNL     1       5.183   6.134   0.991  1.00  0.00     0.094 C 
ATOM     80  C   UNL     1       6.901   8.385   1.690  1.00  0.00     0.005 C 
ATOM     81  C   UNL     1       4.934   7.738   2.793  1.00  0.00     0.009 C 
ATOM     82  C   UNL     1       4.685   7.563   1.293  1.00  0.00     0.002 C 
ATOM     83  C   UNL     1       5.720   8.554   0.727  1.00  0.00     0.005 C 
BRANCH  79  84
ATOM     84  C   UNL     1       4.117   5.016   0.819  1.00  0.00     0.229 C 
ATOM     85  O   UNL     1       4.108   4.379  -0.245  1.00  0.00    -0.274 OA
ATOM     86  N   UNL     1       3.313   4.549   1.812  1.00  0.00    -0.317 N 
ATOM     87  H   UNL     1       3.118   3.584   1.774  1.00  0.00     0.170 HD
BRANCH  86  88
ATOM     88  C   UNL     1       2.733   5.221   2.859  1.00  0.00     0.108 A 
ATOM     89  S   UNL     1       1.814   6.591   2.452  1.00  0.00    -0.122 S 
ATOM     90  C   UNL     1       2.539   4.809   4.189  1.00  0.00     0.078 A 
ATOM     91  C   UNL     1       1.905   7.090   4.058  1.00  0.00     0.011 A 
ATOM     92  C   UNL     1       2.123   6.018   4.920  1.00  0.00    -0.019 A 
ATOM     93  C   UNL     1       1.809   8.538   4.426  1.00  0.00     0.047 C 
ATOM     94  C   UNL     1       2.034   6.286   6.386  1.00  0.00     0.037 C 
ATOM     95  C   UNL     1       2.440   8.742   5.806  1.00  0.00     0.006 C 
ATOM     96  C   UNL     1       1.817   7.758   6.787  1.00  0.00     0.005 C 
BRANCH  90  97
ATOM     97  C   UNL     1       2.898   3.397   4.491  1.00  0.00     0.254 C 
ATOM     98  O   UNL     1       3.137   2.630   3.541  1.00  0.00    -0.269 OA
ATOM     99  N   UNL     1       3.008   2.710   5.662  1.00  0.00    -0.349 N 
ATOM    100  H   UNL     1       3.183   1.766   5.444  1.00  0.00     0.164 HD
BRANCH  99 101
ATOM    101  C   UNL     1       2.966   2.832   7.118  1.00  0.00     0.082 C 
ATOM    102  C   UNL     1       4.285   3.351   7.685  1.00  0.00     0.025 C 
ATOM    103  C   UNL     1       1.653   3.371   7.665  1.00  0.00     0.025 C 
ATOM    104  C   UNL     1       4.186   3.704   9.161  1.00  0.00     0.002 C 
ATOM    105  C   UNL     1       1.720   4.151   8.984  1.00  0.00     0.002 C 
ATOM    106  C   UNL     1       3.080   4.718   9.379  1.00  0.00     0.000 C 
ENDBRANCH  99 101
ENDBRANCH  90  97
ENDBRANCH  86  88
ENDBRANCH  79  84
ENDBRANCH  74  77
ENDBRANCH  72  73
ENDBRANCH   1  72
TORSDOF 17
