REMARK SMILES CC[C@@H]1SC[C@H](C(=O)NCCCNC(=O)c2ccc(-c3c4nc(c(-c5cccc(S(=O)(=O)[O-])c5F)c5ccc([nH]5)c(-c5cccc(S(=O)(=O)[O-])c5F)c5nc(c(-c6cccc(S(=O)(=O)[O-])c6F)c6ccc3[nH]6)C=C5)C=C4)cc2)N1C(=O)[C@](C)([NH3+])C(F)(F)F
REMARK SMILES IDX 11 1 10 2 9 3 7 4 8 5 6 7 3 8 4 9 79 10 5 11 2 12 1 13 80 14
REMARK SMILES IDX 81 15 82 16 83 17 84 18 85 22 86 23 87 24 88 25 12 26 13 27
REMARK SMILES IDX 14 28 15 30 16 31 17 32 78 33 18 34 77 35 19 36 20 37 21 38
REMARK SMILES IDX 71 39 22 40 76 41 70 42 72 43 23 44 75 45 69 46 68 47 24 49
REMARK SMILES IDX 56 50 36 51 55 52 37 53 40 54 54 55 73 56 38 57 39 58 53 60
REMARK SMILES IDX 74 61 41 62 25 63 26 64 34 65 27 66 29 67 35 68 28 69 30 70
REMARK SMILES IDX 31 71 32 72 33 73 57 74 58 75 66 76 59 77 61 78 67 79 60 80
REMARK SMILES IDX 62 81 63 82 64 83 65 84 42 85 43 86 51 87 44 88 46 89 52 90
REMARK SMILES IDX 45 91 47 92 48 93 49 94 50 95
REMARK H PARENT 9 6 84 19 84 20 84 21 13 29 72 48 40 59
REMARK Flexibility Score: inf
ROOT
ATOM      1  C   UNL     1       1.685  -2.972  -4.675  1.00  0.00     0.042 C 
ENDROOT
BRANCH   1   2
ATOM      2  C   UNL     1       1.935  -2.426  -3.284  1.00  0.00     0.117 C 
BRANCH   2   3
ATOM      3  N   UNL     1       1.016  -2.914  -2.278  1.00  0.00    -0.354 N 
ATOM      4  C   UNL     1       1.111  -2.830  -0.920  1.00  0.00     0.243 C 
ATOM      5  O   UNL     1       0.172  -3.295  -0.263  1.00  0.00    -0.273 OA
ATOM      6  H   UNL     1       0.213  -3.369  -2.620  1.00  0.00     0.163 HD
BRANCH   4   7
ATOM      7  C   UNL     1       2.413  -2.387  -0.211  1.00  0.00     0.185 C 
ATOM      8  C   UNL     1       4.736  -1.687  -0.655  1.00  0.00     0.144 C 
ATOM      9  S   UNL     1       4.864  -3.225   0.332  1.00  0.00    -0.134 SA
ATOM     10  N   UNL     1       3.311  -1.427  -0.916  1.00  0.00    -0.312 N 
ATOM     11  C   UNL     1       3.130  -3.662   0.203  1.00  0.00     0.107 C 
BRANCH   8  12
ATOM     12  C   UNL     1       5.691  -1.872  -1.845  1.00  0.00     0.033 C 
ATOM     13  C   UNL     1       7.077  -1.303  -1.515  1.00  0.00     0.007 C 
ENDBRANCH   8  12
BRANCH  10  14
ATOM     14  C   UNL     1       2.714  -0.180  -1.096  1.00  0.00     0.294 C 
ATOM     15  O   UNL     1       1.596  -0.018  -0.555  1.00  0.00    -0.267 OA
BRANCH  14  16
ATOM     16  C   UNL     1       3.161   1.052  -1.967  1.00  0.00     0.267 C 
ATOM     17  C   UNL     1       3.487   2.205  -1.008  1.00  0.00     0.100 C 
BRANCH  16  18
ATOM     18  N   UNL     1       1.885   1.497  -2.682  1.00  0.00    -0.337 N 
ATOM     19  H   UNL     1       2.090   2.301  -3.275  1.00  0.00     0.345 HD
ATOM     20  H   UNL     1       1.181   1.755  -1.991  1.00  0.00     0.345 HD
ATOM     21  H   UNL     1       1.532   0.732  -3.257  1.00  0.00     0.345 HD
ENDBRANCH  16  18
BRANCH  16  22
ATOM     22  C   UNL     1       4.294   0.919  -2.979  1.00  0.00     0.453 C 
ATOM     23  F   UNL     1       4.408   2.034  -3.747  1.00  0.00    -0.164 F 
ATOM     24  F   UNL     1       5.487   0.766  -2.374  1.00  0.00    -0.164 F 
ATOM     25  F   UNL     1       4.080  -0.110  -3.828  1.00  0.00    -0.164 F 
ENDBRANCH  16  22
ENDBRANCH  14  16
ENDBRANCH  10  14
ENDBRANCH   4   7
ENDBRANCH   2   3
ENDBRANCH   1   2
BRANCH   1  26
ATOM     26  C   UNL     1       0.303  -2.671  -5.236  1.00  0.00     0.118 C 
BRANCH  26  27
ATOM     27  N   UNL     1       0.037  -1.252  -5.443  1.00  0.00    -0.352 N 
ATOM     28  C   UNL     1      -0.103  -0.524  -6.609  1.00  0.00     0.251 C 
ATOM     29  H   UNL     1      -0.057  -0.726  -4.616  1.00  0.00     0.163 HD
ATOM     30  O   UNL     1      -0.204   0.690  -6.557  1.00  0.00    -0.269 OA
BRANCH  28  31
ATOM     31  C   UNL     1      -0.095  -1.219  -7.920  1.00  0.00     0.039 A 
ATOM     32  C   UNL     1       0.644  -0.680  -8.976  1.00  0.00     0.014 A 
ATOM     33  C   UNL     1      -0.784  -2.417  -8.095  1.00  0.00     0.014 A 
ATOM     34  C   UNL     1       0.787  -1.409 -10.162  1.00  0.00     0.010 A 
ATOM     35  C   UNL     1      -0.535  -3.196  -9.218  1.00  0.00     0.010 A 
ATOM     36  C   UNL     1       0.254  -2.704 -10.267  1.00  0.00    -0.014 A 
BRANCH  36  37
ATOM     37  C   UNL     1       0.522  -3.579 -11.440  1.00  0.00     0.031 A 
ATOM     38  C   UNL     1      -0.622  -4.157 -12.232  1.00  0.00     0.074 A 
ATOM     39  C   UNL     1       1.787  -3.960 -11.714  1.00  0.00     0.049 A 
ATOM     40  N   UNL     1      -0.595  -5.030 -13.206  1.00  0.00    -0.248 NA
ATOM     41  C   UNL     1      -1.981  -3.732 -11.852  1.00  0.00     0.031 C 
ATOM     42  C   UNL     1       2.978  -3.553 -10.964  1.00  0.00     0.029 A 
ATOM     43  N   UNL     1       2.281  -4.802 -12.681  1.00  0.00    -0.354 N 
ATOM     44  C   UNL     1      -1.923  -5.294 -13.517  1.00  0.00     0.074 A 
ATOM     45  C   UNL     1      -2.733  -4.524 -12.600  1.00  0.00     0.031 C 
ATOM     46  C   UNL     1       4.061  -4.134 -11.503  1.00  0.00     0.029 A 
ATOM     47  C   UNL     1       3.643  -4.984 -12.613  1.00  0.00     0.049 A 
ATOM     48  H   UNL     1       1.713  -5.235 -13.358  1.00  0.00     0.167 HD
ATOM     49  C   UNL     1      -2.428  -6.077 -14.500  1.00  0.00     0.034 A 
ATOM     50  C   UNL     1       4.465  -5.754 -13.354  1.00  0.00     0.034 A 
ATOM     51  C   UNL     1      -1.621  -6.790 -15.452  1.00  0.00     0.049 A 
ATOM     52  C   UNL     1       3.885  -6.568 -14.478  1.00  0.00     0.074 A 
ATOM     53  C   UNL     1      -2.033  -7.518 -16.554  1.00  0.00     0.029 A 
ATOM     54  N   UNL     1      -0.238  -6.869 -15.414  1.00  0.00    -0.354 N 
ATOM     55  N   UNL     1       2.636  -6.670 -14.863  1.00  0.00    -0.248 NA
ATOM     56  C   UNL     1       4.830  -7.348 -15.290  1.00  0.00     0.031 C 
ATOM     57  C   UNL     1      -0.897  -8.054 -17.171  1.00  0.00     0.029 A 
ATOM     58  C   UNL     1       0.222  -7.642 -16.466  1.00  0.00     0.049 A 
ATOM     59  H   UNL     1       0.334  -6.437 -14.738  1.00  0.00     0.167 HD
ATOM     60  C   UNL     1       2.648  -7.500 -15.979  1.00  0.00     0.074 A 
ATOM     61  C   UNL     1       4.032  -7.852 -16.222  1.00  0.00     0.031 C 
ATOM     62  C   UNL     1       1.606  -7.945 -16.723  1.00  0.00     0.034 A 
BRANCH  49  63
ATOM     63  C   UNL     1      -3.928  -6.151 -14.633  1.00  0.00     0.023 A 
ATOM     64  C   UNL     1      -4.641  -5.023 -15.091  1.00  0.00     0.012 A 
ATOM     65  C   UNL     1      -4.627  -7.340 -14.352  1.00  0.00     0.148 A 
ATOM     66  C   UNL     1      -6.028  -5.063 -15.225  1.00  0.00     0.002 A 
ATOM     67  C   UNL     1      -6.005  -7.387 -14.533  1.00  0.00     0.091 A 
ATOM     68  F   UNL     1      -3.938  -8.396 -13.896  1.00  0.00    -0.205 F 
ATOM     69  C   UNL     1      -6.708  -6.247 -14.956  1.00  0.00     0.022 A 
BRANCH  67  70
ATOM     70  S   UNL     1      -6.962  -8.888 -14.292  1.00  0.00     0.127 S 
ATOM     71  O   UNL     1      -7.678  -8.585 -13.053  1.00  0.00    -0.237 OA
ATOM     72  O   UNL     1      -7.802  -8.914 -15.490  1.00  0.00    -0.237 OA
ATOM     73  O   UNL     1      -5.994  -9.972 -14.207  1.00  0.00    -0.744 OA
ENDBRANCH  67  70
ENDBRANCH  49  63
BRANCH  50  74
ATOM     74  C   UNL     1       5.934  -5.732 -13.100  1.00  0.00     0.023 A 
ATOM     75  C   UNL     1       6.784  -5.112 -14.037  1.00  0.00     0.012 A 
ATOM     76  C   UNL     1       6.489  -6.283 -11.929  1.00  0.00     0.148 A 
ATOM     77  C   UNL     1       8.162  -5.066 -13.827  1.00  0.00     0.002 A 
ATOM     78  C   UNL     1       7.857  -6.185 -11.700  1.00  0.00     0.091 A 
ATOM     79  F   UNL     1       5.666  -6.878 -11.055  1.00  0.00    -0.205 F 
ATOM     80  C   UNL     1       8.698  -5.592 -12.655  1.00  0.00     0.022 A 
BRANCH  78  81
ATOM     81  S   UNL     1       8.617  -6.713 -10.159  1.00  0.00     0.127 S 
ATOM     82  O   UNL     1       9.371  -7.888 -10.585  1.00  0.00    -0.237 OA
ATOM     83  O   UNL     1       9.433  -5.549  -9.810  1.00  0.00    -0.237 OA
ATOM     84  O   UNL     1       7.513  -6.965  -9.243  1.00  0.00    -0.744 OA
ENDBRANCH  78  81
ENDBRANCH  50  74
BRANCH  62  85
ATOM     85  C   UNL     1       1.917  -8.847 -17.889  1.00  0.00     0.023 A 
ATOM     86  C   UNL     1       2.315 -10.178 -17.655  1.00  0.00     0.012 A 
ATOM     87  C   UNL     1       1.743  -8.399 -19.213  1.00  0.00     0.148 A 
ATOM     88  C   UNL     1       2.565 -11.040 -18.721  1.00  0.00     0.002 A 
ATOM     89  C   UNL     1       1.947  -9.278 -20.270  1.00  0.00     0.091 A 
ATOM     90  F   UNL     1       1.381  -7.123 -19.415  1.00  0.00    -0.205 F 
ATOM     91  C   UNL     1       2.370 -10.595 -20.026  1.00  0.00     0.022 A 
BRANCH  89  92
ATOM     92  S   UNL     1       1.627  -8.821 -21.977  1.00  0.00     0.127 S 
ATOM     93  O   UNL     1       2.982  -8.709 -22.514  1.00  0.00    -0.237 OA
ATOM     94  O   UNL     1       0.869  -9.972 -22.470  1.00  0.00    -0.237 OA
ATOM     95  O   UNL     1       0.870  -7.578 -21.925  1.00  0.00    -0.744 OA
ENDBRANCH  89  92
ENDBRANCH  62  85
ENDBRANCH  36  37
ENDBRANCH  28  31
ENDBRANCH  26  27
ENDBRANCH   1  26
TORSDOF 18
