REMARK SMILES CC[C@H](C)[C@@H](Nc1ncnc2ccccc12)C(=O)NCCCNC(=O)c1ccc(-c2c3nc(c(-c4cccc(S(=O)(=O)[O-])c4F)c4ccc([nH]4)c(-c4cccc(S(=O)(=O)[O-])c4F)c4nc(c(-c5cccc(S(=O)(=O)[O-])c5F)c5ccc2[nH]5)C=C4)C=C3)cc1
REMARK SMILES IDX 21 1 20 2 19 3 17 4 18 5 5 7 3 8 4 9 2 10 1 11 6 12 7 14
REMARK SMILES IDX 8 15 16 16 9 17 11 18 15 19 10 20 12 21 14 22 13 23 22 24
REMARK SMILES IDX 23 25 24 26 25 28 26 29 27 30 88 31 28 32 87 33 29 34 30 35
REMARK SMILES IDX 31 36 81 37 32 38 86 39 80 40 82 41 33 42 85 43 79 44 78 45
REMARK SMILES IDX 34 47 66 48 46 49 65 50 47 51 50 52 64 53 83 54 48 55 49 56
REMARK SMILES IDX 63 58 84 59 51 60 35 61 36 62 44 63 37 64 39 65 45 66 38 67
REMARK SMILES IDX 40 68 41 69 42 70 43 71 67 72 68 73 76 74 69 75 71 76 77 77
REMARK SMILES IDX 70 78 72 79 73 80 74 81 75 82 52 83 53 84 61 85 54 86 56 87
REMARK SMILES IDX 62 88 55 89 57 90 58 91 59 92 60 93
REMARK H PARENT 19 6 6 13 23 27 82 46 50 57
REMARK Flexibility Score: inf
ROOT
ATOM      1  C   UNL     1       4.533   0.903   3.633  1.00  0.00     0.042 C 
ENDROOT
BRANCH   1   2
ATOM      2  C   UNL     1       3.559   0.036   4.408  1.00  0.00     0.117 C 
BRANCH   2   3
ATOM      3  N   UNL     1       2.476   0.819   4.978  1.00  0.00    -0.354 N 
ATOM      4  C   UNL     1       1.130   0.727   4.781  1.00  0.00     0.242 C 
ATOM      5  O   UNL     1       0.409   1.521   5.395  1.00  0.00    -0.273 OA
ATOM      6  H   UNL     1       2.757   1.526   5.602  1.00  0.00     0.163 HD
BRANCH   4   7
ATOM      7  C   UNL     1       0.511  -0.314   3.810  1.00  0.00     0.173 C 
BRANCH   7   8
ATOM      8  C   UNL     1       0.876   0.082   2.337  1.00  0.00     0.018 C 
ATOM      9  C   UNL     1       0.530  -0.985   1.293  1.00  0.00     0.010 C 
BRANCH   8  10
ATOM     10  C   UNL     1       0.301   1.477   1.954  1.00  0.00     0.002 C 
ATOM     11  C   UNL     1      -1.023   1.474   1.202  1.00  0.00     0.004 C 
ENDBRANCH   8  10
ENDBRANCH   7   8
BRANCH   7  12
ATOM     12  N   UNL     1       0.849  -1.726   4.136  1.00  0.00    -0.358 N 
ATOM     13  H   UNL     1       0.614  -2.403   3.461  1.00  0.00     0.162 HD
BRANCH  12  14
ATOM     14  C   UNL     1       1.459  -2.185   5.286  1.00  0.00     0.137 A 
ATOM     15  N   UNL     1       2.484  -3.011   5.006  1.00  0.00    -0.219 NA
ATOM     16  C   UNL     1       1.164  -1.795   6.603  1.00  0.00     0.043 A 
ATOM     17  C   UNL     1       3.293  -3.340   6.019  1.00  0.00     0.224 A 
ATOM     18  C   UNL     1       2.121  -2.161   7.563  1.00  0.00     0.076 A 
ATOM     19  C   UNL     1       0.020  -1.070   7.020  1.00  0.00     0.014 A 
ATOM     20  N   UNL     1       3.183  -2.921   7.281  1.00  0.00    -0.236 NA
ATOM     21  C   UNL     1       1.974  -1.702   8.866  1.00  0.00     0.029 A 
ATOM     22  C   UNL     1      -0.113  -0.629   8.335  1.00  0.00     0.001 A 
ATOM     23  C   UNL     1       0.879  -0.928   9.257  1.00  0.00     0.002 A 
ENDBRANCH  12  14
ENDBRANCH   7  12
ENDBRANCH   4   7
ENDBRANCH   2   3
ENDBRANCH   1   2
BRANCH   1  24
ATOM     24  C   UNL     1       5.316   1.851   4.524  1.00  0.00     0.118 C 
BRANCH  24  25
ATOM     25  N   UNL     1       6.239   1.152   5.413  1.00  0.00    -0.352 N 
ATOM     26  C   UNL     1       7.592   1.346   5.561  1.00  0.00     0.251 C 
ATOM     27  H   UNL     1       5.841   0.452   5.980  1.00  0.00     0.163 HD
ATOM     28  O   UNL     1       8.269   0.569   6.225  1.00  0.00    -0.269 OA
BRANCH  26  29
ATOM     29  C   UNL     1       8.216   2.498   4.883  1.00  0.00     0.039 A 
ATOM     30  C   UNL     1       9.346   2.298   4.086  1.00  0.00     0.014 A 
ATOM     31  C   UNL     1       7.630   3.761   4.989  1.00  0.00     0.014 A 
ATOM     32  C   UNL     1       9.848   3.360   3.332  1.00  0.00     0.010 A 
ATOM     33  C   UNL     1       8.075   4.788   4.171  1.00  0.00     0.010 A 
ATOM     34  C   UNL     1       9.194   4.602   3.343  1.00  0.00    -0.014 A 
BRANCH  34  35
ATOM     35  C   UNL     1       9.650   5.751   2.525  1.00  0.00     0.031 A 
ATOM     36  C   UNL     1      10.056   7.022   3.217  1.00  0.00     0.074 A 
ATOM     37  C   UNL     1       9.548   5.707   1.183  1.00  0.00     0.049 A 
ATOM     38  N   UNL     1      10.277   8.205   2.712  1.00  0.00    -0.248 NA
ATOM     39  C   UNL     1      10.179   6.961   4.684  1.00  0.00     0.031 C 
ATOM     40  C   UNL     1       9.090   4.556   0.403  1.00  0.00     0.029 A 
ATOM     41  N   UNL     1       9.775   6.679   0.239  1.00  0.00    -0.354 N 
ATOM     42  C   UNL     1      10.497   9.042   3.799  1.00  0.00     0.074 A 
ATOM     43  C   UNL     1      10.357   8.236   4.992  1.00  0.00     0.031 C 
ATOM     44  C   UNL     1       9.053   4.892  -0.896  1.00  0.00     0.029 A 
ATOM     45  C   UNL     1       9.450   6.290  -1.039  1.00  0.00     0.049 A 
ATOM     46  H   UNL     1      10.136   7.568   0.457  1.00  0.00     0.167 HD
ATOM     47  C   UNL     1      10.815  10.357   3.804  1.00  0.00     0.034 A 
ATOM     48  C   UNL     1       9.452   6.987  -2.192  1.00  0.00     0.034 A 
ATOM     49  C   UNL     1      11.028  11.129   2.612  1.00  0.00     0.049 A 
ATOM     50  C   UNL     1       9.897   8.424  -2.174  1.00  0.00     0.074 A 
ATOM     51  C   UNL     1      11.457  12.438   2.499  1.00  0.00     0.029 A 
ATOM     52  N   UNL     1      10.835  10.656   1.323  1.00  0.00    -0.354 N 
ATOM     53  N   UNL     1      10.245   9.164  -1.149  1.00  0.00    -0.248 NA
ATOM     54  C   UNL     1       9.988   9.113  -3.470  1.00  0.00     0.031 C 
ATOM     55  C   UNL     1      11.521  12.758   1.139  1.00  0.00     0.029 A 
ATOM     56  C   UNL     1      11.143  11.644   0.406  1.00  0.00     0.049 A 
ATOM     57  H   UNL     1      10.525   9.750   1.094  1.00  0.00     0.167 HD
ATOM     58  C   UNL     1      10.632  10.391  -1.675  1.00  0.00     0.074 A 
ATOM     59  C   UNL     1      10.484  10.292  -3.114  1.00  0.00     0.031 C 
ATOM     60  C   UNL     1      11.058  11.502  -1.026  1.00  0.00     0.034 A 
BRANCH  47  61
ATOM     61  C   UNL     1      11.011  11.018   5.142  1.00  0.00     0.023 A 
ATOM     62  C   UNL     1      12.143  10.692   5.918  1.00  0.00     0.012 A 
ATOM     63  C   UNL     1      10.094  11.970   5.626  1.00  0.00     0.148 A 
ATOM     64  C   UNL     1      12.333  11.266   7.174  1.00  0.00     0.002 A 
ATOM     65  C   UNL     1      10.315  12.573   6.859  1.00  0.00     0.091 A 
ATOM     66  F   UNL     1       9.008  12.249   4.890  1.00  0.00    -0.205 F 
ATOM     67  C   UNL     1      11.426  12.213   7.640  1.00  0.00     0.022 A 
BRANCH  65  68
ATOM     68  S   UNL     1       9.238  13.861   7.498  1.00  0.00     0.127 S 
ATOM     69  O   UNL     1       8.397  13.111   8.428  1.00  0.00    -0.237 OA
ATOM     70  O   UNL     1      10.186  14.776   8.137  1.00  0.00    -0.237 OA
ATOM     71  O   UNL     1       8.561  14.416   6.334  1.00  0.00    -0.744 OA
ENDBRANCH  65  68
ENDBRANCH  47  61
BRANCH  48  72
ATOM     72  C   UNL     1       9.090   6.300  -3.464  1.00  0.00     0.023 A 
ATOM     73  C   UNL     1      10.107   5.978  -4.383  1.00  0.00     0.012 A 
ATOM     74  C   UNL     1       7.767   5.897  -3.733  1.00  0.00     0.148 A 
ATOM     75  C   UNL     1       9.812   5.285  -5.557  1.00  0.00     0.002 A 
ATOM     76  C   UNL     1       7.488   5.162  -4.880  1.00  0.00     0.091 A 
ATOM     77  F   UNL     1       6.813   6.219  -2.848  1.00  0.00    -0.205 F 
ATOM     78  C   UNL     1       8.506   4.866  -5.800  1.00  0.00     0.022 A 
BRANCH  76  79
ATOM     79  S   UNL     1       5.865   4.463  -5.211  1.00  0.00     0.127 S 
ATOM     80  O   UNL     1       5.431   5.247  -6.364  1.00  0.00    -0.237 OA
ATOM     81  O   UNL     1       6.192   3.067  -5.503  1.00  0.00    -0.237 OA
ATOM     82  O   UNL     1       5.096   4.656  -3.989  1.00  0.00    -0.744 OA
ENDBRANCH  76  79
ENDBRANCH  48  72
BRANCH  60  83
ATOM     83  C   UNL     1      11.448  12.697  -1.852  1.00  0.00     0.023 A 
ATOM     84  C   UNL     1      10.448  13.514  -2.413  1.00  0.00     0.012 A 
ATOM     85  C   UNL     1      12.800  13.076  -1.964  1.00  0.00     0.148 A 
ATOM     86  C   UNL     1      10.789  14.686  -3.085  1.00  0.00     0.002 A 
ATOM     87  C   UNL     1      13.130  14.267  -2.598  1.00  0.00     0.091 A 
ATOM     88  F   UNL     1      13.735  12.272  -1.437  1.00  0.00    -0.205 F 
ATOM     89  C   UNL     1      12.127  15.070  -3.165  1.00  0.00     0.022 A 
BRANCH  87  90
ATOM     90  S   UNL     1      14.815  14.888  -2.663  1.00  0.00     0.127 S 
ATOM     91  O   UNL     1      15.152  14.684  -4.071  1.00  0.00    -0.237 OA
ATOM     92  O   UNL     1      14.646  16.288  -2.273  1.00  0.00    -0.237 OA
ATOM     93  O   UNL     1      15.576  14.085  -1.716  1.00  0.00    -0.744 OA
ENDBRANCH  87  90
ENDBRANCH  60  83
ENDBRANCH  34  35
ENDBRANCH  26  29
ENDBRANCH  24  25
ENDBRANCH   1  24
TORSDOF 17
