REMARK SMILES O=C(NCCCNC(=O)[C@H]1CC2(CCN(C(=O)c3cccc(O)c3)CC2)CN1C(=O)C1CC1)c1ccc(-c2c3nc(c(-c4cccc(S(=O)(=O)[O-])c4F)c4ccc([nH]4)c(-c4cccc(S(=O)(=O)[O-])c4F)c4nc(c(-c5cccc(S(=O)(=O)[O-])c5F)c5ccc2[nH]5)C=C4)C=C3)cc1
REMARK SMILES IDX 4 1 3 2 1 3 2 4 34 6 35 7 96 8 36 9 95 10 37 11 38 12 39 13
REMARK SMILES IDX 89 14 40 15 94 16 88 17 90 18 41 19 93 20 87 21 86 22 42 24
REMARK SMILES IDX 74 25 54 26 73 27 55 28 58 29 72 30 91 31 56 32 57 33 71 35
REMARK SMILES IDX 92 36 59 37 43 38 44 39 52 40 45 41 47 42 53 43 46 44 48 45
REMARK SMILES IDX 49 46 50 47 51 48 75 49 76 50 84 51 77 52 79 53 85 54 78 55
REMARK SMILES IDX 80 56 81 57 82 58 83 59 60 60 61 61 69 62 62 63 64 64 70 65
REMARK SMILES IDX 63 66 65 67 66 68 67 69 68 70 5 71 6 72 7 73 8 74 9 76 10 77
REMARK SMILES IDX 11 78 28 79 12 80 27 81 13 82 26 83 14 84 25 85 15 86 16 87
REMARK SMILES IDX 17 88 29 89 30 90 31 91 32 92 33 93 18 94 19 95 24 96 20 97
REMARK SMILES IDX 22 98 21 99 23 100
REMARK H PARENT 3 5 90 23 58 34 7 75 23 101
REMARK Flexibility Score: inf
ROOT
ATOM      1  C   UNL     1       8.986  -0.574   2.191  1.00  0.00     0.118 C 
ENDROOT
BRANCH   1   2
ATOM      2  N   UNL     1       9.871  -1.715   2.041  1.00  0.00    -0.352 N 
ATOM      3  O   UNL     1      10.944  -3.353   0.941  1.00  0.00    -0.269 OA
ATOM      4  C   UNL     1      10.422  -2.240   0.896  1.00  0.00     0.251 C 
ATOM      5  H   UNL     1      10.110  -2.178   2.877  1.00  0.00     0.163 HD
BRANCH   4   6
ATOM      6  C   UNL     1      10.380  -1.488  -0.380  1.00  0.00     0.039 A 
ATOM      7  C   UNL     1      10.698  -0.127  -0.428  1.00  0.00     0.014 A 
ATOM      8  C   UNL     1      10.084  -2.173  -1.563  1.00  0.00     0.014 A 
ATOM      9  C   UNL     1      10.624   0.566  -1.638  1.00  0.00     0.010 A 
ATOM     10  C   UNL     1      10.076  -1.491  -2.785  1.00  0.00     0.010 A 
ATOM     11  C   UNL     1      10.332  -0.112  -2.833  1.00  0.00    -0.014 A 
BRANCH  11  12
ATOM     12  C   UNL     1      10.403   0.611  -4.132  1.00  0.00     0.031 A 
ATOM     13  C   UNL     1       9.187   0.800  -4.997  1.00  0.00     0.074 A 
ATOM     14  C   UNL     1      11.599   1.071  -4.551  1.00  0.00     0.049 A 
ATOM     15  N   UNL     1       9.086   1.413  -6.149  1.00  0.00    -0.248 NA
ATOM     16  C   UNL     1       7.923   0.220  -4.515  1.00  0.00     0.031 C 
ATOM     17  C   UNL     1      12.864   0.893  -3.835  1.00  0.00     0.029 A 
ATOM     18  N   UNL     1      11.952   1.764  -5.681  1.00  0.00    -0.354 N 
ATOM     19  C   UNL     1       7.763   1.265  -6.550  1.00  0.00     0.074 A 
ATOM     20  C   UNL     1       7.099   0.495  -5.518  1.00  0.00     0.031 C 
ATOM     21  C   UNL     1      13.852   1.468  -4.537  1.00  0.00     0.029 A 
ATOM     22  C   UNL     1      13.301   2.021  -5.769  1.00  0.00     0.049 A 
ATOM     23  H   UNL     1      11.303   2.051  -6.364  1.00  0.00     0.167 HD
ATOM     24  C   UNL     1       7.155   1.741  -7.663  1.00  0.00     0.034 A 
ATOM     25  C   UNL     1      14.022   2.619  -6.737  1.00  0.00     0.034 A 
ATOM     26  C   UNL     1       7.810   2.535  -8.671  1.00  0.00     0.049 A 
ATOM     27  C   UNL     1      13.315   3.167  -7.943  1.00  0.00     0.074 A 
ATOM     28  C   UNL     1       7.255   3.132  -9.790  1.00  0.00     0.029 A 
ATOM     29  N   UNL     1       9.164   2.833  -8.692  1.00  0.00    -0.354 N 
ATOM     30  N   UNL     1      12.034   3.156  -8.223  1.00  0.00    -0.248 NA
ATOM     31  C   UNL     1      14.146   3.838  -8.953  1.00  0.00     0.031 C 
ATOM     32  C   UNL     1       8.278   3.774 -10.498  1.00  0.00     0.029 A 
ATOM     33  C   UNL     1       9.466   3.593  -9.810  1.00  0.00     0.049 A 
ATOM     34  H   UNL     1       9.815   2.546  -8.012  1.00  0.00     0.167 HD
ATOM     35  C   UNL     1      11.902   3.836  -9.427  1.00  0.00     0.074 A 
ATOM     36  C   UNL     1      13.230   4.271  -9.810  1.00  0.00     0.031 C 
ATOM     37  C   UNL     1      10.783   4.061 -10.159  1.00  0.00     0.034 A 
BRANCH  24  38
ATOM     38  C   UNL     1       5.684   1.460  -7.836  1.00  0.00     0.023 A 
ATOM     39  C   UNL     1       4.748   2.162  -7.050  1.00  0.00     0.012 A 
ATOM     40  C   UNL     1       5.224   0.565  -8.822  1.00  0.00     0.148 A 
ATOM     41  C   UNL     1       3.379   1.958  -7.222  1.00  0.00     0.002 A 
ATOM     42  C   UNL     1       3.857   0.394  -9.012  1.00  0.00     0.091 A 
ATOM     43  F   UNL     1       6.128  -0.110  -9.546  1.00  0.00    -0.205 F 
ATOM     44  C   UNL     1       2.934   1.082  -8.209  1.00  0.00     0.022 A 
BRANCH  42  45
ATOM     45  S   UNL     1       3.190  -0.658 -10.309  1.00  0.00     0.127 S 
ATOM     46  O   UNL     1       2.744  -1.822  -9.542  1.00  0.00    -0.237 OA
ATOM     47  O   UNL     1       2.103   0.165 -10.848  1.00  0.00    -0.237 OA
ATOM     48  O   UNL     1       4.284  -0.894 -11.234  1.00  0.00    -0.744 OA
ENDBRANCH  42  45
ENDBRANCH  24  38
BRANCH  25  49
ATOM     49  C   UNL     1      15.493   2.773  -6.566  1.00  0.00     0.023 A 
ATOM     50  C   UNL     1      16.033   4.050  -6.324  1.00  0.00     0.012 A 
ATOM     51  C   UNL     1      16.350   1.655  -6.583  1.00  0.00     0.148 A 
ATOM     52  C   UNL     1      17.404   4.214  -6.122  1.00  0.00     0.002 A 
ATOM     53  C   UNL     1      17.705   1.818  -6.322  1.00  0.00     0.091 A 
ATOM     54  F   UNL     1      15.819   0.450  -6.833  1.00  0.00    -0.205 F 
ATOM     55  C   UNL     1      18.237   3.099  -6.106  1.00  0.00     0.022 A 
BRANCH  53  56
ATOM     56  S   UNL     1      18.818   0.420  -6.139  1.00  0.00     0.127 S 
ATOM     57  O   UNL     1      19.570   0.470  -7.390  1.00  0.00    -0.237 OA
ATOM     58  O   UNL     1      19.581   0.791  -4.946  1.00  0.00    -0.237 OA
ATOM     59  O   UNL     1      17.957  -0.741  -5.958  1.00  0.00    -0.744 OA
ENDBRANCH  53  56
ENDBRANCH  25  49
BRANCH  37  60
ATOM     60  C   UNL     1      10.938   4.828 -11.446  1.00  0.00     0.023 A 
ATOM     61  C   UNL     1      11.526   4.201 -12.563  1.00  0.00     0.012 A 
ATOM     62  C   UNL     1      10.447   6.143 -11.569  1.00  0.00     0.148 A 
ATOM     63  C   UNL     1      11.648   4.881 -13.774  1.00  0.00     0.002 A 
ATOM     64  C   UNL     1      10.532   6.798 -12.793  1.00  0.00     0.091 A 
ATOM     65  F   UNL     1       9.912   6.730 -10.489  1.00  0.00    -0.205 F 
ATOM     66  C   UNL     1      11.142   6.173 -13.893  1.00  0.00     0.022 A 
BRANCH  64  67
ATOM     67  S   UNL     1       9.827   8.429 -13.059  1.00  0.00     0.127 S 
ATOM     68  O   UNL     1      11.021   9.272 -13.070  1.00  0.00    -0.237 OA
ATOM     69  O   UNL     1       9.173   8.279 -14.359  1.00  0.00    -0.237 OA
ATOM     70  O   UNL     1       8.911   8.653 -11.948  1.00  0.00    -0.744 OA
ENDBRANCH  64  67
ENDBRANCH  37  60
ENDBRANCH  11  12
ENDBRANCH   4   6
ENDBRANCH   1   2
BRANCH   1  71
ATOM     71  C   UNL     1       7.583  -0.988   2.638  1.00  0.00     0.042 C 
BRANCH  71  72
ATOM     72  C   UNL     1       7.442  -1.290   4.131  1.00  0.00     0.117 C 
BRANCH  72  73
ATOM     73  N   UNL     1       8.078  -0.317   5.014  1.00  0.00    -0.354 N 
ATOM     74  C   UNL     1       7.583   0.703   5.782  1.00  0.00     0.242 C 
ATOM     75  H   UNL     1       9.056  -0.413   5.069  1.00  0.00     0.163 HD
ATOM     76  O   UNL     1       8.376   1.259   6.547  1.00  0.00    -0.273 OA
BRANCH  74  77
ATOM     77  C   UNL     1       6.085   1.065   5.736  1.00  0.00     0.175 C 
ATOM     78  C   UNL     1       5.619   0.826   7.205  1.00  0.00     0.044 C 
ATOM     79  N   UNL     1       5.464   2.380   5.489  1.00  0.00    -0.330 N 
ATOM     80  C   UNL     1       4.225   1.474   7.342  1.00  0.00    -0.006 C 
ATOM     81  C   UNL     1       4.131   2.348   6.086  1.00  0.00     0.127 C 
ATOM     82  C   UNL     1       4.103   2.395   8.581  1.00  0.00     0.030 C 
ATOM     83  C   UNL     1       3.124   0.393   7.401  1.00  0.00     0.030 C 
ATOM     84  C   UNL     1       4.063   1.623   9.891  1.00  0.00     0.120 C 
ATOM     85  C   UNL     1       3.087  -0.332   8.754  1.00  0.00     0.120 C 
ATOM     86  N   UNL     1       2.997   0.624   9.851  1.00  0.00    -0.339 N 
ATOM     87  C   UNL     1       2.010   0.461  10.819  1.00  0.00     0.253 C 
ATOM     88  O   UNL     1       1.270  -0.517  10.888  1.00  0.00    -0.269 OA
BRANCH  79  89
ATOM     89  C   UNL     1       5.624   3.363   4.510  1.00  0.00     0.226 C 
ATOM     90  O   UNL     1       4.680   4.111   4.245  1.00  0.00    -0.275 OA
BRANCH  89  91
ATOM     91  C   UNL     1       6.873   3.667   3.761  1.00  0.00     0.079 C 
ATOM     92  C   UNL     1       8.289   3.409   4.171  1.00  0.00     0.014 C 
ATOM     93  C   UNL     1       7.667   2.618   3.055  1.00  0.00     0.014 C 
ENDBRANCH  89  91
ENDBRANCH  79  89
BRANCH  87  94
ATOM     94  C   UNL     1       1.813   1.534  11.815  1.00  0.00     0.043 A 
ATOM     95  C   UNL     1       1.361   2.794  11.404  1.00  0.00     0.014 A 
ATOM     96  C   UNL     1       2.039   1.264  13.165  1.00  0.00     0.060 A 
ATOM     97  C   UNL     1       1.174   3.802  12.350  1.00  0.00     0.005 A 
ATOM     98  C   UNL     1       1.851   2.279  14.096  1.00  0.00     0.116 A 
ATOM     99  C   UNL     1       1.426   3.547  13.700  1.00  0.00     0.046 A 
BRANCH  98 100
ATOM    100  O   UNL     1       2.099   1.994  15.406  1.00  0.00    -0.508 OA
ATOM    101  H   UNL     1       1.982   2.656  16.060  1.00  0.00     0.293 HD
ENDBRANCH  98 100
ENDBRANCH  87  94
ENDBRANCH  74  77
ENDBRANCH  72  73
ENDBRANCH  71  72
ENDBRANCH   1  71
TORSDOF 17
