REMARK SMILES CC(C)[C@@H](CCC(=O)NCCCNC(=O)c1ccc(-c2c3nc(c(-c4cccc(S(=O)(=O)[O-])c4F)c4ccc([nH]4)c(-c4cccc(S(=O)(=O)[O-])c4F)c4nc(c(-c5cccc(S(=O)(=O)[O-])c5F)c5ccc2[nH]5)C=C4)C=C3)cc1)CC[NH+]1CC2(CC2)C1
REMARK SMILES IDX 10 1 9 2 7 3 8 4 6 6 5 7 4 8 2 9 1 10 3 11 79 12 80 13 81 14
REMARK SMILES IDX 82 15 86 16 83 18 84 19 85 20 11 21 12 22 13 23 14 24 15 26
REMARK SMILES IDX 16 27 17 28 78 29 18 30 77 31 19 32 20 33 21 34 71 35 22 36
REMARK SMILES IDX 76 37 70 38 72 39 23 40 75 41 69 42 68 43 24 45 56 46 36 47
REMARK SMILES IDX 55 48 37 49 40 50 54 51 73 52 38 53 39 54 53 56 74 57 41 58
REMARK SMILES IDX 25 59 26 60 34 61 27 62 29 63 35 64 28 65 30 66 31 67 32 68
REMARK SMILES IDX 33 69 57 70 58 71 66 72 59 73 61 74 67 75 60 76 62 77 63 78
REMARK SMILES IDX 64 79 65 80 42 81 43 82 51 83 44 84 46 85 52 86 45 87 47 88
REMARK SMILES IDX 48 89 49 90 50 91
REMARK H PARENT 9 5 81 17 13 25 72 44 40 55
REMARK Flexibility Score: inf
ROOT
ATOM      1  C   UNL     1       0.123  -4.375  -2.269  1.00  0.00     0.117 C 
ENDROOT
BRANCH   1   2
ATOM      2  N   UNL     1      -1.198  -4.014  -2.756  1.00  0.00    -0.356 N 
ATOM      3  C   UNL     1      -1.778  -2.822  -3.068  1.00  0.00     0.220 C 
ATOM      4  O   UNL     1      -2.928  -2.854  -3.512  1.00  0.00    -0.275 OA
ATOM      5  H   UNL     1      -1.794  -4.787  -2.885  1.00  0.00     0.163 HD
BRANCH   3   6
ATOM      6  C   UNL     1      -1.056  -1.498  -2.915  1.00  0.00     0.100 C 
BRANCH   6   7
ATOM      7  C   UNL     1      -1.512  -0.633  -1.716  1.00  0.00     0.014 C 
BRANCH   7   8
ATOM      8  C   UNL     1      -0.972  -1.002  -0.277  1.00  0.00    -0.003 C 
BRANCH   8   9
ATOM      9  C   UNL     1       0.589  -1.156  -0.351  1.00  0.00    -0.014 C 
ATOM     10  C   UNL     1       1.243   0.227  -0.572  1.00  0.00     0.007 C 
ATOM     11  C   UNL     1       1.350  -1.870   0.759  1.00  0.00     0.007 C 
ENDBRANCH   8   9
BRANCH   8  12
ATOM     12  C   UNL     1      -1.951  -2.081   0.279  1.00  0.00     0.065 C 
BRANCH  12  13
ATOM     13  C   UNL     1      -1.829  -2.819   1.627  1.00  0.00     0.262 C 
BRANCH  13  14
ATOM     14  N   UNL     1      -2.090  -2.242   2.941  1.00  0.00    -0.334 N 
ATOM     15  C   UNL     1      -0.878  -2.179   3.776  1.00  0.00     0.275 C 
ATOM     16  C   UNL     1      -2.260  -0.791   3.030  1.00  0.00     0.275 C 
ATOM     17  H   UNL     1      -2.892  -2.821   3.189  1.00  0.00     0.348 HD
ATOM     18  C   UNL     1      -0.879  -0.722   3.549  1.00  0.00     0.068 C 
ATOM     19  C   UNL     1       0.215   0.184   3.089  1.00  0.00     0.020 C 
ATOM     20  C   UNL     1      -0.314   0.297   4.489  1.00  0.00     0.020 C 
ENDBRANCH  13  14
ENDBRANCH  12  13
ENDBRANCH   8  12
ENDBRANCH   7   8
ENDBRANCH   6   7
ENDBRANCH   3   6
ENDBRANCH   1   2
BRANCH   1  21
ATOM     21  C   UNL     1       0.157  -4.753  -0.786  1.00  0.00     0.042 C 
BRANCH  21  22
ATOM     22  C   UNL     1      -0.789  -5.878  -0.341  1.00  0.00     0.118 C 
BRANCH  22  23
ATOM     23  N   UNL     1      -0.025  -6.953   0.271  1.00  0.00    -0.352 N 
ATOM     24  C   UNL     1       0.174  -7.322   1.577  1.00  0.00     0.251 C 
ATOM     25  H   UNL     1       0.440  -7.529  -0.379  1.00  0.00     0.163 HD
ATOM     26  O   UNL     1       1.217  -7.936   1.817  1.00  0.00    -0.269 OA
BRANCH  24  27
ATOM     27  C   UNL     1      -0.795  -7.090   2.689  1.00  0.00     0.039 A 
ATOM     28  C   UNL     1      -0.293  -7.172   3.999  1.00  0.00     0.014 A 
ATOM     29  C   UNL     1      -2.178  -6.993   2.517  1.00  0.00     0.014 A 
ATOM     30  C   UNL     1      -1.151  -7.197   5.108  1.00  0.00     0.010 A 
ATOM     31  C   UNL     1      -3.037  -6.966   3.636  1.00  0.00     0.010 A 
ATOM     32  C   UNL     1      -2.540  -7.103   4.944  1.00  0.00    -0.014 A 
BRANCH  32  33
ATOM     33  C   UNL     1      -3.449  -7.173   6.132  1.00  0.00     0.031 A 
ATOM     34  C   UNL     1      -4.420  -8.319   6.312  1.00  0.00     0.074 A 
ATOM     35  C   UNL     1      -3.424  -6.196   7.062  1.00  0.00     0.049 A 
ATOM     36  N   UNL     1      -5.278  -8.533   7.280  1.00  0.00    -0.248 NA
ATOM     37  C   UNL     1      -4.437  -9.354   5.267  1.00  0.00     0.031 C 
ATOM     38  C   UNL     1      -2.577  -5.004   7.008  1.00  0.00     0.029 A 
ATOM     39  N   UNL     1      -4.146  -6.036   8.223  1.00  0.00    -0.354 N 
ATOM     40  C   UNL     1      -5.967  -9.693   6.941  1.00  0.00     0.074 A 
ATOM     41  C   UNL     1      -5.428 -10.138   5.673  1.00  0.00     0.031 C 
ATOM     42  C   UNL     1      -2.835  -4.232   8.076  1.00  0.00     0.029 A 
ATOM     43  C   UNL     1      -3.888  -4.853   8.877  1.00  0.00     0.049 A 
ATOM     44  H   UNL     1      -4.788  -6.705   8.555  1.00  0.00     0.167 HD
ATOM     45  C   UNL     1      -6.946 -10.340   7.622  1.00  0.00     0.034 A 
ATOM     46  C   UNL     1      -4.444  -4.310   9.980  1.00  0.00     0.034 A 
ATOM     47  C   UNL     1      -7.455  -9.936   8.908  1.00  0.00     0.049 A 
ATOM     48  C   UNL     1      -5.507  -5.066  10.733  1.00  0.00     0.074 A 
ATOM     49  C   UNL     1      -8.371 -10.595   9.713  1.00  0.00     0.029 A 
ATOM     50  N   UNL     1      -7.113  -8.770   9.571  1.00  0.00    -0.354 N 
ATOM     51  N   UNL     1      -6.019  -6.245  10.478  1.00  0.00    -0.248 NA
ATOM     52  C   UNL     1      -6.045  -4.432  11.947  1.00  0.00     0.031 C 
ATOM     53  C   UNL     1      -8.611  -9.808  10.844  1.00  0.00     0.029 A 
ATOM     54  C   UNL     1      -7.816  -8.678  10.763  1.00  0.00     0.049 A 
ATOM     55  H   UNL     1      -6.466  -8.103   9.244  1.00  0.00     0.167 HD
ATOM     56  C   UNL     1      -6.911  -6.507  11.515  1.00  0.00     0.074 A 
ATOM     57  C   UNL     1      -6.850  -5.376  12.415  1.00  0.00     0.031 C 
ATOM     58  C   UNL     1      -7.717  -7.582  11.692  1.00  0.00     0.034 A 
BRANCH  45  59
ATOM     59  C   UNL     1      -7.530 -11.592   7.015  1.00  0.00     0.023 A 
ATOM     60  C   UNL     1      -6.780 -12.785   7.013  1.00  0.00     0.012 A 
ATOM     61  C   UNL     1      -8.861 -11.613   6.550  1.00  0.00     0.148 A 
ATOM     62  C   UNL     1      -7.334 -13.972   6.532  1.00  0.00     0.002 A 
ATOM     63  C   UNL     1      -9.421 -12.809   6.114  1.00  0.00     0.091 A 
ATOM     64  F   UNL     1      -9.557 -10.467   6.551  1.00  0.00    -0.205 F 
ATOM     65  C   UNL     1      -8.656 -13.986   6.094  1.00  0.00     0.022 A 
BRANCH  63  66
ATOM     66  S   UNL     1     -11.140 -12.954   5.610  1.00  0.00     0.127 S 
ATOM     67  O   UNL     1     -11.009 -13.172   4.172  1.00  0.00    -0.237 OA
ATOM     68  O   UNL     1     -11.587 -14.120   6.368  1.00  0.00    -0.237 OA
ATOM     69  O   UNL     1     -11.779 -11.698   5.995  1.00  0.00    -0.744 OA
ENDBRANCH  63  66
ENDBRANCH  45  59
BRANCH  46  70
ATOM     70  C   UNL     1      -3.983  -2.977  10.467  1.00  0.00     0.023 A 
ATOM     71  C   UNL     1      -3.277  -2.882  11.682  1.00  0.00     0.012 A 
ATOM     72  C   UNL     1      -4.238  -1.804   9.729  1.00  0.00     0.148 A 
ATOM     73  C   UNL     1      -2.868  -1.642  12.172  1.00  0.00     0.002 A 
ATOM     74  C   UNL     1      -3.772  -0.579  10.191  1.00  0.00     0.091 A 
ATOM     75  F   UNL     1      -4.928  -1.910   8.585  1.00  0.00    -0.205 F 
ATOM     76  C   UNL     1      -3.106  -0.492  11.423  1.00  0.00     0.022 A 
BRANCH  74  77
ATOM     77  S   UNL     1      -3.913   0.931   9.230  1.00  0.00     0.127 S 
ATOM     78  O   UNL     1      -4.935   1.663   9.966  1.00  0.00    -0.237 OA
ATOM     79  O   UNL     1      -2.562   1.482   9.330  1.00  0.00    -0.237 OA
ATOM     80  O   UNL     1      -4.283   0.503   7.882  1.00  0.00    -0.744 OA
ENDBRANCH  74  77
ENDBRANCH  46  70
BRANCH  58  81
ATOM     81  C   UNL     1      -8.581  -7.623  12.928  1.00  0.00     0.023 A 
ATOM     82  C   UNL     1      -9.690  -6.761  13.042  1.00  0.00     0.012 A 
ATOM     83  C   UNL     1      -8.336  -8.567  13.947  1.00  0.00     0.148 A 
ATOM     84  C   UNL     1     -10.518  -6.812  14.164  1.00  0.00     0.002 A 
ATOM     85  C   UNL     1      -9.194  -8.646  15.038  1.00  0.00     0.091 A 
ATOM     86  F   UNL     1      -7.267  -9.369  13.832  1.00  0.00    -0.205 F 
ATOM     87  C   UNL     1     -10.277  -7.761  15.155  1.00  0.00     0.022 A 
BRANCH  85  88
ATOM     88  S   UNL     1      -9.019  -9.898  16.316  1.00  0.00     0.127 S 
ATOM     89  O   UNL     1      -8.537  -9.106  17.446  1.00  0.00    -0.237 OA
ATOM     90  O   UNL     1     -10.388 -10.392  16.456  1.00  0.00    -0.237 OA
ATOM     91  O   UNL     1      -8.075 -10.877  15.791  1.00  0.00    -0.744 OA
ENDBRANCH  85  88
ENDBRANCH  58  81
ENDBRANCH  32  33
ENDBRANCH  24  27
ENDBRANCH  22  23
ENDBRANCH  21  22
ENDBRANCH   1  21
TORSDOF 19
