REMARK SMILES O=C(NCCCNC(=O)c1ccc(-c2c3nc(c(-c4cccc(S(=O)(=O)[O-])c4F)c4ccc([nH]4)c(-c4cccc(S(=O)(=O)[O-])c4F)c4nc(c(-c5cccc(S(=O)(=O)[O-])c5F)c5ccc2[nH]5)C=C4)C=C3)cc1)C1=Cc2cc(S(F)(F)(F)(F)F)cc(Br)c2O[C@@H]1C(F)(F)F
REMARK SMILES IDX 6 1 5 2 4 3 3 4 1 5 2 6 73 8 74 9 89 10 75 11 88 12 76 13
REMARK SMILES IDX 87 14 77 15 85 16 84 17 86 18 90 19 91 20 92 21 93 22 78 23
REMARK SMILES IDX 79 24 80 25 81 26 82 27 83 28 7 29 8 30 9 32 10 33 11 34
REMARK SMILES IDX 72 35 12 36 71 37 13 38 14 39 15 40 65 41 16 42 70 43 64 44
REMARK SMILES IDX 66 45 17 46 69 47 63 48 62 49 18 51 50 52 30 53 49 54 31 55
REMARK SMILES IDX 34 56 48 57 67 58 32 59 33 60 47 62 68 63 35 64 19 65 20 66
REMARK SMILES IDX 28 67 21 68 23 69 29 70 22 71 24 72 25 73 26 74 27 75 51 76
REMARK SMILES IDX 52 77 60 78 53 79 55 80 61 81 54 82 56 83 57 84 58 85 59 86
REMARK SMILES IDX 36 87 37 88 45 89 38 90 40 91 46 92 39 93 41 94 42 95 43 96
REMARK SMILES IDX 44 97
REMARK H PARENT 3 7 7 31 66 50 34 61
REMARK Flexibility Score: inf
ROOT
ATOM      1  C   UNL     1       4.523   2.179   2.837  1.00  0.00     0.118 C 
ENDROOT
BRANCH   1   2
ATOM      2  C   UNL     1       5.029   1.723   1.479  1.00  0.00     0.042 C 
BRANCH   2   3
ATOM      3  C   UNL     1       4.523   0.318   1.195  1.00  0.00     0.118 C 
BRANCH   3   4
ATOM      4  N   UNL     1       3.053   0.318   1.195  1.00  0.00    -0.352 N 
ATOM      5  O   UNL     1       1.047  -0.088  -0.012  1.00  0.00    -0.270 OA
ATOM      6  C   UNL     1       2.318  -0.088  -0.012  1.00  0.00     0.251 C 
ATOM      7  H   UNL     1       2.560   0.590   2.003  1.00  0.00     0.163 HD
BRANCH   6   8
ATOM      8  C   UNL     1       3.078  -0.507  -1.260  1.00  0.00     0.067 C 
ATOM      9  C   UNL     1       4.438  -0.507  -1.260  1.00  0.00     0.025 C 
ATOM     10  C   UNL     1       2.318  -0.926  -2.507  1.00  0.00     0.314 C 
ATOM     11  C   UNL     1       5.198  -0.088  -0.012  1.00  0.00     0.020 A 
ATOM     12  O   UNL     1       3.565  -1.252   1.264  1.00  0.00    -0.474 OA
ATOM     13  C   UNL     1       6.318   0.721  -0.120  1.00  0.00     0.036 A 
ATOM     14  C   UNL     1       4.803  -0.562   1.164  1.00  0.00     0.142 A 
ATOM     15  C   UNL     1       7.128   0.737   1.040  1.00  0.00     0.109 A 
ATOM     16  C   UNL     1       5.580  -0.392   2.284  1.00  0.00     0.062 A 
ATOM     17  C   UNL     1       6.730   0.345   2.237  1.00  0.00     0.044 A 
ATOM     18  Br  UNL     1       5.031  -1.218   3.975  1.00  0.00    -0.047 Br
BRANCH  10  19
ATOM     19  C   UNL     1       2.685  -2.357  -2.868  1.00  0.00     0.429 C 
ATOM     20  F   UNL     1       2.364  -3.164  -1.861  1.00  0.00    -0.167 F 
ATOM     21  F   UNL     1       2.020  -2.723  -3.959  1.00  0.00    -0.167 F 
ATOM     22  F   UNL     1       3.993  -2.434  -3.098  1.00  0.00    -0.167 F 
ENDBRANCH  10  19
BRANCH  15  23
ATOM     23  S   UNL     1       8.828   1.335   0.871  1.00  0.00     0.310 S 
ATOM     24  F   UNL     1       9.048   1.340   2.442  1.00  0.00    -0.094 F 
ATOM     25  F   UNL     1       8.291   2.809   1.011  1.00  0.00    -0.094 F 
ATOM     26  F   UNL     1      10.287   1.851   0.727  1.00  0.00    -0.094 F 
ATOM     27  F   UNL     1       9.362  -0.151   0.874  1.00  0.00    -0.094 F 
ATOM     28  F   UNL     1       7.365   0.794   1.130  1.00  0.00    -0.094 F 
ENDBRANCH  15  23
ENDBRANCH   6   8
ENDBRANCH   3   4
ENDBRANCH   2   3
ENDBRANCH   1   2
BRANCH   1  29
ATOM     29  N   UNL     1       5.013   1.262   3.877  1.00  0.00    -0.352 N 
ATOM     30  C   UNL     1       5.858   1.771   4.967  1.00  0.00     0.251 C 
ATOM     31  H   UNL     1       4.775   0.307   3.843  1.00  0.00     0.163 HD
ATOM     32  O   UNL     1       6.282   0.978   5.865  1.00  0.00    -0.269 OA
BRANCH  30  33
ATOM     33  C   UNL     1       6.225   3.245   5.019  1.00  0.00     0.039 A 
ATOM     34  C   UNL     1       7.542   3.586   5.277  1.00  0.00     0.014 A 
ATOM     35  C   UNL     1       5.301   4.175   4.808  1.00  0.00     0.014 A 
ATOM     36  C   UNL     1       7.731   4.955   5.580  1.00  0.00     0.010 A 
ATOM     37  C   UNL     1       5.593   5.505   4.992  1.00  0.00     0.010 A 
ATOM     38  C   UNL     1       6.860   5.910   5.306  1.00  0.00    -0.014 A 
BRANCH  38  39
ATOM     39  C   UNL     1       7.246   7.380   5.338  1.00  0.00     0.031 A 
ATOM     40  C   UNL     1       6.566   8.216   6.225  1.00  0.00     0.074 A 
ATOM     41  C   UNL     1       8.251   7.807   4.487  1.00  0.00     0.049 A 
ATOM     42  N   UNL     1       6.770   9.517   6.435  1.00  0.00    -0.248 NA
ATOM     43  C   UNL     1       5.475   7.771   7.105  1.00  0.00     0.031 C 
ATOM     44  C   UNL     1       8.948   6.968   3.596  1.00  0.00     0.029 A 
ATOM     45  N   UNL     1       8.751   9.082   4.344  1.00  0.00    -0.354 N 
ATOM     46  C   UNL     1       5.936   9.969   7.375  1.00  0.00     0.074 A 
ATOM     47  C   UNL     1       5.088   8.853   7.815  1.00  0.00     0.031 C 
ATOM     48  C   UNL     1       9.847   7.729   2.917  1.00  0.00     0.029 A 
ATOM     49  C   UNL     1       9.728   9.055   3.373  1.00  0.00     0.049 A 
ATOM     50  H   UNL     1       8.461   9.877   4.849  1.00  0.00     0.167 HD
ATOM     51  C   UNL     1       5.852  11.266   7.883  1.00  0.00     0.034 A 
ATOM     52  C   UNL     1      10.481  10.116   2.897  1.00  0.00     0.034 A 
ATOM     53  C   UNL     1       6.636  12.318   7.437  1.00  0.00     0.049 A 
ATOM     54  C   UNL     1      10.357  11.427   3.364  1.00  0.00     0.074 A 
ATOM     55  C   UNL     1       6.569  13.630   7.943  1.00  0.00     0.029 A 
ATOM     56  N   UNL     1       7.595  12.296   6.449  1.00  0.00    -0.354 N 
ATOM     57  N   UNL     1       9.551  11.870   4.331  1.00  0.00    -0.248 NA
ATOM     58  C   UNL     1      11.127  12.565   2.845  1.00  0.00     0.031 C 
ATOM     59  C   UNL     1       7.469  14.391   7.264  1.00  0.00     0.029 A 
ATOM     60  C   UNL     1       8.112  13.566   6.321  1.00  0.00     0.049 A 
ATOM     61  H   UNL     1       7.865  11.508   5.924  1.00  0.00     0.167 HD
ATOM     62  C   UNL     1       9.726  13.180   4.511  1.00  0.00     0.074 A 
ATOM     63  C   UNL     1      10.737  13.648   3.553  1.00  0.00     0.031 C 
ATOM     64  C   UNL     1       9.087  14.004   5.439  1.00  0.00     0.034 A 
BRANCH  51  65
ATOM     65  C   UNL     1       4.844  11.540   8.987  1.00  0.00     0.023 A 
ATOM     66  C   UNL     1       4.934  10.833  10.174  1.00  0.00     0.012 A 
ATOM     67  C   UNL     1       3.884  12.436   8.789  1.00  0.00     0.148 A 
ATOM     68  C   UNL     1       3.782  10.934  10.990  1.00  0.00     0.002 A 
ATOM     69  C   UNL     1       2.861  12.576   9.695  1.00  0.00     0.091 A 
ATOM     70  F   UNL     1       3.913  13.204   7.704  1.00  0.00    -0.205 F 
ATOM     71  C   UNL     1       2.854  11.865  10.863  1.00  0.00     0.022 A 
BRANCH  69  72
ATOM     72  S   UNL     1       1.503  13.718   9.338  1.00  0.00     0.127 S 
ATOM     73  O   UNL     1       0.182  12.944   9.300  1.00  0.00    -0.237 OA
ATOM     74  O   UNL     1       1.436  14.788  10.429  1.00  0.00    -0.237 OA
ATOM     75  O   UNL     1       1.770  14.464   7.823  1.00  0.00    -0.744 OA
ENDBRANCH  69  72
ENDBRANCH  51  65
BRANCH  52  76
ATOM     76  C   UNL     1      11.501   9.838   1.804  1.00  0.00     0.023 A 
ATOM     77  C   UNL     1      12.840  10.090   2.053  1.00  0.00     0.012 A 
ATOM     78  C   UNL     1      11.098   9.342   0.640  1.00  0.00     0.148 A 
ATOM     79  C   UNL     1      13.655  10.054   0.897  1.00  0.00     0.002 A 
ATOM     80  C   UNL     1      11.979   9.208  -0.405  1.00  0.00     0.091 A 
ATOM     81  F   UNL     1       9.830   8.972   0.486  1.00  0.00    -0.205 F 
ATOM     82  C   UNL     1      13.306   9.495  -0.248  1.00  0.00     0.022 A 
BRANCH  80  83
ATOM     83  S   UNL     1      11.373   8.645  -2.015  1.00  0.00     0.127 S 
ATOM     84  O   UNL     1      11.655   9.717  -3.070  1.00  0.00    -0.237 OA
ATOM     85  O   UNL     1      12.087   7.348  -2.403  1.00  0.00    -0.237 OA
ATOM     86  O   UNL     1       9.689   8.364  -1.924  1.00  0.00    -0.744 OA
ENDBRANCH  80  83
ENDBRANCH  52  76
BRANCH  64  87
ATOM     87  C   UNL     1       9.485  15.470   5.484  1.00  0.00     0.023 A 
ATOM     88  C   UNL     1       9.301  16.238   4.346  1.00  0.00     0.012 A 
ATOM     89  C   UNL     1       9.984  15.996   6.597  1.00  0.00     0.148 A 
ATOM     90  C   UNL     1       9.950  17.495   4.391  1.00  0.00     0.002 A 
ATOM     91  C   UNL     1      10.477  17.279   6.604  1.00  0.00     0.091 A 
ATOM     92  F   UNL     1      10.008  15.275   7.714  1.00  0.00    -0.205 F 
ATOM     93  C   UNL     1      10.383  18.075   5.496  1.00  0.00     0.022 A 
BRANCH  91  94
ATOM     94  S   UNL     1      11.262  17.924   8.102  1.00  0.00     0.127 S 
ATOM     95  O   UNL     1      12.710  18.312   7.793  1.00  0.00    -0.237 OA
ATOM     96  O   UNL     1      10.496  19.157   8.588  1.00  0.00    -0.237 OA
ATOM     97  O   UNL     1      11.241  16.723   9.319  1.00  0.00    -0.744 OA
ENDBRANCH  91  94
ENDBRANCH  64  87
ENDBRANCH  38  39
ENDBRANCH  30  33
ENDBRANCH   1  29
TORSDOF 15
