REMARK SMILES O=C(Cc1ccc(S(=O)(=O)C[C@H]2CCCO2)cc1)NCCCNC(=O)c1ccc(-c2c3nc(c(-c4cccc(S(=O)(=O)[O-])c4F)c4ccc([nH]4)c(-c4cccc(S(=O)(=O)[O-])c4F)c4nc(c(-c5cccc(S(=O)(=O)[O-])c5F)c5ccc2[nH]5)C=C4)C=C3)cc1
REMARK SMILES IDX 20 1 19 2 1 3 2 4 3 6 4 7 5 8 18 9 6 10 17 11 7 12 8 13 9 14
REMARK SMILES IDX 10 15 11 16 12 17 13 18 16 19 14 20 15 21 21 22 22 23 23 24
REMARK SMILES IDX 24 25 25 27 26 28 27 29 88 30 28 31 87 32 29 33 30 34 31 35
REMARK SMILES IDX 81 36 32 37 86 38 80 39 82 40 33 41 85 42 79 43 78 44 34 46
REMARK SMILES IDX 66 47 46 48 65 49 47 50 50 51 64 52 83 53 48 54 49 55 63 57
REMARK SMILES IDX 84 58 51 59 35 60 36 61 44 62 37 63 39 64 45 65 38 66 40 67
REMARK SMILES IDX 41 68 42 69 43 70 67 71 68 72 76 73 69 74 71 75 77 76 70 77
REMARK SMILES IDX 72 78 73 79 74 80 75 81 52 82 53 83 61 84 54 85 56 86 62 87
REMARK SMILES IDX 55 88 57 89 58 90 59 91 60 92
REMARK H PARENT 19 5 23 26 82 45 50 56
REMARK Flexibility Score: inf
ROOT
ATOM      1  C   UNL     1       9.738   7.975  -1.146  1.00  0.00     0.117 C 
ENDROOT
BRANCH   1   2
ATOM      2  N   UNL     1       8.592   8.831  -1.373  1.00  0.00    -0.356 N 
ATOM      3  O   UNL     1       9.283   9.653  -3.410  1.00  0.00    -0.275 OA
ATOM      4  C   UNL     1       8.415   9.533  -2.551  1.00  0.00     0.224 C 
ATOM      5  H   UNL     1       7.914   8.915  -0.664  1.00  0.00     0.163 HD
BRANCH   4   6
ATOM      6  C   UNL     1       7.018  10.108  -2.721  1.00  0.00     0.135 C 
BRANCH   6   7
ATOM      7  C   UNL     1       5.909   9.073  -2.802  1.00  0.00    -0.039 A 
ATOM      8  C   UNL     1       4.573   9.497  -2.752  1.00  0.00     0.005 A 
ATOM      9  C   UNL     1       6.168   7.699  -2.930  1.00  0.00     0.005 A 
ATOM     10  C   UNL     1       3.529   8.569  -2.821  1.00  0.00     0.020 A 
ATOM     11  C   UNL     1       5.133   6.765  -2.932  1.00  0.00     0.020 A 
ATOM     12  C   UNL     1       3.815   7.203  -2.911  1.00  0.00     0.067 A 
BRANCH  12  13
ATOM     13  S   UNL     1       2.457   6.067  -2.985  1.00  0.00     0.180 S 
ATOM     14  O   UNL     1       2.089   5.819  -1.601  1.00  0.00    -0.224 OA
ATOM     15  O   UNL     1       1.472   6.625  -3.896  1.00  0.00    -0.224 OA
BRANCH  13  16
ATOM     16  C   UNL     1       2.983   4.513  -3.645  1.00  0.00     0.174 C 
BRANCH  16  17
ATOM     17  C   UNL     1       3.834   4.524  -4.910  1.00  0.00     0.133 C 
ATOM     18  C   UNL     1       3.584   3.296  -5.779  1.00  0.00     0.035 C 
ATOM     19  O   UNL     1       3.561   5.652  -5.743  1.00  0.00    -0.377 OA
ATOM     20  C   UNL     1       2.497   3.776  -6.708  1.00  0.00     0.031 C 
ATOM     21  C   UNL     1       2.884   5.221  -6.928  1.00  0.00     0.160 C 
ENDBRANCH  16  17
ENDBRANCH  13  16
ENDBRANCH  12  13
ENDBRANCH   6   7
ENDBRANCH   4   6
ENDBRANCH   1   2
BRANCH   1  22
ATOM     22  C   UNL     1      10.460   8.275   0.158  1.00  0.00     0.042 C 
BRANCH  22  23
ATOM     23  C   UNL     1       9.611   8.128   1.416  1.00  0.00     0.118 C 
BRANCH  23  24
ATOM     24  N   UNL     1       9.131   6.772   1.644  1.00  0.00    -0.352 N 
ATOM     25  C   UNL     1       9.130   6.021   2.796  1.00  0.00     0.251 C 
ATOM     26  H   UNL     1       8.750   6.326   0.854  1.00  0.00     0.163 HD
ATOM     27  O   UNL     1       8.769   4.847   2.741  1.00  0.00    -0.269 OA
BRANCH  25  28
ATOM     28  C   UNL     1       9.584   6.595   4.086  1.00  0.00     0.039 A 
ATOM     29  C   UNL     1      10.367   5.801   4.931  1.00  0.00     0.014 A 
ATOM     30  C   UNL     1       9.238   7.890   4.482  1.00  0.00     0.014 A 
ATOM     31  C   UNL     1      10.852   6.326   6.133  1.00  0.00     0.010 A 
ATOM     32  C   UNL     1       9.784   8.437   5.644  1.00  0.00     0.010 A 
ATOM     33  C   UNL     1      10.593   7.661   6.486  1.00  0.00    -0.014 A 
BRANCH  33  34
ATOM     34  C   UNL     1      11.181   8.253   7.718  1.00  0.00     0.031 A 
ATOM     35  C   UNL     1      10.300   8.740   8.839  1.00  0.00     0.074 A 
ATOM     36  C   UNL     1      12.517   8.415   7.803  1.00  0.00     0.049 A 
ATOM     37  N   UNL     1      10.645   9.267   9.987  1.00  0.00    -0.248 NA
ATOM     38  C   UNL     1       8.845   8.648   8.638  1.00  0.00     0.031 C 
ATOM     39  C   UNL     1      13.477   8.081   6.749  1.00  0.00     0.029 A 
ATOM     40  N   UNL     1      13.297   8.920   8.814  1.00  0.00    -0.354 N 
ATOM     41  C   UNL     1       9.457   9.597  10.629  1.00  0.00     0.074 A 
ATOM     42  C   UNL     1       8.381   9.245   9.727  1.00  0.00     0.031 C 
ATOM     43  C   UNL     1      14.717   8.375   7.173  1.00  0.00     0.029 A 
ATOM     44  C   UNL     1      14.641   8.933   8.520  1.00  0.00     0.049 A 
ATOM     45  H   UNL     1      12.930   9.242   9.668  1.00  0.00     0.167 HD
ATOM     46  C   UNL     1       9.272  10.113  11.868  1.00  0.00     0.034 A 
ATOM     47  C   UNL     1      15.697   9.338   9.255  1.00  0.00     0.034 A 
ATOM     48  C   UNL     1      10.339  10.415  12.785  1.00  0.00     0.049 A 
ATOM     49  C   UNL     1      15.468   9.834  10.657  1.00  0.00     0.074 A 
ATOM     50  C   UNL     1      10.249  10.851  14.096  1.00  0.00     0.029 A 
ATOM     51  N   UNL     1      11.689  10.317  12.490  1.00  0.00    -0.354 N 
ATOM     52  N   UNL     1      14.340   9.965  11.312  1.00  0.00    -0.248 NA
ATOM     53  C   UNL     1      16.661  10.193  11.437  1.00  0.00     0.031 C 
ATOM     54  C   UNL     1      11.547  11.026  14.590  1.00  0.00     0.029 A 
ATOM     55  C   UNL     1      12.444  10.684  13.592  1.00  0.00     0.049 A 
ATOM     56  H   UNL     1      12.058  10.027  11.624  1.00  0.00     0.167 HD
ATOM     57  C   UNL     1      14.689  10.389  12.589  1.00  0.00     0.074 A 
ATOM     58  C   UNL     1      16.135  10.465  12.623  1.00  0.00     0.031 C 
ATOM     59  C   UNL     1      13.883  10.704  13.634  1.00  0.00     0.034 A 
BRANCH  46  60
ATOM     60  C   UNL     1       7.854  10.316  12.337  1.00  0.00     0.023 A 
ATOM     61  C   UNL     1       7.067   9.192  12.662  1.00  0.00     0.012 A 
ATOM     62  C   UNL     1       7.320  11.607  12.516  1.00  0.00     0.148 A 
ATOM     63  C   UNL     1       5.762   9.346  13.125  1.00  0.00     0.002 A 
ATOM     64  C   UNL     1       6.032  11.754  13.019  1.00  0.00     0.091 A 
ATOM     65  F   UNL     1       8.074  12.664  12.182  1.00  0.00    -0.205 F 
ATOM     66  C   UNL     1       5.248  10.626  13.313  1.00  0.00     0.022 A 
BRANCH  64  67
ATOM     67  S   UNL     1       5.308  13.361  13.370  1.00  0.00     0.127 S 
ATOM     68  O   UNL     1       4.340  13.492  12.282  1.00  0.00    -0.237 OA
ATOM     69  O   UNL     1       4.714  13.151  14.691  1.00  0.00    -0.237 OA
ATOM     70  O   UNL     1       6.412  14.310  13.347  1.00  0.00    -0.744 OA
ENDBRANCH  64  67
ENDBRANCH  46  60
BRANCH  47  71
ATOM     71  C   UNL     1      17.077   9.197   8.710  1.00  0.00     0.023 A 
ATOM     72  C   UNL     1      17.933   8.216   9.249  1.00  0.00     0.012 A 
ATOM     73  C   UNL     1      17.535  10.000   7.648  1.00  0.00     0.148 A 
ATOM     74  C   UNL     1      19.230   8.058   8.762  1.00  0.00     0.002 A 
ATOM     75  C   UNL     1      18.810   9.800   7.131  1.00  0.00     0.091 A 
ATOM     76  F   UNL     1      16.711  10.937   7.158  1.00  0.00    -0.205 F 
ATOM     77  C   UNL     1      19.665   8.842   7.697  1.00  0.00     0.022 A 
BRANCH  75  78
ATOM     78  S   UNL     1      19.401  10.672   5.676  1.00  0.00     0.127 S 
ATOM     79  O   UNL     1      20.339  11.627   6.258  1.00  0.00    -0.237 OA
ATOM     80  O   UNL     1      20.018   9.592   4.904  1.00  0.00    -0.237 OA
ATOM     81  O   UNL     1      18.212  11.243   5.056  1.00  0.00    -0.744 OA
ENDBRANCH  75  78
ENDBRANCH  47  71
BRANCH  59  82
ATOM     82  C   UNL     1      14.544  11.137  14.917  1.00  0.00     0.023 A 
ATOM     83  C   UNL     1      15.153  12.405  14.995  1.00  0.00     0.012 A 
ATOM     84  C   UNL     1      14.516  10.313  16.059  1.00  0.00     0.148 A 
ATOM     85  C   UNL     1      15.754  12.832  16.178  1.00  0.00     0.002 A 
ATOM     86  C   UNL     1      15.077  10.765  17.249  1.00  0.00     0.091 A 
ATOM     87  F   UNL     1      13.953   9.100  15.962  1.00  0.00    -0.205 F 
ATOM     88  C   UNL     1      15.707  12.018  17.307  1.00  0.00     0.022 A 
BRANCH  86  89
ATOM     89  S   UNL     1      14.976   9.814  18.770  1.00  0.00     0.127 S 
ATOM     90  O   UNL     1      16.306   9.211  18.835  1.00  0.00    -0.237 OA
ATOM     91  O   UNL     1      14.727  10.851  19.774  1.00  0.00    -0.237 OA
ATOM     92  O   UNL     1      13.869   8.886  18.582  1.00  0.00    -0.744 OA
ENDBRANCH  86  89
ENDBRANCH  59  82
ENDBRANCH  33  34
ENDBRANCH  25  28
ENDBRANCH  23  24
ENDBRANCH  22  23
ENDBRANCH   1  22
TORSDOF 17
