REMARK SMILES C[C@H](C(=O)NCCCNC(=O)c1ccc(-c2c3nc(c(-c4cccc(S(=O)(=O)[O-])c4F)c4ccc([nH]4)c(-c4cccc(S(=O)(=O)[O-])c4F)c4nc(c(-c5cccc(S(=O)(=O)[O-])c5F)c5ccc2[nH]5)C=C4)C=C3)cc1)c1ccc2c3cc(Cl)ccc3n(C(=O)c3ccc(Cl)cc3)c2c1
REMARK SMILES IDX 7 1 6 2 5 3 3 4 4 5 2 7 1 8 75 9 76 10 97 11 77 12 96 13
REMARK SMILES IDX 78 14 86 15 79 16 85 17 80 18 84 19 81 20 83 21 82 22 87 23
REMARK SMILES IDX 88 24 89 25 90 26 95 27 91 28 94 29 92 30 93 31 8 32 9 33
REMARK SMILES IDX 10 34 11 36 12 37 13 38 74 39 14 40 73 41 15 42 16 43 17 44
REMARK SMILES IDX 67 45 18 46 72 47 66 48 68 49 19 50 71 51 65 52 64 53 20 55
REMARK SMILES IDX 52 56 32 57 51 58 33 59 36 60 50 61 69 62 34 63 35 64 49 66
REMARK SMILES IDX 70 67 37 68 21 69 22 70 30 71 23 72 25 73 31 74 24 75 26 76
REMARK SMILES IDX 27 77 28 78 29 79 53 80 54 81 62 82 55 83 57 84 63 85 56 86
REMARK SMILES IDX 58 87 59 88 60 89 61 90 38 91 39 92 47 93 40 94 42 95 48 96
REMARK SMILES IDX 41 97 43 98 44 99 45 100 46 101
REMARK H PARENT 5 6 9 35 68 54 36 65
REMARK Flexibility Score: inf
ROOT
ATOM      1  C   UNL     1      -1.117  -2.130  -1.389  1.00  0.00     0.042 C 
ENDROOT
BRANCH   1   2
ATOM      2  C   UNL     1       0.281  -2.161  -0.775  1.00  0.00     0.117 C 
BRANCH   2   3
ATOM      3  N   UNL     1       0.976  -0.886  -0.875  1.00  0.00    -0.356 N 
ATOM      4  C   UNL     1       1.228   0.048   0.095  1.00  0.00     0.227 C 
ATOM      5  O   UNL     1       1.877   1.048  -0.220  1.00  0.00    -0.274 OA
ATOM      6  H   UNL     1       1.316  -0.663  -1.772  1.00  0.00     0.163 HD
BRANCH   4   7
ATOM      7  C   UNL     1       0.712  -0.182   1.521  1.00  0.00     0.105 C 
ATOM      8  C   UNL     1       1.368   0.763   2.531  1.00  0.00     0.023 C 
BRANCH   7   9
ATOM      9  C   UNL     1      -0.802  -0.072   1.575  1.00  0.00    -0.034 A 
ATOM     10  C   UNL     1      -1.464   1.076   1.138  1.00  0.00     0.005 A 
ATOM     11  C   UNL     1      -1.547  -1.188   1.985  1.00  0.00     0.032 A 
ATOM     12  C   UNL     1      -2.858   1.112   1.083  1.00  0.00     0.011 A 
ATOM     13  C   UNL     1      -2.951  -1.178   1.865  1.00  0.00     0.057 A 
ATOM     14  C   UNL     1      -3.607  -0.028   1.444  1.00  0.00     0.008 A 
ATOM     15  N   UNL     1      -3.912  -2.197   2.040  1.00  0.00    -0.276 N 
ATOM     16  C   UNL     1      -4.995  -0.269   1.575  1.00  0.00     0.009 A 
ATOM     17  C   UNL     1      -5.175  -1.588   2.022  1.00  0.00     0.057 A 
ATOM     18  C   UNL     1      -6.099   0.594   1.428  1.00  0.00     0.031 A 
ATOM     19  C   UNL     1      -6.462  -2.035   2.380  1.00  0.00     0.029 A 
ATOM     20  C   UNL     1      -7.354   0.167   1.838  1.00  0.00     0.041 A 
ATOM     21  C   UNL     1      -7.537  -1.132   2.297  1.00  0.00     0.023 A 
ATOM     22  Cl  UNL     1      -8.636   1.316   1.884  1.00  0.00    -0.084 Cl
BRANCH  15  23
ATOM     23  C   UNL     1      -3.559  -3.563   2.237  1.00  0.00     0.262 C 
ATOM     24  O   UNL     1      -2.363  -3.796   2.453  1.00  0.00    -0.268 OA
BRANCH  23  25
ATOM     25  C   UNL     1      -4.373  -4.804   2.172  1.00  0.00     0.040 A 
ATOM     26  C   UNL     1      -3.884  -5.904   2.912  1.00  0.00     0.015 A 
ATOM     27  C   UNL     1      -5.423  -5.010   1.276  1.00  0.00     0.015 A 
ATOM     28  C   UNL     1      -4.416  -7.183   2.752  1.00  0.00     0.021 A 
ATOM     29  C   UNL     1      -5.975  -6.296   1.134  1.00  0.00     0.021 A 
ATOM     30  C   UNL     1      -5.460  -7.375   1.858  1.00  0.00     0.041 A 
ATOM     31  Cl  UNL     1      -6.082  -8.962   1.618  1.00  0.00    -0.084 Cl
ENDBRANCH  23  25
ENDBRANCH  15  23
ENDBRANCH   7   9
ENDBRANCH   4   7
ENDBRANCH   2   3
ENDBRANCH   1   2
BRANCH   1  32
ATOM     32  C   UNL     1      -1.133  -2.005  -2.908  1.00  0.00     0.118 C 
BRANCH  32  33
ATOM     33  N   UNL     1      -0.560  -3.167  -3.578  1.00  0.00    -0.352 N 
ATOM     34  C   UNL     1      -1.080  -3.941  -4.586  1.00  0.00     0.251 C 
ATOM     35  H   UNL     1       0.332  -3.437  -3.260  1.00  0.00     0.163 HD
ATOM     36  O   UNL     1      -0.505  -4.976  -4.918  1.00  0.00    -0.269 OA
BRANCH  34  37
ATOM     37  C   UNL     1      -2.336  -3.545  -5.258  1.00  0.00     0.039 A 
ATOM     38  C   UNL     1      -3.316  -4.515  -5.495  1.00  0.00     0.014 A 
ATOM     39  C   UNL     1      -2.545  -2.224  -5.660  1.00  0.00     0.014 A 
ATOM     40  C   UNL     1      -4.535  -4.146  -6.072  1.00  0.00     0.010 A 
ATOM     41  C   UNL     1      -3.783  -1.847  -6.171  1.00  0.00     0.010 A 
ATOM     42  C   UNL     1      -4.790  -2.802  -6.383  1.00  0.00    -0.014 A 
BRANCH  42  43
ATOM     43  C   UNL     1      -6.093  -2.349  -6.933  1.00  0.00     0.031 A 
ATOM     44  C   UNL     1      -6.144  -1.703  -8.290  1.00  0.00     0.074 A 
ATOM     45  C   UNL     1      -7.201  -2.393  -6.167  1.00  0.00     0.049 A 
ATOM     46  N   UNL     1      -7.128  -1.063  -8.865  1.00  0.00    -0.248 NA
ATOM     47  C   UNL     1      -4.910  -1.755  -9.090  1.00  0.00     0.031 C 
ATOM     48  C   UNL     1      -7.274  -2.949  -4.816  1.00  0.00     0.029 A 
ATOM     49  N   UNL     1      -8.469  -1.922  -6.403  1.00  0.00    -0.354 N 
ATOM     50  C   UNL     1      -6.617  -0.586 -10.066  1.00  0.00     0.074 A 
ATOM     51  C   UNL     1      -5.231  -0.996 -10.127  1.00  0.00     0.031 C 
ATOM     52  C   UNL     1      -8.517  -2.780  -4.338  1.00  0.00     0.029 A 
ATOM     53  C   UNL     1      -9.317  -2.064  -5.329  1.00  0.00     0.049 A 
ATOM     54  H   UNL     1      -8.745  -1.520  -7.258  1.00  0.00     0.167 HD
ATOM     55  C   UNL     1      -7.250   0.112 -11.039  1.00  0.00     0.034 A 
ATOM     56  C   UNL     1     -10.583  -1.638  -5.148  1.00  0.00     0.034 A 
ATOM     57  C   UNL     1      -8.641   0.471 -10.996  1.00  0.00     0.049 A 
ATOM     58  C   UNL     1     -11.265  -0.863  -6.239  1.00  0.00     0.074 A 
ATOM     59  C   UNL     1      -9.399   1.093 -11.972  1.00  0.00     0.029 A 
ATOM     60  N   UNL     1      -9.483   0.247  -9.918  1.00  0.00    -0.354 N 
ATOM     61  N   UNL     1     -10.803  -0.521  -7.416  1.00  0.00    -0.248 NA
ATOM     62  C   UNL     1     -12.646  -0.429  -5.984  1.00  0.00     0.031 C 
ATOM     63  C   UNL     1     -10.696   1.262 -11.476  1.00  0.00     0.029 A 
ATOM     64  C   UNL     1     -10.751   0.724 -10.200  1.00  0.00     0.049 A 
ATOM     65  H   UNL     1      -9.217  -0.187  -9.075  1.00  0.00     0.167 HD
ATOM     66  C   UNL     1     -11.849   0.126  -8.061  1.00  0.00     0.074 A 
ATOM     67  C   UNL     1     -12.969   0.132  -7.142  1.00  0.00     0.031 C 
ATOM     68  C   UNL     1     -11.875   0.667  -9.302  1.00  0.00     0.034 A 
BRANCH  55  69
ATOM     69  C   UNL     1      -6.445   0.496 -12.253  1.00  0.00     0.023 A 
ATOM     70  C   UNL     1      -6.040  -0.500 -13.165  1.00  0.00     0.012 A 
ATOM     71  C   UNL     1      -6.116   1.841 -12.509  1.00  0.00     0.148 A 
ATOM     72  C   UNL     1      -5.278  -0.171 -14.285  1.00  0.00     0.002 A 
ATOM     73  C   UNL     1      -5.397   2.167 -13.654  1.00  0.00     0.091 A 
ATOM     74  F   UNL     1      -6.487   2.774 -11.621  1.00  0.00    -0.205 F 
ATOM     75  C   UNL     1      -4.965   1.162 -14.534  1.00  0.00     0.022 A 
BRANCH  73  76
ATOM     76  S   UNL     1      -5.022   3.867 -14.097  1.00  0.00     0.127 S 
ATOM     77  O   UNL     1      -3.626   3.981 -13.681  1.00  0.00    -0.237 OA
ATOM     78  O   UNL     1      -5.229   3.866 -15.546  1.00  0.00    -0.237 OA
ATOM     79  O   UNL     1      -5.972   4.685 -13.355  1.00  0.00    -0.744 OA
ENDBRANCH  73  76
ENDBRANCH  55  69
BRANCH  56  80
ATOM     80  C   UNL     1     -11.296  -1.966  -3.885  1.00  0.00     0.023 A 
ATOM     81  C   UNL     1     -12.326  -2.925  -3.888  1.00  0.00     0.012 A 
ATOM     82  C   UNL     1     -10.913  -1.381  -2.669  1.00  0.00     0.148 A 
ATOM     83  C   UNL     1     -12.962  -3.290  -2.699  1.00  0.00     0.002 A 
ATOM     84  C   UNL     1     -11.498  -1.808  -1.482  1.00  0.00     0.091 A 
ATOM     85  F   UNL     1      -9.961  -0.436  -2.685  1.00  0.00    -0.205 F 
ATOM     86  C   UNL     1     -12.535  -2.747  -1.491  1.00  0.00     0.022 A 
BRANCH  84  87
ATOM     87  S   UNL     1     -10.801  -1.309   0.088  1.00  0.00     0.127 S 
ATOM     88  O   UNL     1     -11.583  -0.121   0.407  1.00  0.00    -0.237 OA
ATOM     89  O   UNL     1     -11.055  -2.466   0.948  1.00  0.00    -0.237 OA
ATOM     90  O   UNL     1      -9.389  -1.116  -0.218  1.00  0.00    -0.744 OA
ENDBRANCH  84  87
ENDBRANCH  56  80
BRANCH  68  91
ATOM     91  C   UNL     1     -13.173   1.254  -9.785  1.00  0.00     0.023 A 
ATOM     92  C   UNL     1     -13.597   2.512  -9.319  1.00  0.00     0.012 A 
ATOM     93  C   UNL     1     -13.917   0.594 -10.784  1.00  0.00     0.148 A 
ATOM     94  C   UNL     1     -14.753   3.101  -9.832  1.00  0.00     0.002 A 
ATOM     95  C   UNL     1     -15.040   1.208 -11.323  1.00  0.00     0.091 A 
ATOM     96  F   UNL     1     -13.503  -0.613 -11.195  1.00  0.00    -0.205 F 
ATOM     97  C   UNL     1     -15.465   2.457 -10.842  1.00  0.00     0.022 A 
BRANCH  95  98
ATOM     98  S   UNL     1     -15.961   0.498 -12.692  1.00  0.00     0.127 S 
ATOM     99  O   UNL     1     -17.219   0.128 -12.044  1.00  0.00    -0.237 OA
ATOM    100  O   UNL     1     -16.060   1.627 -13.616  1.00  0.00    -0.237 OA
ATOM    101  O   UNL     1     -15.162  -0.618 -13.181  1.00  0.00    -0.744 OA
ENDBRANCH  95  98
ENDBRANCH  68  91
ENDBRANCH  42  43
ENDBRANCH  34  37
ENDBRANCH  32  33
ENDBRANCH   1  32
TORSDOF 16
