REMARK SMILES C[NH+](C)Cc1noc(CCCCC(=O)NCCCNC(=O)c2ccc(-c3c4nc(c(-c5cccc(S(=O)(=O)[O-])c5F)c5ccc([nH]5)c(-c5cccc(S(=O)(=O)[O-])c5F)c5nc(c(-c6cccc(S(=O)(=O)[O-])c6F)c6ccc3[nH]6)C=C5)C=C4)cc2)n1
REMARK SMILES IDX 13 1 14 2 15 3 12 5 11 6 10 7 9 8 8 9 5 10 6 11 85 12 7 13
REMARK SMILES IDX 4 14 2 15 1 16 3 17 16 19 17 20 18 21 19 22 20 23 21 25
REMARK SMILES IDX 22 26 23 27 84 28 24 29 83 30 25 31 26 32 27 33 77 34 28 35
REMARK SMILES IDX 82 36 76 37 78 38 29 39 81 40 75 41 74 42 30 44 62 45 42 46
REMARK SMILES IDX 61 47 43 48 46 49 60 50 79 51 44 52 45 53 59 55 80 56 47 57
REMARK SMILES IDX 31 58 32 59 40 60 33 61 35 62 41 63 34 64 36 65 37 66 38 67
REMARK SMILES IDX 39 68 63 69 64 70 72 71 65 72 67 73 73 74 66 75 68 76 69 77
REMARK SMILES IDX 70 78 71 79 48 80 49 81 57 82 50 83 52 84 58 85 51 86 53 87
REMARK SMILES IDX 54 88 55 89 56 90
REMARK H PARENT 15 4 2 18 19 24 78 43 46 54
REMARK Flexibility Score: inf
ROOT
ATOM      1  C   UNL     1      -0.808   5.806   5.952  1.00  0.00     0.219 C 
ATOM      2  O   UNL     1      -0.459   6.703   6.722  1.00  0.00    -0.275 OA
ATOM      3  N   UNL     1      -1.433   4.718   6.479  1.00  0.00    -0.356 N 
ATOM      4  H   UNL     1      -1.580   4.760   7.451  1.00  0.00     0.163 HD
ENDROOT
BRANCH   1   5
ATOM      5  C   UNL     1      -0.584   5.940   4.458  1.00  0.00     0.100 C 
BRANCH   5   6
ATOM      6  C   UNL     1       0.784   5.457   3.965  1.00  0.00     0.010 C 
BRANCH   6   7
ATOM      7  C   UNL     1       0.940   3.957   3.703  1.00  0.00     0.010 C 
BRANCH   7   8
ATOM      8  C   UNL     1      -0.108   3.334   2.785  1.00  0.00     0.100 C 
BRANCH   8   9
ATOM      9  C   UNL     1       0.328   3.236   1.382  1.00  0.00     0.226 A 
ATOM     10  C   UNL     1       0.828   2.639  -0.555  1.00  0.00     0.226 A 
ATOM     11  N   UNL     1       0.802   3.981  -0.642  1.00  0.00    -0.056 NA
ATOM     12  N   UNL     1       0.537   2.149   0.690  1.00  0.00    -0.191 NA
ATOM     13  O   UNL     1       0.462   4.381   0.657  1.00  0.00    -0.339 OA
BRANCH  10  14
ATOM     14  C   UNL     1       1.151   1.759  -1.725  1.00  0.00     0.344 C 
BRANCH  14  15
ATOM     15  N   UNL     1       0.605   0.382  -1.683  1.00  0.00    -0.333 N 
ATOM     16  C   UNL     1       1.198  -0.436  -0.622  1.00  0.00     0.332 C 
ATOM     17  C   UNL     1      -0.853   0.350  -1.617  1.00  0.00     0.332 C 
ATOM     18  H   UNL     1       0.875  -0.037  -2.573  1.00  0.00     0.348 HD
ENDBRANCH  14  15
ENDBRANCH  10  14
ENDBRANCH   8   9
ENDBRANCH   7   8
ENDBRANCH   6   7
ENDBRANCH   5   6
ENDBRANCH   1   5
BRANCH   3  19
ATOM     19  C   UNL     1      -1.919   3.505   5.846  1.00  0.00     0.117 C 
BRANCH  19  20
ATOM     20  C   UNL     1      -1.034   2.307   6.176  1.00  0.00     0.042 C 
BRANCH  20  21
ATOM     21  C   UNL     1      -1.347   1.651   7.510  1.00  0.00     0.118 C 
BRANCH  21  22
ATOM     22  N   UNL     1      -2.587   0.892   7.477  1.00  0.00    -0.352 N 
ATOM     23  C   UNL     1      -2.823  -0.430   7.770  1.00  0.00     0.251 C 
ATOM     24  H   UNL     1      -3.381   1.405   7.202  1.00  0.00     0.163 HD
ATOM     25  O   UNL     1      -3.923  -0.906   7.502  1.00  0.00    -0.269 OA
BRANCH  23  26
ATOM     26  C   UNL     1      -1.773  -1.285   8.378  1.00  0.00     0.039 A 
ATOM     27  C   UNL     1      -1.704  -2.629   8.000  1.00  0.00     0.014 A 
ATOM     28  C   UNL     1      -0.883  -0.794   9.337  1.00  0.00     0.014 A 
ATOM     29  C   UNL     1      -0.720  -3.459   8.543  1.00  0.00     0.010 A 
ATOM     30  C   UNL     1       0.160  -1.595   9.800  1.00  0.00     0.010 A 
ATOM     31  C   UNL     1       0.243  -2.942   9.425  1.00  0.00    -0.014 A 
BRANCH  31  32
ATOM     32  C   UNL     1       1.332  -3.801   9.961  1.00  0.00     0.031 A 
ATOM     33  C   UNL     1       1.463  -4.038  11.444  1.00  0.00     0.074 A 
ATOM     34  C   UNL     1       2.245  -4.320   9.116  1.00  0.00     0.049 A 
ATOM     35  N   UNL     1       2.348  -4.756  12.088  1.00  0.00    -0.248 NA
ATOM     36  C   UNL     1       0.494  -3.360  12.321  1.00  0.00     0.031 C 
ATOM     37  C   UNL     1       2.284  -4.090   7.670  1.00  0.00     0.029 A 
ATOM     38  N   UNL     1       3.325  -5.134   9.350  1.00  0.00    -0.354 N 
ATOM     39  C   UNL     1       2.065  -4.589  13.439  1.00  0.00     0.074 A 
ATOM     40  C   UNL     1       0.953  -3.668  13.525  1.00  0.00     0.031 C 
ATOM     41  C   UNL     1       3.320  -4.762   7.144  1.00  0.00     0.029 A 
ATOM     42  C   UNL     1       4.037  -5.446   8.215  1.00  0.00     0.049 A 
ATOM     43  H   UNL     1       3.567  -5.463  10.245  1.00  0.00     0.167 HD
ATOM     44  C   UNL     1       2.652  -5.173  14.511  1.00  0.00     0.034 A 
ATOM     45  C   UNL     1       5.143  -6.199   8.053  1.00  0.00     0.034 A 
ATOM     46  C   UNL     1       3.729  -6.121  14.420  1.00  0.00     0.049 A 
ATOM     47  C   UNL     1       5.746  -6.876   9.253  1.00  0.00     0.074 A 
ATOM     48  C   UNL     1       4.330  -6.842  15.436  1.00  0.00     0.029 A 
ATOM     49  N   UNL     1       4.376  -6.473  13.245  1.00  0.00    -0.354 N 
ATOM     50  N   UNL     1       5.356  -6.840  10.504  1.00  0.00    -0.248 NA
ATOM     51  C   UNL     1       6.918  -7.729   9.013  1.00  0.00     0.031 C 
ATOM     52  C   UNL     1       5.360  -7.608  14.879  1.00  0.00     0.029 A 
ATOM     53  C   UNL     1       5.379  -7.389  13.511  1.00  0.00     0.049 A 
ATOM     54  H   UNL     1       4.154  -6.122  12.352  1.00  0.00     0.167 HD
ATOM     55  C   UNL     1       6.215  -7.686  11.196  1.00  0.00     0.074 A 
ATOM     56  C   UNL     1       7.127  -8.242  10.218  1.00  0.00     0.031 C 
ATOM     57  C   UNL     1       6.256  -7.965  12.523  1.00  0.00     0.034 A 
BRANCH  44  58
ATOM     58  C   UNL     1       2.104  -4.840  15.877  1.00  0.00     0.023 A 
ATOM     59  C   UNL     1       0.827  -5.310  16.250  1.00  0.00     0.012 A 
ATOM     60  C   UNL     1       2.867  -4.109  16.808  1.00  0.00     0.148 A 
ATOM     61  C   UNL     1       0.301  -5.022  17.509  1.00  0.00     0.002 A 
ATOM     62  C   UNL     1       2.356  -3.867  18.078  1.00  0.00     0.091 A 
ATOM     63  F   UNL     1       4.070  -3.652  16.432  1.00  0.00    -0.205 F 
ATOM     64  C   UNL     1       1.069  -4.310  18.425  1.00  0.00     0.022 A 
BRANCH  62  65
ATOM     65  S   UNL     1       3.297  -3.029  19.360  1.00  0.00     0.127 S 
ATOM     66  O   UNL     1       2.594  -1.750  19.453  1.00  0.00    -0.237 OA
ATOM     67  O   UNL     1       3.106  -3.914  20.509  1.00  0.00    -0.237 OA
ATOM     68  O   UNL     1       4.666  -2.957  18.869  1.00  0.00    -0.744 OA
ENDBRANCH  62  65
ENDBRANCH  44  58
BRANCH  45  69
ATOM     69  C   UNL     1       5.706  -6.407   6.689  1.00  0.00     0.023 A 
ATOM     70  C   UNL     1       5.602  -7.674   6.082  1.00  0.00     0.012 A 
ATOM     71  C   UNL     1       6.307  -5.352   5.976  1.00  0.00     0.148 A 
ATOM     72  C   UNL     1       6.113  -7.894   4.803  1.00  0.00     0.002 A 
ATOM     73  C   UNL     1       6.762  -5.563   4.680  1.00  0.00     0.091 A 
ATOM     74  F   UNL     1       6.405  -4.157   6.575  1.00  0.00    -0.205 F 
ATOM     75  C   UNL     1       6.683  -6.838   4.098  1.00  0.00     0.022 A 
BRANCH  73  76
ATOM     76  S   UNL     1       7.383  -4.231   3.648  1.00  0.00     0.127 S 
ATOM     77  O   UNL     1       8.801  -4.564   3.550  1.00  0.00    -0.237 OA
ATOM     78  O   UNL     1       6.617  -4.422   2.416  1.00  0.00    -0.237 OA
ATOM     79  O   UNL     1       7.070  -3.000   4.363  1.00  0.00    -0.744 OA
ENDBRANCH  73  76
ENDBRANCH  45  69
BRANCH  57  80
ATOM     80  C   UNL     1       7.309  -8.933  12.996  1.00  0.00     0.023 A 
ATOM     81  C   UNL     1       8.663  -8.545  13.009  1.00  0.00     0.012 A 
ATOM     82  C   UNL     1       6.950 -10.206  13.482  1.00  0.00     0.148 A 
ATOM     83  C   UNL     1       9.649  -9.423  13.459  1.00  0.00     0.002 A 
ATOM     84  C   UNL     1       7.931 -11.056  13.978  1.00  0.00     0.091 A 
ATOM     85  F   UNL     1       5.658 -10.564  13.446  1.00  0.00    -0.205 F 
ATOM     86  C   UNL     1       9.282 -10.672  13.953  1.00  0.00     0.022 A 
BRANCH  84  87
ATOM     87  S   UNL     1       7.542 -12.643  14.724  1.00  0.00     0.127 S 
ATOM     88  O   UNL     1       7.998 -13.575  13.695  1.00  0.00    -0.237 OA
ATOM     89  O   UNL     1       8.359 -12.625  15.937  1.00  0.00    -0.237 OA
ATOM     90  O   UNL     1       6.105 -12.630  14.964  1.00  0.00    -0.744 OA
ENDBRANCH  84  87
ENDBRANCH  57  80
ENDBRANCH  31  32
ENDBRANCH  23  26
ENDBRANCH  21  22
ENDBRANCH  20  21
ENDBRANCH  19  20
ENDBRANCH   3  19
TORSDOF 19
