REMARK SMILES Cc1ccc(-c2nn(CCC(=O)NCCCNC(=O)c3ccc(-c4c5nc(c(-c6cccc(S(=O)(=O)[O-])c6F)c6ccc([nH]6)c(-c6cccc(S(=O)(=O)[O-])c6F)c6nc(c(-c7cccc(S(=O)(=O)[O-])c7F)c7ccc4[nH]7)C=C6)C=C5)cc3)c(=O)c3noc(C)c23)cc1C
REMARK SMILES IDX 15 1 14 2 13 3 11 4 12 5 10 7 9 8 8 9 6 10 7 11 90 12 85 13
REMARK SMILES IDX 88 14 83 15 86 16 87 17 89 18 84 19 5 20 1 21 2 22 3 23
REMARK SMILES IDX 92 24 4 25 91 26 93 27 16 28 17 29 18 30 19 32 20 33 21 34
REMARK SMILES IDX 82 35 22 36 81 37 23 38 24 39 25 40 75 41 26 42 80 43 74 44
REMARK SMILES IDX 76 45 27 46 79 47 73 48 72 49 28 51 60 52 40 53 59 54 41 55
REMARK SMILES IDX 44 56 58 57 77 58 42 59 43 60 57 62 78 63 45 64 29 65 30 66
REMARK SMILES IDX 38 67 31 68 33 69 39 70 32 71 34 72 35 73 36 74 37 75 61 76
REMARK SMILES IDX 62 77 70 78 63 79 65 80 71 81 64 82 66 83 67 84 68 85 69 86
REMARK SMILES IDX 46 87 47 88 55 89 48 90 50 91 56 92 49 93 51 94 52 95 53 96
REMARK SMILES IDX 54 97
REMARK H PARENT 13 6 17 31 76 50 44 61
REMARK Flexibility Score: inf
ROOT
ATOM      1  C   UNL     1      -6.120  -4.652   1.196  1.00  0.00     0.042 C 
ENDROOT
BRANCH   1   2
ATOM      2  C   UNL     1      -5.587  -5.141  -0.152  1.00  0.00     0.117 C 
BRANCH   2   3
ATOM      3  N   UNL     1      -6.610  -5.002  -1.182  1.00  0.00    -0.356 N 
ATOM      4  C   UNL     1      -6.752  -4.135  -2.218  1.00  0.00     0.221 C 
ATOM      5  O   UNL     1      -7.805  -4.163  -2.861  1.00  0.00    -0.275 OA
ATOM      6  H   UNL     1      -7.336  -5.663  -1.114  1.00  0.00     0.163 HD
BRANCH   4   7
ATOM      7  C   UNL     1      -5.640  -3.197  -2.630  1.00  0.00     0.124 C 
BRANCH   7   8
ATOM      8  C   UNL     1      -5.841  -1.777  -2.107  1.00  0.00     0.158 C 
BRANCH   8   9
ATOM      9  N   UNL     1      -4.997  -1.494  -0.948  1.00  0.00    -0.227 N 
ATOM     10  C   UNL     1      -2.794  -1.142  -0.218  1.00  0.00     0.104 A 
ATOM     11  N   UNL     1      -3.630  -1.247  -1.215  1.00  0.00    -0.169 NA
ATOM     12  C   UNL     1      -3.243  -1.394   1.118  1.00  0.00     0.078 A 
ATOM     13  C   UNL     1      -4.613  -1.395   1.399  1.00  0.00     0.183 A 
ATOM     14  C   UNL     1      -2.639  -1.713   2.308  1.00  0.00     0.143 A 
ATOM     15  C   UNL     1      -5.597  -1.374   0.331  1.00  0.00     0.296 A 
ATOM     16  N   UNL     1      -4.851  -1.562   2.704  1.00  0.00    -0.074 NA
ATOM     17  O   UNL     1      -3.604  -1.777   3.274  1.00  0.00    -0.360 OA
ATOM     18  C   UNL     1      -1.273  -2.045   2.753  1.00  0.00     0.091 C 
ATOM     19  O   UNL     1      -6.809  -1.366   0.512  1.00  0.00    -0.265 OA
BRANCH  10  20
ATOM     20  C   UNL     1      -1.472  -0.523  -0.390  1.00  0.00     0.003 A 
ATOM     21  C   UNL     1       2.241   1.604   0.012  1.00  0.00     0.044 C 
ATOM     22  C   UNL     1       0.967   0.829  -0.191  1.00  0.00    -0.048 A 
ATOM     23  C   UNL     1      -0.239   1.543  -0.256  1.00  0.00     0.004 A 
ATOM     24  C   UNL     1       0.947  -0.583  -0.278  1.00  0.00    -0.048 A 
ATOM     25  C   UNL     1      -1.452   0.873  -0.352  1.00  0.00     0.011 A 
ATOM     26  C   UNL     1      -0.287  -1.254  -0.390  1.00  0.00     0.014 A 
ATOM     27  C   UNL     1       2.193  -1.419  -0.159  1.00  0.00     0.044 C 
ENDBRANCH  10  20
ENDBRANCH   8   9
ENDBRANCH   7   8
ENDBRANCH   4   7
ENDBRANCH   2   3
ENDBRANCH   1   2
BRANCH   1  28
ATOM     28  C   UNL     1      -5.752  -5.463   2.439  1.00  0.00     0.118 C 
BRANCH  28  29
ATOM     29  N   UNL     1      -4.323  -5.670   2.578  1.00  0.00    -0.352 N 
ATOM     30  C   UNL     1      -3.446  -5.560   3.626  1.00  0.00     0.251 C 
ATOM     31  H   UNL     1      -3.890  -5.952   1.740  1.00  0.00     0.163 HD
ATOM     32  O   UNL     1      -2.252  -5.683   3.326  1.00  0.00    -0.269 OA
BRANCH  30  33
ATOM     33  C   UNL     1      -3.806  -5.296   5.054  1.00  0.00     0.039 A 
ATOM     34  C   UNL     1      -2.745  -4.908   5.894  1.00  0.00     0.014 A 
ATOM     35  C   UNL     1      -5.065  -5.469   5.636  1.00  0.00     0.014 A 
ATOM     36  C   UNL     1      -2.944  -4.645   7.253  1.00  0.00     0.010 A 
ATOM     37  C   UNL     1      -5.275  -5.175   6.997  1.00  0.00     0.010 A 
ATOM     38  C   UNL     1      -4.221  -4.744   7.811  1.00  0.00    -0.014 A 
BRANCH  38  39
ATOM     39  C   UNL     1      -4.409  -4.275   9.204  1.00  0.00     0.031 A 
ATOM     40  C   UNL     1      -5.550  -3.333   9.423  1.00  0.00     0.074 A 
ATOM     41  C   UNL     1      -3.938  -4.963  10.268  1.00  0.00     0.049 A 
ATOM     42  N   UNL     1      -6.774  -3.745   9.577  1.00  0.00    -0.248 NA
ATOM     43  C   UNL     1      -5.436  -1.885   9.255  1.00  0.00     0.031 C 
ATOM     44  C   UNL     1      -3.843  -6.428  10.299  1.00  0.00     0.029 A 
ATOM     45  N   UNL     1      -3.704  -4.580  11.572  1.00  0.00    -0.354 N 
ATOM     46  C   UNL     1      -7.603  -2.643   9.466  1.00  0.00     0.074 A 
ATOM     47  C   UNL     1      -6.725  -1.507   9.285  1.00  0.00     0.031 C 
ATOM     48  C   UNL     1      -3.744  -6.827  11.585  1.00  0.00     0.029 A 
ATOM     49  C   UNL     1      -3.602  -5.659  12.452  1.00  0.00     0.049 A 
ATOM     50  H   UNL     1      -3.617  -3.641  11.854  1.00  0.00     0.167 HD
ATOM     51  C   UNL     1      -8.959  -2.738   9.529  1.00  0.00     0.034 A 
ATOM     52  C   UNL     1      -3.954  -5.634  13.770  1.00  0.00     0.034 A 
ATOM     53  C   UNL     1      -9.461  -4.066   9.751  1.00  0.00     0.049 A 
ATOM     54  C   UNL     1      -5.451  -5.502  13.673  1.00  0.00     0.074 A 
ATOM     55  C   UNL     1      -9.922  -5.110   8.979  1.00  0.00     0.029 A 
ATOM     56  N   UNL     1      -9.424  -4.570  11.030  1.00  0.00    -0.354 N 
ATOM     57  N   UNL     1      -6.277  -6.474  13.385  1.00  0.00    -0.248 NA
ATOM     58  C   UNL     1      -6.004  -4.159  13.502  1.00  0.00     0.031 C 
ATOM     59  C   UNL     1      -9.699  -6.291   9.757  1.00  0.00     0.029 A 
ATOM     60  C   UNL     1      -9.079  -5.896  10.941  1.00  0.00     0.049 A 
ATOM     61  H   UNL     1      -9.611  -4.071  11.857  1.00  0.00     0.167 HD
ATOM     62  C   UNL     1      -7.329  -5.868  12.692  1.00  0.00     0.074 A 
ATOM     63  C   UNL     1      -7.107  -4.440  12.822  1.00  0.00     0.031 C 
ATOM     64  C   UNL     1      -8.218  -6.547  11.908  1.00  0.00     0.034 A 
BRANCH  51  65
ATOM     65  C   UNL     1      -9.900  -1.592   9.565  1.00  0.00     0.023 A 
ATOM     66  C   UNL     1     -10.411  -1.244  10.833  1.00  0.00     0.012 A 
ATOM     67  C   UNL     1     -10.451  -1.000   8.415  1.00  0.00     0.148 A 
ATOM     68  C   UNL     1     -11.485  -0.369  10.960  1.00  0.00     0.002 A 
ATOM     69  C   UNL     1     -11.521  -0.114   8.550  1.00  0.00     0.091 A 
ATOM     70  F   UNL     1      -9.962  -1.348   7.216  1.00  0.00    -0.205 F 
ATOM     71  C   UNL     1     -12.046   0.189   9.819  1.00  0.00     0.022 A 
BRANCH  69  72
ATOM     72  S   UNL     1     -12.335   0.679   7.157  1.00  0.00     0.127 S 
ATOM     73  O   UNL     1     -13.665   0.072   7.196  1.00  0.00    -0.237 OA
ATOM     74  O   UNL     1     -12.299   2.089   7.550  1.00  0.00    -0.237 OA
ATOM     75  O   UNL     1     -11.533   0.356   5.987  1.00  0.00    -0.744 OA
ENDBRANCH  69  72
ENDBRANCH  51  65
BRANCH  52  76
ATOM     76  C   UNL     1      -3.078  -4.790  14.653  1.00  0.00     0.023 A 
ATOM     77  C   UNL     1      -1.685  -5.042  14.581  1.00  0.00     0.012 A 
ATOM     78  C   UNL     1      -3.502  -3.781  15.539  1.00  0.00     0.148 A 
ATOM     79  C   UNL     1      -0.752  -4.257  15.264  1.00  0.00     0.002 A 
ATOM     80  C   UNL     1      -2.568  -2.954  16.166  1.00  0.00     0.091 A 
ATOM     81  F   UNL     1      -4.809  -3.627  15.776  1.00  0.00    -0.205 F 
ATOM     82  C   UNL     1      -1.193  -3.189  16.031  1.00  0.00     0.022 A 
BRANCH  80  83
ATOM     83  S   UNL     1      -3.043  -1.491  17.100  1.00  0.00     0.127 S 
ATOM     84  O   UNL     1      -2.281  -1.655  18.337  1.00  0.00    -0.237 OA
ATOM     85  O   UNL     1      -2.569  -0.424  16.221  1.00  0.00    -0.237 OA
ATOM     86  O   UNL     1      -4.489  -1.572  17.253  1.00  0.00    -0.744 OA
ENDBRANCH  80  83
ENDBRANCH  52  76
BRANCH  64  87
ATOM     87  C   UNL     1      -8.142  -8.045  11.948  1.00  0.00     0.023 A 
ATOM     88  C   UNL     1      -8.499  -8.701  13.142  1.00  0.00     0.012 A 
ATOM     89  C   UNL     1      -7.805  -8.818  10.817  1.00  0.00     0.148 A 
ATOM     90  C   UNL     1      -8.547 -10.093  13.207  1.00  0.00     0.002 A 
ATOM     91  C   UNL     1      -7.898 -10.205  10.874  1.00  0.00     0.091 A 
ATOM     92  F   UNL     1      -7.414  -8.192   9.697  1.00  0.00    -0.205 F 
ATOM     93  C   UNL     1      -8.265 -10.844  12.070  1.00  0.00     0.022 A 
BRANCH  91  94
ATOM     94  S   UNL     1      -7.633 -11.265   9.446  1.00  0.00     0.127 S 
ATOM     95  O   UNL     1      -6.590 -12.172   9.926  1.00  0.00    -0.237 OA
ATOM     96  O   UNL     1      -8.949 -11.885   9.283  1.00  0.00    -0.237 OA
ATOM     97  O   UNL     1      -7.228 -10.392   8.353  1.00  0.00    -0.744 OA
ENDBRANCH  91  94
ENDBRANCH  64  87
ENDBRANCH  38  39
ENDBRANCH  30  33
ENDBRANCH  28  29
ENDBRANCH   1  28
TORSDOF 16
