REMARK SMILES Cc1cccc(S(=O)(=O)Nc2cc(C(=O)NCCCNC(=O)c3ccc(-c4c5nc(c(-c6cccc(S(=O)(=O)[O-])c6F)c6ccc([nH]6)c(-c6cccc(S(=O)(=O)[O-])c6F)c6nc(c(-c7cccc(S(=O)(=O)[O-])c7F)c7ccc4[nH]7)C=C6)C=C5)cc3)cnc2N2CCC[C@H](C)C2)c1
REMARK SMILES IDX 18 1 17 2 16 3 14 4 15 5 13 7 11 8 12 9 88 10 87 11 86 12
REMARK SMILES IDX 10 13 7 15 8 16 9 17 6 18 1 19 2 20 3 21 96 22 4 23 5 24
REMARK SMILES IDX 89 25 90 26 95 27 91 28 93 29 92 30 94 31 19 32 20 33 21 34
REMARK SMILES IDX 22 36 23 37 24 38 85 39 25 40 84 41 26 42 27 43 28 44 78 45
REMARK SMILES IDX 29 46 83 47 77 48 79 49 30 50 82 51 76 52 75 53 31 55 63 56
REMARK SMILES IDX 43 57 62 58 44 59 47 60 61 61 80 62 45 63 46 64 60 66 81 67
REMARK SMILES IDX 48 68 32 69 33 70 41 71 34 72 36 73 42 74 35 75 37 76 38 77
REMARK SMILES IDX 39 78 40 79 64 80 65 81 73 82 66 83 68 84 74 85 67 86 69 87
REMARK SMILES IDX 70 88 71 89 72 90 49 91 50 92 58 93 51 94 53 95 59 96 52 97
REMARK SMILES IDX 54 98 55 99 56 100 57 101
REMARK H PARENT 16 6 10 14 20 35 79 54 47 65
REMARK Flexibility Score: inf
ROOT
ATOM      1  C   UNL     1       0.220   1.617  -3.606  1.00  0.00     0.042 C 
ENDROOT
BRANCH   1   2
ATOM      2  C   UNL     1       1.115   0.774  -2.707  1.00  0.00     0.118 C 
BRANCH   2   3
ATOM      3  N   UNL     1       2.507   1.216  -2.699  1.00  0.00    -0.352 N 
ATOM      4  C   UNL     1       3.171   2.156  -1.936  1.00  0.00     0.252 C 
ATOM      5  O   UNL     1       4.396   2.226  -2.012  1.00  0.00    -0.269 OA
ATOM      6  H   UNL     1       3.077   0.760  -3.359  1.00  0.00     0.163 HD
BRANCH   4   7
ATOM      7  C   UNL     1       2.481   3.060  -0.981  1.00  0.00     0.060 A 
ATOM      8  C   UNL     1       0.508   4.026  -0.003  1.00  0.00     0.092 A 
ATOM      9  C   UNL     1       1.132   3.340  -1.025  1.00  0.00     0.046 A 
ATOM     10  C   UNL     1       1.285   4.652   0.981  1.00  0.00     0.153 A 
ATOM     11  N   UNL     1       2.627   4.481   0.997  1.00  0.00    -0.236 NA
ATOM     12  C   UNL     1       3.188   3.669   0.047  1.00  0.00     0.127 A 
BRANCH   8  13
ATOM     13  N   UNL     1      -0.916   4.104  -0.065  1.00  0.00    -0.276 N 
ATOM     14  H   UNL     1      -1.335   4.939  -0.377  1.00  0.00     0.180 HD
BRANCH  13  15
ATOM     15  S   UNL     1      -1.909   2.801   0.385  1.00  0.00     0.262 S 
ATOM     16  O   UNL     1      -2.872   2.708  -0.717  1.00  0.00    -0.201 OA
ATOM     17  O   UNL     1      -2.372   3.076   1.710  1.00  0.00    -0.201 OA
BRANCH  15  18
ATOM     18  C   UNL     1      -1.084   1.216   0.445  1.00  0.00     0.088 A 
ATOM     19  C   UNL     1       2.349  -0.374   0.848  1.00  0.00     0.044 C 
ATOM     20  C   UNL     1       0.860  -0.220   0.701  1.00  0.00    -0.050 A 
ATOM     21  C   UNL     1       0.109  -1.315   0.253  1.00  0.00     0.003 A 
ATOM     22  C   UNL     1       0.230   1.026   0.886  1.00  0.00     0.025 A 
ATOM     23  C   UNL     1      -1.236  -1.158  -0.068  1.00  0.00     0.002 A 
ATOM     24  C   UNL     1      -1.820   0.107  -0.003  1.00  0.00     0.022 A 
ENDBRANCH  15  18
ENDBRANCH  13  15
ENDBRANCH   8  13
BRANCH  10  25
ATOM     25  N   UNL     1       0.711   5.574   1.829  1.00  0.00    -0.355 N 
ATOM     26  C   UNL     1      -0.204   5.221   2.897  1.00  0.00     0.118 C 
ATOM     27  C   UNL     1       1.265   6.918   1.849  1.00  0.00     0.121 C 
ATOM     28  C   UNL     1      -1.414   6.159   2.830  1.00  0.00     0.022 C 
ATOM     29  C   UNL     1       0.101   7.914   1.693  1.00  0.00     0.005 C 
ATOM     30  C   UNL     1      -1.002   7.634   2.734  1.00  0.00     0.007 C 
ATOM     31  C   UNL     1      -0.443   7.910   0.258  1.00  0.00     0.009 C 
ENDBRANCH  10  25
ENDBRANCH   4   7
ENDBRANCH   2   3
ENDBRANCH   1   2
BRANCH   1  32
ATOM     32  C   UNL     1       0.025   1.032  -4.977  1.00  0.00     0.118 C 
BRANCH  32  33
ATOM     33  N   UNL     1      -1.318   0.531  -5.221  1.00  0.00    -0.352 N 
ATOM     34  C   UNL     1      -1.875   0.150  -6.434  1.00  0.00     0.251 C 
ATOM     35  H   UNL     1      -1.902   0.453  -4.432  1.00  0.00     0.163 HD
ATOM     36  O   UNL     1      -3.068  -0.118  -6.503  1.00  0.00    -0.269 OA
BRANCH  34  37
ATOM     37  C   UNL     1      -0.958  -0.073  -7.581  1.00  0.00     0.039 A 
ATOM     38  C   UNL     1      -0.896  -1.384  -8.054  1.00  0.00     0.014 A 
ATOM     39  C   UNL     1       0.099   0.804  -7.795  1.00  0.00     0.014 A 
ATOM     40  C   UNL     1       0.340  -1.911  -8.398  1.00  0.00     0.010 A 
ATOM     41  C   UNL     1       1.345   0.257  -7.994  1.00  0.00     0.010 A 
ATOM     42  C   UNL     1       1.465  -1.118  -8.207  1.00  0.00    -0.014 A 
BRANCH  42  43
ATOM     43  C   UNL     1       2.827  -1.585  -8.360  1.00  0.00     0.031 A 
ATOM     44  C   UNL     1       3.385  -1.517  -9.724  1.00  0.00     0.074 A 
ATOM     45  C   UNL     1       3.571  -1.896  -7.274  1.00  0.00     0.049 A 
ATOM     46  N   UNL     1       4.474  -2.082 -10.101  1.00  0.00    -0.248 NA
ATOM     47  C   UNL     1       2.699  -0.806 -10.801  1.00  0.00     0.031 C 
ATOM     48  C   UNL     1       5.023  -2.032  -7.204  1.00  0.00     0.029 A 
ATOM     49  N   UNL     1       3.187  -2.255  -5.984  1.00  0.00    -0.354 N 
ATOM     50  C   UNL     1       4.782  -1.589 -11.352  1.00  0.00     0.074 A 
ATOM     51  C   UNL     1       3.599  -0.889 -11.780  1.00  0.00     0.031 C 
ATOM     52  C   UNL     1       5.343  -2.729  -6.098  1.00  0.00     0.029 A 
ATOM     53  C   UNL     1       4.097  -3.233  -5.554  1.00  0.00     0.049 A 
ATOM     54  H   UNL     1       2.426  -1.894  -5.474  1.00  0.00     0.167 HD
ATOM     55  C   UNL     1       6.067  -1.707 -11.787  1.00  0.00     0.034 A 
ATOM     56  C   UNL     1       3.796  -4.566  -5.406  1.00  0.00     0.034 A 
ATOM     57  C   UNL     1       6.820  -2.593 -10.878  1.00  0.00     0.049 A 
ATOM     58  C   UNL     1       4.632  -5.460  -6.327  1.00  0.00     0.074 A 
ATOM     59  C   UNL     1       7.647  -2.345  -9.794  1.00  0.00     0.029 A 
ATOM     60  N   UNL     1       6.456  -3.937 -10.787  1.00  0.00    -0.354 N 
ATOM     61  N   UNL     1       5.359  -5.008  -7.314  1.00  0.00    -0.248 NA
ATOM     62  C   UNL     1       4.706  -6.917  -6.222  1.00  0.00     0.031 C 
ATOM     63  C   UNL     1       7.660  -3.513  -8.978  1.00  0.00     0.029 A 
ATOM     64  C   UNL     1       6.883  -4.488  -9.585  1.00  0.00     0.049 A 
ATOM     65  H   UNL     1       5.963  -4.430 -11.482  1.00  0.00     0.167 HD
ATOM     66  C   UNL     1       5.884  -6.046  -8.033  1.00  0.00     0.074 A 
ATOM     67  C   UNL     1       5.507  -7.220  -7.260  1.00  0.00     0.031 C 
ATOM     68  C   UNL     1       6.531  -5.864  -9.227  1.00  0.00     0.034 A 
BRANCH  55  69
ATOM     69  C   UNL     1       6.721  -0.786 -12.813  1.00  0.00     0.023 A 
ATOM     70  C   UNL     1       8.131  -0.703 -12.783  1.00  0.00     0.012 A 
ATOM     71  C   UNL     1       6.080   0.074 -13.740  1.00  0.00     0.148 A 
ATOM     72  C   UNL     1       8.852   0.219 -13.555  1.00  0.00     0.002 A 
ATOM     73  C   UNL     1       6.792   1.024 -14.482  1.00  0.00     0.091 A 
ATOM     74  F   UNL     1       4.776  -0.046 -13.976  1.00  0.00    -0.205 F 
ATOM     75  C   UNL     1       8.182   1.101 -14.387  1.00  0.00     0.022 A 
BRANCH  73  76
ATOM     76  S   UNL     1       5.986   2.229 -15.559  1.00  0.00     0.127 S 
ATOM     77  O   UNL     1       6.502   3.498 -15.042  1.00  0.00    -0.237 OA
ATOM     78  O   UNL     1       6.497   1.858 -16.878  1.00  0.00    -0.237 OA
ATOM     79  O   UNL     1       4.550   2.050 -15.377  1.00  0.00    -0.744 OA
ENDBRANCH  73  76
ENDBRANCH  55  69
BRANCH  56  80
ATOM     80  C   UNL     1       2.361  -4.808  -5.046  1.00  0.00     0.023 A 
ATOM     81  C   UNL     1       1.878  -4.099  -3.918  1.00  0.00     0.012 A 
ATOM     82  C   UNL     1       1.440  -5.272  -5.997  1.00  0.00     0.148 A 
ATOM     83  C   UNL     1       0.579  -3.591  -3.911  1.00  0.00     0.002 A 
ATOM     84  C   UNL     1       0.126  -4.810  -5.949  1.00  0.00     0.091 A 
ATOM     85  F   UNL     1       1.856  -6.104  -6.960  1.00  0.00    -0.205 F 
ATOM     86  C   UNL     1      -0.279  -3.897  -4.962  1.00  0.00     0.022 A 
BRANCH  84  87
ATOM     87  S   UNL     1      -1.056  -5.312  -7.206  1.00  0.00     0.127 S 
ATOM     88  O   UNL     1      -1.467  -6.623  -6.716  1.00  0.00    -0.237 OA
ATOM     89  O   UNL     1      -2.087  -4.280  -7.116  1.00  0.00    -0.237 OA
ATOM     90  O   UNL     1      -0.292  -5.289  -8.445  1.00  0.00    -0.744 OA
ENDBRANCH  84  87
ENDBRANCH  56  80
BRANCH  68  91
ATOM     91  C   UNL     1       6.904  -6.994 -10.167  1.00  0.00     0.023 A 
ATOM     92  C   UNL     1       6.208  -8.219 -10.176  1.00  0.00     0.012 A 
ATOM     93  C   UNL     1       7.885  -6.812 -11.174  1.00  0.00     0.148 A 
ATOM     94  C   UNL     1       6.538  -9.252 -11.057  1.00  0.00     0.002 A 
ATOM     95  C   UNL     1       8.120  -7.795 -12.131  1.00  0.00     0.091 A 
ATOM     96  F   UNL     1       8.615  -5.688 -11.199  1.00  0.00    -0.205 F 
ATOM     97  C   UNL     1       7.483  -9.034 -12.048  1.00  0.00     0.022 A 
BRANCH  95  98
ATOM     98  S   UNL     1       9.116  -7.457 -13.589  1.00  0.00     0.127 S 
ATOM     99  O   UNL     1      10.415  -8.003 -13.203  1.00  0.00    -0.237 OA
ATOM    100  O   UNL     1       8.418  -8.219 -14.627  1.00  0.00    -0.237 OA
ATOM    101  O   UNL     1       9.054  -6.013 -13.770  1.00  0.00    -0.744 OA
ENDBRANCH  95  98
ENDBRANCH  68  91
ENDBRANCH  42  43
ENDBRANCH  34  37
ENDBRANCH  32  33
ENDBRANCH   1  32
TORSDOF 17
