REMARK SMILES Cc1nnc(SCC[C@H]2CCC[C@]2([NH2+]C(C)C)C(=O)NCCCNC(=O)c2ccc(-c3c4nc(c(-c5cccc(S(=O)(=O)[O-])c5F)c5ccc([nH]5)c(-c5cccc(S(=O)(=O)[O-])c5F)c5nc(c(-c6cccc(S(=O)(=O)[O-])c6F)c6ccc3[nH]6)C=C5)C=C4)cc2)o1
REMARK SMILES IDX 21 1 20 2 18 3 19 4 13 6 9 7 10 8 11 9 12 10 8 11 7 12 6 13
REMARK SMILES IDX 5 14 1 15 2 16 3 17 90 18 4 19 14 20 15 23 16 24 17 25 22 26
REMARK SMILES IDX 23 27 24 28 25 29 26 31 27 32 28 33 89 34 29 35 88 36 30 37
REMARK SMILES IDX 31 38 32 39 82 40 33 41 87 42 81 43 83 44 34 45 86 46 80 47
REMARK SMILES IDX 79 48 35 50 67 51 47 52 66 53 48 54 51 55 65 56 84 57 49 58
REMARK SMILES IDX 50 59 64 61 85 62 52 63 36 64 37 65 45 66 38 67 40 68 46 69
REMARK SMILES IDX 39 70 41 71 42 72 43 73 44 74 68 75 69 76 77 77 70 78 72 79
REMARK SMILES IDX 78 80 71 81 73 82 74 83 75 84 76 85 53 86 54 87 62 88 55 89
REMARK SMILES IDX 57 90 63 91 56 92 58 93 59 94 60 95 61 96
REMARK H PARENT 20 5 14 21 14 22 24 30 83 49 51 60
REMARK Flexibility Score: inf
ROOT
ATOM      1  C   UNL     1       4.001   2.315   0.068  1.00  0.00     0.118 C 
ENDROOT
BRANCH   1   2
ATOM      2  N   UNL     1       3.730   1.482  -1.074  1.00  0.00    -0.351 N 
ATOM      3  C   UNL     1       3.216   0.237  -1.152  1.00  0.00     0.281 C 
ATOM      4  O   UNL     1       3.421  -0.325  -2.236  1.00  0.00    -0.268 OA
ATOM      5  H   UNL     1       3.958   1.888  -1.942  1.00  0.00     0.163 HD
BRANCH   3   6
ATOM      6  C   UNL     1       2.316  -0.409  -0.021  1.00  0.00     0.178 C 
ATOM      7  C   UNL     1       3.005  -0.746   1.337  1.00  0.00     0.061 C 
ATOM      8  C   UNL     1       4.028  -1.802   0.933  1.00  0.00     0.011 C 
ATOM      9  C   UNL     1       3.317  -2.624  -0.126  1.00  0.00     0.008 C 
ATOM     10  C   UNL     1       2.059  -1.833  -0.537  1.00  0.00     0.079 C 
BRANCH   7  11
ATOM     11  C   UNL     1       2.116  -1.242   2.548  1.00  0.00     0.022 C 
BRANCH  11  12
ATOM     12  C   UNL     1       0.827  -2.106   2.421  1.00  0.00     0.080 C 
BRANCH  12  13
ATOM     13  S   UNL     1       0.996  -3.924   2.569  1.00  0.00    -0.065 SA
BRANCH  13  14
ATOM     14  C   UNL     1       0.708  -4.516   0.955  1.00  0.00     0.276 A 
ATOM     15  C   UNL     1       2.164  -5.765  -1.994  1.00  0.00     0.113 C 
ATOM     16  C   UNL     1       1.210  -5.268  -0.980  1.00  0.00     0.214 A 
ATOM     17  N   UNL     1       0.075  -4.618  -1.123  1.00  0.00    -0.112 NA
ATOM     18  O   UNL     1       1.616  -5.331   0.324  1.00  0.00    -0.416 OA
ATOM     19  N   UNL     1      -0.262  -4.145   0.141  1.00  0.00    -0.101 NA
ENDBRANCH  13  14
ENDBRANCH  12  13
ENDBRANCH  11  12
ENDBRANCH   7  11
BRANCH   6  20
ATOM     20  N   UNL     1       1.175   0.490   0.237  1.00  0.00    -0.331 N 
ATOM     21  H   UNL     1       1.550   1.349   0.639  1.00  0.00     0.347 HD
ATOM     22  H   UNL     1       0.558  -0.051   0.842  1.00  0.00     0.347 HD
BRANCH  20  23
ATOM     23  C   UNL     1       0.332   0.873  -0.894  1.00  0.00     0.176 C 
ATOM     24  C   UNL     1      -0.800  -0.127  -1.121  1.00  0.00     0.075 C 
ATOM     25  C   UNL     1      -0.253   2.248  -0.552  1.00  0.00     0.075 C 
ENDBRANCH  20  23
ENDBRANCH   6  20
ENDBRANCH   3   6
ENDBRANCH   1   2
BRANCH   1  26
ATOM     26  C   UNL     1       5.454   2.136   0.501  1.00  0.00     0.042 C 
BRANCH  26  27
ATOM     27  C   UNL     1       6.460   2.284  -0.642  1.00  0.00     0.118 C 
BRANCH  27  28
ATOM     28  N   UNL     1       6.332   3.559  -1.337  1.00  0.00    -0.352 N 
ATOM     29  C   UNL     1       7.231   4.591  -1.435  1.00  0.00     0.251 C 
ATOM     30  H   UNL     1       5.477   3.701  -1.804  1.00  0.00     0.163 HD
ATOM     31  O   UNL     1       6.873   5.682  -1.863  1.00  0.00    -0.269 OA
BRANCH  29  32
ATOM     32  C   UNL     1       8.627   4.375  -1.009  1.00  0.00     0.039 A 
ATOM     33  C   UNL     1       9.246   5.330  -0.201  1.00  0.00     0.014 A 
ATOM     34  C   UNL     1       9.316   3.225  -1.405  1.00  0.00     0.014 A 
ATOM     35  C   UNL     1      10.544   5.102   0.259  1.00  0.00     0.010 A 
ATOM     36  C   UNL     1      10.574   2.962  -0.878  1.00  0.00     0.010 A 
ATOM     37  C   UNL     1      11.206   3.902  -0.051  1.00  0.00    -0.014 A 
BRANCH  37  38
ATOM     38  C   UNL     1      12.561   3.611   0.478  1.00  0.00     0.031 A 
ATOM     39  C   UNL     1      13.715   3.418  -0.468  1.00  0.00     0.074 A 
ATOM     40  C   UNL     1      12.731   3.433   1.803  1.00  0.00     0.049 A 
ATOM     41  N   UNL     1      14.955   3.104  -0.200  1.00  0.00    -0.248 NA
ATOM     42  C   UNL     1      13.433   3.566  -1.906  1.00  0.00     0.031 C 
ATOM     43  C   UNL     1      11.671   3.509   2.811  1.00  0.00     0.029 A 
ATOM     44  N   UNL     1      13.855   3.126   2.528  1.00  0.00    -0.354 N 
ATOM     45  C   UNL     1      15.589   2.979  -1.430  1.00  0.00     0.074 A 
ATOM     46  C   UNL     1      14.589   3.213  -2.447  1.00  0.00     0.031 C 
ATOM     47  C   UNL     1      12.195   3.263   4.022  1.00  0.00     0.029 A 
ATOM     48  C   UNL     1      13.620   2.982   3.876  1.00  0.00     0.049 A 
ATOM     49  H   UNL     1      14.745   3.019   2.122  1.00  0.00     0.167 HD
ATOM     50  C   UNL     1      16.893   2.725  -1.690  1.00  0.00     0.034 A 
ATOM     51  C   UNL     1      14.457   2.655   4.879  1.00  0.00     0.034 A 
ATOM     52  C   UNL     1      17.892   2.540  -0.673  1.00  0.00     0.049 A 
ATOM     53  C   UNL     1      15.912   2.426   4.567  1.00  0.00     0.074 A 
ATOM     54  C   UNL     1      19.256   2.372  -0.827  1.00  0.00     0.029 A 
ATOM     55  N   UNL     1      17.634   2.493   0.688  1.00  0.00    -0.354 N 
ATOM     56  N   UNL     1      16.525   2.476   3.409  1.00  0.00    -0.248 NA
ATOM     57  C   UNL     1      16.797   2.134   5.704  1.00  0.00     0.031 C 
ATOM     58  C   UNL     1      19.820   2.198   0.441  1.00  0.00     0.029 A 
ATOM     59  C   UNL     1      18.811   2.288   1.387  1.00  0.00     0.049 A 
ATOM     60  H   UNL     1      16.744   2.591   1.098  1.00  0.00     0.167 HD
ATOM     61  C   UNL     1      17.870   2.258   3.681  1.00  0.00     0.074 A 
ATOM     62  C   UNL     1      17.985   2.098   5.116  1.00  0.00     0.031 C 
ATOM     63  C   UNL     1      18.915   2.183   2.819  1.00  0.00     0.034 A 
BRANCH  50  64
ATOM     64  C   UNL     1      17.325   2.686  -3.133  1.00  0.00     0.023 A 
ATOM     65  C   UNL     1      17.361   3.881  -3.882  1.00  0.00     0.012 A 
ATOM     66  C   UNL     1      17.747   1.483  -3.733  1.00  0.00     0.148 A 
ATOM     67  C   UNL     1      17.773   3.874  -5.214  1.00  0.00     0.002 A 
ATOM     68  C   UNL     1      18.202   1.492  -5.047  1.00  0.00     0.091 A 
ATOM     69  F   UNL     1      17.687   0.354  -3.013  1.00  0.00    -0.205 F 
ATOM     70  C   UNL     1      18.203   2.683  -5.792  1.00  0.00     0.022 A 
BRANCH  68  71
ATOM     71  S   UNL     1      18.854   0.028  -5.857  1.00  0.00     0.127 S 
ATOM     72  O   UNL     1      17.804  -0.262  -6.833  1.00  0.00    -0.237 OA
ATOM     73  O   UNL     1      20.102   0.527  -6.436  1.00  0.00    -0.237 OA
ATOM     74  O   UNL     1      19.026  -0.969  -4.810  1.00  0.00    -0.744 OA
ENDBRANCH  68  71
ENDBRANCH  50  64
BRANCH  51  75
ATOM     75  C   UNL     1      13.953   2.595   6.280  1.00  0.00     0.023 A 
ATOM     76  C   UNL     1      14.354   3.581   7.203  1.00  0.00     0.012 A 
ATOM     77  C   UNL     1      13.059   1.589   6.696  1.00  0.00     0.148 A 
ATOM     78  C   UNL     1      13.902   3.548   8.522  1.00  0.00     0.002 A 
ATOM     79  C   UNL     1      12.568   1.595   7.997  1.00  0.00     0.091 A 
ATOM     80  F   UNL     1      12.697   0.654   5.807  1.00  0.00    -0.205 F 
ATOM     81  C   UNL     1      13.002   2.562   8.916  1.00  0.00     0.022 A 
BRANCH  79  82
ATOM     82  S   UNL     1      11.305   0.445   8.553  1.00  0.00     0.127 S 
ATOM     83  O   UNL     1      12.060  -0.415   9.460  1.00  0.00    -0.237 OA
ATOM     84  O   UNL     1      10.348   1.340   9.206  1.00  0.00    -0.237 OA
ATOM     85  O   UNL     1      10.797  -0.195   7.347  1.00  0.00    -0.744 OA
ENDBRANCH  79  82
ENDBRANCH  51  75
BRANCH  63  86
ATOM     86  C   UNL     1      20.285   1.952   3.402  1.00  0.00     0.023 A 
ATOM     87  C   UNL     1      20.622   0.688   3.924  1.00  0.00     0.012 A 
ATOM     88  C   UNL     1      21.260   2.968   3.362  1.00  0.00     0.148 A 
ATOM     89  C   UNL     1      21.900   0.448   4.428  1.00  0.00     0.002 A 
ATOM     90  C   UNL     1      22.546   2.706   3.819  1.00  0.00     0.091 A 
ATOM     91  F   UNL     1      20.913   4.170   2.878  1.00  0.00    -0.205 F 
ATOM     92  C   UNL     1      22.864   1.452   4.364  1.00  0.00     0.022 A 
BRANCH  90  93
ATOM     93  S   UNL     1      23.877   3.905   3.685  1.00  0.00     0.127 S 
ATOM     94  O   UNL     1      24.050   4.314   5.078  1.00  0.00    -0.237 OA
ATOM     95  O   UNL     1      24.970   3.095   3.146  1.00  0.00    -0.237 OA
ATOM     96  O   UNL     1      23.394   4.943   2.784  1.00  0.00    -0.744 OA
ENDBRANCH  90  93
ENDBRANCH  63  86
ENDBRANCH  37  38
ENDBRANCH  29  32
ENDBRANCH  27  28
ENDBRANCH  26  27
ENDBRANCH   1  26
TORSDOF 19
