REMARK SMILES O=C(COc1cc(-c2ccccc2)nc(NCc2ccc(Cl)cc2)n1)NCCCNC(=O)c1ccc(-c2c3nc(c(-c4cccc(S(=O)(=O)[O-])c4F)c4ccc([nH]4)c(-c4cccc(S(=O)(=O)[O-])c4F)c4nc(c(-c5cccc(S(=O)(=O)[O-])c5F)c5ccc2[nH]5)C=C4)C=C3)cc1
REMARK SMILES IDX 27 1 26 2 1 3 2 4 3 6 4 7 5 8 6 9 25 10 7 11 15 12 14 13
REMARK SMILES IDX 8 14 9 15 13 16 10 17 12 18 11 19 16 20 17 22 18 23 19 24
REMARK SMILES IDX 24 25 20 26 23 27 21 28 22 29 28 30 29 31 30 32 31 33 32 35
REMARK SMILES IDX 33 36 34 37 95 38 35 39 94 40 36 41 37 42 38 43 88 44 39 45
REMARK SMILES IDX 93 46 87 47 89 48 40 49 92 50 86 51 85 52 41 54 73 55 53 56
REMARK SMILES IDX 72 57 54 58 57 59 71 60 90 61 55 62 56 63 70 65 91 66 58 67
REMARK SMILES IDX 42 68 43 69 51 70 44 71 46 72 52 73 45 74 47 75 48 76 49 77
REMARK SMILES IDX 50 78 74 79 75 80 83 81 76 82 78 83 84 84 77 85 79 86 80 87
REMARK SMILES IDX 81 88 82 89 59 90 60 91 68 92 61 93 63 94 69 95 62 96 64 97
REMARK SMILES IDX 65 98 66 99 67 100
REMARK H PARENT 26 5 16 21 30 34 89 53 57 64
REMARK Flexibility Score: inf
ROOT
ATOM      1  C   UNL     1       2.226   1.690  -1.597  1.00  0.00     0.117 C 
ENDROOT
BRANCH   1   2
ATOM      2  N   UNL     1       2.953   0.874  -0.642  1.00  0.00    -0.353 N 
ATOM      3  O   UNL     1       1.151   0.370   0.700  1.00  0.00    -0.271 OA
ATOM      4  C   UNL     1       2.313   0.172   0.363  1.00  0.00     0.258 C 
ATOM      5  H   UNL     1       3.933   0.819  -0.712  1.00  0.00     0.163 HD
BRANCH   4   6
ATOM      6  C   UNL     1       3.165  -0.952   0.967  1.00  0.00     0.331 C 
BRANCH   6   7
ATOM      7  O   UNL     1       3.947  -1.679   0.013  1.00  0.00    -0.467 OA
BRANCH   7   8
ATOM      8  C   UNL     1       3.185  -2.571  -0.708  1.00  0.00     0.219 A 
ATOM      9  C   UNL     1       2.301  -2.127  -1.651  1.00  0.00     0.097 A 
ATOM     10  N   UNL     1       3.445  -3.868  -0.509  1.00  0.00    -0.177 NA
ATOM     11  C   UNL     1       1.588  -3.083  -2.331  1.00  0.00     0.080 A 
ATOM     12  C   UNL     1       2.736  -4.741  -1.240  1.00  0.00     0.226 A 
ATOM     13  N   UNL     1       1.784  -4.397  -2.122  1.00  0.00    -0.213 NA
BRANCH  11  14
ATOM     14  C   UNL     1       0.545  -2.669  -3.279  1.00  0.00     0.000 A 
ATOM     15  C   UNL     1      -0.772  -3.131  -3.145  1.00  0.00     0.010 A 
ATOM     16  C   UNL     1       0.810  -1.699  -4.266  1.00  0.00     0.010 A 
ATOM     17  C   UNL     1      -1.797  -2.609  -3.940  1.00  0.00     0.001 A 
ATOM     18  C   UNL     1      -0.212  -1.179  -5.062  1.00  0.00     0.001 A 
ATOM     19  C   UNL     1      -1.518  -1.628  -4.891  1.00  0.00     0.000 A 
ENDBRANCH  11  14
BRANCH  12  20
ATOM     20  N   UNL     1       2.961  -6.082  -1.122  1.00  0.00    -0.350 N 
ATOM     21  H   UNL     1       2.306  -6.707  -1.508  1.00  0.00     0.164 HD
BRANCH  20  22
ATOM     22  C   UNL     1       4.114  -6.620  -0.458  1.00  0.00     0.152 C 
BRANCH  22  23
ATOM     23  C   UNL     1       3.673  -7.709   0.492  1.00  0.00    -0.029 A 
ATOM     24  C   UNL     1       3.064  -7.362   1.709  1.00  0.00     0.007 A 
ATOM     25  C   UNL     1       3.842  -9.065   0.176  1.00  0.00     0.007 A 
ATOM     26  C   UNL     1       2.650  -8.350   2.604  1.00  0.00     0.021 A 
ATOM     27  C   UNL     1       3.428 -10.054   1.072  1.00  0.00     0.021 A 
ATOM     28  C   UNL     1       2.838  -9.692   2.282  1.00  0.00     0.041 A 
ATOM     29  Cl  UNL     1       2.336 -10.914   3.386  1.00  0.00    -0.084 Cl
ENDBRANCH  22  23
ENDBRANCH  20  22
ENDBRANCH  12  20
ENDBRANCH   7   8
ENDBRANCH   6   7
ENDBRANCH   4   6
ENDBRANCH   1   2
BRANCH   1  30
ATOM     30  C   UNL     1       2.524   3.173  -1.484  1.00  0.00     0.042 C 
BRANCH  30  31
ATOM     31  C   UNL     1       3.989   3.533  -1.691  1.00  0.00     0.118 C 
BRANCH  31  32
ATOM     32  N   UNL     1       4.481   3.224  -3.028  1.00  0.00    -0.352 N 
ATOM     33  C   UNL     1       5.159   4.019  -3.920  1.00  0.00     0.251 C 
ATOM     34  H   UNL     1       4.301   2.307  -3.338  1.00  0.00     0.163 HD
ATOM     35  O   UNL     1       5.375   3.594  -5.056  1.00  0.00    -0.269 OA
BRANCH  33  36
ATOM     36  C   UNL     1       5.606   5.379  -3.540  1.00  0.00     0.039 A 
ATOM     37  C   UNL     1       5.494   6.411  -4.476  1.00  0.00     0.014 A 
ATOM     38  C   UNL     1       6.149   5.642  -2.280  1.00  0.00     0.014 A 
ATOM     39  C   UNL     1       5.880   7.709  -4.131  1.00  0.00     0.010 A 
ATOM     40  C   UNL     1       6.443   6.951  -1.907  1.00  0.00     0.010 A 
ATOM     41  C   UNL     1       6.334   7.997  -2.834  1.00  0.00    -0.014 A 
BRANCH  41  42
ATOM     42  C   UNL     1       6.725   9.377  -2.441  1.00  0.00     0.031 A 
ATOM     43  C   UNL     1       8.139   9.669  -2.007  1.00  0.00     0.074 A 
ATOM     44  C   UNL     1       5.799  10.357  -2.413  1.00  0.00     0.049 A 
ATOM     45  N   UNL     1       8.661  10.798  -1.602  1.00  0.00    -0.248 NA
ATOM     46  C   UNL     1       9.084   8.540  -2.000  1.00  0.00     0.031 C 
ATOM     47  C   UNL     1       4.380  10.190  -2.734  1.00  0.00     0.029 A 
ATOM     48  N   UNL     1       5.909  11.684  -2.077  1.00  0.00    -0.354 N 
ATOM     49  C   UNL     1       9.977  10.509  -1.260  1.00  0.00     0.074 A 
ATOM     50  C   UNL     1      10.163   9.090  -1.463  1.00  0.00     0.031 C 
ATOM     51  C   UNL     1       3.755  11.370  -2.591  1.00  0.00     0.029 A 
ATOM     52  C   UNL     1       4.718  12.370  -2.140  1.00  0.00     0.049 A 
ATOM     53  H   UNL     1       6.760  12.104  -1.817  1.00  0.00     0.167 HD
ATOM     54  C   UNL     1      10.954  11.350  -0.845  1.00  0.00     0.034 A 
ATOM     55  C   UNL     1       4.433  13.658  -1.862  1.00  0.00     0.034 A 
ATOM     56  C   UNL     1      10.780  12.768  -0.682  1.00  0.00     0.049 A 
ATOM     57  C   UNL     1       5.545  14.580  -1.439  1.00  0.00     0.074 A 
ATOM     58  C   UNL     1      11.729  13.717  -0.347  1.00  0.00     0.029 A 
ATOM     59  N   UNL     1       9.578  13.440  -0.835  1.00  0.00    -0.354 N 
ATOM     60  N   UNL     1       6.818  14.316  -1.269  1.00  0.00    -0.248 NA
ATOM     61  C   UNL     1       5.190  15.988  -1.210  1.00  0.00     0.031 C 
ATOM     62  C   UNL     1      11.093  14.960  -0.266  1.00  0.00     0.029 A 
ATOM     63  C   UNL     1       9.757  14.791  -0.593  1.00  0.00     0.049 A 
ATOM     64  H   UNL     1       8.723  13.019  -1.079  1.00  0.00     0.167 HD
ATOM     65  C   UNL     1       7.421  15.529  -0.958  1.00  0.00     0.074 A 
ATOM     66  C   UNL     1       6.377  16.532  -0.980  1.00  0.00     0.031 C 
ATOM     67  C   UNL     1       8.721  15.788  -0.672  1.00  0.00     0.034 A 
BRANCH  54  68
ATOM     68  C   UNL     1      12.318  10.763  -0.580  1.00  0.00     0.023 A 
ATOM     69  C   UNL     1      13.099  10.296  -1.657  1.00  0.00     0.012 A 
ATOM     70  C   UNL     1      12.847  10.722   0.725  1.00  0.00     0.148 A 
ATOM     71  C   UNL     1      14.367   9.760  -1.437  1.00  0.00     0.002 A 
ATOM     72  C   UNL     1      14.132  10.233   0.931  1.00  0.00     0.091 A 
ATOM     73  F   UNL     1      12.084  11.152   1.739  1.00  0.00    -0.205 F 
ATOM     74  C   UNL     1      14.887   9.739  -0.146  1.00  0.00     0.022 A 
BRANCH  72  75
ATOM     75  S   UNL     1      14.926  10.240   2.542  1.00  0.00     0.127 S 
ATOM     76  O   UNL     1      14.975   8.812   2.852  1.00  0.00    -0.237 OA
ATOM     77  O   UNL     1      16.225  10.843   2.241  1.00  0.00    -0.237 OA
ATOM     78  O   UNL     1      14.071  11.037   3.409  1.00  0.00    -0.744 OA
ENDBRANCH  72  75
ENDBRANCH  54  68
BRANCH  55  79
ATOM     79  C   UNL     1       3.044  14.170  -2.037  1.00  0.00     0.023 A 
ATOM     80  C   UNL     1       2.765  15.080  -3.076  1.00  0.00     0.012 A 
ATOM     81  C   UNL     1       1.999  13.753  -1.191  1.00  0.00     0.148 A 
ATOM     82  C   UNL     1       1.480  15.595  -3.245  1.00  0.00     0.002 A 
ATOM     83  C   UNL     1       0.709  14.226  -1.401  1.00  0.00     0.091 A 
ATOM     84  F   UNL     1       2.286  12.893  -0.204  1.00  0.00    -0.205 F 
ATOM     85  C   UNL     1       0.451  15.162  -2.414  1.00  0.00     0.022 A 
BRANCH  83  86
ATOM     86  S   UNL     1      -0.702  13.628  -0.464  1.00  0.00     0.127 S 
ATOM     87  O   UNL     1      -1.061  14.806   0.321  1.00  0.00    -0.237 OA
ATOM     88  O   UNL     1      -1.645  13.285  -1.528  1.00  0.00    -0.237 OA
ATOM     89  O   UNL     1      -0.214  12.486   0.297  1.00  0.00    -0.744 OA
ENDBRANCH  83  86
ENDBRANCH  55  79
BRANCH  67  90
ATOM     90  C   UNL     1       9.111  17.221  -0.414  1.00  0.00     0.023 A 
ATOM     91  C   UNL     1       8.707  17.865   0.772  1.00  0.00     0.012 A 
ATOM     92  C   UNL     1       9.941  17.907  -1.325  1.00  0.00     0.148 A 
ATOM     93  C   UNL     1       9.091  19.181   1.030  1.00  0.00     0.002 A 
ATOM     94  C   UNL     1      10.364  19.198  -1.035  1.00  0.00     0.091 A 
ATOM     95  F   UNL     1      10.300  17.285  -2.457  1.00  0.00    -0.205 F 
ATOM     96  C   UNL     1       9.928  19.842   0.134  1.00  0.00     0.022 A 
BRANCH  94  97
ATOM     97  S   UNL     1      11.523  20.087  -2.080  1.00  0.00     0.127 S 
ATOM     98  O   UNL     1      10.659  21.094  -2.694  1.00  0.00    -0.237 OA
ATOM     99  O   UNL     1      12.477  20.615  -1.104  1.00  0.00    -0.237 OA
ATOM    100  O   UNL     1      12.080  19.099  -2.994  1.00  0.00    -0.744 OA
ENDBRANCH  94  97
ENDBRANCH  67  90
ENDBRANCH  41  42
ENDBRANCH  33  36
ENDBRANCH  31  32
ENDBRANCH  30  31
ENDBRANCH   1  30
TORSDOF 19
