REMARK SMILES O=C1NC(=O)/C(=C/c2ccc(OCc3cn(-c4ccc(C(=O)NCCCNC(=O)c5ccc(-c6c7nc(c(-c8cccc(S(=O)(=O)[O-])c8F)c8ccc([nH]8)c(-c8cccc(S(=O)(=O)[O-])c8F)c8nc(c(-c9cccc(S(=O)(=O)[O-])c9F)c9ccc6[nH]9)C=C8)C=C7)cc5)cc4)nn3)cc2)S1
REMARK SMILES IDX 24 1 23 2 21 3 22 4 20 6 17 7 18 8 94 9 19 10 93 11 16 12
REMARK SMILES IDX 14 13 15 14 96 15 95 16 13 17 12 18 11 19 8 20 9 21 98 22
REMARK SMILES IDX 10 23 97 24 7 25 1 26 2 27 3 28 99 29 4 30 6 32 5 33 25 34
REMARK SMILES IDX 26 35 27 36 28 37 29 39 30 40 31 41 92 42 32 43 91 44 33 45
REMARK SMILES IDX 34 46 35 47 85 48 36 49 90 50 84 51 86 52 37 53 89 54 83 55
REMARK SMILES IDX 82 56 38 58 70 59 50 60 69 61 51 62 54 63 68 64 87 65 52 66
REMARK SMILES IDX 53 67 67 69 88 70 55 71 39 72 40 73 48 74 41 75 43 76 49 77
REMARK SMILES IDX 42 78 44 79 45 80 46 81 47 82 71 83 72 84 80 85 73 86 75 87
REMARK SMILES IDX 81 88 74 89 76 90 77 91 78 92 79 93 56 94 57 95 65 96 58 97
REMARK SMILES IDX 60 98 66 99 59 100 61 101 62 102 63 103 64 104
REMARK H PARENT 23 5 3 31 27 38 86 57 54 68
REMARK Flexibility Score: inf
ROOT
ATOM      1  C   UNL     1      -7.438  10.662  -0.959  1.00  0.00     0.118 C 
ENDROOT
BRANCH   1   2
ATOM      2  N   UNL     1      -8.163   9.744  -0.098  1.00  0.00    -0.352 N 
ATOM      3  C   UNL     1      -7.741   8.728   0.723  1.00  0.00     0.251 C 
ATOM      4  O   UNL     1      -8.560   8.237   1.494  1.00  0.00    -0.269 OA
ATOM      5  H   UNL     1      -9.139   9.875  -0.104  1.00  0.00     0.163 HD
BRANCH   3   6
ATOM      6  C   UNL     1      -6.328   8.263   0.783  1.00  0.00     0.039 A 
ATOM      7  C   UNL     1      -3.646   7.572   1.151  1.00  0.00     0.066 A 
ATOM      8  C   UNL     1      -4.601   7.149   2.081  1.00  0.00     0.029 A 
ATOM      9  C   UNL     1      -4.029   8.248  -0.002  1.00  0.00     0.029 A 
ATOM     10  C   UNL     1      -5.934   7.525   1.909  1.00  0.00     0.016 A 
ATOM     11  C   UNL     1      -5.374   8.526  -0.202  1.00  0.00     0.016 A 
BRANCH   7  12
ATOM     12  N   UNL     1      -2.286   7.309   1.368  1.00  0.00    -0.220 N 
ATOM     13  C   UNL     1      -0.108   7.346   1.393  1.00  0.00     0.120 A 
ATOM     14  C   UNL     1      -1.204   8.054   0.951  1.00  0.00     0.144 A 
ATOM     15  N   UNL     1      -0.553   6.253   2.088  1.00  0.00    -0.131 NA
ATOM     16  N   UNL     1      -1.872   6.260   2.100  1.00  0.00    -0.062 NA
BRANCH  13  17
ATOM     17  C   UNL     1       1.348   7.662   1.332  1.00  0.00     0.289 C 
BRANCH  17  18
ATOM     18  O   UNL     1       2.097   6.990   0.304  1.00  0.00    -0.487 OA
BRANCH  18  19
ATOM     19  C   UNL     1       2.212   5.628   0.362  1.00  0.00     0.119 A 
ATOM     20  C   UNL     1       2.215   2.827   0.119  1.00  0.00    -0.024 A 
ATOM     21  C   UNL     1       2.697   3.623  -0.922  1.00  0.00     0.012 A 
ATOM     22  C   UNL     1       1.827   3.436   1.313  1.00  0.00     0.012 A 
ATOM     23  C   UNL     1       2.685   5.018  -0.802  1.00  0.00     0.047 A 
ATOM     24  C   UNL     1       1.867   4.824   1.446  1.00  0.00     0.047 A 
BRANCH  20  25
ATOM     25  C   UNL     1       2.140   1.371  -0.017  1.00  0.00     0.029 C 
ATOM     26  O   UNL     1      -2.443  -0.729   0.044  1.00  0.00    -0.261 OA
ATOM     27  C   UNL     1      -1.252  -0.438   0.004  1.00  0.00     0.290 C 
ATOM     28  N   UNL     1      -0.232  -1.326  -0.049  1.00  0.00    -0.282 N 
ATOM     29  S   UNL     1      -0.623   1.194   0.014  1.00  0.00    -0.022 SA
ATOM     30  C   UNL     1       1.041  -0.840  -0.079  1.00  0.00     0.265 C 
ATOM     31  H   UNL     1      -0.405  -2.295  -0.065  1.00  0.00     0.174 HD
ATOM     32  C   UNL     1       1.012   0.646  -0.035  1.00  0.00     0.083 C 
ATOM     33  O   UNL     1       2.049  -1.525  -0.116  1.00  0.00    -0.268 OA
ENDBRANCH  20  25
ENDBRANCH  18  19
ENDBRANCH  17  18
ENDBRANCH  13  17
ENDBRANCH   7  12
ENDBRANCH   3   6
ENDBRANCH   1   2
BRANCH   1  34
ATOM     34  C   UNL     1      -7.360  10.163  -2.410  1.00  0.00     0.042 C 
BRANCH  34  35
ATOM     35  C   UNL     1      -8.578  10.581  -3.199  1.00  0.00     0.118 C 
BRANCH  35  36
ATOM     36  N   UNL     1      -8.607  12.034  -3.452  1.00  0.00    -0.352 N 
ATOM     37  C   UNL     1      -9.574  12.778  -4.113  1.00  0.00     0.251 C 
ATOM     38  H   UNL     1      -7.839  12.544  -3.107  1.00  0.00     0.163 HD
ATOM     39  O   UNL     1      -9.333  13.902  -4.535  1.00  0.00    -0.269 OA
BRANCH  37  40
ATOM     40  C   UNL     1     -10.907  12.178  -4.267  1.00  0.00     0.039 A 
ATOM     41  C   UNL     1     -11.703  12.297  -5.408  1.00  0.00     0.014 A 
ATOM     42  C   UNL     1     -11.303  11.375  -3.214  1.00  0.00     0.014 A 
ATOM     43  C   UNL     1     -12.884  11.561  -5.452  1.00  0.00     0.010 A 
ATOM     44  C   UNL     1     -12.163  10.366  -3.475  1.00  0.00     0.010 A 
ATOM     45  C   UNL     1     -13.101  10.601  -4.454  1.00  0.00    -0.014 A 
BRANCH  45  46
ATOM     46  C   UNL     1     -14.269   9.753  -4.362  1.00  0.00     0.031 A 
ATOM     47  C   UNL     1     -14.431   8.859  -5.527  1.00  0.00     0.074 A 
ATOM     48  C   UNL     1     -14.932   9.596  -3.190  1.00  0.00     0.049 A 
ATOM     49  N   UNL     1     -15.290   8.978  -6.481  1.00  0.00    -0.248 NA
ATOM     50  C   UNL     1     -13.391   7.848  -5.779  1.00  0.00     0.031 C 
ATOM     51  C   UNL     1     -14.617  10.141  -1.855  1.00  0.00     0.029 A 
ATOM     52  N   UNL     1     -15.959   8.759  -2.911  1.00  0.00    -0.354 N 
ATOM     53  C   UNL     1     -15.075   7.875  -7.298  1.00  0.00     0.074 A 
ATOM     54  C   UNL     1     -13.756   7.396  -6.981  1.00  0.00     0.031 C 
ATOM     55  C   UNL     1     -15.242   9.406  -0.906  1.00  0.00     0.029 A 
ATOM     56  C   UNL     1     -16.124   8.462  -1.562  1.00  0.00     0.049 A 
ATOM     57  H   UNL     1     -16.544   8.389  -3.611  1.00  0.00     0.167 HD
ATOM     58  C   UNL     1     -16.114   7.263  -7.931  1.00  0.00     0.034 A 
ATOM     59  C   UNL     1     -16.880   7.454  -1.053  1.00  0.00     0.034 A 
ATOM     60  C   UNL     1     -17.316   8.061  -7.853  1.00  0.00     0.049 A 
ATOM     61  C   UNL     1     -17.839   7.067  -2.120  1.00  0.00     0.074 A 
ATOM     62  C   UNL     1     -17.646   9.357  -8.201  1.00  0.00     0.029 A 
ATOM     63  N   UNL     1     -18.260   7.671  -6.929  1.00  0.00    -0.354 N 
ATOM     64  N   UNL     1     -18.758   7.876  -2.577  1.00  0.00    -0.248 NA
ATOM     65  C   UNL     1     -17.437   5.999  -3.025  1.00  0.00     0.031 C 
ATOM     66  C   UNL     1     -18.421   9.837  -7.103  1.00  0.00     0.029 A 
ATOM     67  C   UNL     1     -18.601   8.784  -6.204  1.00  0.00     0.049 A 
ATOM     68  H   UNL     1     -18.622   6.763  -6.812  1.00  0.00     0.167 HD
ATOM     69  C   UNL     1     -18.706   7.714  -3.957  1.00  0.00     0.074 A 
ATOM     70  C   UNL     1     -17.936   6.483  -4.167  1.00  0.00     0.031 C 
ATOM     71  C   UNL     1     -18.997   8.741  -4.812  1.00  0.00     0.034 A 
BRANCH  58  72
ATOM     72  C   UNL     1     -16.180   5.792  -8.264  1.00  0.00     0.023 A 
ATOM     73  C   UNL     1     -17.241   5.376  -9.099  1.00  0.00     0.012 A 
ATOM     74  C   UNL     1     -15.452   4.780  -7.599  1.00  0.00     0.148 A 
ATOM     75  C   UNL     1     -17.596   4.029  -9.216  1.00  0.00     0.002 A 
ATOM     76  C   UNL     1     -15.758   3.437  -7.780  1.00  0.00     0.091 A 
ATOM     77  F   UNL     1     -14.545   5.101  -6.673  1.00  0.00    -0.205 F 
ATOM     78  C   UNL     1     -16.851   3.058  -8.560  1.00  0.00     0.022 A 
BRANCH  76  79
ATOM     79  S   UNL     1     -14.802   2.138  -6.988  1.00  0.00     0.127 S 
ATOM     80  O   UNL     1     -15.728   1.686  -5.954  1.00  0.00    -0.237 OA
ATOM     81  O   UNL     1     -14.599   1.202  -8.095  1.00  0.00    -0.237 OA
ATOM     82  O   UNL     1     -13.581   2.782  -6.522  1.00  0.00    -0.744 OA
ENDBRANCH  76  79
ENDBRANCH  58  72
BRANCH  59  83
ATOM     83  C   UNL     1     -16.610   6.591   0.128  1.00  0.00     0.023 A 
ATOM     84  C   UNL     1     -17.648   5.835   0.710  1.00  0.00     0.012 A 
ATOM     85  C   UNL     1     -15.283   6.293   0.515  1.00  0.00     0.148 A 
ATOM     86  C   UNL     1     -17.373   4.806   1.624  1.00  0.00     0.002 A 
ATOM     87  C   UNL     1     -15.015   5.275   1.427  1.00  0.00     0.091 A 
ATOM     88  F   UNL     1     -14.277   6.945  -0.082  1.00  0.00    -0.205 F 
ATOM     89  C   UNL     1     -16.057   4.521   1.978  1.00  0.00     0.022 A 
BRANCH  87  90
ATOM     90  S   UNL     1     -13.337   4.837   1.907  1.00  0.00     0.127 S 
ATOM     91  O   UNL     1     -13.439   4.811   3.367  1.00  0.00    -0.237 OA
ATOM     92  O   UNL     1     -13.176   3.528   1.281  1.00  0.00    -0.237 OA
ATOM     93  O   UNL     1     -12.492   5.900   1.380  1.00  0.00    -0.744 OA
ENDBRANCH  87  90
ENDBRANCH  59  83
BRANCH  71  94
ATOM     94  C   UNL     1     -19.550  10.026  -4.240  1.00  0.00     0.023 A 
ATOM     95  C   UNL     1     -18.816  10.848  -3.357  1.00  0.00     0.012 A 
ATOM     96  C   UNL     1     -20.757  10.516  -4.764  1.00  0.00     0.148 A 
ATOM     97  C   UNL     1     -19.281  12.116  -2.993  1.00  0.00     0.002 A 
ATOM     98  C   UNL     1     -21.198  11.792  -4.433  1.00  0.00     0.091 A 
ATOM     99  F   UNL     1     -21.439   9.734  -5.614  1.00  0.00    -0.205 F 
ATOM    100  C   UNL     1     -20.468  12.593  -3.540  1.00  0.00     0.022 A 
BRANCH  98 101
ATOM    101  S   UNL     1     -22.655  12.507  -5.195  1.00  0.00     0.127 S 
ATOM    102  O   UNL     1     -23.621  12.469  -4.100  1.00  0.00    -0.237 OA
ATOM    103  O   UNL     1     -22.193  13.849  -5.558  1.00  0.00    -0.237 OA
ATOM    104  O   UNL     1     -22.969  11.658  -6.338  1.00  0.00    -0.744 OA
ENDBRANCH  98 101
ENDBRANCH  71  94
ENDBRANCH  45  46
ENDBRANCH  37  40
ENDBRANCH  35  36
ENDBRANCH  34  35
ENDBRANCH   1  34
TORSDOF 18
