REMARK SMILES O=C(NCCCNC(=O)c1cccc2c1N[C@H](c1ccccc1Br)[C@H]1CC=C[C@H]21)c1ccc(-c2c3nc(c(-c4cccc(S(=O)(=O)[O-])c4F)c4ccc([nH]4)c(-c4cccc(S(=O)(=O)[O-])c4F)c4nc(c(-c5cccc(S(=O)(=O)[O-])c5F)c5ccc2[nH]5)C=C4)C=C3)cc1
REMARK SMILES IDX 4 1 3 2 1 3 2 4 30 6 31 7 92 8 32 9 91 10 33 11 34 12 35 13
REMARK SMILES IDX 85 14 36 15 90 16 84 17 86 18 37 19 89 20 83 21 82 22 38 24
REMARK SMILES IDX 70 25 50 26 69 27 51 28 54 29 68 30 87 31 52 32 53 33 67 35
REMARK SMILES IDX 88 36 55 37 39 38 40 39 48 40 41 41 43 42 49 43 42 44 44 45
REMARK SMILES IDX 45 46 46 47 47 48 71 49 72 50 80 51 73 52 75 53 81 54 74 55
REMARK SMILES IDX 76 56 77 57 78 58 79 59 56 60 57 61 65 62 58 63 60 64 66 65
REMARK SMILES IDX 59 66 61 67 62 68 63 69 64 70 5 71 6 72 7 73 8 74 9 76 10 77
REMARK SMILES IDX 11 78 15 79 12 80 14 81 16 82 13 83 29 84 17 85 25 87 28 88
REMARK SMILES IDX 26 89 27 90 18 91 19 92 23 93 20 94 22 95 24 96 21 97
REMARK H PARENT 3 5 86 23 54 34 7 75 16 86
REMARK Flexibility Score: inf
ROOT
ATOM      1  C   UNL     1       4.675  -1.115  -0.047  1.00  0.00     0.118 C 
ENDROOT
BRANCH   1   2
ATOM      2  N   UNL     1       3.223  -0.991  -0.086  1.00  0.00    -0.352 N 
ATOM      3  O   UNL     1       1.210  -0.003   0.062  1.00  0.00    -0.269 OA
ATOM      4  C   UNL     1       2.423   0.125  -0.088  1.00  0.00     0.251 C 
ATOM      5  H   UNL     1       2.736  -1.847  -0.117  1.00  0.00     0.163 HD
BRANCH   4   6
ATOM      6  C   UNL     1       3.009   1.473  -0.258  1.00  0.00     0.039 A 
ATOM      7  C   UNL     1       2.453   2.547   0.445  1.00  0.00     0.014 A 
ATOM      8  C   UNL     1       4.070   1.697  -1.138  1.00  0.00     0.014 A 
ATOM      9  C   UNL     1       2.982   3.831   0.288  1.00  0.00     0.010 A 
ATOM     10  C   UNL     1       4.668   2.948  -1.206  1.00  0.00     0.010 A 
ATOM     11  C   UNL     1       4.104   4.038  -0.530  1.00  0.00    -0.014 A 
BRANCH  11  12
ATOM     12  C   UNL     1       4.649   5.393  -0.789  1.00  0.00     0.031 A 
ATOM     13  C   UNL     1       4.646   5.927  -2.198  1.00  0.00     0.074 A 
ATOM     14  C   UNL     1       5.206   6.109   0.206  1.00  0.00     0.049 A 
ATOM     15  N   UNL     1       5.194   7.016  -2.669  1.00  0.00    -0.248 NA
ATOM     16  C   UNL     1       3.971   5.108  -3.222  1.00  0.00     0.031 C 
ATOM     17  C   UNL     1       5.317   5.683   1.601  1.00  0.00     0.029 A 
ATOM     18  N   UNL     1       5.800   7.346   0.186  1.00  0.00    -0.354 N 
ATOM     19  C   UNL     1       4.982   6.981  -4.042  1.00  0.00     0.074 A 
ATOM     20  C   UNL     1       4.283   5.751  -4.337  1.00  0.00     0.031 C 
ATOM     21  C   UNL     1       5.925   6.651   2.308  1.00  0.00     0.029 A 
ATOM     22  C   UNL     1       6.274   7.749   1.411  1.00  0.00     0.049 A 
ATOM     23  H   UNL     1       5.880   7.892  -0.629  1.00  0.00     0.167 HD
ATOM     24  C   UNL     1       5.301   7.908  -4.972  1.00  0.00     0.034 A 
ATOM     25  C   UNL     1       6.917   8.878   1.770  1.00  0.00     0.034 A 
ATOM     26  C   UNL     1       5.899   9.176  -4.668  1.00  0.00     0.049 A 
ATOM     27  C   UNL     1       7.205   9.924   0.729  1.00  0.00     0.074 A 
ATOM     28  C   UNL     1       6.170  10.224  -5.527  1.00  0.00     0.029 A 
ATOM     29  N   UNL     1       6.296   9.575  -3.403  1.00  0.00    -0.354 N 
ATOM     30  N   UNL     1       6.911   9.915  -0.548  1.00  0.00    -0.248 NA
ATOM     31  C   UNL     1       7.894  11.142   1.179  1.00  0.00     0.031 C 
ATOM     32  C   UNL     1       6.728  11.264  -4.778  1.00  0.00     0.029 A 
ATOM     33  C   UNL     1       6.806  10.859  -3.455  1.00  0.00     0.049 A 
ATOM     34  H   UNL     1       6.226   9.027  -2.588  1.00  0.00     0.167 HD
ATOM     35  C   UNL     1       7.364  11.127  -1.053  1.00  0.00     0.074 A 
ATOM     36  C   UNL     1       7.937  11.856   0.061  1.00  0.00     0.031 C 
ATOM     37  C   UNL     1       7.327  11.586  -2.327  1.00  0.00     0.034 A 
BRANCH  24  38
ATOM     38  C   UNL     1       4.929   7.622  -6.400  1.00  0.00     0.023 A 
ATOM     39  C   UNL     1       3.584   7.761  -6.799  1.00  0.00     0.012 A 
ATOM     40  C   UNL     1       5.906   7.276  -7.352  1.00  0.00     0.148 A 
ATOM     41  C   UNL     1       3.212   7.538  -8.123  1.00  0.00     0.002 A 
ATOM     42  C   UNL     1       5.532   7.088  -8.677  1.00  0.00     0.091 A 
ATOM     43  F   UNL     1       7.174   7.131  -6.943  1.00  0.00    -0.205 F 
ATOM     44  C   UNL     1       4.186   7.212  -9.062  1.00  0.00     0.022 A 
BRANCH  42  45
ATOM     45  S   UNL     1       6.712   6.716  -9.979  1.00  0.00     0.127 S 
ATOM     46  O   UNL     1       6.316   5.360 -10.357  1.00  0.00    -0.237 OA
ATOM     47  O   UNL     1       6.403   7.742 -10.975  1.00  0.00    -0.237 OA
ATOM     48  O   UNL     1       8.031   6.829  -9.373  1.00  0.00    -0.744 OA
ENDBRANCH  42  45
ENDBRANCH  24  38
BRANCH  25  49
ATOM     49  C   UNL     1       7.252   9.100   3.202  1.00  0.00     0.023 A 
ATOM     50  C   UNL     1       6.450   9.976   3.958  1.00  0.00     0.012 A 
ATOM     51  C   UNL     1       8.296   8.398   3.834  1.00  0.00     0.148 A 
ATOM     52  C   UNL     1       6.686  10.156   5.321  1.00  0.00     0.002 A 
ATOM     53  C   UNL     1       8.503   8.555   5.200  1.00  0.00     0.091 A 
ATOM     54  F   UNL     1       9.042   7.570   3.090  1.00  0.00    -0.205 F 
ATOM     55  C   UNL     1       7.705   9.440   5.943  1.00  0.00     0.022 A 
BRANCH  53  56
ATOM     56  S   UNL     1       9.723   7.606   6.115  1.00  0.00     0.127 S 
ATOM     57  O   UNL     1      10.600   8.658   6.625  1.00  0.00    -0.237 OA
ATOM     58  O   UNL     1       8.892   6.952   7.126  1.00  0.00    -0.237 OA
ATOM     59  O   UNL     1      10.331   6.702   5.149  1.00  0.00    -0.744 OA
ENDBRANCH  53  56
ENDBRANCH  25  49
BRANCH  37  60
ATOM     60  C   UNL     1       7.918  12.938  -2.610  1.00  0.00     0.023 A 
ATOM     61  C   UNL     1       9.313  13.056  -2.756  1.00  0.00     0.012 A 
ATOM     62  C   UNL     1       7.092  14.048  -2.871  1.00  0.00     0.148 A 
ATOM     63  C   UNL     1       9.881  14.265  -3.154  1.00  0.00     0.002 A 
ATOM     64  C   UNL     1       7.662  15.240  -3.299  1.00  0.00     0.091 A 
ATOM     65  F   UNL     1       5.767  13.907  -2.717  1.00  0.00    -0.205 F 
ATOM     66  C   UNL     1       9.056  15.351  -3.438  1.00  0.00     0.022 A 
BRANCH  64  67
ATOM     67  S   UNL     1       6.680  16.671  -3.764  1.00  0.00     0.127 S 
ATOM     68  O   UNL     1       7.014  17.619  -2.702  1.00  0.00    -0.237 OA
ATOM     69  O   UNL     1       7.227  17.008  -5.078  1.00  0.00    -0.237 OA
ATOM     70  O   UNL     1       5.294  16.221  -3.781  1.00  0.00    -0.744 OA
ENDBRANCH  64  67
ENDBRANCH  37  60
ENDBRANCH  11  12
ENDBRANCH   4   6
ENDBRANCH   1   2
BRANCH   1  71
ATOM     71  C   UNL     1       5.179  -1.750   1.236  1.00  0.00     0.042 C 
BRANCH  71  72
ATOM     72  C   UNL     1       4.661  -3.155   1.464  1.00  0.00     0.118 C 
BRANCH  72  73
ATOM     73  N   UNL     1       5.079  -4.098   0.436  1.00  0.00    -0.352 N 
ATOM     74  C   UNL     1       5.759  -5.283   0.590  1.00  0.00     0.253 C 
ATOM     75  H   UNL     1       4.845  -3.856  -0.489  1.00  0.00     0.163 HD
ATOM     76  O   UNL     1       6.100  -5.934  -0.388  1.00  0.00    -0.269 OA
BRANCH  74  77
ATOM     77  C   UNL     1       6.099  -5.755   1.950  1.00  0.00     0.063 A 
ATOM     78  C   UNL     1       7.459  -5.962   2.212  1.00  0.00     0.016 A 
ATOM     79  C   UNL     1       5.121  -5.959   2.945  1.00  0.00     0.051 A 
ATOM     80  C   UNL     1       7.870  -6.333   3.488  1.00  0.00     0.001 A 
ATOM     81  C   UNL     1       5.561  -6.302   4.244  1.00  0.00    -0.017 A 
ATOM     82  N   UNL     1       3.763  -5.758   2.696  1.00  0.00    -0.377 N 
ATOM     83  C   UNL     1       6.926  -6.501   4.502  1.00  0.00     0.006 A 
ATOM     84  C   UNL     1       4.488  -6.508   5.276  1.00  0.00     0.049 C 
ATOM     85  C   UNL     1       2.738  -5.595   3.739  1.00  0.00     0.115 C 
ATOM     86  H   UNL     1       3.470  -5.723   1.756  1.00  0.00     0.161 HD
ATOM     87  C   UNL     1       3.429  -5.404   5.084  1.00  0.00     0.031 C 
ATOM     88  C   UNL     1       4.762  -6.335   6.740  1.00  0.00    -0.023 C 
ATOM     89  C   UNL     1       2.598  -5.501   6.361  1.00  0.00     0.034 C 
ATOM     90  C   UNL     1       3.688  -5.810   7.351  1.00  0.00    -0.030 C 
BRANCH  85  91
ATOM     91  C   UNL     1       1.699  -4.590   3.223  1.00  0.00    -0.011 A 
ATOM     92  C   UNL     1       0.887  -5.077   2.160  1.00  0.00     0.007 A 
ATOM     93  C   UNL     1       1.485  -3.249   3.602  1.00  0.00     0.023 A 
ATOM     94  C   UNL     1      -0.084  -4.294   1.530  1.00  0.00     0.000 A 
ATOM     95  C   UNL     1       0.477  -2.480   2.986  1.00  0.00     0.016 A 
ATOM     96  Br  UNL     1       2.512  -2.253   4.851  1.00  0.00    -0.050 Br
ATOM     97  C   UNL     1      -0.300  -2.995   1.955  1.00  0.00     0.001 A 
ENDBRANCH  85  91
ENDBRANCH  74  77
ENDBRANCH  72  73
ENDBRANCH  71  72
ENDBRANCH   1  71
TORSDOF 14
