REMARK SMILES [NH3+][C@H]1C=C[C@@H](C(=O)N2CCC(CC(=O)NCCCNC(=O)c3ccc(-c4c5nc(c(-c6cccc(S(=O)(=O)[O-])c6F)c6ccc([nH]6)c(-c6cccc(S(=O)(=O)[O-])c6F)c6nc(c(-c7cccc(S(=O)(=O)[O-])c7F)c7ccc4[nH]7)C=C6)C=C5)cc3)CC2)C1
REMARK SMILES IDX 17 1 16 2 15 3 13 4 14 5 12 7 11 8 6 9 7 10 8 11 9 12 86 13
REMARK SMILES IDX 10 14 85 15 5 16 2 17 3 18 87 19 4 20 1 21 18 25 19 26 20 27
REMARK SMILES IDX 21 29 22 30 23 31 84 32 24 33 83 34 25 35 26 36 27 37 77 38
REMARK SMILES IDX 28 39 82 40 76 41 78 42 29 43 81 44 75 45 74 46 30 48 62 49
REMARK SMILES IDX 42 50 61 51 43 52 46 53 60 54 79 55 44 56 45 57 59 59 80 60
REMARK SMILES IDX 47 61 31 62 32 63 40 64 33 65 35 66 41 67 34 68 36 69 37 70
REMARK SMILES IDX 38 71 39 72 63 73 64 74 72 75 65 76 67 77 73 78 66 79 68 80
REMARK SMILES IDX 69 81 70 82 71 83 48 84 49 85 57 86 50 87 52 88 58 89 51 90
REMARK SMILES IDX 53 91 54 92 55 93 56 94
REMARK H PARENT 15 6 1 22 1 23 1 24 19 28 78 47 46 58
REMARK Flexibility Score: inf
ROOT
ATOM      1  C   UNL     1       7.189   2.651  -6.437  1.00  0.00     0.042 C 
ENDROOT
BRANCH   1   2
ATOM      2  C   UNL     1       8.017   1.368  -6.351  1.00  0.00     0.117 C 
BRANCH   2   3
ATOM      3  N   UNL     1       8.887   1.326  -5.182  1.00  0.00    -0.356 N 
ATOM      4  C   UNL     1       8.856   0.537  -4.071  1.00  0.00     0.220 C 
ATOM      5  O   UNL     1       9.741   0.684  -3.225  1.00  0.00    -0.275 OA
ATOM      6  H   UNL     1       9.624   1.979  -5.198  1.00  0.00     0.163 HD
BRANCH   4   7
ATOM      7  C   UNL     1       7.761  -0.492  -3.873  1.00  0.00     0.103 C 
BRANCH   7   8
ATOM      8  C   UNL     1       6.599   0.003  -2.992  1.00  0.00     0.002 C 
ATOM      9  C   UNL     1       2.801   0.135  -3.772  1.00  0.00     0.229 C 
ATOM     10  O   UNL     1       3.155  -0.339  -4.853  1.00  0.00    -0.274 OA
ATOM     11  N   UNL     1       3.712   0.412  -2.760  1.00  0.00    -0.342 N 
ATOM     12  C   UNL     1       4.565   1.572  -2.937  1.00  0.00     0.120 C 
ATOM     13  C   UNL     1       4.338  -0.689  -2.052  1.00  0.00     0.120 C 
ATOM     14  C   UNL     1       5.872   1.194  -3.627  1.00  0.00     0.026 C 
ATOM     15  C   UNL     1       5.618  -1.155  -2.741  1.00  0.00     0.026 C 
BRANCH   9  16
ATOM     16  C   UNL     1       1.326   0.399  -3.440  1.00  0.00     0.107 C 
ATOM     17  C   UNL     1       0.178   0.307  -1.247  1.00  0.00     0.205 C 
ATOM     18  C   UNL     1       0.482   1.699  -1.668  1.00  0.00     0.033 C 
ATOM     19  C   UNL     1       0.770  -0.558  -2.373  1.00  0.00     0.087 C 
ATOM     20  C   UNL     1       1.087   1.756  -2.858  1.00  0.00    -0.012 C 
BRANCH  17  21
ATOM     21  N   UNL     1       0.767   0.012   0.050  1.00  0.00    -0.352 N 
ATOM     22  H   UNL     1       0.343   0.609   0.760  1.00  0.00     0.345 HD
ATOM     23  H   UNL     1       1.771   0.186   0.015  1.00  0.00     0.345 HD
ATOM     24  H   UNL     1       0.600  -0.967   0.284  1.00  0.00     0.345 HD
ENDBRANCH  17  21
ENDBRANCH   9  16
ENDBRANCH   7   8
ENDBRANCH   4   7
ENDBRANCH   2   3
ENDBRANCH   1   2
BRANCH   1  25
ATOM     25  C   UNL     1       8.004   3.917  -6.670  1.00  0.00     0.118 C 
BRANCH  25  26
ATOM     26  N   UNL     1       8.267   4.130  -8.081  1.00  0.00    -0.352 N 
ATOM     27  C   UNL     1       7.765   5.084  -8.934  1.00  0.00     0.251 C 
ATOM     28  H   UNL     1       8.900   3.497  -8.489  1.00  0.00     0.163 HD
ATOM     29  O   UNL     1       7.901   4.921 -10.145  1.00  0.00    -0.269 OA
BRANCH  27  30
ATOM     30  C   UNL     1       7.067   6.295  -8.428  1.00  0.00     0.039 A 
ATOM     31  C   UNL     1       6.002   6.811  -9.175  1.00  0.00     0.014 A 
ATOM     32  C   UNL     1       7.491   6.976  -7.282  1.00  0.00     0.014 A 
ATOM     33  C   UNL     1       5.354   7.981  -8.763  1.00  0.00     0.010 A 
ATOM     34  C   UNL     1       6.792   8.097  -6.828  1.00  0.00     0.010 A 
ATOM     35  C   UNL     1       5.731   8.629  -7.575  1.00  0.00    -0.014 A 
BRANCH  35  36
ATOM     36  C   UNL     1       5.031   9.863  -7.122  1.00  0.00     0.031 A 
ATOM     37  C   UNL     1       5.769  11.174  -7.011  1.00  0.00     0.074 A 
ATOM     38  C   UNL     1       3.733   9.799  -6.762  1.00  0.00     0.049 A 
ATOM     39  N   UNL     1       5.314  12.348  -6.653  1.00  0.00    -0.248 NA
ATOM     40  C   UNL     1       7.208  11.162  -7.319  1.00  0.00     0.031 C 
ATOM     41  C   UNL     1       2.923   8.580  -6.737  1.00  0.00     0.029 A 
ATOM     42  N   UNL     1       2.871  10.778  -6.331  1.00  0.00    -0.354 N 
ATOM     43  C   UNL     1       6.411  13.203  -6.661  1.00  0.00     0.074 A 
ATOM     44  C   UNL     1       7.561  12.406  -7.025  1.00  0.00     0.031 C 
ATOM     45  C   UNL     1       1.682   8.884  -6.326  1.00  0.00     0.029 A 
ATOM     46  C   UNL     1       1.609  10.314  -6.040  1.00  0.00     0.049 A 
ATOM     47  H   UNL     1       3.132  11.723  -6.240  1.00  0.00     0.167 HD
ATOM     48  C   UNL     1       6.455  14.537  -6.422  1.00  0.00     0.034 A 
ATOM     49  C   UNL     1       0.515  10.964  -5.596  1.00  0.00     0.034 A 
ATOM     50  C   UNL     1       5.303  15.341  -6.112  1.00  0.00     0.049 A 
ATOM     51  C   UNL     1       0.575  12.454  -5.397  1.00  0.00     0.074 A 
ATOM     52  C   UNL     1       5.230  16.714  -5.952  1.00  0.00     0.029 A 
ATOM     53  N   UNL     1       4.024  14.848  -5.909  1.00  0.00    -0.354 N 
ATOM     54  N   UNL     1       1.583  13.271  -5.584  1.00  0.00    -0.248 NA
ATOM     55  C   UNL     1      -0.663  13.118  -4.965  1.00  0.00     0.031 C 
ATOM     56  C   UNL     1       3.909  17.049  -5.634  1.00  0.00     0.029 A 
ATOM     57  C   UNL     1       3.156  15.886  -5.614  1.00  0.00     0.049 A 
ATOM     58  H   UNL     1       3.770  13.899  -5.965  1.00  0.00     0.167 HD
ATOM     59  C   UNL     1       1.095  14.546  -5.320  1.00  0.00     0.074 A 
ATOM     60  C   UNL     1      -0.307  14.395  -4.989  1.00  0.00     0.031 C 
ATOM     61  C   UNL     1       1.752  15.732  -5.332  1.00  0.00     0.034 A 
BRANCH  48  62
ATOM     62  C   UNL     1       7.788  15.229  -6.552  1.00  0.00     0.023 A 
ATOM     63  C   UNL     1       8.348  15.418  -7.833  1.00  0.00     0.012 A 
ATOM     64  C   UNL     1       8.454  15.750  -5.425  1.00  0.00     0.148 A 
ATOM     65  C   UNL     1       9.564  16.082  -7.988  1.00  0.00     0.002 A 
ATOM     66  C   UNL     1       9.646  16.448  -5.592  1.00  0.00     0.091 A 
ATOM     67  F   UNL     1       7.919  15.545  -4.214  1.00  0.00    -0.205 F 
ATOM     68  C   UNL     1      10.207  16.606  -6.870  1.00  0.00     0.022 A 
BRANCH  66  69
ATOM     69  S   UNL     1      10.511  17.229  -4.224  1.00  0.00     0.127 S 
ATOM     70  O   UNL     1      11.672  16.352  -4.071  1.00  0.00    -0.237 OA
ATOM     71  O   UNL     1      10.816  18.553  -4.766  1.00  0.00    -0.237 OA
ATOM     72  O   UNL     1       9.576  17.231  -3.108  1.00  0.00    -0.744 OA
ENDBRANCH  66  69
ENDBRANCH  48  62
BRANCH  49  73
ATOM     73  C   UNL     1      -0.757  10.215  -5.389  1.00  0.00     0.023 A 
ATOM     74  C   UNL     1      -1.833  10.422  -6.274  1.00  0.00     0.012 A 
ATOM     75  C   UNL     1      -0.894   9.275  -4.350  1.00  0.00     0.148 A 
ATOM     76  C   UNL     1      -3.032   9.727  -6.111  1.00  0.00     0.002 A 
ATOM     77  C   UNL     1      -2.071   8.545  -4.227  1.00  0.00     0.091 A 
ATOM     78  F   UNL     1       0.135   9.104  -3.507  1.00  0.00    -0.205 F 
ATOM     79  C   UNL     1      -3.147   8.781  -5.096  1.00  0.00     0.022 A 
BRANCH  77  80
ATOM     80  S   UNL     1      -2.250   7.210  -3.039  1.00  0.00     0.127 S 
ATOM     81  O   UNL     1      -3.124   7.814  -2.039  1.00  0.00    -0.237 OA
ATOM     82  O   UNL     1      -2.869   6.161  -3.849  1.00  0.00    -0.237 OA
ATOM     83  O   UNL     1      -0.895   6.899  -2.597  1.00  0.00    -0.744 OA
ENDBRANCH  77  80
ENDBRANCH  49  73
BRANCH  61  84
ATOM     84  C   UNL     1       0.964  16.970  -4.993  1.00  0.00     0.023 A 
ATOM     85  C   UNL     1       0.567  17.199  -3.660  1.00  0.00     0.012 A 
ATOM     86  C   UNL     1       0.671  17.935  -5.977  1.00  0.00     0.148 A 
ATOM     87  C   UNL     1      -0.138  18.352  -3.318  1.00  0.00     0.002 A 
ATOM     88  C   UNL     1       0.009  19.104  -5.620  1.00  0.00     0.091 A 
ATOM     89  F   UNL     1       1.039  17.691  -7.243  1.00  0.00    -0.205 F 
ATOM     90  C   UNL     1      -0.407  19.309  -4.294  1.00  0.00     0.022 A 
BRANCH  88  91
ATOM     91  S   UNL     1      -0.297  20.430  -6.793  1.00  0.00     0.127 S 
ATOM     92  O   UNL     1      -1.726  20.269  -7.060  1.00  0.00    -0.237 OA
ATOM     93  O   UNL     1       0.047  21.621  -6.015  1.00  0.00    -0.237 OA
ATOM     94  O   UNL     1       0.586  20.174  -7.923  1.00  0.00    -0.744 OA
ENDBRANCH  88  91
ENDBRANCH  61  84
ENDBRANCH  35  36
ENDBRANCH  27  30
ENDBRANCH  25  26
ENDBRANCH   1  25
TORSDOF 16
