REMARK SMILES O=C(Cc1ccccc1)Nc1cccc(C(=O)Nc2ccccc2C(=O)NCCCNC(=O)c2ccc(-c3c4nc(c(-c5cccc(S(=O)(=O)[O-])c5F)c5ccc([nH]5)c(-c5cccc(S(=O)(=O)[O-])c5F)c5nc(c(-c6cccc(S(=O)(=O)[O-])c6F)c6ccc3[nH]6)C=C5)C=C4)cc2)c1
REMARK SMILES IDX 28 1 27 2 25 3 26 4 24 6 19 7 20 8 21 9 23 10 22 11 18 12
REMARK SMILES IDX 16 13 17 14 15 16 11 17 12 18 97 19 13 20 14 21 10 22 1 23
REMARK SMILES IDX 2 24 3 26 4 27 5 28 9 29 6 30 8 31 7 32 29 33 30 34 31 35
REMARK SMILES IDX 32 36 33 38 34 39 35 40 96 41 36 42 95 43 37 44 38 45 39 46
REMARK SMILES IDX 89 47 40 48 94 49 88 50 90 51 41 52 93 53 87 54 86 55 42 57
REMARK SMILES IDX 74 58 54 59 73 60 55 61 58 62 72 63 91 64 56 65 57 66 71 68
REMARK SMILES IDX 92 69 59 70 43 71 44 72 52 73 45 74 47 75 53 76 46 77 48 78
REMARK SMILES IDX 49 79 50 80 51 81 75 82 76 83 84 84 77 85 79 86 85 87 78 88
REMARK SMILES IDX 80 89 81 90 82 91 83 92 60 93 61 94 69 95 62 96 64 97 70 98
REMARK SMILES IDX 63 99 65 100 66 101 67 102 68 103
REMARK H PARENT 27 5 18 15 10 25 31 37 90 56 58 67
REMARK Flexibility Score: inf
ROOT
ATOM      1  C   UNL     1      -0.414  -0.963  -5.456  1.00  0.00     0.118 C 
ENDROOT
BRANCH   1   2
ATOM      2  N   UNL     1       0.919  -1.191  -4.931  1.00  0.00    -0.352 N 
ATOM      3  C   UNL     1       1.559  -0.597  -3.881  1.00  0.00     0.253 C 
ATOM      4  O   UNL     1       2.729  -0.916  -3.659  1.00  0.00    -0.269 OA
ATOM      5  H   UNL     1       1.442  -1.879  -5.404  1.00  0.00     0.163 HD
BRANCH   3   6
ATOM      6  C   UNL     1       0.933   0.491  -3.086  1.00  0.00     0.063 A 
ATOM      7  C   UNL     1      -0.394   0.572  -2.613  1.00  0.00     0.054 A 
ATOM      8  C   UNL     1      -0.818   1.796  -2.061  1.00  0.00     0.027 A 
ATOM      9  C   UNL     1       0.070   2.857  -1.857  1.00  0.00     0.002 A 
ATOM     10  C   UNL     1       1.822   1.566  -2.854  1.00  0.00     0.016 A 
ATOM     11  C   UNL     1       1.399   2.734  -2.228  1.00  0.00     0.001 A 
BRANCH   7  12
ATOM     12  N   UNL     1      -1.383  -0.449  -2.563  1.00  0.00    -0.321 N 
ATOM     13  C   UNL     1      -1.304  -1.819  -2.375  1.00  0.00     0.255 C 
ATOM     14  O   UNL     1      -2.286  -2.531  -2.566  1.00  0.00    -0.269 OA
ATOM     15  H   UNL     1      -2.302  -0.118  -2.687  1.00  0.00     0.170 HD
BRANCH  13  16
ATOM     16  C   UNL     1      -0.060  -2.435  -1.884  1.00  0.00     0.042 A 
ATOM     17  C   UNL     1       1.999  -2.076  -0.713  1.00  0.00     0.041 A 
ATOM     18  C   UNL     1       2.528  -3.220  -1.324  1.00  0.00     0.026 A 
ATOM     19  C   UNL     1       0.667  -1.759  -0.912  1.00  0.00     0.040 A 
ATOM     20  C   UNL     1       1.730  -4.013  -2.157  1.00  0.00     0.003 A 
ATOM     21  C   UNL     1       0.430  -3.610  -2.456  1.00  0.00     0.014 A 
BRANCH  17  22
ATOM     22  N   UNL     1       2.867  -1.206  -0.034  1.00  0.00    -0.326 N 
ATOM     23  O   UNL     1       1.378   0.316   0.948  1.00  0.00    -0.274 OA
ATOM     24  C   UNL     1       2.513  -0.069   0.683  1.00  0.00     0.228 C 
ATOM     25  H   UNL     1       3.826  -1.424  -0.070  1.00  0.00     0.169 HD
BRANCH  24  26
ATOM     26  C   UNL     1       3.717   0.690   1.195  1.00  0.00     0.135 C 
BRANCH  26  27
ATOM     27  C   UNL     1       4.333   0.110   2.449  1.00  0.00    -0.039 A 
ATOM     28  C   UNL     1       4.208  -1.243   2.807  1.00  0.00     0.004 A 
ATOM     29  C   UNL     1       5.114   0.945   3.259  1.00  0.00     0.004 A 
ATOM     30  C   UNL     1       4.851  -1.747   3.936  1.00  0.00     0.000 A 
ATOM     31  C   UNL     1       5.748   0.441   4.394  1.00  0.00     0.000 A 
ATOM     32  C   UNL     1       5.622  -0.905   4.729  1.00  0.00     0.000 A 
ENDBRANCH  26  27
ENDBRANCH  24  26
ENDBRANCH  17  22
ENDBRANCH  13  16
ENDBRANCH   7  12
ENDBRANCH   3   6
ENDBRANCH   1   2
BRANCH   1  33
ATOM     33  C   UNL     1      -0.595  -1.456  -6.877  1.00  0.00     0.042 C 
BRANCH  33  34
ATOM     34  C   UNL     1      -0.271  -2.933  -7.067  1.00  0.00     0.118 C 
BRANCH  34  35
ATOM     35  N   UNL     1      -1.090  -3.854  -6.282  1.00  0.00    -0.352 N 
ATOM     36  C   UNL     1      -2.073  -4.745  -6.652  1.00  0.00     0.251 C 
ATOM     37  H   UNL     1      -0.906  -3.834  -5.315  1.00  0.00     0.163 HD
ATOM     38  O   UNL     1      -2.627  -5.442  -5.806  1.00  0.00    -0.269 OA
BRANCH  36  39
ATOM     39  C   UNL     1      -2.514  -4.812  -8.058  1.00  0.00     0.039 A 
ATOM     40  C   UNL     1      -3.880  -4.751  -8.344  1.00  0.00     0.014 A 
ATOM     41  C   UNL     1      -1.584  -4.834  -9.092  1.00  0.00     0.014 A 
ATOM     42  C   UNL     1      -4.300  -4.557  -9.662  1.00  0.00     0.010 A 
ATOM     43  C   UNL     1      -1.992  -4.494 -10.373  1.00  0.00     0.010 A 
ATOM     44  C   UNL     1      -3.353  -4.337 -10.674  1.00  0.00    -0.014 A 
BRANCH  44  45
ATOM     45  C   UNL     1      -3.735  -3.909 -12.047  1.00  0.00     0.031 A 
ATOM     46  C   UNL     1      -3.233  -4.687 -13.236  1.00  0.00     0.074 A 
ATOM     47  C   UNL     1      -4.399  -2.748 -12.231  1.00  0.00     0.049 A 
ATOM     48  N   UNL     1      -3.268  -4.372 -14.504  1.00  0.00    -0.248 NA
ATOM     49  C   UNL     1      -2.548  -5.962 -12.957  1.00  0.00     0.031 C 
ATOM     50  C   UNL     1      -4.863  -1.852 -11.168  1.00  0.00     0.029 A 
ATOM     51  N   UNL     1      -4.771  -2.103 -13.385  1.00  0.00    -0.354 N 
ATOM     52  C   UNL     1      -2.557  -5.370 -15.161  1.00  0.00     0.074 A 
ATOM     53  C   UNL     1      -2.063  -6.276 -14.148  1.00  0.00     0.031 C 
ATOM     54  C   UNL     1      -5.474  -0.790 -11.717  1.00  0.00     0.029 A 
ATOM     55  C   UNL     1      -5.408  -0.901 -13.169  1.00  0.00     0.049 A 
ATOM     56  H   UNL     1      -4.600  -2.467 -14.284  1.00  0.00     0.167 HD
ATOM     57  C   UNL     1      -2.368  -5.545 -16.490  1.00  0.00     0.034 A 
ATOM     58  C   UNL     1      -5.877   0.011 -14.042  1.00  0.00     0.034 A 
ATOM     59  C   UNL     1      -2.946  -4.699 -17.496  1.00  0.00     0.049 A 
ATOM     60  C   UNL     1      -5.723  -0.249 -15.517  1.00  0.00     0.074 A 
ATOM     61  C   UNL     1      -2.905  -4.846 -18.871  1.00  0.00     0.029 A 
ATOM     62  N   UNL     1      -3.689  -3.559 -17.235  1.00  0.00    -0.354 N 
ATOM     63  N   UNL     1      -5.166  -1.271 -16.120  1.00  0.00    -0.248 NA
ATOM     64  C   UNL     1      -6.287   0.754 -16.432  1.00  0.00     0.031 C 
ATOM     65  C   UNL     1      -3.629  -3.795 -19.442  1.00  0.00     0.029 A 
ATOM     66  C   UNL     1      -4.122  -2.996 -18.422  1.00  0.00     0.049 A 
ATOM     67  H   UNL     1      -3.881  -3.202 -16.338  1.00  0.00     0.167 HD
ATOM     68  C   UNL     1      -5.340  -1.052 -17.481  1.00  0.00     0.074 A 
ATOM     69  C   UNL     1      -6.075   0.190 -17.614  1.00  0.00     0.031 C 
ATOM     70  C   UNL     1      -4.913  -1.798 -18.528  1.00  0.00     0.034 A 
BRANCH  57  71
ATOM     71  C   UNL     1      -1.577  -6.749 -16.929  1.00  0.00     0.023 A 
ATOM     72  C   UNL     1      -2.149  -8.032 -16.800  1.00  0.00     0.012 A 
ATOM     73  C   UNL     1      -0.297  -6.617 -17.501  1.00  0.00     0.148 A 
ATOM     74  C   UNL     1      -1.445  -9.168 -17.194  1.00  0.00     0.002 A 
ATOM     75  C   UNL     1       0.381  -7.752 -17.933  1.00  0.00     0.091 A 
ATOM     76  F   UNL     1       0.240  -5.392 -17.597  1.00  0.00    -0.205 F 
ATOM     77  C   UNL     1      -0.186  -9.027 -17.769  1.00  0.00     0.022 A 
BRANCH  75  78
ATOM     78  S   UNL     1       1.976  -7.673 -18.756  1.00  0.00     0.127 S 
ATOM     79  O   UNL     1       2.869  -8.190 -17.719  1.00  0.00    -0.237 OA
ATOM     80  O   UNL     1       1.781  -8.571 -19.895  1.00  0.00    -0.237 OA
ATOM     81  O   UNL     1       2.174  -6.276 -19.113  1.00  0.00    -0.744 OA
ENDBRANCH  75  78
ENDBRANCH  57  71
BRANCH  58  82
ATOM     82  C   UNL     1      -6.613   1.213 -13.552  1.00  0.00     0.023 A 
ATOM     83  C   UNL     1      -8.003   1.292 -13.766  1.00  0.00     0.012 A 
ATOM     84  C   UNL     1      -5.965   2.259 -12.867  1.00  0.00     0.148 A 
ATOM     85  C   UNL     1      -8.730   2.404 -13.338  1.00  0.00     0.002 A 
ATOM     86  C   UNL     1      -6.704   3.341 -12.399  1.00  0.00     0.091 A 
ATOM     87  F   UNL     1      -4.640   2.177 -12.685  1.00  0.00    -0.205 F 
ATOM     88  C   UNL     1      -8.083   3.424 -12.647  1.00  0.00     0.022 A 
BRANCH  86  89
ATOM     89  S   UNL     1      -5.968   4.634 -11.389  1.00  0.00     0.127 S 
ATOM     90  O   UNL     1      -5.811   5.717 -12.356  1.00  0.00    -0.237 OA
ATOM     91  O   UNL     1      -6.999   4.859 -10.375  1.00  0.00    -0.237 OA
ATOM     92  O   UNL     1      -4.736   4.059 -10.866  1.00  0.00    -0.744 OA
ENDBRANCH  86  89
ENDBRANCH  58  82
BRANCH  70  93
ATOM     93  C   UNL     1      -5.251  -1.318 -19.913  1.00  0.00     0.023 A 
ATOM     94  C   UNL     1      -4.539  -0.236 -20.465  1.00  0.00     0.012 A 
ATOM     95  C   UNL     1      -6.200  -2.000 -20.699  1.00  0.00     0.148 A 
ATOM     96  C   UNL     1      -4.779   0.173 -21.775  1.00  0.00     0.002 A 
ATOM     97  C   UNL     1      -6.404  -1.614 -22.018  1.00  0.00     0.091 A 
ATOM     98  F   UNL     1      -6.879  -3.016 -20.145  1.00  0.00    -0.205 F 
ATOM     99  C   UNL     1      -5.701  -0.523 -22.555  1.00  0.00     0.022 A 
BRANCH  97 100
ATOM    100  S   UNL     1      -7.500  -2.508 -23.125  1.00  0.00     0.127 S 
ATOM    101  O   UNL     1      -8.618  -1.575 -23.255  1.00  0.00    -0.237 OA
ATOM    102  O   UNL     1      -6.680  -2.649 -24.328  1.00  0.00    -0.237 OA
ATOM    103  O   UNL     1      -7.810  -3.764 -22.454  1.00  0.00    -0.744 OA
ENDBRANCH  97 100
ENDBRANCH  70  93
ENDBRANCH  44  45
ENDBRANCH  36  39
ENDBRANCH  34  35
ENDBRANCH  33  34
ENDBRANCH   1  33
TORSDOF 18
