REMARK SMILES Cc1ccc(NC(=O)C[N@H+]2CCC[C@@H](C(=O)NCCCNC(=O)c3ccc(-c4c5nc(c(-c6cccc(S(=O)(=O)[O-])c6F)c6ccc([nH]6)c(-c6cccc(S(=O)(=O)[O-])c6F)c6nc(c(-c7cccc(S(=O)(=O)[O-])c7F)c7ccc4[nH]7)C=C6)C=C5)cc3)C2)cc1F
REMARK SMILES IDX 19 1 18 2 17 3 15 4 16 5 14 7 10 8 11 9 87 10 12 12 13 13
REMARK SMILES IDX 9 14 7 15 6 16 8 18 5 19 1 20 2 21 3 22 89 23 4 24 88 25
REMARK SMILES IDX 90 26 20 27 21 28 22 29 23 31 24 32 25 33 86 34 26 35 85 36
REMARK SMILES IDX 27 37 28 38 29 39 79 40 30 41 84 42 78 43 80 44 31 45 83 46
REMARK SMILES IDX 77 47 76 48 32 50 64 51 44 52 63 53 45 54 48 55 62 56 81 57
REMARK SMILES IDX 46 58 47 59 61 61 82 62 49 63 33 64 34 65 42 66 35 67 37 68
REMARK SMILES IDX 43 69 36 70 38 71 39 72 40 73 41 74 65 75 66 76 74 77 67 78
REMARK SMILES IDX 69 79 75 80 68 81 70 82 71 83 72 84 73 85 50 86 51 87 59 88
REMARK SMILES IDX 52 89 54 90 60 91 53 92 55 93 56 94 57 95 58 96
REMARK H PARENT 17 6 10 11 6 17 21 30 80 49 48 60
REMARK Flexibility Score: inf
ROOT
ATOM      1  C   UNL     1       1.112   1.210  -1.876  1.00  0.00     0.042 C 
ENDROOT
BRANCH   1   2
ATOM      2  C   UNL     1      -0.183   0.434  -1.831  1.00  0.00     0.117 C 
BRANCH   2   3
ATOM      3  N   UNL     1      -0.912   0.460  -3.088  1.00  0.00    -0.356 N 
ATOM      4  C   UNL     1      -1.261  -0.616  -3.860  1.00  0.00     0.228 C 
ATOM      5  O   UNL     1      -1.929  -0.458  -4.879  1.00  0.00    -0.275 OA
ATOM      6  H   UNL     1      -1.183   1.347  -3.421  1.00  0.00     0.163 HD
BRANCH   4   7
ATOM      7  C   UNL     1      -0.800  -1.979  -3.381  1.00  0.00     0.133 C 
ATOM      8  N   UNL     1      -1.128  -3.644  -1.582  1.00  0.00    -0.326 N 
ATOM      9  C   UNL     1      -1.103  -4.731  -2.580  1.00  0.00     0.262 C 
ATOM     10  C   UNL     1      -1.677  -2.426  -2.201  1.00  0.00     0.276 C 
ATOM     11  H   UNL     1      -0.185  -3.402  -1.279  1.00  0.00     0.348 HD
ATOM     12  C   UNL     1      -0.334  -4.357  -3.855  1.00  0.00     0.062 C 
ATOM     13  C   UNL     1      -0.835  -3.050  -4.462  1.00  0.00     0.025 C 
BRANCH   8  14
ATOM     14  C   UNL     1      -1.822  -4.093  -0.342  1.00  0.00     0.363 C 
BRANCH  14  15
ATOM     15  C   UNL     1      -2.929  -3.185   0.196  1.00  0.00     0.279 C 
ATOM     16  N   UNL     1      -2.711  -1.993   0.822  1.00  0.00    -0.321 N 
ATOM     17  H   UNL     1      -3.546  -1.533   1.067  1.00  0.00     0.170 HD
ATOM     18  O   UNL     1      -4.111  -3.530   0.048  1.00  0.00    -0.268 OA
BRANCH  16  19
ATOM     19  C   UNL     1      -1.564  -1.270   1.198  1.00  0.00     0.044 A 
ATOM     20  C   UNL     1       1.814   1.259   2.161  1.00  0.00     0.047 C 
ATOM     21  C   UNL     1       0.622   0.388   1.908  1.00  0.00    -0.015 A 
ATOM     22  C   UNL     1      -0.689   0.872   1.971  1.00  0.00     0.008 A 
ATOM     23  C   UNL     1       0.811  -0.926   1.500  1.00  0.00     0.128 A 
ATOM     24  C   UNL     1      -1.768   0.056   1.608  1.00  0.00     0.026 A 
ATOM     25  C   UNL     1      -0.260  -1.753   1.165  1.00  0.00     0.065 A 
ATOM     26  F   UNL     1       2.054  -1.418   1.396  1.00  0.00    -0.207 F 
ENDBRANCH  16  19
ENDBRANCH  14  15
ENDBRANCH   8  14
ENDBRANCH   4   7
ENDBRANCH   2   3
ENDBRANCH   1   2
BRANCH   1  27
ATOM     27  C   UNL     1       0.862   2.661  -1.570  1.00  0.00     0.118 C 
BRANCH  27  28
ATOM     28  N   UNL     1       0.350   2.911  -0.209  1.00  0.00    -0.352 N 
ATOM     29  C   UNL     1       0.647   3.961   0.655  1.00  0.00     0.251 C 
ATOM     30  H   UNL     1      -0.289   2.245   0.134  1.00  0.00     0.163 HD
ATOM     31  O   UNL     1       0.391   3.970   1.839  1.00  0.00    -0.269 OA
BRANCH  29  32
ATOM     32  C   UNL     1       1.259   5.129   0.037  1.00  0.00     0.039 A 
ATOM     33  C   UNL     1       2.172   5.977   0.665  1.00  0.00     0.014 A 
ATOM     34  C   UNL     1       0.814   5.360  -1.251  1.00  0.00     0.014 A 
ATOM     35  C   UNL     1       2.604   7.078  -0.058  1.00  0.00     0.010 A 
ATOM     36  C   UNL     1       1.567   6.115  -2.058  1.00  0.00     0.010 A 
ATOM     37  C   UNL     1       2.253   7.126  -1.410  1.00  0.00    -0.014 A 
BRANCH  37  38
ATOM     38  C   UNL     1       2.375   8.255  -2.297  1.00  0.00     0.031 A 
ATOM     39  C   UNL     1       3.720   8.573  -2.734  1.00  0.00     0.074 A 
ATOM     40  C   UNL     1       1.188   8.689  -2.789  1.00  0.00     0.049 A 
ATOM     41  N   UNL     1       4.222   9.752  -2.802  1.00  0.00    -0.248 NA
ATOM     42  C   UNL     1       4.693   7.511  -3.014  1.00  0.00     0.031 C 
ATOM     43  C   UNL     1       0.844   9.492  -3.942  1.00  0.00     0.029 A 
ATOM     44  N   UNL     1      -0.056   8.441  -2.199  1.00  0.00    -0.354 N 
ATOM     45  C   UNL     1       5.308   9.599  -3.631  1.00  0.00     0.074 A 
ATOM     46  C   UNL     1       5.727   8.226  -3.465  1.00  0.00     0.031 C 
ATOM     47  C   UNL     1      -0.425   9.934  -3.798  1.00  0.00     0.029 A 
ATOM     48  C   UNL     1      -0.927   9.481  -2.505  1.00  0.00     0.049 A 
ATOM     49  H   UNL     1      -0.279   7.654  -1.652  1.00  0.00     0.167 HD
ATOM     50  C   UNL     1       5.476  10.472  -4.668  1.00  0.00     0.034 A 
ATOM     51  C   UNL     1      -1.332  10.252  -1.452  1.00  0.00     0.034 A 
ATOM     52  C   UNL     1       4.318  11.373  -4.751  1.00  0.00     0.049 A 
ATOM     53  C   UNL     1      -0.551  11.544  -1.481  1.00  0.00     0.074 A 
ATOM     54  C   UNL     1       3.245  11.432  -5.627  1.00  0.00     0.029 A 
ATOM     55  N   UNL     1       3.947  12.130  -3.644  1.00  0.00    -0.354 N 
ATOM     56  N   UNL     1       0.626  11.673  -2.035  1.00  0.00    -0.248 NA
ATOM     57  C   UNL     1      -1.082  12.805  -0.984  1.00  0.00     0.031 C 
ATOM     58  C   UNL     1       2.212  12.196  -5.014  1.00  0.00     0.029 A 
ATOM     59  C   UNL     1       2.647  12.583  -3.758  1.00  0.00     0.049 A 
ATOM     60  H   UNL     1       4.535  12.318  -2.878  1.00  0.00     0.167 HD
ATOM     61  C   UNL     1       0.962  12.997  -2.085  1.00  0.00     0.074 A 
ATOM     62  C   UNL     1      -0.128  13.661  -1.390  1.00  0.00     0.031 C 
ATOM     63  C   UNL     1       2.082  13.449  -2.727  1.00  0.00     0.034 A 
BRANCH  50  64
ATOM     64  C   UNL     1       6.478  10.267  -5.786  1.00  0.00     0.023 A 
ATOM     65  C   UNL     1       7.620   9.445  -5.640  1.00  0.00     0.012 A 
ATOM     66  C   UNL     1       6.356  10.930  -7.026  1.00  0.00     0.148 A 
ATOM     67  C   UNL     1       8.520   9.201  -6.686  1.00  0.00     0.002 A 
ATOM     68  C   UNL     1       7.278  10.722  -8.054  1.00  0.00     0.091 A 
ATOM     69  F   UNL     1       5.357  11.797  -7.232  1.00  0.00    -0.205 F 
ATOM     70  C   UNL     1       8.349   9.843  -7.900  1.00  0.00     0.022 A 
BRANCH  68  71
ATOM     71  S   UNL     1       7.094  11.645  -9.582  1.00  0.00     0.127 S 
ATOM     72  O   UNL     1       5.839  11.130 -10.120  1.00  0.00    -0.237 OA
ATOM     73  O   UNL     1       7.100  13.033  -9.133  1.00  0.00    -0.237 OA
ATOM     74  O   UNL     1       8.280  11.260 -10.349  1.00  0.00    -0.744 OA
ENDBRANCH  68  71
ENDBRANCH  50  64
BRANCH  51  75
ATOM     75  C   UNL     1      -1.631   9.393  -0.241  1.00  0.00     0.023 A 
ATOM     76  C   UNL     1      -0.674   9.193   0.771  1.00  0.00     0.012 A 
ATOM     77  C   UNL     1      -2.630   8.400  -0.420  1.00  0.00     0.148 A 
ATOM     78  C   UNL     1      -0.646   7.982   1.486  1.00  0.00     0.002 A 
ATOM     79  C   UNL     1      -2.521   7.160   0.208  1.00  0.00     0.091 A 
ATOM     80  F   UNL     1      -3.598   8.625  -1.324  1.00  0.00    -0.205 F 
ATOM     81  C   UNL     1      -1.533   6.948   1.171  1.00  0.00     0.022 A 
BRANCH  79  82
ATOM     82  S   UNL     1      -3.401   5.740  -0.483  1.00  0.00     0.127 S 
ATOM     83  O   UNL     1      -4.697   5.809   0.182  1.00  0.00    -0.237 OA
ATOM     84  O   UNL     1      -3.390   5.991  -1.921  1.00  0.00    -0.237 OA
ATOM     85  O   UNL     1      -2.573   4.591  -0.103  1.00  0.00    -0.744 OA
ENDBRANCH  79  82
ENDBRANCH  51  75
BRANCH  63  86
ATOM     86  C   UNL     1       2.723  14.806  -2.550  1.00  0.00     0.023 A 
ATOM     87  C   UNL     1       3.767  15.178  -3.440  1.00  0.00     0.012 A 
ATOM     88  C   UNL     1       2.461  15.691  -1.499  1.00  0.00     0.148 A 
ATOM     89  C   UNL     1       4.524  16.336  -3.277  1.00  0.00     0.002 A 
ATOM     90  C   UNL     1       3.120  16.916  -1.425  1.00  0.00     0.091 A 
ATOM     91  F   UNL     1       1.626  15.352  -0.511  1.00  0.00    -0.205 F 
ATOM     92  C   UNL     1       4.179  17.229  -2.279  1.00  0.00     0.022 A 
BRANCH  90  93
ATOM     93  S   UNL     1       2.473  18.147  -0.299  1.00  0.00     0.127 S 
ATOM     94  O   UNL     1       1.114  18.342  -0.799  1.00  0.00    -0.237 OA
ATOM     95  O   UNL     1       2.596  17.515   1.010  1.00  0.00    -0.237 OA
ATOM     96  O   UNL     1       3.361  19.292  -0.503  1.00  0.00    -0.744 OA
ENDBRANCH  90  93
ENDBRANCH  63  86
ENDBRANCH  37  38
ENDBRANCH  29  32
ENDBRANCH  27  28
ENDBRANCH   1  27
TORSDOF 16
