REMARK SMILES CC1=C(C)C[C@@H](C(=O)NCCCNC(=O)c2ccc(-c3c4nc(c(-c5cccc(S(=O)(=O)[O-])c5F)c5ccc([nH]5)c(-c5cccc(S(=O)(=O)[O-])c5F)c5nc(c(-c6cccc(S(=O)(=O)[O-])c6F)c6ccc3[nH]6)C=C5)C=C4)cc2)[C@@H](C(=O)N2CCN(c3cccc(C(F)(F)F)c3)CC2)C1
REMARK SMILES IDX 11 1 10 2 9 3 7 4 8 5 6 7 1 8 2 9 3 10 98 11 4 12 5 13 79 14
REMARK SMILES IDX 80 15 81 16 82 17 83 18 97 19 84 20 96 21 85 22 86 23 87 24
REMARK SMILES IDX 95 25 88 26 90 27 89 28 91 29 92 30 93 31 94 32 12 33 13 34
REMARK SMILES IDX 14 35 15 37 16 38 17 39 78 40 18 41 77 42 19 43 20 44 21 45
REMARK SMILES IDX 71 46 22 47 76 48 70 49 72 50 23 51 75 52 69 53 68 54 24 56
REMARK SMILES IDX 56 57 36 58 55 59 37 60 40 61 54 62 73 63 38 64 39 65 53 67
REMARK SMILES IDX 74 68 41 69 25 70 26 71 34 72 27 73 29 74 35 75 28 76 30 77
REMARK SMILES IDX 31 78 32 79 33 80 57 81 58 82 66 83 59 84 61 85 67 86 60 87
REMARK SMILES IDX 62 88 63 89 64 90 65 91 42 92 43 93 51 94 44 95 46 96 52 97
REMARK SMILES IDX 45 98 47 99 48 100 49 101 50 102
REMARK H PARENT 9 6 13 36 72 55 40 66
REMARK Flexibility Score: inf
ROOT
ATOM      1  C   UNL     1      -3.686  -1.697  -0.569  1.00  0.00     0.042 C 
ENDROOT
BRANCH   1   2
ATOM      2  C   UNL     1      -1.717  -2.444  -0.373  1.00  0.00     0.117 C 
BRANCH   2   3
ATOM      3  N   UNL     1      -1.120  -3.854  -0.956  1.00  0.00    -0.356 N 
ATOM      4  C   UNL     1      -0.517  -4.221  -2.128  1.00  0.00     0.224 C 
ATOM      5  O   UNL     1      -0.695  -5.379  -2.520  1.00  0.00    -0.275 OA
ATOM      6  H   UNL     1      -1.216  -4.601  -0.323  1.00  0.00     0.163 HD
BRANCH   4   7
ATOM      7  C   UNL     1       0.503  -3.337  -2.784  1.00  0.00     0.095 C 
ATOM      8  C   UNL     1       1.446   0.153  -0.278  1.00  0.00     0.039 C 
ATOM      9  C   UNL     1       1.332  -1.034  -1.195  1.00  0.00    -0.074 C 
ATOM     10  C   UNL     1       1.697  -2.273  -0.805  1.00  0.00    -0.074 C 
ATOM     11  C   UNL     1       0.792  -0.797  -2.605  1.00  0.00     0.045 C 
ATOM     12  C   UNL     1       2.128  -2.679   0.582  1.00  0.00     0.039 C 
ATOM     13  C   UNL     1       1.675  -3.398  -1.801  1.00  0.00     0.045 C 
ATOM     14  C   UNL     1       0.011  -1.962  -3.264  1.00  0.00     0.095 C 
BRANCH  14  15
ATOM     15  C   UNL     1      -1.548  -2.016  -3.409  1.00  0.00     0.226 C 
ATOM     16  O   UNL     1      -2.045  -2.508  -4.426  1.00  0.00    -0.275 OA
ATOM     17  N   UNL     1      -2.314  -1.867  -2.266  1.00  0.00    -0.339 N 
ATOM     18  C   UNL     1      -3.236  -3.376  -1.587  1.00  0.00     0.141 C 
ATOM     19  C   UNL     1      -2.113  -0.346  -1.254  1.00  0.00     0.141 C 
ATOM     20  C   UNL     1      -3.259  -3.523   0.425  1.00  0.00     0.138 C 
ATOM     21  C   UNL     1      -2.078  -0.534   0.668  1.00  0.00     0.138 C 
ATOM     22  N   UNL     1      -3.027  -1.923   1.481  1.00  0.00    -0.368 N 
BRANCH  22  23
ATOM     23  C   UNL     1      -4.053  -1.166   2.432  1.00  0.00     0.037 A 
ATOM     24  C   UNL     1      -4.950  -1.825   3.816  1.00  0.00     0.026 A 
ATOM     25  C   UNL     1      -4.709   0.119   1.581  1.00  0.00     0.039 A 
ATOM     26  C   UNL     1      -6.657  -1.359   4.271  1.00  0.00     0.003 A 
ATOM     27  C   UNL     1      -6.354   0.736   1.791  1.00  0.00     0.058 A 
ATOM     28  C   UNL     1      -7.526  -0.099   3.232  1.00  0.00     0.013 A 
BRANCH  27  29
ATOM     29  C   UNL     1      -6.032   2.136   1.153  1.00  0.00     0.416 C 
ATOM     30  F   UNL     1      -5.961   3.092   2.121  1.00  0.00    -0.166 F 
ATOM     31  F   UNL     1      -4.768   2.318   0.627  1.00  0.00    -0.166 F 
ATOM     32  F   UNL     1      -6.825   2.443   0.108  1.00  0.00    -0.166 F 
ENDBRANCH  27  29
ENDBRANCH  22  23
ENDBRANCH  14  15
ENDBRANCH   4   7
ENDBRANCH   2   3
ENDBRANCH   1   2
BRANCH   1  33
ATOM     33  C   UNL     1      -5.273  -2.214  -0.241  1.00  0.00     0.118 C 
BRANCH  33  34
ATOM     34  N   UNL     1      -5.571  -2.951   0.973  1.00  0.00    -0.352 N 
ATOM     35  C   UNL     1      -6.368  -2.635   1.994  1.00  0.00     0.251 C 
ATOM     36  H   UNL     1      -5.114  -3.819   1.055  1.00  0.00     0.163 HD
ATOM     37  O   UNL     1      -6.869  -3.494   2.703  1.00  0.00    -0.269 OA
BRANCH  35  38
ATOM     38  C   UNL     1      -6.362  -1.123   2.208  1.00  0.00     0.039 A 
ATOM     39  C   UNL     1      -5.739   0.321   3.502  1.00  0.00     0.014 A 
ATOM     40  C   UNL     1      -7.763  -0.825   1.179  1.00  0.00     0.014 A 
ATOM     41  C   UNL     1      -6.848   1.815   3.572  1.00  0.00     0.010 A 
ATOM     42  C   UNL     1      -8.552   0.638   1.262  1.00  0.00     0.010 A 
ATOM     43  C   UNL     1      -8.214   1.955   2.376  1.00  0.00    -0.014 A 
BRANCH  43  44
ATOM     44  C   UNL     1      -9.050   3.224   1.783  1.00  0.00     0.031 A 
ATOM     45  C   UNL     1     -10.568   2.960   1.371  1.00  0.00     0.074 A 
ATOM     46  C   UNL     1      -8.537   4.379   1.221  1.00  0.00     0.049 A 
ATOM     47  N   UNL     1     -11.396   3.727   0.685  1.00  0.00    -0.248 NA
ATOM     48  C   UNL     1     -11.169   1.633   1.656  1.00  0.00     0.031 C 
ATOM     49  C   UNL     1      -7.147   4.799   1.068  1.00  0.00     0.029 A 
ATOM     50  N   UNL     1      -9.156   5.452   0.563  1.00  0.00    -0.354 N 
ATOM     51  C   UNL     1     -12.543   2.963   0.424  1.00  0.00     0.074 A 
ATOM     52  C   UNL     1     -12.255   1.631   0.891  1.00  0.00     0.031 C 
ATOM     53  C   UNL     1      -6.996   5.981   0.499  1.00  0.00     0.029 A 
ATOM     54  C   UNL     1      -8.281   6.448   0.129  1.00  0.00     0.049 A 
ATOM     55  H   UNL     1     -10.129   5.499   0.419  1.00  0.00     0.167 HD
ATOM     56  C   UNL     1     -13.757   3.329  -0.075  1.00  0.00     0.034 A 
ATOM     57  C   UNL     1      -8.352   7.624  -0.520  1.00  0.00     0.034 A 
ATOM     58  C   UNL     1     -14.078   4.681  -0.454  1.00  0.00     0.049 A 
ATOM     59  C   UNL     1      -9.698   8.100  -0.858  1.00  0.00     0.074 A 
ATOM     60  C   UNL     1     -15.317   5.235  -0.729  1.00  0.00     0.029 A 
ATOM     61  N   UNL     1     -13.144   5.689  -0.623  1.00  0.00    -0.354 N 
ATOM     62  N   UNL     1     -10.813   7.427  -0.802  1.00  0.00    -0.248 NA
ATOM     63  C   UNL     1      -9.819   9.500  -1.263  1.00  0.00     0.031 C 
ATOM     64  C   UNL     1     -15.126   6.571  -1.099  1.00  0.00     0.029 A 
ATOM     65  C   UNL     1     -13.775   6.858  -1.011  1.00  0.00     0.049 A 
ATOM     66  H   UNL     1     -12.174   5.589  -0.488  1.00  0.00     0.167 HD
ATOM     67  C   UNL     1     -11.792   8.333  -1.134  1.00  0.00     0.074 A 
ATOM     68  C   UNL     1     -11.135   9.608  -1.357  1.00  0.00     0.031 C 
ATOM     69  C   UNL     1     -13.117   8.111  -1.247  1.00  0.00     0.034 A 
BRANCH  56  70
ATOM     70  C   UNL     1     -14.886   2.301  -0.111  1.00  0.00     0.023 A 
ATOM     71  C   UNL     1     -15.350   1.739   1.100  1.00  0.00     0.012 A 
ATOM     72  C   UNL     1     -15.557   1.958  -1.308  1.00  0.00     0.148 A 
ATOM     73  C   UNL     1     -16.395   0.813   1.119  1.00  0.00     0.002 A 
ATOM     74  C   UNL     1     -16.636   1.074  -1.275  1.00  0.00     0.091 A 
ATOM     75  F   UNL     1     -15.134   2.503  -2.457  1.00  0.00    -0.205 F 
ATOM     76  C   UNL     1     -17.042   0.486  -0.066  1.00  0.00     0.022 A 
BRANCH  74  77
ATOM     77  S   UNL     1     -17.608   0.644  -2.728  1.00  0.00     0.127 S 
ATOM     78  O   UNL     1     -17.322  -0.784  -2.864  1.00  0.00    -0.237 OA
ATOM     79  O   UNL     1     -18.970   0.951  -2.287  1.00  0.00    -0.237 OA
ATOM     80  O   UNL     1     -17.111   1.482  -3.810  1.00  0.00    -0.744 OA
ENDBRANCH  74  77
ENDBRANCH  56  70
BRANCH  57  81
ATOM     81  C   UNL     1      -7.124   8.482  -0.678  1.00  0.00     0.023 A 
ATOM     82  C   UNL     1      -6.921   9.532   0.242  1.00  0.00     0.012 A 
ATOM     83  C   UNL     1      -6.089   8.170  -1.589  1.00  0.00     0.148 A 
ATOM     84  C   UNL     1      -5.739  10.275   0.236  1.00  0.00     0.002 A 
ATOM     85  C   UNL     1      -4.887   8.876  -1.547  1.00  0.00     0.091 A 
ATOM     86  F   UNL     1      -6.269   7.136  -2.423  1.00  0.00    -0.205 F 
ATOM     87  C   UNL     1      -4.719   9.942  -0.650  1.00  0.00     0.022 A 
BRANCH  85  88
ATOM     88  S   UNL     1      -3.444   8.398  -2.514  1.00  0.00     0.127 S 
ATOM     89  O   UNL     1      -3.407   9.442  -3.533  1.00  0.00    -0.237 OA
ATOM     90  O   UNL     1      -2.369   8.470  -1.522  1.00  0.00    -0.237 OA
ATOM     91  O   UNL     1      -3.721   7.050  -2.990  1.00  0.00    -0.744 OA
ENDBRANCH  85  88
ENDBRANCH  57  81
BRANCH  69  92
ATOM     92  C   UNL     1     -13.936   9.297  -1.622  1.00  0.00     0.023 A 
ATOM     93  C   UNL     1     -13.839   9.834  -2.920  1.00  0.00     0.012 A 
ATOM     94  C   UNL     1     -14.790   9.878  -0.674  1.00  0.00     0.148 A 
ATOM     95  C   UNL     1     -14.559  10.974  -3.256  1.00  0.00     0.002 A 
ATOM     96  C   UNL     1     -15.555  10.970  -1.037  1.00  0.00     0.091 A 
ATOM     97  F   UNL     1     -14.819   9.363   0.564  1.00  0.00    -0.205 F 
ATOM     98  C   UNL     1     -15.428  11.532  -2.320  1.00  0.00     0.022 A 
BRANCH  96  99
ATOM     99  S   UNL     1     -16.773  11.684   0.065  1.00  0.00     0.127 S 
ATOM    100  O   UNL     1     -16.201  13.004   0.324  1.00  0.00    -0.237 OA
ATOM    101  O   UNL     1     -17.971  11.687  -0.772  1.00  0.00    -0.237 OA
ATOM    102  O   UNL     1     -16.841  10.800   1.222  1.00  0.00    -0.744 OA
ENDBRANCH  96  99
ENDBRANCH  69  92
ENDBRANCH  43  44
ENDBRANCH  35  38
ENDBRANCH  33  34
ENDBRANCH   1  33
TORSDOF 16
