REMARK SMILES O=C(Cn1cc(NC(=O)N2CC[N@@H+]3CCC[C@@H]3C2)cn1)NCCCNC(=O)c1ccc(-c2c3nc(c(-c4cccc(S(=O)(=O)[O-])c4F)c4ccc([nH]4)c(-c4cccc(S(=O)(=O)[O-])c4F)c4nc(c(-c5cccc(S(=O)(=O)[O-])c5F)c5ccc2[nH]5)C=C4)C=C3)cc1
REMARK SMILES IDX 23 1 22 2 21 3 1 4 2 5 3 7 4 8 5 9 20 10 6 11 19 12 7 13
REMARK SMILES IDX 8 14 9 16 10 17 11 18 18 19 12 20 17 21 13 22 16 23 14 24
REMARK SMILES IDX 15 26 24 27 25 28 26 29 27 31 28 32 29 33 90 34 30 35 89 36
REMARK SMILES IDX 31 37 32 38 33 39 83 40 34 41 88 42 82 43 84 44 35 45 87 46
REMARK SMILES IDX 81 47 80 48 36 50 68 51 48 52 67 53 49 54 52 55 66 56 85 57
REMARK SMILES IDX 50 58 51 59 65 61 86 62 53 63 37 64 38 65 46 66 39 67 41 68
REMARK SMILES IDX 47 69 40 70 42 71 43 72 44 73 45 74 69 75 70 76 78 77 71 78
REMARK SMILES IDX 73 79 79 80 72 81 74 82 75 83 76 84 77 85 54 86 55 87 63 88
REMARK SMILES IDX 56 89 58 90 64 91 57 92 59 93 60 94 61 95 62 96
REMARK H PARENT 21 6 7 15 13 25 25 30 84 49 52 60
REMARK Flexibility Score: inf
ROOT
ATOM      1  C   UNL     1       2.175  -1.583  -3.037  1.00  0.00     0.042 C 
ENDROOT
BRANCH   1   2
ATOM      2  C   UNL     1       2.083  -1.820  -1.529  1.00  0.00     0.117 C 
BRANCH   2   3
ATOM      3  N   UNL     1       2.828  -0.861  -0.730  1.00  0.00    -0.354 N 
ATOM      4  O   UNL     1       1.018   0.445  -0.202  1.00  0.00    -0.273 OA
ATOM      5  C   UNL     1       2.205   0.165  -0.035  1.00  0.00     0.241 C 
ATOM      6  H   UNL     1       3.808  -0.943  -0.680  1.00  0.00     0.163 HD
BRANCH   5   7
ATOM      7  C   UNL     1       3.098   0.965   0.902  1.00  0.00     0.244 C 
BRANCH   7   8
ATOM      8  N   UNL     1       3.638   0.164   1.992  1.00  0.00    -0.261 N 
ATOM      9  C   UNL     1       4.862   0.320   2.596  1.00  0.00     0.135 A 
ATOM     10  N   UNL     1       2.930  -0.867   2.500  1.00  0.00    -0.179 NA
ATOM     11  C   UNL     1       4.996  -0.734   3.469  1.00  0.00     0.081 A 
ATOM     12  C   UNL     1       3.755  -1.404   3.398  1.00  0.00     0.161 A 
BRANCH  11  13
ATOM     13  N   UNL     1       6.106  -0.997   4.254  1.00  0.00    -0.305 N 
ATOM     14  C   UNL     1       6.256  -2.108   5.044  1.00  0.00     0.322 C 
ATOM     15  H   UNL     1       6.840  -0.340   4.244  1.00  0.00     0.171 HD
ATOM     16  O   UNL     1       6.759  -2.014   6.163  1.00  0.00    -0.248 OA
BRANCH  14  17
ATOM     17  N   UNL     1       5.827  -3.314   4.522  1.00  0.00    -0.313 N 
ATOM     18  C   UNL     1       6.172  -3.716   3.151  1.00  0.00     0.183 C 
ATOM     19  C   UNL     1       5.331  -4.353   5.413  1.00  0.00     0.186 C 
ATOM     20  C   UNL     1       5.742  -5.150   2.794  1.00  0.00     0.284 C 
ATOM     21  C   UNL     1       5.990  -5.724   5.187  1.00  0.00     0.204 C 
ATOM     22  N   UNL     1       6.148  -6.158   3.780  1.00  0.00    -0.330 N 
ATOM     23  C   UNL     1       5.208  -6.844   5.875  1.00  0.00     0.073 C 
ATOM     24  C   UNL     1       5.448  -7.431   3.597  1.00  0.00     0.262 C 
ATOM     25  H   UNL     1       7.145  -6.287   3.604  1.00  0.00     0.348 HD
ATOM     26  C   UNL     1       5.433  -8.048   4.982  1.00  0.00     0.068 C 
ENDBRANCH  14  17
ENDBRANCH  11  13
ENDBRANCH   7   8
ENDBRANCH   5   7
ENDBRANCH   2   3
ENDBRANCH   1   2
BRANCH   1  27
ATOM     27  C   UNL     1       3.569  -1.812  -3.605  1.00  0.00     0.118 C 
BRANCH  27  28
ATOM     28  N   UNL     1       3.978  -3.219  -3.598  1.00  0.00    -0.352 N 
ATOM     29  C   UNL     1       5.188  -3.753  -4.014  1.00  0.00     0.251 C 
ATOM     30  H   UNL     1       3.315  -3.861  -3.256  1.00  0.00     0.163 HD
ATOM     31  O   UNL     1       5.294  -4.938  -4.273  1.00  0.00    -0.269 OA
BRANCH  29  32
ATOM     32  C   UNL     1       6.346  -2.846  -4.148  1.00  0.00     0.039 A 
ATOM     33  C   UNL     1       7.157  -2.886  -5.285  1.00  0.00     0.014 A 
ATOM     34  C   UNL     1       6.567  -1.904  -3.147  1.00  0.00     0.014 A 
ATOM     35  C   UNL     1       8.122  -1.895  -5.456  1.00  0.00     0.010 A 
ATOM     36  C   UNL     1       7.426  -0.854  -3.379  1.00  0.00     0.010 A 
ATOM     37  C   UNL     1       8.228  -0.853  -4.518  1.00  0.00    -0.014 A 
BRANCH  37  38
ATOM     38  C   UNL     1       9.054   0.321  -4.816  1.00  0.00     0.031 A 
ATOM     39  C   UNL     1       8.762   0.952  -6.134  1.00  0.00     0.074 A 
ATOM     40  C   UNL     1       9.848   0.944  -3.916  1.00  0.00     0.049 A 
ATOM     41  N   UNL     1       9.511   0.961  -7.188  1.00  0.00    -0.248 NA
ATOM     42  C   UNL     1       7.421   1.519  -6.354  1.00  0.00     0.031 C 
ATOM     43  C   UNL     1       9.958   0.645  -2.482  1.00  0.00     0.029 A 
ATOM     44  N   UNL     1      10.616   2.068  -4.047  1.00  0.00    -0.354 N 
ATOM     45  C   UNL     1       8.852   1.790  -8.095  1.00  0.00     0.074 A 
ATOM     46  C   UNL     1       7.495   1.895  -7.634  1.00  0.00     0.031 C 
ATOM     47  C   UNL     1      10.504   1.700  -1.841  1.00  0.00     0.029 A 
ATOM     48  C   UNL     1      10.970   2.648  -2.833  1.00  0.00     0.049 A 
ATOM     49  H   UNL     1      10.892   2.432  -4.919  1.00  0.00     0.167 HD
ATOM     50  C   UNL     1       9.563   2.594  -8.936  1.00  0.00     0.034 A 
ATOM     51  C   UNL     1      11.604   3.827  -2.633  1.00  0.00     0.034 A 
ATOM     52  C   UNL     1      10.956   2.232  -8.936  1.00  0.00     0.049 A 
ATOM     53  C   UNL     1      12.353   4.151  -3.862  1.00  0.00     0.074 A 
ATOM     54  C   UNL     1      11.764   1.253  -9.468  1.00  0.00     0.029 A 
ATOM     55  N   UNL     1      11.664   2.860  -7.950  1.00  0.00    -0.354 N 
ATOM     56  N   UNL     1      13.364   3.446  -4.287  1.00  0.00    -0.248 NA
ATOM     57  C   UNL     1      11.812   5.117  -4.809  1.00  0.00     0.031 C 
ATOM     58  C   UNL     1      12.950   1.240  -8.673  1.00  0.00     0.029 A 
ATOM     59  C   UNL     1      12.846   2.226  -7.695  1.00  0.00     0.049 A 
ATOM     60  H   UNL     1      11.359   3.670  -7.481  1.00  0.00     0.167 HD
ATOM     61  C   UNL     1      13.278   3.553  -5.660  1.00  0.00     0.074 A 
ATOM     62  C   UNL     1      12.458   4.729  -5.911  1.00  0.00     0.031 C 
ATOM     63  C   UNL     1      13.555   2.488  -6.463  1.00  0.00     0.034 A 
BRANCH  50  64
ATOM     64  C   UNL     1       9.176   4.004  -9.363  1.00  0.00     0.023 A 
ATOM     65  C   UNL     1      10.031   4.643 -10.295  1.00  0.00     0.012 A 
ATOM     66  C   UNL     1       8.246   4.830  -8.692  1.00  0.00     0.148 A 
ATOM     67  C   UNL     1      10.000   6.028 -10.503  1.00  0.00     0.002 A 
ATOM     68  C   UNL     1       8.168   6.195  -8.958  1.00  0.00     0.091 A 
ATOM     69  F   UNL     1       7.519   4.343  -7.686  1.00  0.00    -0.205 F 
ATOM     70  C   UNL     1       9.063   6.805  -9.838  1.00  0.00     0.022 A 
BRANCH  68  71
ATOM     71  S   UNL     1       6.952   7.243  -8.147  1.00  0.00     0.127 S 
ATOM     72  O   UNL     1       7.789   7.993  -7.216  1.00  0.00    -0.237 OA
ATOM     73  O   UNL     1       6.426   8.014  -9.274  1.00  0.00    -0.237 OA
ATOM     74  O   UNL     1       5.987   6.328  -7.550  1.00  0.00    -0.744 OA
ENDBRANCH  68  71
ENDBRANCH  50  64
BRANCH  51  75
ATOM     75  C   UNL     1      11.558   4.765  -1.493  1.00  0.00     0.023 A 
ATOM     76  C   UNL     1      12.654   5.615  -1.247  1.00  0.00     0.012 A 
ATOM     77  C   UNL     1      10.338   5.030  -0.835  1.00  0.00     0.148 A 
ATOM     78  C   UNL     1      12.524   6.731  -0.414  1.00  0.00     0.002 A 
ATOM     79  C   UNL     1      10.213   6.142  -0.009  1.00  0.00     0.091 A 
ATOM     80  F   UNL     1       9.286   4.240  -1.092  1.00  0.00    -0.205 F 
ATOM     81  C   UNL     1      11.300   7.004   0.192  1.00  0.00     0.022 A 
BRANCH  79  82
ATOM     82  S   UNL     1       8.661   6.580   0.787  1.00  0.00     0.127 S 
ATOM     83  O   UNL     1       9.078   6.770   2.177  1.00  0.00    -0.237 OA
ATOM     84  O   UNL     1       8.297   7.807   0.084  1.00  0.00    -0.237 OA
ATOM     85  O   UNL     1       7.771   5.444   0.580  1.00  0.00    -0.744 OA
ENDBRANCH  79  82
ENDBRANCH  51  75
BRANCH  63  86
ATOM     86  C   UNL     1      14.498   1.446  -5.952  1.00  0.00     0.023 A 
ATOM     87  C   UNL     1      14.198   0.591  -4.874  1.00  0.00     0.012 A 
ATOM     88  C   UNL     1      15.703   1.271  -6.652  1.00  0.00     0.148 A 
ATOM     89  C   UNL     1      15.097  -0.411  -4.495  1.00  0.00     0.002 A 
ATOM     90  C   UNL     1      16.570   0.247  -6.303  1.00  0.00     0.091 A 
ATOM     91  F   UNL     1      15.974   2.110  -7.664  1.00  0.00    -0.205 F 
ATOM     92  C   UNL     1      16.276  -0.592  -5.218  1.00  0.00     0.022 A 
BRANCH  90  93
ATOM     93  S   UNL     1      18.040  -0.095  -7.271  1.00  0.00     0.127 S 
ATOM     94  O   UNL     1      19.098   0.452  -6.425  1.00  0.00    -0.237 OA
ATOM     95  O   UNL     1      18.022  -1.555  -7.364  1.00  0.00    -0.237 OA
ATOM     96  O   UNL     1      17.841   0.582  -8.548  1.00  0.00    -0.744 OA
ENDBRANCH  90  93
ENDBRANCH  63  86
ENDBRANCH  37  38
ENDBRANCH  29  32
ENDBRANCH  27  28
ENDBRANCH   1  27
TORSDOF 16
