REMARK SMILES O=C(Cc1cccc(NS(=O)(=O)c2cccc(Cl)c2)c1)NCCCNC(=O)c1ccc(-c2c3nc(c(-c4cccc(S(=O)(=O)[O-])c4F)c4ccc([nH]4)c(-c4cccc(S(=O)(=O)[O-])c4F)c4nc(c(-c5cccc(S(=O)(=O)[O-])c5F)c5ccc2[nH]5)C=C4)C=C3)cc1
REMARK SMILES IDX 22 1 21 2 1 3 2 4 3 6 4 7 5 8 20 9 6 10 8 11 7 12 9 13 10 15
REMARK SMILES IDX 11 16 12 17 13 18 14 19 19 20 15 21 17 22 16 23 18 24 23 25
REMARK SMILES IDX 24 26 25 27 26 28 27 30 28 31 29 32 90 33 30 34 89 35 31 36
REMARK SMILES IDX 32 37 33 38 83 39 34 40 88 41 82 42 84 43 35 44 87 45 81 46
REMARK SMILES IDX 80 47 36 49 68 50 48 51 67 52 49 53 52 54 66 55 85 56 50 57
REMARK SMILES IDX 51 58 65 60 86 61 53 62 37 63 38 64 46 65 39 66 41 67 47 68
REMARK SMILES IDX 40 69 42 70 43 71 44 72 45 73 69 74 70 75 78 76 71 77 73 78
REMARK SMILES IDX 79 79 72 80 74 81 75 82 76 83 77 84 54 85 55 86 63 87 56 88
REMARK SMILES IDX 58 89 64 90 57 91 59 92 60 93 61 94 62 95
REMARK H PARENT 21 5 9 14 25 29 84 48 52 59
REMARK Flexibility Score: inf
ROOT
ATOM      1  C   UNL     1       2.059   2.275   0.976  1.00  0.00     0.117 C 
ENDROOT
BRANCH   1   2
ATOM      2  N   UNL     1       2.628   1.000   0.584  1.00  0.00    -0.356 N 
ATOM      3  O   UNL     1       0.769   0.235  -0.541  1.00  0.00    -0.275 OA
ATOM      4  C   UNL     1       1.944   0.103  -0.212  1.00  0.00     0.224 C 
ATOM      5  H   UNL     1       3.532   0.767   0.895  1.00  0.00     0.163 HD
BRANCH   4   6
ATOM      6  C   UNL     1       2.789  -1.065  -0.700  1.00  0.00     0.135 C 
BRANCH   6   7
ATOM      7  C   UNL     1       3.999  -0.643  -1.508  1.00  0.00    -0.037 A 
ATOM      8  C   UNL     1       5.156  -1.429  -1.491  1.00  0.00     0.004 A 
ATOM      9  C   UNL     1       3.982   0.514  -2.306  1.00  0.00     0.031 A 
ATOM     10  C   UNL     1       6.296  -1.009  -2.172  1.00  0.00     0.002 A 
ATOM     11  C   UNL     1       5.120   0.941  -2.997  1.00  0.00     0.049 A 
ATOM     12  C   UNL     1       6.289   0.189  -2.891  1.00  0.00     0.027 A 
BRANCH  11  13
ATOM     13  N   UNL     1       4.954   2.066  -3.852  1.00  0.00    -0.280 N 
ATOM     14  H   UNL     1       4.042   2.425  -3.940  1.00  0.00     0.180 HD
BRANCH  13  15
ATOM     15  S   UNL     1       6.152   2.837  -4.718  1.00  0.00     0.261 S 
ATOM     16  O   UNL     1       5.485   3.805  -5.564  1.00  0.00    -0.201 OA
ATOM     17  O   UNL     1       7.202   3.224  -3.804  1.00  0.00    -0.201 OA
BRANCH  15  18
ATOM     18  C   UNL     1       6.812   1.594  -5.803  1.00  0.00     0.089 A 
ATOM     19  C   UNL     1       6.018   0.525  -6.232  1.00  0.00     0.022 A 
ATOM     20  C   UNL     1       8.184   1.623  -6.072  1.00  0.00     0.042 A 
ATOM     21  C   UNL     1       6.614  -0.549  -6.893  1.00  0.00     0.003 A 
ATOM     22  C   UNL     1       8.763   0.555  -6.749  1.00  0.00     0.042 A 
ATOM     23  C   UNL     1       7.988  -0.536  -7.146  1.00  0.00     0.020 A 
ATOM     24  Cl  UNL     1      10.453   0.560  -7.066  1.00  0.00    -0.084 Cl
ENDBRANCH  15  18
ENDBRANCH  13  15
ENDBRANCH  11  13
ENDBRANCH   6   7
ENDBRANCH   4   6
ENDBRANCH   1   2
BRANCH   1  25
ATOM     25  C   UNL     1       2.402   2.671   2.406  1.00  0.00     0.042 C 
BRANCH  25  26
ATOM     26  C   UNL     1       3.888   2.880   2.687  1.00  0.00     0.118 C 
BRANCH  26  27
ATOM     27  N   UNL     1       4.468   4.000   1.960  1.00  0.00    -0.352 N 
ATOM     28  C   UNL     1       5.202   5.067   2.426  1.00  0.00     0.251 C 
ATOM     29  H   UNL     1       4.312   3.994   0.988  1.00  0.00     0.163 HD
ATOM     30  O   UNL     1       5.493   5.981   1.658  1.00  0.00    -0.269 OA
BRANCH  28  31
ATOM     31  C   UNL     1       5.616   5.141   3.847  1.00  0.00     0.039 A 
ATOM     32  C   UNL     1       5.488   6.360   4.521  1.00  0.00     0.014 A 
ATOM     33  C   UNL     1       6.137   4.030   4.515  1.00  0.00     0.014 A 
ATOM     34  C   UNL     1       5.804   6.443   5.881  1.00  0.00     0.010 A 
ATOM     35  C   UNL     1       6.389   4.097   5.885  1.00  0.00     0.010 A 
ATOM     36  C   UNL     1       6.219   5.301   6.585  1.00  0.00    -0.014 A 
BRANCH  36  37
ATOM     37  C   UNL     1       6.443   5.335   8.054  1.00  0.00     0.031 A 
ATOM     38  C   UNL     1       7.809   5.069   8.627  1.00  0.00     0.074 A 
ATOM     39  C   UNL     1       5.392   5.501   8.882  1.00  0.00     0.049 A 
ATOM     40  N   UNL     1       8.173   4.976   9.880  1.00  0.00    -0.248 NA
ATOM     41  C   UNL     1       8.903   4.852   7.667  1.00  0.00     0.031 C 
ATOM     42  C   UNL     1       4.002   5.685   8.457  1.00  0.00     0.029 A 
ATOM     43  N   UNL     1       5.322   5.511  10.253  1.00  0.00    -0.354 N 
ATOM     44  C   UNL     1       9.524   4.652   9.861  1.00  0.00     0.074 A 
ATOM     45  C   UNL     1       9.911   4.541   8.471  1.00  0.00     0.031 C 
ATOM     46  C   UNL     1       3.220   5.788   9.543  1.00  0.00     0.029 A 
ATOM     47  C   UNL     1       4.044   5.655  10.741  1.00  0.00     0.049 A 
ATOM     48  H   UNL     1       6.113   5.423  10.833  1.00  0.00     0.167 HD
ATOM     49  C   UNL     1      10.373   4.491  10.903  1.00  0.00     0.034 A 
ATOM     50  C   UNL     1       3.585   5.675  12.008  1.00  0.00     0.034 A 
ATOM     51  C   UNL     1      10.006   4.664  12.283  1.00  0.00     0.049 A 
ATOM     52  C   UNL     1       4.561   5.560  13.146  1.00  0.00     0.074 A 
ATOM     53  C   UNL     1      10.819   4.620  13.402  1.00  0.00     0.029 A 
ATOM     54  N   UNL     1       8.720   4.920  12.733  1.00  0.00    -0.354 N 
ATOM     55  N   UNL     1       5.863   5.419  13.103  1.00  0.00    -0.248 NA
ATOM     56  C   UNL     1       4.010   5.644  14.507  1.00  0.00     0.031 C 
ATOM     57  C   UNL     1      10.024   4.846  14.531  1.00  0.00     0.029 A 
ATOM     58  C   UNL     1       8.716   5.034  14.113  1.00  0.00     0.049 A 
ATOM     59  H   UNL     1       7.927   5.007  12.157  1.00  0.00     0.167 HD
ATOM     60  C   UNL     1       6.291   5.428  14.426  1.00  0.00     0.074 A 
ATOM     61  C   UNL     1       5.112   5.610  15.246  1.00  0.00     0.031 C 
ATOM     62  C   UNL     1       7.546   5.279  14.916  1.00  0.00     0.034 A 
BRANCH  49  63
ATOM     63  C   UNL     1      11.812   4.181  10.588  1.00  0.00     0.023 A 
ATOM     64  C   UNL     1      12.645   5.208  10.100  1.00  0.00     0.012 A 
ATOM     65  C   UNL     1      12.357   2.905  10.829  1.00  0.00     0.148 A 
ATOM     66  C   UNL     1      13.990   4.964   9.829  1.00  0.00     0.002 A 
ATOM     67  C   UNL     1      13.708   2.678  10.591  1.00  0.00     0.091 A 
ATOM     68  F   UNL     1      11.544   1.933  11.269  1.00  0.00    -0.205 F 
ATOM     69  C   UNL     1      14.524   3.704  10.084  1.00  0.00     0.022 A 
BRANCH  67  70
ATOM     70  S   UNL     1      14.497   1.105  10.954  1.00  0.00     0.127 S 
ATOM     71  O   UNL     1      14.598   0.511   9.622  1.00  0.00    -0.237 OA
ATOM     72  O   UNL     1      15.775   1.521  11.534  1.00  0.00    -0.237 OA
ATOM     73  O   UNL     1      13.608   0.423  11.883  1.00  0.00    -0.744 OA
ENDBRANCH  67  70
ENDBRANCH  49  63
BRANCH  50  74
ATOM     74  C   UNL     1       2.134   5.899  12.264  1.00  0.00     0.023 A 
ATOM     75  C   UNL     1       1.714   7.142  12.775  1.00  0.00     0.012 A 
ATOM     76  C   UNL     1       1.171   4.917  11.967  1.00  0.00     0.148 A 
ATOM     77  C   UNL     1       0.362   7.395  13.010  1.00  0.00     0.002 A 
ATOM     78  C   UNL     1      -0.179   5.193  12.156  1.00  0.00     0.091 A 
ATOM     79  F   UNL     1       1.591   3.733  11.499  1.00  0.00    -0.205 F 
ATOM     80  C   UNL     1      -0.585   6.426  12.690  1.00  0.00     0.022 A 
BRANCH  78  81
ATOM     81  S   UNL     1      -1.465   4.047  11.645  1.00  0.00     0.127 S 
ATOM     82  O   UNL     1      -1.846   3.436  12.915  1.00  0.00    -0.237 OA
ATOM     83  O   UNL     1      -2.467   4.944  11.067  1.00  0.00    -0.237 OA
ATOM     84  O   UNL     1      -0.829   3.164  10.675  1.00  0.00    -0.744 OA
ENDBRANCH  78  81
ENDBRANCH  50  74
BRANCH  62  85
ATOM     85  C   UNL     1       7.723   5.324  16.410  1.00  0.00     0.023 A 
ATOM     86  C   UNL     1       7.344   4.212  17.186  1.00  0.00     0.012 A 
ATOM     87  C   UNL     1       8.335   6.429  17.034  1.00  0.00     0.148 A 
ATOM     88  C   UNL     1       7.551   4.206  18.564  1.00  0.00     0.002 A 
ATOM     89  C   UNL     1       8.573   6.400  18.404  1.00  0.00     0.091 A 
ATOM     90  F   UNL     1       8.666   7.489  16.283  1.00  0.00    -0.205 F 
ATOM     91  C   UNL     1       8.175   5.293  19.171  1.00  0.00     0.022 A 
BRANCH  89  92
ATOM     92  S   UNL     1       9.450   7.723  19.247  1.00  0.00     0.127 S 
ATOM     93  O   UNL     1       8.351   8.470  19.855  1.00  0.00    -0.237 OA
ATOM     94  O   UNL     1      10.289   6.991  20.197  1.00  0.00    -0.237 OA
ATOM     95  O   UNL     1      10.194   8.424  18.209  1.00  0.00    -0.744 OA
ENDBRANCH  89  92
ENDBRANCH  62  85
ENDBRANCH  36  37
ENDBRANCH  28  31
ENDBRANCH  26  27
ENDBRANCH  25  26
ENDBRANCH   1  25
TORSDOF 17
