REMARK SMILES Cc1cc(F)cc(/C=C/C(=O)NCCCNC(=O)c2ccc(-c3c4nc(c(-c5cccc(S(=O)(=O)[O-])c5F)c5ccc([nH]5)c(-c5cccc(S(=O)(=O)[O-])c5F)c5nc(c(-c6cccc(S(=O)(=O)[O-])c6F)c6ccc3[nH]6)C=C5)C=C4)cc2)c1
REMARK SMILES IDX 15 1 14 2 13 3 12 4 10 5 11 6 9 8 8 9 7 10 1 11 2 12 3 13
REMARK SMILES IDX 82 14 4 15 5 16 6 17 16 18 17 19 18 21 19 22 20 23 81 24
REMARK SMILES IDX 21 25 80 26 22 27 23 28 24 29 74 30 25 31 79 32 73 33 75 34
REMARK SMILES IDX 26 35 78 36 72 37 71 38 27 40 59 41 39 42 58 43 40 44 43 45
REMARK SMILES IDX 57 46 76 47 41 48 42 49 56 51 77 52 44 53 28 54 29 55 37 56
REMARK SMILES IDX 30 57 32 58 38 59 31 60 33 61 34 62 35 63 36 64 60 65 61 66
REMARK SMILES IDX 69 67 62 68 64 69 70 70 63 71 65 72 66 73 67 74 68 75 45 76
REMARK SMILES IDX 46 77 54 78 47 79 49 80 55 81 48 82 50 83 51 84 52 85 53 86
REMARK H PARENT 12 7 16 20 75 39 43 50
REMARK Flexibility Score: inf
ROOT
ATOM      1  C   UNL     1       3.146  -7.118   1.018  1.00  0.00     0.118 C 
ENDROOT
BRANCH   1   2
ATOM      2  C   UNL     1       2.736  -5.691   0.660  1.00  0.00     0.042 C 
BRANCH   2   3
ATOM      3  C   UNL     1       1.754  -5.609  -0.507  1.00  0.00     0.118 C 
BRANCH   3   4
ATOM      4  N   UNL     1       0.428  -6.065  -0.127  1.00  0.00    -0.352 N 
ATOM      5  C   UNL     1      -0.736  -5.378   0.018  1.00  0.00     0.244 C 
ATOM      6  O   UNL     1      -1.785  -5.989   0.210  1.00  0.00    -0.270 OA
ATOM      7  H   UNL     1       0.361  -7.030   0.055  1.00  0.00     0.163 HD
BRANCH   5   8
ATOM      8  C   UNL     1      -0.778  -3.910  -0.158  1.00  0.00     0.072 C 
ATOM      9  C   UNL     1       0.069  -3.051   0.427  1.00  0.00     0.014 C 
BRANCH   9  10
ATOM     10  C   UNL     1       0.009  -1.594   0.246  1.00  0.00    -0.022 A 
ATOM     11  C   UNL     1       2.497   1.302   0.021  1.00  0.00     0.044 C 
ATOM     12  C   UNL     1       1.212   0.529   0.052  1.00  0.00    -0.048 A 
ATOM     13  C   UNL     1      -0.011   1.202  -0.029  1.00  0.00     0.042 A 
ATOM     14  C   UNL     1       1.211  -0.868   0.200  1.00  0.00     0.011 A 
ATOM     15  C   UNL     1      -1.200   0.484   0.030  1.00  0.00     0.124 A 
ATOM     16  F   UNL     1      -2.367   1.139  -0.043  1.00  0.00    -0.207 F 
ATOM     17  C   UNL     1      -1.203  -0.900   0.170  1.00  0.00     0.047 A 
ENDBRANCH   9  10
ENDBRANCH   5   8
ENDBRANCH   3   4
ENDBRANCH   2   3
ENDBRANCH   1   2
BRANCH   1  18
ATOM     18  N   UNL     1       3.932  -7.745  -0.038  1.00  0.00    -0.352 N 
ATOM     19  C   UNL     1       5.196  -8.277  -0.003  1.00  0.00     0.251 C 
ATOM     20  H   UNL     1       3.485  -7.793  -0.913  1.00  0.00     0.163 HD
ATOM     21  O   UNL     1       5.756  -8.555  -1.061  1.00  0.00    -0.269 OA
BRANCH  19  22
ATOM     22  C   UNL     1       5.888  -8.515   1.283  1.00  0.00     0.039 A 
ATOM     23  C   UNL     1       7.261  -8.259   1.366  1.00  0.00     0.014 A 
ATOM     24  C   UNL     1       5.211  -9.039   2.387  1.00  0.00     0.014 A 
ATOM     25  C   UNL     1       7.941  -8.483   2.566  1.00  0.00     0.010 A 
ATOM     26  C   UNL     1       5.875  -9.195   3.603  1.00  0.00     0.010 A 
ATOM     27  C   UNL     1       7.248  -8.930   3.703  1.00  0.00    -0.014 A 
BRANCH  27  28
ATOM     28  C   UNL     1       7.942  -9.119   5.003  1.00  0.00     0.031 A 
ATOM     29  C   UNL     1       8.032 -10.485   5.628  1.00  0.00     0.074 A 
ATOM     30  C   UNL     1       8.422  -8.044   5.660  1.00  0.00     0.049 A 
ATOM     31  N   UNL     1       8.551 -10.834   6.777  1.00  0.00    -0.248 NA
ATOM     32  C   UNL     1       7.437 -11.603   4.877  1.00  0.00     0.031 C 
ATOM     33  C   UNL     1       8.327  -6.659   5.195  1.00  0.00     0.029 A 
ATOM     34  N   UNL     1       9.061  -7.945   6.870  1.00  0.00    -0.354 N 
ATOM     35  C   UNL     1       8.317 -12.198   6.903  1.00  0.00     0.074 A 
ATOM     36  C   UNL     1       7.579 -12.609   5.729  1.00  0.00     0.031 C 
ATOM     37  C   UNL     1       8.893  -5.850   6.105  1.00  0.00     0.029 A 
ATOM     38  C   UNL     1       9.365  -6.652   7.229  1.00  0.00     0.049 A 
ATOM     39  H   UNL     1       9.281  -8.725   7.429  1.00  0.00     0.167 HD
ATOM     40  C   UNL     1       8.708 -13.040   7.890  1.00  0.00     0.034 A 
ATOM     41  C   UNL     1       9.955  -6.167   8.339  1.00  0.00     0.034 A 
ATOM     42  C   UNL     1       9.482 -12.636   9.034  1.00  0.00     0.049 A 
ATOM     43  C   UNL     1      10.421  -7.129   9.398  1.00  0.00     0.074 A 
ATOM     44  C   UNL     1       9.997 -13.425  10.047  1.00  0.00     0.029 A 
ATOM     45  N   UNL     1       9.850 -11.330   9.318  1.00  0.00    -0.354 N 
ATOM     46  N   UNL     1      10.325  -8.436   9.424  1.00  0.00    -0.248 NA
ATOM     47  C   UNL     1      11.111  -6.553  10.561  1.00  0.00     0.031 C 
ATOM     48  C   UNL     1      10.665 -12.593  10.953  1.00  0.00     0.029 A 
ATOM     49  C   UNL     1      10.583 -11.289  10.492  1.00  0.00     0.049 A 
ATOM     50  H   UNL     1       9.623 -10.547   8.766  1.00  0.00     0.167 HD
ATOM     51  C   UNL     1      10.973  -8.842  10.585  1.00  0.00     0.074 A 
ATOM     52  C   UNL     1      11.476  -7.643  11.224  1.00  0.00     0.031 C 
ATOM     53  C   UNL     1      11.124 -10.093  11.086  1.00  0.00     0.034 A 
BRANCH  40  54
ATOM     54  C   UNL     1       8.357 -14.499   7.745  1.00  0.00     0.023 A 
ATOM     55  C   UNL     1       9.019 -15.277   6.772  1.00  0.00     0.012 A 
ATOM     56  C   UNL     1       7.422 -15.115   8.601  1.00  0.00     0.148 A 
ATOM     57  C   UNL     1       8.730 -16.633   6.627  1.00  0.00     0.002 A 
ATOM     58  C   UNL     1       7.172 -16.477   8.479  1.00  0.00     0.091 A 
ATOM     59  F   UNL     1       6.788 -14.357   9.507  1.00  0.00    -0.205 F 
ATOM     60  C   UNL     1       7.815 -17.235   7.486  1.00  0.00     0.022 A 
BRANCH  58  61
ATOM     61  S   UNL     1       6.069 -17.364   9.587  1.00  0.00     0.127 S 
ATOM     62  O   UNL     1       4.930 -17.637   8.713  1.00  0.00    -0.237 OA
ATOM     63  O   UNL     1       6.865 -18.541   9.937  1.00  0.00    -0.237 OA
ATOM     64  O   UNL     1       5.804 -16.459  10.697  1.00  0.00    -0.744 OA
ENDBRANCH  58  61
ENDBRANCH  40  54
BRANCH  41  65
ATOM     65  C   UNL     1      10.211  -4.704   8.465  1.00  0.00     0.023 A 
ATOM     66  C   UNL     1      11.533  -4.227   8.379  1.00  0.00     0.012 A 
ATOM     67  C   UNL     1       9.158  -3.783   8.629  1.00  0.00     0.148 A 
ATOM     68  C   UNL     1      11.806  -2.863   8.485  1.00  0.00     0.002 A 
ATOM     69  C   UNL     1       9.431  -2.421   8.678  1.00  0.00     0.091 A 
ATOM     70  F   UNL     1       7.907  -4.258   8.719  1.00  0.00    -0.205 F 
ATOM     71  C   UNL     1      10.756  -1.960   8.624  1.00  0.00     0.022 A 
BRANCH  69  72
ATOM     72  S   UNL     1       8.134  -1.179   8.719  1.00  0.00     0.127 S 
ATOM     73  O   UNL     1       8.245  -0.674  10.084  1.00  0.00    -0.237 OA
ATOM     74  O   UNL     1       8.573  -0.248   7.678  1.00  0.00    -0.237 OA
ATOM     75  O   UNL     1       6.901  -1.890   8.402  1.00  0.00    -0.744 OA
ENDBRANCH  69  72
ENDBRANCH  41  65
BRANCH  53  76
ATOM     76  C   UNL     1      11.892 -10.241  12.374  1.00  0.00     0.023 A 
ATOM     77  C   UNL     1      11.309  -9.830  13.588  1.00  0.00     0.012 A 
ATOM     78  C   UNL     1      13.162 -10.850  12.387  1.00  0.00     0.148 A 
ATOM     79  C   UNL     1      11.991  -9.993  14.793  1.00  0.00     0.002 A 
ATOM     80  C   UNL     1      13.816 -11.053  13.597  1.00  0.00     0.091 A 
ATOM     81  F   UNL     1      13.710 -11.216  11.219  1.00  0.00    -0.205 F 
ATOM     82  C   UNL     1      13.237 -10.614  14.799  1.00  0.00     0.022 A 
BRANCH  80  83
ATOM     83  S   UNL     1      15.380 -11.930  13.708  1.00  0.00     0.127 S 
ATOM     84  O   UNL     1      16.318 -10.836  13.957  1.00  0.00    -0.237 OA
ATOM     85  O   UNL     1      15.160 -12.817  14.851  1.00  0.00    -0.237 OA
ATOM     86  O   UNL     1      15.543 -12.618  12.435  1.00  0.00    -0.744 OA
ENDBRANCH  80  83
ENDBRANCH  53  76
ENDBRANCH  27  28
ENDBRANCH  19  22
ENDBRANCH   1  18
TORSDOF 14
