REMARK SMILES C[C@@H](C(=O)NCCCNC(=O)c1ccc(-c2c3nc(c(-c4cccc(S(=O)(=O)[O-])c4F)c4ccc([nH]4)c(-c4cccc(S(=O)(=O)[O-])c4F)c4nc(c(-c5cccc(S(=O)(=O)[O-])c5F)c5ccc2[nH]5)C=C4)C=C3)cc1)c1ccc(C[C@H]2CCC[C@@H]2O)cc1F
REMARK SMILES IDX 6 1 5 2 3 3 4 4 2 6 1 7 75 8 76 9 87 10 77 11 86 12 88 13
REMARK SMILES IDX 78 14 79 15 80 16 81 17 84 18 82 19 83 20 85 21 7 23 8 24
REMARK SMILES IDX 9 25 10 26 11 28 12 29 13 30 74 31 14 32 73 33 15 34 16 35
REMARK SMILES IDX 17 36 67 37 18 38 72 39 66 40 68 41 19 42 71 43 65 44 64 45
REMARK SMILES IDX 20 47 52 48 32 49 51 50 33 51 36 52 50 53 69 54 34 55 35 56
REMARK SMILES IDX 49 58 70 59 37 60 21 61 22 62 30 63 23 64 25 65 31 66 24 67
REMARK SMILES IDX 26 68 27 69 28 70 29 71 53 72 54 73 62 74 55 75 57 76 63 77
REMARK SMILES IDX 56 78 58 79 59 80 60 81 61 82 38 83 39 84 47 85 40 86 42 87
REMARK SMILES IDX 48 88 41 89 43 90 44 91 45 92 46 93
REMARK H PARENT 5 5 85 22 9 27 68 46 36 57
REMARK Flexibility Score: inf
ROOT
ATOM      1  C   UNL     1       3.431  -2.143   0.146  1.00  0.00     0.117 C 
ENDROOT
BRANCH   1   2
ATOM      2  N   UNL     1       2.327  -2.412   1.048  1.00  0.00    -0.356 N 
ATOM      3  C   UNL     1       1.040  -1.954   1.021  1.00  0.00     0.227 C 
ATOM      4  O   UNL     1       0.358  -2.150   2.030  1.00  0.00    -0.274 OA
ATOM      5  H   UNL     1       2.538  -3.018   1.795  1.00  0.00     0.163 HD
BRANCH   3   6
ATOM      6  C   UNL     1       0.503  -1.234  -0.234  1.00  0.00     0.108 C 
ATOM      7  C   UNL     1       1.056   0.198  -0.250  1.00  0.00     0.023 C 
BRANCH   6   8
ATOM      8  C   UNL     1      -1.023  -1.289  -0.318  1.00  0.00    -0.000 A 
ATOM      9  C   UNL     1      -1.814  -0.151  -0.531  1.00  0.00     0.008 A 
ATOM     10  C   UNL     1      -1.689  -2.511  -0.167  1.00  0.00     0.127 A 
ATOM     11  C   UNL     1      -3.207  -0.222  -0.487  1.00  0.00     0.004 A 
ATOM     12  C   UNL     1      -3.080  -2.581  -0.072  1.00  0.00     0.043 A 
ATOM     13  F   UNL     1      -0.988  -3.652  -0.081  1.00  0.00    -0.207 F 
ATOM     14  C   UNL     1      -3.853  -1.419  -0.175  1.00  0.00    -0.045 A 
BRANCH  14  15
ATOM     15  C   UNL     1      -5.337  -1.445   0.092  1.00  0.00     0.041 C 
BRANCH  15  16
ATOM     16  C   UNL     1      -5.784  -0.887   1.461  1.00  0.00     0.022 C 
ATOM     17  C   UNL     1      -5.164  -1.570   2.691  1.00  0.00     0.007 C 
ATOM     18  C   UNL     1      -5.554   0.611   1.695  1.00  0.00     0.117 C 
ATOM     19  C   UNL     1      -4.940  -0.467   3.729  1.00  0.00     0.003 C 
ATOM     20  C   UNL     1      -5.681   0.751   3.204  1.00  0.00     0.032 C 
BRANCH  18  21
ATOM     21  O   UNL     1      -6.532   1.403   1.043  1.00  0.00    -0.393 OA
ATOM     22  H   UNL     1      -7.415   1.147   1.353  1.00  0.00     0.210 HD
ENDBRANCH  18  21
ENDBRANCH  15  16
ENDBRANCH  14  15
ENDBRANCH   6   8
ENDBRANCH   3   6
ENDBRANCH   1   2
BRANCH   1  23
ATOM     23  C   UNL     1       4.363  -1.070   0.711  1.00  0.00     0.042 C 
BRANCH  23  24
ATOM     24  C   UNL     1       5.115  -1.493   1.966  1.00  0.00     0.118 C 
BRANCH  24  25
ATOM     25  N   UNL     1       6.082  -2.544   1.702  1.00  0.00    -0.352 N 
ATOM     26  C   UNL     1       7.431  -2.579   1.950  1.00  0.00     0.251 C 
ATOM     27  H   UNL     1       5.714  -3.354   1.282  1.00  0.00     0.163 HD
ATOM     28  O   UNL     1       8.101  -3.487   1.461  1.00  0.00    -0.269 OA
BRANCH  26  29
ATOM     29  C   UNL     1       8.085  -1.546   2.788  1.00  0.00     0.039 A 
ATOM     30  C   UNL     1       9.376  -1.130   2.448  1.00  0.00     0.014 A 
ATOM     31  C   UNL     1       7.473  -1.035   3.936  1.00  0.00     0.014 A 
ATOM     32  C   UNL     1      10.043  -0.197   3.246  1.00  0.00     0.010 A 
ATOM     33  C   UNL     1       8.104  -0.042   4.683  1.00  0.00     0.010 A 
ATOM     34  C   UNL     1       9.409   0.362   4.368  1.00  0.00    -0.014 A 
BRANCH  34  35
ATOM     35  C   UNL     1      10.121   1.322   5.250  1.00  0.00     0.031 A 
ATOM     36  C   UNL     1      10.409   0.959   6.685  1.00  0.00     0.074 A 
ATOM     37  C   UNL     1      10.461   2.539   4.784  1.00  0.00     0.049 A 
ATOM     38  N   UNL     1      10.998   1.667   7.614  1.00  0.00    -0.248 NA
ATOM     39  C   UNL     1       9.947  -0.362   7.144  1.00  0.00     0.031 C 
ATOM     40  C   UNL     1      10.162   3.045   3.443  1.00  0.00     0.029 A 
ATOM     41  N   UNL     1      11.113   3.581   5.395  1.00  0.00    -0.354 N 
ATOM     42  C   UNL     1      10.947   0.896   8.770  1.00  0.00     0.074 A 
ATOM     43  C   UNL     1      10.229  -0.314   8.438  1.00  0.00     0.031 C 
ATOM     44  C   UNL     1      10.630   4.299   3.332  1.00  0.00     0.029 A 
ATOM     45  C   UNL     1      11.247   4.692   4.596  1.00  0.00     0.049 A 
ATOM     46  H   UNL     1      11.451   3.538   6.318  1.00  0.00     0.167 HD
ATOM     47  C   UNL     1      11.483   1.149   9.988  1.00  0.00     0.034 A 
ATOM     48  C   UNL     1      11.809   5.890   4.851  1.00  0.00     0.034 A 
ATOM     49  C   UNL     1      12.240   2.330  10.302  1.00  0.00     0.049 A 
ATOM     50  C   UNL     1      12.469   6.118   6.184  1.00  0.00     0.074 A 
ATOM     51  C   UNL     1      12.885   2.653  11.483  1.00  0.00     0.029 A 
ATOM     52  N   UNL     1      12.461   3.381   9.425  1.00  0.00    -0.354 N 
ATOM     53  N   UNL     1      12.541   5.314   7.217  1.00  0.00    -0.248 NA
ATOM     54  C   UNL     1      13.169   7.397   6.370  1.00  0.00     0.031 C 
ATOM     55  C   UNL     1      13.491   3.905  11.321  1.00  0.00     0.029 A 
ATOM     56  C   UNL     1      13.240   4.350  10.033  1.00  0.00     0.049 A 
ATOM     57  H   UNL     1      12.114   3.431   8.505  1.00  0.00     0.167 HD
ATOM     58  C   UNL     1      13.327   5.970   8.158  1.00  0.00     0.074 A 
ATOM     59  C   UNL     1      13.722   7.230   7.564  1.00  0.00     0.031 C 
ATOM     60  C   UNL     1      13.678   5.571   9.406  1.00  0.00     0.034 A 
BRANCH  47  61
ATOM     61  C   UNL     1      11.323   0.091  11.051  1.00  0.00     0.023 A 
ATOM     62  C   UNL     1      12.029  -1.124  10.928  1.00  0.00     0.012 A 
ATOM     63  C   UNL     1      10.511   0.305  12.182  1.00  0.00     0.148 A 
ATOM     64  C   UNL     1      11.896  -2.126  11.887  1.00  0.00     0.002 A 
ATOM     65  C   UNL     1      10.420  -0.681  13.159  1.00  0.00     0.091 A 
ATOM     66  F   UNL     1       9.830   1.456  12.274  1.00  0.00    -0.205 F 
ATOM     67  C   UNL     1      11.100  -1.901  13.006  1.00  0.00     0.022 A 
BRANCH  65  68
ATOM     68  S   UNL     1       9.485  -0.456  14.676  1.00  0.00     0.127 S 
ATOM     69  O   UNL     1       8.321  -1.307  14.435  1.00  0.00    -0.237 OA
ATOM     70  O   UNL     1      10.412  -0.964  15.689  1.00  0.00    -0.237 OA
ATOM     71  O   UNL     1       9.213   0.971  14.768  1.00  0.00    -0.744 OA
ENDBRANCH  65  68
ENDBRANCH  47  61
BRANCH  48  72
ATOM     72  C   UNL     1      11.851   6.928   3.783  1.00  0.00     0.023 A 
ATOM     73  C   UNL     1      13.076   7.231   3.157  1.00  0.00     0.012 A 
ATOM     74  C   UNL     1      10.680   7.583   3.353  1.00  0.00     0.148 A 
ATOM     75  C   UNL     1      13.141   8.189   2.145  1.00  0.00     0.002 A 
ATOM     76  C   UNL     1      10.743   8.496   2.307  1.00  0.00     0.091 A 
ATOM     77  F   UNL     1       9.526   7.287   3.967  1.00  0.00    -0.205 F 
ATOM     78  C   UNL     1      11.974   8.813   1.714  1.00  0.00     0.022 A 
BRANCH  76  79
ATOM     79  S   UNL     1       9.272   9.246   1.597  1.00  0.00     0.127 S 
ATOM     80  O   UNL     1       9.393  10.630   2.053  1.00  0.00    -0.237 OA
ATOM     81  O   UNL     1       9.497   9.050   0.163  1.00  0.00    -0.237 OA
ATOM     82  O   UNL     1       8.149   8.496   2.134  1.00  0.00    -0.744 OA
ENDBRANCH  76  79
ENDBRANCH  48  72
BRANCH  60  83
ATOM     83  C   UNL     1      14.574   6.481  10.204  1.00  0.00     0.023 A 
ATOM     84  C   UNL     1      14.063   7.681  10.738  1.00  0.00     0.012 A 
ATOM     85  C   UNL     1      15.905   6.113  10.482  1.00  0.00     0.148 A 
ATOM     86  C   UNL     1      14.873   8.516  11.505  1.00  0.00     0.002 A 
ATOM     87  C   UNL     1      16.692   6.927  11.287  1.00  0.00     0.091 A 
ATOM     88  F   UNL     1      16.382   4.979   9.947  1.00  0.00    -0.205 F 
ATOM     89  C   UNL     1      16.183   8.134  11.790  1.00  0.00     0.022 A 
BRANCH  87  90
ATOM     90  S   UNL     1      18.356   6.460  11.779  1.00  0.00     0.127 S 
ATOM     91  O   UNL     1      19.173   7.280  10.887  1.00  0.00    -0.237 OA
ATOM     92  O   UNL     1      18.394   6.866  13.185  1.00  0.00    -0.237 OA
ATOM     93  O   UNL     1      18.442   5.021  11.569  1.00  0.00    -0.744 OA
ENDBRANCH  87  90
ENDBRANCH  60  83
ENDBRANCH  34  35
ENDBRANCH  26  29
ENDBRANCH  24  25
ENDBRANCH  23  24
ENDBRANCH   1  23
TORSDOF 17
