REMARK SMILES CS(=O)(=O)c1ccc(C2=NN(c3ccc(C(=O)NCCCNC(=O)c4ccc(-c5c6nc(c(-c7cccc(S(=O)(=O)[O-])c7F)c7ccc([nH]7)c(-c7cccc(S(=O)(=O)[O-])c7F)c7nc(c(-c8cccc(S(=O)(=O)[O-])c8F)c8ccc5[nH]8)C=C7)C=C6)cc4)cc3)[C@H](c3ccccc3)C2)cc1
REMARK SMILES IDX 20 1 19 2 18 3 16 4 17 5 15 7 12 8 13 9 89 10 14 11 88 12
REMARK SMILES IDX 11 13 9 14 10 15 97 16 90 17 8 18 5 19 6 20 99 21 7 22 98 23
REMARK SMILES IDX 2 24 1 25 3 26 4 27 91 28 92 29 96 30 93 31 95 32 94 33
REMARK SMILES IDX 21 34 22 35 23 36 24 38 25 39 26 40 87 41 27 42 86 43 28 44
REMARK SMILES IDX 29 45 30 46 80 47 31 48 85 49 79 50 81 51 32 52 84 53 78 54
REMARK SMILES IDX 77 55 33 57 65 58 45 59 64 60 46 61 49 62 63 63 82 64 47 65
REMARK SMILES IDX 48 66 62 68 83 69 50 70 34 71 35 72 43 73 36 74 38 75 44 76
REMARK SMILES IDX 37 77 39 78 40 79 41 80 42 81 66 82 67 83 75 84 68 85 70 86
REMARK SMILES IDX 76 87 69 88 71 89 72 90 73 91 74 92 51 93 52 94 60 95 53 96
REMARK SMILES IDX 55 97 61 98 54 99 56 100 57 101 58 102 59 103
REMARK H PARENT 18 6 22 37 81 56 49 67
REMARK Flexibility Score: inf
ROOT
ATOM      1  C   UNL     1       8.076  10.074  -8.724  1.00  0.00     0.042 C 
ENDROOT
BRANCH   1   2
ATOM      2  C   UNL     1       6.801  10.868  -8.450  1.00  0.00     0.118 C 
BRANCH   2   3
ATOM      3  N   UNL     1       5.777  10.591  -9.444  1.00  0.00    -0.352 N 
ATOM      4  C   UNL     1       4.630   9.839  -9.380  1.00  0.00     0.251 C 
ATOM      5  O   UNL     1       3.864   9.860 -10.343  1.00  0.00    -0.269 OA
ATOM      6  H   UNL     1       5.934  11.018 -10.318  1.00  0.00     0.163 HD
BRANCH   4   7
ATOM      7  C   UNL     1       4.251   9.081  -8.161  1.00  0.00     0.039 A 
ATOM      8  C   UNL     1       3.417   7.869  -5.760  1.00  0.00     0.060 A 
ATOM      9  C   UNL     1       2.478   8.402  -6.646  1.00  0.00     0.029 A 
ATOM     10  C   UNL     1       4.761   7.854  -6.141  1.00  0.00     0.029 A 
ATOM     11  C   UNL     1       2.889   9.003  -7.840  1.00  0.00     0.016 A 
ATOM     12  C   UNL     1       5.175   8.440  -7.336  1.00  0.00     0.016 A 
BRANCH   8  13
ATOM     13  N   UNL     1       3.050   7.363  -4.530  1.00  0.00    -0.257 N 
ATOM     14  C   UNL     1       2.196   5.908  -3.255  1.00  0.00     0.071 C 
ATOM     15  N   UNL     1       2.716   6.060  -4.430  1.00  0.00    -0.176 NA
ATOM     16  C   UNL     1       2.058   7.163  -2.435  1.00  0.00     0.091 C 
ATOM     17  C   UNL     1       2.855   8.151  -3.311  1.00  0.00     0.144 C 
BRANCH  14  18
ATOM     18  C   UNL     1       1.743   4.592  -2.781  1.00  0.00    -0.002 A 
ATOM     19  C   UNL     1       0.884   2.047  -2.072  1.00  0.00     0.067 A 
ATOM     20  C   UNL     1       2.090   2.194  -2.760  1.00  0.00     0.021 A 
ATOM     21  C   UNL     1       0.099   3.161  -1.747  1.00  0.00     0.021 A 
ATOM     22  C   UNL     1       2.515   3.472  -3.119  1.00  0.00     0.011 A 
ATOM     23  C   UNL     1       0.537   4.443  -2.093  1.00  0.00     0.011 A 
BRANCH  19  24
ATOM     24  S   UNL     1       0.303   0.416  -1.671  1.00  0.00     0.175 S 
ATOM     25  C   UNL     1       0.987   0.132  -0.060  1.00  0.00     0.163 C 
ATOM     26  O   UNL     1       0.914  -0.516  -2.594  1.00  0.00    -0.224 OA
ATOM     27  O   UNL     1      -1.142   0.491  -1.534  1.00  0.00    -0.224 OA
ENDBRANCH  19  24
ENDBRANCH  14  18
BRANCH  17  28
ATOM     28  C   UNL     1       4.180   8.686  -2.767  1.00  0.00    -0.023 A 
ATOM     29  C   UNL     1       4.862   8.143  -1.667  1.00  0.00     0.006 A 
ATOM     30  C   UNL     1       4.782   9.780  -3.424  1.00  0.00     0.006 A 
ATOM     31  C   UNL     1       6.087   8.674  -1.243  1.00  0.00     0.000 A 
ATOM     32  C   UNL     1       6.021  10.287  -3.023  1.00  0.00     0.000 A 
ATOM     33  C   UNL     1       6.671   9.737  -1.926  1.00  0.00     0.000 A 
ENDBRANCH  17  28
ENDBRANCH   8  13
ENDBRANCH   4   7
ENDBRANCH   2   3
ENDBRANCH   1   2
BRANCH   1  34
ATOM     34  C   UNL     1       8.872  10.596  -9.917  1.00  0.00     0.118 C 
BRANCH  34  35
ATOM     35  N   UNL     1       9.431  11.917  -9.664  1.00  0.00    -0.352 N 
ATOM     36  C   UNL     1      10.739  12.332  -9.634  1.00  0.00     0.251 C 
ATOM     37  H   UNL     1       8.768  12.622  -9.486  1.00  0.00     0.163 HD
ATOM     38  O   UNL     1      11.007  13.437  -9.169  1.00  0.00    -0.269 OA
BRANCH  36  39
ATOM     39  C   UNL     1      11.820  11.462 -10.147  1.00  0.00     0.039 A 
ATOM     40  C   UNL     1      13.030  11.411  -9.449  1.00  0.00     0.014 A 
ATOM     41  C   UNL     1      11.664  10.726 -11.325  1.00  0.00     0.014 A 
ATOM     42  C   UNL     1      14.057  10.576  -9.897  1.00  0.00     0.010 A 
ATOM     43  C   UNL     1      12.659   9.838 -11.728  1.00  0.00     0.010 A 
ATOM     44  C   UNL     1      13.866   9.753 -11.019  1.00  0.00    -0.014 A 
BRANCH  44  45
ATOM     45  C   UNL     1      14.902   8.772 -11.436  1.00  0.00     0.031 A 
ATOM     46  C   UNL     1      15.563   8.878 -12.785  1.00  0.00     0.074 A 
ATOM     47  C   UNL     1      15.187   7.733 -10.625  1.00  0.00     0.049 A 
ATOM     48  N   UNL     1      16.452   8.087 -13.329  1.00  0.00    -0.248 NA
ATOM     49  C   UNL     1      15.161  10.005 -13.645  1.00  0.00     0.031 C 
ATOM     50  C   UNL     1      14.561   7.480  -9.324  1.00  0.00     0.029 A 
ATOM     51  N   UNL     1      16.054   6.680 -10.782  1.00  0.00    -0.354 N 
ATOM     52  C   UNL     1      16.686   8.593 -14.602  1.00  0.00     0.074 A 
ATOM     53  C   UNL     1      15.833   9.750 -14.759  1.00  0.00     0.031 C 
ATOM     54  C   UNL     1      15.068   6.352  -8.802  1.00  0.00     0.029 A 
ATOM     55  C   UNL     1      16.022   5.778  -9.743  1.00  0.00     0.049 A 
ATOM     56  H   UNL     1      16.643   6.580 -11.565  1.00  0.00     0.167 HD
ATOM     57  C   UNL     1      17.546   8.144 -15.547  1.00  0.00     0.034 A 
ATOM     58  C   UNL     1      16.674   4.611  -9.574  1.00  0.00     0.034 A 
ATOM     59  C   UNL     1      18.420   7.015 -15.371  1.00  0.00     0.049 A 
ATOM     60  C   UNL     1      17.638   4.154 -10.636  1.00  0.00     0.074 A 
ATOM     61  C   UNL     1      19.399   6.547 -16.230  1.00  0.00     0.029 A 
ATOM     62  N   UNL     1      18.409   6.165 -14.277  1.00  0.00    -0.354 N 
ATOM     63  N   UNL     1      17.974   4.745 -11.757  1.00  0.00    -0.248 NA
ATOM     64  C   UNL     1      18.338   2.883 -10.396  1.00  0.00     0.031 C 
ATOM     65  C   UNL     1      19.950   5.388 -15.676  1.00  0.00     0.029 A 
ATOM     66  C   UNL     1      19.346   5.160 -14.450  1.00  0.00     0.049 A 
ATOM     67  H   UNL     1      17.822   6.261 -13.493  1.00  0.00     0.167 HD
ATOM     68  C   UNL     1      18.950   3.940 -12.334  1.00  0.00     0.074 A 
ATOM     69  C   UNL     1      19.170   2.834 -11.426  1.00  0.00     0.031 C 
ATOM     70  C   UNL     1      19.594   4.094 -13.516  1.00  0.00     0.034 A 
BRANCH  57  71
ATOM     71  C   UNL     1      17.622   8.888 -16.854  1.00  0.00     0.023 A 
ATOM     72  C   UNL     1      18.235  10.156 -16.904  1.00  0.00     0.012 A 
ATOM     73  C   UNL     1      17.184   8.284 -18.050  1.00  0.00     0.148 A 
ATOM     74  C   UNL     1      18.391  10.821 -18.120  1.00  0.00     0.002 A 
ATOM     75  C   UNL     1      17.386   8.931 -19.262  1.00  0.00     0.091 A 
ATOM     76  F   UNL     1      16.590   7.084 -17.978  1.00  0.00    -0.205 F 
ATOM     77  C   UNL     1      17.979  10.204 -19.299  1.00  0.00     0.022 A 
BRANCH  75  78
ATOM     78  S   UNL     1      16.970   8.187 -20.844  1.00  0.00     0.127 S 
ATOM     79  O   UNL     1      15.900   9.067 -21.312  1.00  0.00    -0.237 OA
ATOM     80  O   UNL     1      18.228   8.312 -21.579  1.00  0.00    -0.237 OA
ATOM     81  O   UNL     1      16.564   6.819 -20.553  1.00  0.00    -0.744 OA
ENDBRANCH  75  78
ENDBRANCH  57  71
BRANCH  58  82
ATOM     82  C   UNL     1      16.474   3.804  -8.336  1.00  0.00     0.023 A 
ATOM     83  C   UNL     1      17.542   3.648  -7.430  1.00  0.00     0.012 A 
ATOM     84  C   UNL     1      15.243   3.180  -8.057  1.00  0.00     0.148 A 
ATOM     85  C   UNL     1      17.404   2.845  -6.297  1.00  0.00     0.002 A 
ATOM     86  C   UNL     1      15.093   2.432  -6.895  1.00  0.00     0.091 A 
ATOM     87  F   UNL     1      14.241   3.330  -8.935  1.00  0.00    -0.205 F 
ATOM     88  C   UNL     1      16.178   2.244  -6.026  1.00  0.00     0.022 A 
BRANCH  86  89
ATOM     89  S   UNL     1      13.515   1.734  -6.399  1.00  0.00     0.127 S 
ATOM     90  O   UNL     1      13.733   0.308  -6.628  1.00  0.00    -0.237 OA
ATOM     91  O   UNL     1      13.438   2.128  -4.992  1.00  0.00    -0.237 OA
ATOM     92  O   UNL     1      12.521   2.369  -7.253  1.00  0.00    -0.744 OA
ENDBRANCH  86  89
ENDBRANCH  58  82
BRANCH  70  93
ATOM     93  C   UNL     1      20.635   3.068 -13.883  1.00  0.00     0.023 A 
ATOM     94  C   UNL     1      20.245   1.762 -14.238  1.00  0.00     0.012 A 
ATOM     95  C   UNL     1      21.998   3.422 -13.940  1.00  0.00     0.148 A 
ATOM     96  C   UNL     1      21.198   0.813 -14.606  1.00  0.00     0.002 A 
ATOM     97  C   UNL     1      22.936   2.487 -14.361  1.00  0.00     0.091 A 
ATOM     98  F   UNL     1      22.351   4.666 -13.584  1.00  0.00    -0.205 F 
ATOM     99  C   UNL     1      22.540   1.178 -14.678  1.00  0.00     0.022 A 
BRANCH  97 100
ATOM    100  S   UNL     1      24.671   2.894 -14.581  1.00  0.00     0.127 S 
ATOM    101  O   UNL     1      25.294   2.144 -13.491  1.00  0.00    -0.237 OA
ATOM    102  O   UNL     1      24.944   2.366 -15.918  1.00  0.00    -0.237 OA
ATOM    103  O   UNL     1      24.764   4.344 -14.472  1.00  0.00    -0.744 OA
ENDBRANCH  97 100
ENDBRANCH  70  93
ENDBRANCH  44  45
ENDBRANCH  36  39
ENDBRANCH  34  35
ENDBRANCH   1  34
TORSDOF 17
