REMARK SMILES COc1ccc([C@H]2[C@H](C(=O)NCCCNC(=O)c3ccc(-c4c5nc(c(-c6cccc(S(=O)(=O)[O-])c6F)c6ccc([nH]6)c(-c6cccc(S(=O)(=O)[O-])c6F)c6nc(c(-c7cccc(S(=O)(=O)[O-])c7F)c7ccc4[nH]7)C=C6)C=C5)cc3)CCN2c2ccc(F)cc2)cc1
REMARK SMILES IDX 13 1 12 2 11 3 9 4 10 5 8 7 7 8 83 9 81 10 82 11 6 12 3 13
REMARK SMILES IDX 4 14 92 15 5 16 91 17 2 18 1 19 84 20 85 21 90 22 86 23
REMARK SMILES IDX 89 24 87 25 88 26 14 27 15 28 16 29 17 31 18 32 19 33 80 34
REMARK SMILES IDX 20 35 79 36 21 37 22 38 23 39 73 40 24 41 78 42 72 43 74 44
REMARK SMILES IDX 25 45 77 46 71 47 70 48 26 50 58 51 38 52 57 53 39 54 42 55
REMARK SMILES IDX 56 56 75 57 40 58 41 59 55 61 76 62 43 63 27 64 28 65 36 66
REMARK SMILES IDX 29 67 31 68 37 69 30 70 32 71 33 72 34 73 35 74 59 75 60 76
REMARK SMILES IDX 68 77 61 78 63 79 69 80 62 81 64 82 65 83 66 84 67 85 44 86
REMARK SMILES IDX 45 87 53 88 46 89 48 90 54 91 47 92 49 93 50 94 51 95 52 96
REMARK H PARENT 11 6 15 30 74 49 42 60
REMARK Flexibility Score: inf
ROOT
ATOM      1  C   UNL     1       4.997   2.371   4.164  1.00  0.00     0.042 C 
ENDROOT
BRANCH   1   2
ATOM      2  C   UNL     1       5.629   3.745   3.988  1.00  0.00     0.117 C 
BRANCH   2   3
ATOM      3  N   UNL     1       5.115   4.436   2.815  1.00  0.00    -0.356 N 
ATOM      4  C   UNL     1       4.117   5.333   2.618  1.00  0.00     0.225 C 
ATOM      5  O   UNL     1       3.906   5.633   1.433  1.00  0.00    -0.275 OA
ATOM      6  H   UNL     1       5.595   4.203   1.988  1.00  0.00     0.163 HD
BRANCH   4   7
ATOM      7  C   UNL     1       3.239   5.979   3.690  1.00  0.00     0.107 C 
ATOM      8  C   UNL     1       2.055   5.083   4.108  1.00  0.00     0.125 C 
ATOM      9  N   UNL     1       2.587   4.462   5.333  1.00  0.00    -0.364 N 
ATOM     10  C   UNL     1       3.902   6.412   4.993  1.00  0.00     0.037 C 
ATOM     11  C   UNL     1       3.433   5.412   6.054  1.00  0.00     0.118 C 
BRANCH   8  12
ATOM     12  C   UNL     1       0.782   5.893   4.424  1.00  0.00    -0.024 A 
ATOM     13  C   UNL     1      -1.496   7.476   5.052  1.00  0.00     0.118 A 
ATOM     14  C   UNL     1      -0.913   7.530   3.784  1.00  0.00     0.047 A 
ATOM     15  C   UNL     1      -0.976   6.593   5.989  1.00  0.00     0.047 A 
ATOM     16  C   UNL     1       0.210   6.747   3.469  1.00  0.00     0.010 A 
ATOM     17  C   UNL     1       0.135   5.807   5.671  1.00  0.00     0.010 A 
BRANCH  13  18
ATOM     18  O   UNL     1      -2.565   8.305   5.253  1.00  0.00    -0.497 OA
ATOM     19  C   UNL     1      -3.009   8.441   6.601  1.00  0.00     0.278 C 
ENDBRANCH  13  18
ENDBRANCH   8  12
BRANCH   9  20
ATOM     20  C   UNL     1       2.268   3.207   5.804  1.00  0.00     0.037 A 
ATOM     21  C   UNL     1       2.534   2.838   7.135  1.00  0.00     0.029 A 
ATOM     22  C   UNL     1       1.724   2.207   4.976  1.00  0.00     0.029 A 
ATOM     23  C   UNL     1       2.350   1.529   7.592  1.00  0.00     0.041 A 
ATOM     24  C   UNL     1       1.566   0.886   5.415  1.00  0.00     0.041 A 
ATOM     25  C   UNL     1       1.896   0.557   6.717  1.00  0.00     0.123 A 
ATOM     26  F   UNL     1       1.796  -0.711   7.133  1.00  0.00    -0.207 F 
ENDBRANCH   9  20
ENDBRANCH   4   7
ENDBRANCH   2   3
ENDBRANCH   1   2
BRANCH   1  27
ATOM     27  C   UNL     1       5.788   1.221   3.561  1.00  0.00     0.118 C 
BRANCH  27  28
ATOM     28  N   UNL     1       6.944   0.862   4.370  1.00  0.00    -0.352 N 
ATOM     29  C   UNL     1       7.205  -0.250   5.135  1.00  0.00     0.251 C 
ATOM     30  H   UNL     1       7.665   1.533   4.368  1.00  0.00     0.163 HD
ATOM     31  O   UNL     1       8.168  -0.212   5.902  1.00  0.00    -0.269 OA
BRANCH  29  32
ATOM     32  C   UNL     1       6.372  -1.479   5.069  1.00  0.00     0.039 A 
ATOM     33  C   UNL     1       6.239  -2.261   6.225  1.00  0.00     0.014 A 
ATOM     34  C   UNL     1       5.788  -1.926   3.882  1.00  0.00     0.014 A 
ATOM     35  C   UNL     1       5.499  -3.449   6.197  1.00  0.00     0.010 A 
ATOM     36  C   UNL     1       4.969  -3.057   3.878  1.00  0.00     0.010 A 
ATOM     37  C   UNL     1       4.833  -3.848   5.028  1.00  0.00    -0.014 A 
BRANCH  37  38
ATOM     38  C   UNL     1       4.019  -5.096   4.980  1.00  0.00     0.031 A 
ATOM     39  C   UNL     1       4.379  -6.206   4.021  1.00  0.00     0.074 A 
ATOM     40  C   UNL     1       2.915  -5.209   5.745  1.00  0.00     0.049 A 
ATOM     41  N   UNL     1       3.754  -7.332   3.787  1.00  0.00    -0.248 NA
ATOM     42  C   UNL     1       5.585  -6.015   3.197  1.00  0.00     0.031 C 
ATOM     43  C   UNL     1       2.412  -4.184   6.662  1.00  0.00     0.029 A 
ATOM     44  N   UNL     1       1.999  -6.228   5.856  1.00  0.00    -0.354 N 
ATOM     45  C   UNL     1       4.463  -7.960   2.768  1.00  0.00     0.074 A 
ATOM     46  C   UNL     1       5.546  -7.075   2.402  1.00  0.00     0.031 C 
ATOM     47  C   UNL     1       1.287  -4.628   7.247  1.00  0.00     0.029 A 
ATOM     48  C   UNL     1       0.967  -5.952   6.724  1.00  0.00     0.049 A 
ATOM     49  H   UNL     1       2.075  -7.076   5.361  1.00  0.00     0.167 HD
ATOM     50  C   UNL     1       4.256  -9.177   2.208  1.00  0.00     0.034 A 
ATOM     51  C   UNL     1      -0.119  -6.679   7.055  1.00  0.00     0.034 A 
ATOM     52  C   UNL     1       3.214 -10.083   2.609  1.00  0.00     0.049 A 
ATOM     53  C   UNL     1      -0.303  -8.043   6.444  1.00  0.00     0.074 A 
ATOM     54  C   UNL     1       2.971 -11.369   2.158  1.00  0.00     0.029 A 
ATOM     55  N   UNL     1       2.241  -9.801   3.555  1.00  0.00    -0.354 N 
ATOM     56  N   UNL     1       0.463  -8.677   5.590  1.00  0.00    -0.248 NA
ATOM     57  C   UNL     1      -1.484  -8.809   6.871  1.00  0.00     0.031 C 
ATOM     58  C   UNL     1       1.839 -11.857   2.818  1.00  0.00     0.029 A 
ATOM     59  C   UNL     1       1.393 -10.886   3.699  1.00  0.00     0.049 A 
ATOM     60  H   UNL     1       2.163  -8.954   4.051  1.00  0.00     0.167 HD
ATOM     61  C   UNL     1      -0.121  -9.925   5.407  1.00  0.00     0.074 A 
ATOM     62  C   UNL     1      -1.292  -9.968   6.258  1.00  0.00     0.031 C 
ATOM     63  C   UNL     1       0.267 -10.939   4.595  1.00  0.00     0.034 A 
BRANCH  50  64
ATOM     64  C   UNL     1       5.218  -9.634   1.139  1.00  0.00     0.023 A 
ATOM     65  C   UNL     1       6.534  -9.992   1.498  1.00  0.00     0.012 A 
ATOM     66  C   UNL     1       4.803  -9.782  -0.200  1.00  0.00     0.148 A 
ATOM     67  C   UNL     1       7.432 -10.457   0.538  1.00  0.00     0.002 A 
ATOM     68  C   UNL     1       5.691 -10.289  -1.143  1.00  0.00     0.091 A 
ATOM     69  F   UNL     1       3.554  -9.423  -0.526  1.00  0.00    -0.205 F 
ATOM     70  C   UNL     1       7.008 -10.615  -0.778  1.00  0.00     0.022 A 
BRANCH  68  71
ATOM     71  S   UNL     1       5.223 -10.608  -2.848  1.00  0.00     0.127 S 
ATOM     72  O   UNL     1       5.999  -9.595  -3.561  1.00  0.00    -0.237 OA
ATOM     73  O   UNL     1       5.690 -11.981  -3.042  1.00  0.00    -0.237 OA
ATOM     74  O   UNL     1       3.778 -10.442  -2.907  1.00  0.00    -0.744 OA
ENDBRANCH  68  71
ENDBRANCH  50  64
BRANCH  51  75
ATOM     75  C   UNL     1      -1.090  -6.161   8.062  1.00  0.00     0.023 A 
ATOM     76  C   UNL     1      -1.181  -6.791   9.320  1.00  0.00     0.012 A 
ATOM     77  C   UNL     1      -1.917  -5.054   7.789  1.00  0.00     0.148 A 
ATOM     78  C   UNL     1      -2.104  -6.354  10.271  1.00  0.00     0.002 A 
ATOM     79  C   UNL     1      -2.795  -4.589   8.762  1.00  0.00     0.091 A 
ATOM     80  F   UNL     1      -1.829  -4.477   6.582  1.00  0.00    -0.205 F 
ATOM     81  C   UNL     1      -2.904  -5.249   9.996  1.00  0.00     0.022 A 
BRANCH  79  82
ATOM     82  S   UNL     1      -3.775  -3.099   8.540  1.00  0.00     0.127 S 
ATOM     83  O   UNL     1      -5.119  -3.649   8.369  1.00  0.00    -0.237 OA
ATOM     84  O   UNL     1      -3.555  -2.401   9.809  1.00  0.00    -0.237 OA
ATOM     85  O   UNL     1      -3.212  -2.428   7.380  1.00  0.00    -0.744 OA
ENDBRANCH  79  82
ENDBRANCH  51  75
BRANCH  63  86
ATOM     86  C   UNL     1      -0.551 -12.204   4.613  1.00  0.00     0.023 A 
ATOM     87  C   UNL     1      -1.831 -12.221   4.023  1.00  0.00     0.012 A 
ATOM     88  C   UNL     1      -0.021 -13.395   5.149  1.00  0.00     0.148 A 
ATOM     89  C   UNL     1      -2.583 -13.395   3.997  1.00  0.00     0.002 A 
ATOM     90  C   UNL     1      -0.756 -14.572   5.074  1.00  0.00     0.091 A 
ATOM     91  F   UNL     1       1.192 -13.355   5.721  1.00  0.00    -0.205 F 
ATOM     92  C   UNL     1      -2.042 -14.571   4.511  1.00  0.00     0.022 A 
BRANCH  90  93
ATOM     93  S   UNL     1      -0.102 -16.153   5.621  1.00  0.00     0.127 S 
ATOM     94  O   UNL     1      -0.876 -16.392   6.837  1.00  0.00    -0.237 OA
ATOM     95  O   UNL     1      -0.439 -17.032   4.501  1.00  0.00    -0.237 OA
ATOM     96  O   UNL     1       1.327 -15.950   5.820  1.00  0.00    -0.744 OA
ENDBRANCH  90  93
ENDBRANCH  63  86
ENDBRANCH  37  38
ENDBRANCH  29  32
ENDBRANCH  27  28
ENDBRANCH   1  27
TORSDOF 16
