REMARK SMILES O=C(NCCCNC(=O)c1ccccc1Nc1nc(Cl)nc(Nc2ccc(N3CCOCC3=O)cc2)n1)c1ccc(-c2c3nc(c(-c4cccc(S(=O)(=O)[O-])c4F)c4ccc([nH]4)c(-c4cccc(S(=O)(=O)[O-])c4F)c4nc(c(-c5cccc(S(=O)(=O)[O-])c5F)c5ccc2[nH]5)C=C4)C=C3)cc1
REMARK SMILES IDX 6 1 5 2 4 3 3 4 1 5 2 6 38 8 39 9 100 10 40 11 99 12 41 13
REMARK SMILES IDX 42 14 43 15 93 16 44 17 98 18 92 19 94 20 45 21 97 22 91 23
REMARK SMILES IDX 90 24 46 26 78 27 58 28 77 29 59 30 62 31 76 32 95 33 60 34
REMARK SMILES IDX 61 35 75 37 96 38 63 39 47 40 48 41 56 42 49 43 51 44 57 45
REMARK SMILES IDX 50 46 52 47 53 48 54 49 55 50 79 51 80 52 88 53 81 54 83 55
REMARK SMILES IDX 89 56 82 57 84 58 85 59 86 60 87 61 64 62 65 63 73 64 66 65
REMARK SMILES IDX 68 66 74 67 67 68 69 69 70 70 71 71 72 72 7 73 8 74 9 76
REMARK SMILES IDX 10 77 11 78 15 79 12 80 14 81 13 82 16 83 17 85 18 86 37 87
REMARK SMILES IDX 19 88 22 89 20 90 21 91 23 92 24 94 25 95 36 96 26 97 35 98
REMARK SMILES IDX 27 99 28 100 29 101 33 102 30 103 32 104 34 105 31 106
REMARK H PARENT 3 7 94 25 62 36 7 75 16 84 23 93
REMARK Flexibility Score: inf
ROOT
ATOM      1  C   UNL     1       4.539   3.672   0.333  1.00  0.00     0.118 C 
ENDROOT
BRANCH   1   2
ATOM      2  C   UNL     1       5.029   2.344  -0.214  1.00  0.00     0.042 C 
BRANCH   2   3
ATOM      3  C   UNL     1       4.554   1.139   0.580  1.00  0.00     0.118 C 
BRANCH   3   4
ATOM      4  N   UNL     1       3.111   0.946   0.510  1.00  0.00    -0.352 N 
ATOM      5  O   UNL     1       1.165   0.066  -0.195  1.00  0.00    -0.269 OA
ATOM      6  C   UNL     1       2.383  -0.055  -0.090  1.00  0.00     0.251 C 
ATOM      7  H   UNL     1       2.576   1.637   0.962  1.00  0.00     0.163 HD
BRANCH   6   8
ATOM      8  C   UNL     1       3.067  -1.253  -0.625  1.00  0.00     0.039 A 
ATOM      9  C   UNL     1       4.107  -1.850   0.088  1.00  0.00     0.014 A 
ATOM     10  C   UNL     1       2.656  -1.798  -1.845  1.00  0.00     0.014 A 
ATOM     11  C   UNL     1       4.848  -2.869  -0.492  1.00  0.00     0.010 A 
ATOM     12  C   UNL     1       3.330  -2.904  -2.374  1.00  0.00     0.010 A 
ATOM     13  C   UNL     1       4.450  -3.432  -1.715  1.00  0.00    -0.014 A 
BRANCH  13  14
ATOM     14  C   UNL     1       5.151  -4.646  -2.202  1.00  0.00     0.031 A 
ATOM     15  C   UNL     1       5.898  -4.662  -3.506  1.00  0.00     0.074 A 
ATOM     16  C   UNL     1       5.105  -5.751  -1.429  1.00  0.00     0.049 A 
ATOM     17  N   UNL     1       6.585  -5.639  -4.040  1.00  0.00    -0.248 NA
ATOM     18  C   UNL     1       5.870  -3.437  -4.321  1.00  0.00     0.031 C 
ATOM     19  C   UNL     1       4.361  -5.864  -0.170  1.00  0.00     0.029 A 
ATOM     20  N   UNL     1       5.688  -6.982  -1.577  1.00  0.00    -0.354 N 
ATOM     21  C   UNL     1       7.031  -5.169  -5.269  1.00  0.00     0.074 A 
ATOM     22  C   UNL     1       6.543  -3.813  -5.403  1.00  0.00     0.031 C 
ATOM     23  C   UNL     1       4.557  -7.081   0.353  1.00  0.00     0.029 A 
ATOM     24  C   UNL     1       5.385  -7.857  -0.560  1.00  0.00     0.049 A 
ATOM     25  H   UNL     1       6.268  -7.218  -2.337  1.00  0.00     0.167 HD
ATOM     26  C   UNL     1       7.787  -5.811  -6.192  1.00  0.00     0.034 A 
ATOM     27  C   UNL     1       5.713  -9.151  -0.388  1.00  0.00     0.034 A 
ATOM     28  C   UNL     1       8.308  -7.143  -6.026  1.00  0.00     0.049 A 
ATOM     29  C   UNL     1       6.579  -9.816  -1.415  1.00  0.00     0.074 A 
ATOM     30  C   UNL     1       9.161  -7.841  -6.863  1.00  0.00     0.029 A 
ATOM     31  N   UNL     1       8.017  -7.984  -4.963  1.00  0.00    -0.354 N 
ATOM     32  N   UNL     1       7.118  -9.301  -2.493  1.00  0.00    -0.248 NA
ATOM     33  C   UNL     1       6.901 -11.231  -1.194  1.00  0.00     0.031 C 
ATOM     34  C   UNL     1       9.366  -9.113  -6.318  1.00  0.00     0.029 A 
ATOM     35  C   UNL     1       8.655  -9.201  -5.133  1.00  0.00     0.049 A 
ATOM     36  H   UNL     1       7.440  -7.750  -4.200  1.00  0.00     0.167 HD
ATOM     37  C   UNL     1       7.852 -10.326  -3.075  1.00  0.00     0.074 A 
ATOM     38  C   UNL     1       7.722 -11.478  -2.206  1.00  0.00     0.031 C 
ATOM     39  C   UNL     1       8.548 -10.323  -4.237  1.00  0.00     0.034 A 
BRANCH  26  40
ATOM     40  C   UNL     1       8.144  -5.080  -7.460  1.00  0.00     0.023 A 
ATOM     41  C   UNL     1       9.153  -4.096  -7.435  1.00  0.00     0.012 A 
ATOM     42  C   UNL     1       7.570  -5.452  -8.692  1.00  0.00     0.148 A 
ATOM     43  C   UNL     1       9.577  -3.486  -8.616  1.00  0.00     0.002 A 
ATOM     44  C   UNL     1       8.023  -4.865  -9.869  1.00  0.00     0.091 A 
ATOM     45  F   UNL     1       6.601  -6.379  -8.691  1.00  0.00    -0.205 F 
ATOM     46  C   UNL     1       9.023  -3.879  -9.831  1.00  0.00     0.022 A 
BRANCH  44  47
ATOM     47  S   UNL     1       7.428  -5.353 -11.493  1.00  0.00     0.127 S 
ATOM     48  O   UNL     1       6.704  -4.154 -11.913  1.00  0.00    -0.237 OA
ATOM     49  O   UNL     1       8.676  -5.596 -12.217  1.00  0.00    -0.237 OA
ATOM     50  O   UNL     1       6.604  -6.535 -11.283  1.00  0.00    -0.744 OA
ENDBRANCH  44  47
ENDBRANCH  26  40
BRANCH  27  51
ATOM     51  C   UNL     1       5.231  -9.884   0.816  1.00  0.00     0.023 A 
ATOM     52  C   UNL     1       6.152 -10.289   1.800  1.00  0.00     0.012 A 
ATOM     53  C   UNL     1       3.860 -10.143   1.010  1.00  0.00     0.148 A 
ATOM     54  C   UNL     1       5.718 -10.962   2.943  1.00  0.00     0.002 A 
ATOM     55  C   UNL     1       3.429 -10.755   2.180  1.00  0.00     0.091 A 
ATOM     56  F   UNL     1       2.998  -9.771   0.053  1.00  0.00    -0.205 F 
ATOM     57  C   UNL     1       4.357 -11.183   3.140  1.00  0.00     0.022 A 
BRANCH  55  58
ATOM     58  S   UNL     1       1.682 -10.923   2.563  1.00  0.00     0.127 S 
ATOM     59  O   UNL     1       1.414 -12.297   2.151  1.00  0.00    -0.237 OA
ATOM     60  O   UNL     1       1.656 -10.696   4.009  1.00  0.00    -0.237 OA
ATOM     61  O   UNL     1       1.024  -9.878   1.789  1.00  0.00    -0.744 OA
ENDBRANCH  55  58
ENDBRANCH  27  51
BRANCH  39  62
ATOM     62  C   UNL     1       9.226 -11.606  -4.634  1.00  0.00     0.023 A 
ATOM     63  C   UNL     1       8.447 -12.681  -5.105  1.00  0.00     0.012 A 
ATOM     64  C   UNL     1      10.627 -11.729  -4.591  1.00  0.00     0.148 A 
ATOM     65  C   UNL     1       9.052 -13.874  -5.497  1.00  0.00     0.002 A 
ATOM     66  C   UNL     1      11.226 -12.905  -5.027  1.00  0.00     0.091 A 
ATOM     67  F   UNL     1      11.347 -10.701  -4.118  1.00  0.00    -0.205 F 
ATOM     68  C   UNL     1      10.440 -13.982  -5.469  1.00  0.00     0.022 A 
BRANCH  66  69
ATOM     69  S   UNL     1      13.010 -13.099  -5.108  1.00  0.00     0.127 S 
ATOM     70  O   UNL     1      13.267 -13.976  -3.966  1.00  0.00    -0.237 OA
ATOM     71  O   UNL     1      13.197 -13.729  -6.415  1.00  0.00    -0.237 OA
ATOM     72  O   UNL     1      13.563 -11.755  -5.003  1.00  0.00    -0.744 OA
ENDBRANCH  66  69
ENDBRANCH  39  62
ENDBRANCH  13  14
ENDBRANCH   6   8
ENDBRANCH   3   4
ENDBRANCH   2   3
ENDBRANCH   1   2
BRANCH   1  73
ATOM     73  N   UNL     1       5.018   3.941   1.685  1.00  0.00    -0.352 N 
ATOM     74  C   UNL     1       5.751   5.007   2.144  1.00  0.00     0.253 C 
ATOM     75  H   UNL     1       4.783   3.264   2.361  1.00  0.00     0.163 HD
ATOM     76  O   UNL     1       6.130   5.049   3.310  1.00  0.00    -0.269 OA
BRANCH  74  77
ATOM     77  C   UNL     1       6.103   6.105   1.222  1.00  0.00     0.063 A 
ATOM     78  C   UNL     1       7.468   6.355   1.027  1.00  0.00     0.016 A 
ATOM     79  C   UNL     1       5.119   6.852   0.547  1.00  0.00     0.054 A 
ATOM     80  C   UNL     1       7.872   7.314   0.102  1.00  0.00     0.001 A 
ATOM     81  C   UNL     1       5.554   7.769  -0.421  1.00  0.00     0.027 A 
ATOM     82  C   UNL     1       6.915   8.005  -0.635  1.00  0.00     0.002 A 
BRANCH  79  83
ATOM     83  N   UNL     1       3.752   6.663   0.799  1.00  0.00    -0.323 N 
ATOM     84  H   UNL     1       3.534   6.410   1.725  1.00  0.00     0.170 HD
BRANCH  83  85
ATOM     85  C   UNL     1       2.659   6.776  -0.049  1.00  0.00     0.233 A 
ATOM     86  N   UNL     1       2.797   6.537  -1.342  1.00  0.00    -0.182 NA
ATOM     87  N   UNL     1       1.511   7.116   0.526  1.00  0.00    -0.176 NA
ATOM     88  C   UNL     1       1.671   6.641  -2.025  1.00  0.00     0.228 A 
ATOM     89  C   UNL     1       0.469   7.285  -0.281  1.00  0.00     0.233 A 
ATOM     90  Cl  UNL     1       1.775   6.321  -3.699  1.00  0.00    -0.041 Cl
ATOM     91  N   UNL     1       0.490   7.026  -1.577  1.00  0.00    -0.182 NA
BRANCH  89  92
ATOM     92  N   UNL     1      -0.634   7.907   0.301  1.00  0.00    -0.324 N 
ATOM     93  H   UNL     1      -0.615   7.989   1.282  1.00  0.00     0.170 HD
BRANCH  92  94
ATOM     94  C   UNL     1      -1.761   8.428  -0.335  1.00  0.00     0.041 A 
ATOM     95  C   UNL     1      -2.033   9.797  -0.248  1.00  0.00     0.028 A 
ATOM     96  C   UNL     1      -2.569   7.638  -1.153  1.00  0.00     0.028 A 
ATOM     97  C   UNL     1      -3.083  10.367  -0.976  1.00  0.00     0.028 A 
ATOM     98  C   UNL     1      -3.655   8.193  -1.835  1.00  0.00     0.028 A 
ATOM     99  C   UNL     1      -3.911   9.566  -1.769  1.00  0.00     0.044 A 
BRANCH  99 100
ATOM    100  N   UNL     1      -4.961  10.147  -2.538  1.00  0.00    -0.308 N 
ATOM    101  C   UNL     1      -4.595  11.253  -3.431  1.00  0.00     0.154 C 
ATOM    102  C   UNL     1      -6.190   9.494  -2.684  1.00  0.00     0.253 C 
ATOM    103  C   UNL     1      -5.801  12.001  -3.982  1.00  0.00     0.183 C 
ATOM    104  C   UNL     1      -7.185  10.159  -3.651  1.00  0.00     0.260 C 
ATOM    105  O   UNL     1      -6.546   8.515  -2.026  1.00  0.00    -0.272 OA
ATOM    106  O   UNL     1      -6.685  11.077  -4.610  1.00  0.00    -0.370 OA
ENDBRANCH  99 100
ENDBRANCH  92  94
ENDBRANCH  89  92
ENDBRANCH  83  85
ENDBRANCH  79  83
ENDBRANCH  74  77
ENDBRANCH   1  73
TORSDOF 18
