REMARK SMILES Cc1cccc(-c2ncc(C[NH+]3CCC4(CC3)NC(=O)C[C@H]4C(=O)NCCCNC(=O)c3ccc(-c4c5nc(c(-c6cccc(S(=O)(=O)[O-])c6F)c6ccc([nH]6)c(-c6cccc(S(=O)(=O)[O-])c6F)c6nc(c(-c7cccc(S(=O)(=O)[O-])c7F)c7ccc4[nH]7)C=C6)C=C5)cc3)cn2)c1
REMARK SMILES IDX 27 1 26 2 25 3 23 4 24 5 22 7 12 8 13 9 17 10 14 12 16 13
REMARK SMILES IDX 15 14 18 15 19 16 21 18 20 19 11 20 10 21 7 22 8 23 96 24
REMARK SMILES IDX 9 25 95 26 6 27 1 28 2 29 3 30 97 31 4 32 5 33 28 34 29 35
REMARK SMILES IDX 30 36 31 38 32 39 33 40 94 41 34 42 93 43 35 44 36 45 37 46
REMARK SMILES IDX 87 47 38 48 92 49 86 50 88 51 39 52 91 53 85 54 84 55 40 57
REMARK SMILES IDX 72 58 52 59 71 60 53 61 56 62 70 63 89 64 54 65 55 66 69 68
REMARK SMILES IDX 90 69 57 70 41 71 42 72 50 73 43 74 45 75 51 76 44 77 46 78
REMARK SMILES IDX 47 79 48 80 49 81 73 82 74 83 82 84 75 85 77 86 83 87 76 88
REMARK SMILES IDX 78 89 79 90 80 91 81 92 58 93 59 94 67 95 60 96 62 97 68 98
REMARK SMILES IDX 61 99 63 100 64 101 65 102 66 103
REMARK H PARENT 25 6 12 11 18 17 29 37 88 56 56 67
REMARK Flexibility Score: inf
ROOT
ATOM      1  C   UNL     1       0.167   3.070  -2.680  1.00  0.00     0.042 C 
ENDROOT
BRANCH   1   2
ATOM      2  C   UNL     1       1.372   3.993  -2.828  1.00  0.00     0.117 C 
BRANCH   2   3
ATOM      3  N   UNL     1       1.083   5.396  -3.124  1.00  0.00    -0.356 N 
ATOM      4  C   UNL     1       0.977   6.534  -2.379  1.00  0.00     0.226 C 
ATOM      5  O   UNL     1       0.853   7.594  -3.005  1.00  0.00    -0.275 OA
ATOM      6  H   UNL     1       0.930   5.556  -4.083  1.00  0.00     0.163 HD
BRANCH   4   7
ATOM      7  C   UNL     1       0.915   6.599  -0.843  1.00  0.00     0.114 C 
ATOM      8  N   UNL     1      -3.116   6.930   0.126  1.00  0.00    -0.331 N 
ATOM      9  C   UNL     1      -2.108   7.361   1.084  1.00  0.00     0.264 C 
ATOM     10  C   UNL     1      -2.526   6.750  -1.188  1.00  0.00     0.264 C 
ATOM     11  H   UNL     1      -3.760   7.721   0.093  1.00  0.00     0.348 HD
ATOM     12  C   UNL     1      -0.816   6.538   1.144  1.00  0.00     0.091 C 
ATOM     13  C   UNL     1      -1.450   5.682  -1.178  1.00  0.00     0.091 C 
ATOM     14  C   UNL     1      -0.301   5.905  -0.186  1.00  0.00     0.063 C 
ATOM     15  N   UNL     1       0.313   4.653   0.243  1.00  0.00    -0.349 N 
ATOM     16  C   UNL     1       1.676   4.714   0.385  1.00  0.00     0.221 C 
ATOM     17  H   UNL     1      -0.207   3.835   0.415  1.00  0.00     0.164 HD
ATOM     18  C   UNL     1       2.167   6.005  -0.196  1.00  0.00     0.116 C 
ATOM     19  O   UNL     1       2.372   3.848   0.904  1.00  0.00    -0.275 OA
BRANCH   8  20
ATOM     20  C   UNL     1      -4.145   5.947   0.522  1.00  0.00     0.302 C 
BRANCH  20  21
ATOM     21  C   UNL     1      -3.756   4.493   0.552  1.00  0.00     0.043 A 
ATOM     22  C   UNL     1      -2.535   2.058   0.413  1.00  0.00     0.159 A 
ATOM     23  N   UNL     1      -2.414   2.763   1.556  1.00  0.00    -0.236 NA
ATOM     24  N   UNL     1      -3.302   2.431  -0.629  1.00  0.00    -0.236 NA
ATOM     25  C   UNL     1      -3.071   3.940   1.611  1.00  0.00     0.124 A 
ATOM     26  C   UNL     1      -3.904   3.641  -0.533  1.00  0.00     0.124 A 
BRANCH  22  27
ATOM     27  C   UNL     1      -1.670   0.880   0.256  1.00  0.00     0.019 A 
ATOM     28  C   UNL     1       2.074   0.049   0.066  1.00  0.00     0.044 C 
ATOM     29  C   UNL     1       0.582  -0.114   0.107  1.00  0.00    -0.050 A 
ATOM     30  C   UNL     1       0.008  -1.375  -0.045  1.00  0.00     0.003 A 
ATOM     31  C   UNL     1      -0.263   0.992   0.285  1.00  0.00     0.015 A 
ATOM     32  C   UNL     1      -1.380  -1.516  -0.063  1.00  0.00     0.001 A 
ATOM     33  C   UNL     1      -2.210  -0.397   0.067  1.00  0.00     0.012 A 
ENDBRANCH  22  27
ENDBRANCH  20  21
ENDBRANCH   8  20
ENDBRANCH   4   7
ENDBRANCH   2   3
ENDBRANCH   1   2
BRANCH   1  34
ATOM     34  C   UNL     1      -0.488   2.633  -3.985  1.00  0.00     0.118 C 
BRANCH  34  35
ATOM     35  N   UNL     1      -0.065   1.268  -4.306  1.00  0.00    -0.352 N 
ATOM     36  C   UNL     1      -0.761   0.176  -4.794  1.00  0.00     0.251 C 
ATOM     37  H   UNL     1       0.891   1.096  -4.146  1.00  0.00     0.163 HD
ATOM     38  O   UNL     1      -0.306  -0.953  -4.645  1.00  0.00    -0.269 OA
BRANCH  36  39
ATOM     39  C   UNL     1      -1.918   0.411  -5.687  1.00  0.00     0.039 A 
ATOM     40  C   UNL     1      -1.658   0.084  -7.024  1.00  0.00     0.014 A 
ATOM     41  C   UNL     1      -2.821   1.411  -5.360  1.00  0.00     0.014 A 
ATOM     42  C   UNL     1      -1.960   1.010  -8.004  1.00  0.00     0.010 A 
ATOM     43  C   UNL     1      -3.026   2.386  -6.304  1.00  0.00     0.010 A 
ATOM     44  C   UNL     1      -2.501   2.219  -7.593  1.00  0.00    -0.014 A 
BRANCH  44  45
ATOM     45  C   UNL     1      -2.716   3.346  -8.467  1.00  0.00     0.031 A 
ATOM     46  C   UNL     1      -3.997   3.348  -9.200  1.00  0.00     0.074 A 
ATOM     47  C   UNL     1      -1.884   4.411  -8.380  1.00  0.00     0.049 A 
ATOM     48  N   UNL     1      -4.278   4.128 -10.178  1.00  0.00    -0.248 NA
ATOM     49  C   UNL     1      -5.081   2.418  -8.874  1.00  0.00     0.031 C 
ATOM     50  C   UNL     1      -2.168   5.774  -8.811  1.00  0.00     0.029 A 
ATOM     51  N   UNL     1      -0.536   4.476  -7.991  1.00  0.00    -0.354 N 
ATOM     52  C   UNL     1      -5.640   4.035 -10.391  1.00  0.00     0.074 A 
ATOM     53  C   UNL     1      -6.071   2.888  -9.635  1.00  0.00     0.031 C 
ATOM     54  C   UNL     1      -1.008   6.438  -8.948  1.00  0.00     0.029 A 
ATOM     55  C   UNL     1       0.048   5.450  -8.824  1.00  0.00     0.049 A 
ATOM     56  H   UNL     1      -0.094   3.951  -7.285  1.00  0.00     0.167 HD
ATOM     57  C   UNL     1      -6.261   5.060 -11.036  1.00  0.00     0.034 A 
ATOM     58  C   UNL     1       0.965   5.177  -9.807  1.00  0.00     0.034 A 
ATOM     59  C   UNL     1      -5.260   6.043 -11.475  1.00  0.00     0.049 A 
ATOM     60  C   UNL     1       0.477   5.582 -11.197  1.00  0.00     0.074 A 
ATOM     61  C   UNL     1      -4.783   7.210 -10.899  1.00  0.00     0.029 A 
ATOM     62  N   UNL     1      -4.337   5.681 -12.449  1.00  0.00    -0.354 N 
ATOM     63  N   UNL     1      -0.767   5.865 -11.478  1.00  0.00    -0.248 NA
ATOM     64  C   UNL     1       1.339   5.715 -12.370  1.00  0.00     0.031 C 
ATOM     65  C   UNL     1      -3.523   7.505 -11.488  1.00  0.00     0.029 A 
ATOM     66  C   UNL     1      -3.248   6.540 -12.442  1.00  0.00     0.049 A 
ATOM     67  H   UNL     1      -4.442   4.917 -13.061  1.00  0.00     0.167 HD
ATOM     68  C   UNL     1      -0.913   6.137 -12.813  1.00  0.00     0.074 A 
ATOM     69  C   UNL     1       0.453   6.086 -13.315  1.00  0.00     0.031 C 
ATOM     70  C   UNL     1      -2.145   6.344 -13.382  1.00  0.00     0.034 A 
BRANCH  57  71
ATOM     71  C   UNL     1      -7.751   5.358 -10.972  1.00  0.00     0.023 A 
ATOM     72  C   UNL     1      -8.133   6.705 -11.168  1.00  0.00     0.012 A 
ATOM     73  C   UNL     1      -8.802   4.455 -10.684  1.00  0.00     0.148 A 
ATOM     74  C   UNL     1      -9.447   7.153 -11.004  1.00  0.00     0.002 A 
ATOM     75  C   UNL     1     -10.111   4.908 -10.470  1.00  0.00     0.091 A 
ATOM     76  F   UNL     1      -8.570   3.139 -10.685  1.00  0.00    -0.205 F 
ATOM     77  C   UNL     1     -10.433   6.259 -10.625  1.00  0.00     0.022 A 
BRANCH  75  78
ATOM     78  S   UNL     1     -11.447   3.828  -9.920  1.00  0.00     0.127 S 
ATOM     79  O   UNL     1     -11.986   4.562  -8.773  1.00  0.00    -0.237 OA
ATOM     80  O   UNL     1     -12.328   3.798 -11.086  1.00  0.00    -0.237 OA
ATOM     81  O   UNL     1     -10.824   2.557  -9.570  1.00  0.00    -0.744 OA
ENDBRANCH  75  78
ENDBRANCH  57  71
BRANCH  58  82
ATOM     82  C   UNL     1       1.835   4.003  -9.497  1.00  0.00     0.023 A 
ATOM     83  C   UNL     1       2.629   4.103  -8.328  1.00  0.00     0.012 A 
ATOM     84  C   UNL     1       1.547   2.731 -10.015  1.00  0.00     0.148 A 
ATOM     85  C   UNL     1       2.917   2.970  -7.566  1.00  0.00     0.002 A 
ATOM     86  C   UNL     1       1.854   1.602  -9.257  1.00  0.00     0.091 A 
ATOM     87  F   UNL     1       0.925   2.642 -11.198  1.00  0.00    -0.205 F 
ATOM     88  C   UNL     1       2.477   1.726  -8.003  1.00  0.00     0.022 A 
BRANCH  86  89
ATOM     89  S   UNL     1       1.352  -0.042  -9.783  1.00  0.00     0.127 S 
ATOM     90  O   UNL     1       2.544  -0.500 -10.490  1.00  0.00    -0.237 OA
ATOM     91  O   UNL     1       1.099  -0.717  -8.512  1.00  0.00    -0.237 OA
ATOM     92  O   UNL     1       0.163   0.175 -10.593  1.00  0.00    -0.744 OA
ENDBRANCH  86  89
ENDBRANCH  58  82
BRANCH  70  93
ATOM     93  C   UNL     1      -2.455   6.401 -14.876  1.00  0.00     0.023 A 
ATOM     94  C   UNL     1      -1.540   5.979 -15.857  1.00  0.00     0.012 A 
ATOM     95  C   UNL     1      -3.750   6.763 -15.346  1.00  0.00     0.148 A 
ATOM     96  C   UNL     1      -1.856   5.977 -17.221  1.00  0.00     0.002 A 
ATOM     97  C   UNL     1      -4.102   6.628 -16.686  1.00  0.00     0.091 A 
ATOM     98  F   UNL     1      -4.656   7.277 -14.503  1.00  0.00    -0.205 F 
ATOM     99  C   UNL     1      -3.145   6.275 -17.635  1.00  0.00     0.022 A 
BRANCH  97 100
ATOM    100  S   UNL     1      -5.815   6.743 -17.226  1.00  0.00     0.127 S 
ATOM    101  O   UNL     1      -5.866   8.096 -17.775  1.00  0.00    -0.237 OA
ATOM    102  O   UNL     1      -5.894   5.676 -18.225  1.00  0.00    -0.237 OA
ATOM    103  O   UNL     1      -6.614   6.504 -16.032  1.00  0.00    -0.744 OA
ENDBRANCH  97 100
ENDBRANCH  70  93
ENDBRANCH  44  45
ENDBRANCH  36  39
ENDBRANCH  34  35
ENDBRANCH   1  34
TORSDOF 16
