REMARK SMILES CCOc1c(Br)cc(CNc2cccc(C(=O)NCCCNC(=O)c3ccc(-c4c5nc(c(-c6cccc(S(=O)(=O)[O-])c6F)c6ccc([nH]6)c(-c6cccc(S(=O)(=O)[O-])c6F)c6nc(c(-c7cccc(S(=O)(=O)[O-])c7F)c7ccc4[nH]7)C=C6)C=C5)cc3)c2C)cc1OC
REMARK SMILES IDX 19 1 18 2 16 3 17 4 15 6 11 7 12 8 88 9 13 10 89 11 14 12
REMARK SMILES IDX 10 13 9 15 8 16 4 17 5 18 91 19 6 20 7 21 90 22 3 23 2 24
REMARK SMILES IDX 1 25 92 26 93 27 20 28 21 29 22 30 23 31 24 33 25 34 26 35
REMARK SMILES IDX 87 36 27 37 86 38 28 39 29 40 30 41 80 42 31 43 85 44 79 45
REMARK SMILES IDX 81 46 32 47 84 48 78 49 77 50 33 52 65 53 45 54 64 55 46 56
REMARK SMILES IDX 49 57 63 58 82 59 47 60 48 61 62 63 83 64 50 65 34 66 35 67
REMARK SMILES IDX 43 68 36 69 38 70 44 71 37 72 39 73 40 74 41 75 42 76 66 77
REMARK SMILES IDX 67 78 75 79 68 80 70 81 76 82 69 83 71 84 72 85 73 86 74 87
REMARK SMILES IDX 51 88 52 89 60 90 53 91 55 92 61 93 54 94 56 95 57 96 58 97
REMARK SMILES IDX 59 98
REMARK H PARENT 18 5 10 14 22 32 81 51 49 62
REMARK Flexibility Score: inf
ROOT
ATOM      1  C   UNL     1      10.643  -3.283  -0.823  1.00  0.00     0.118 C 
ENDROOT
BRANCH   1   2
ATOM      2  N   UNL     1       9.823  -2.969   0.334  1.00  0.00    -0.352 N 
ATOM      3  C   UNL     1       9.225  -1.823   0.809  1.00  0.00     0.251 C 
ATOM      4  O   UNL     1       8.746  -1.930   1.938  1.00  0.00    -0.269 OA
ATOM      5  H   UNL     1       9.658  -3.751   0.908  1.00  0.00     0.163 HD
BRANCH   3   6
ATOM      6  C   UNL     1       9.148  -0.504   0.070  1.00  0.00     0.044 A 
ATOM      7  C   UNL     1       8.200   1.747  -0.292  1.00  0.00     0.038 A 
ATOM      8  C   UNL     1       9.158   1.984  -1.284  1.00  0.00     0.026 A 
ATOM      9  C   UNL     1       8.188   0.497   0.402  1.00  0.00    -0.015 A 
ATOM     10  C   UNL     1      10.089   1.022  -1.610  1.00  0.00     0.003 A 
ATOM     11  C   UNL     1       7.111   0.317   1.452  1.00  0.00     0.047 C 
ATOM     12  C   UNL     1      10.071  -0.197  -0.942  1.00  0.00     0.014 A 
BRANCH   7  13
ATOM     13  N   UNL     1       7.230   2.716  -0.048  1.00  0.00    -0.381 N 
ATOM     14  H   UNL     1       7.001   2.949   0.880  1.00  0.00     0.160 HD
BRANCH  13  15
ATOM     15  C   UNL     1       6.552   3.386  -1.140  1.00  0.00     0.149 C 
BRANCH  15  16
ATOM     16  C   UNL     1       5.096   2.995  -1.126  1.00  0.00    -0.024 A 
ATOM     17  C   UNL     1       2.379   2.239  -1.014  1.00  0.00     0.175 A 
ATOM     18  C   UNL     1       3.357   1.344  -1.486  1.00  0.00     0.064 A 
ATOM     19  C   UNL     1       2.757   3.547  -0.671  1.00  0.00     0.162 A 
ATOM     20  Br  UNL     1       2.924  -0.382  -2.154  1.00  0.00    -0.047 Br
ATOM     21  C   UNL     1       4.704   1.710  -1.516  1.00  0.00     0.025 A 
ATOM     22  C   UNL     1       4.115   3.901  -0.715  1.00  0.00     0.056 A 
BRANCH  17  23
ATOM     23  O   UNL     1       1.075   1.815  -0.965  1.00  0.00    -0.489 OA
BRANCH  23  24
ATOM     24  C   UNL     1       0.672   1.444   0.363  1.00  0.00     0.226 C 
ATOM     25  C   UNL     1       0.640  -0.065   0.529  1.00  0.00     0.049 C 
ENDBRANCH  23  24
ENDBRANCH  17  23
BRANCH  19  26
ATOM     26  O   UNL     1       1.976   4.594  -0.263  1.00  0.00    -0.493 OA
ATOM     27  C   UNL     1       0.586   4.564  -0.539  1.00  0.00     0.278 C 
ENDBRANCH  19  26
ENDBRANCH  15  16
ENDBRANCH  13  15
ENDBRANCH   7  13
ENDBRANCH   3   6
ENDBRANCH   1   2
BRANCH   1  28
ATOM     28  C   UNL     1      12.086  -2.822  -0.610  1.00  0.00     0.042 C 
BRANCH  28  29
ATOM     29  C   UNL     1      12.935  -3.815   0.157  1.00  0.00     0.118 C 
BRANCH  29  30
ATOM     30  N   UNL     1      13.745  -4.651  -0.711  1.00  0.00    -0.352 N 
ATOM     31  C   UNL     1      14.714  -5.576  -0.386  1.00  0.00     0.251 C 
ATOM     32  H   UNL     1      13.577  -4.540  -1.675  1.00  0.00     0.163 HD
ATOM     33  O   UNL     1      15.426  -6.013  -1.290  1.00  0.00    -0.269 OA
BRANCH  31  34
ATOM     34  C   UNL     1      14.775  -6.145   0.983  1.00  0.00     0.039 A 
ATOM     35  C   UNL     1      14.922  -7.535   1.089  1.00  0.00     0.014 A 
ATOM     36  C   UNL     1      14.432  -5.398   2.106  1.00  0.00     0.014 A 
ATOM     37  C   UNL     1      14.443  -8.194   2.216  1.00  0.00     0.010 A 
ATOM     38  C   UNL     1      13.878  -6.046   3.185  1.00  0.00     0.010 A 
ATOM     39  C   UNL     1      13.802  -7.442   3.190  1.00  0.00    -0.014 A 
BRANCH  39  40
ATOM     40  C   UNL     1      12.949  -7.980   4.232  1.00  0.00     0.031 A 
ATOM     41  C   UNL     1      13.482  -8.201   5.582  1.00  0.00     0.074 A 
ATOM     42  C   UNL     1      11.616  -7.960   4.010  1.00  0.00     0.049 A 
ATOM     43  N   UNL     1      12.806  -8.735   6.538  1.00  0.00    -0.248 NA
ATOM     44  C   UNL     1      14.851  -7.866   5.948  1.00  0.00     0.031 C 
ATOM     45  C   UNL     1      10.549  -7.913   5.000  1.00  0.00     0.029 A 
ATOM     46  N   UNL     1      10.949  -8.184   2.801  1.00  0.00    -0.354 N 
ATOM     47  C   UNL     1      13.504  -8.505   7.700  1.00  0.00     0.074 A 
ATOM     48  C   UNL     1      14.821  -8.117   7.260  1.00  0.00     0.031 C 
ATOM     49  C   UNL     1       9.419  -8.366   4.435  1.00  0.00     0.029 A 
ATOM     50  C   UNL     1       9.787  -8.905   3.138  1.00  0.00     0.049 A 
ATOM     51  H   UNL     1      11.233  -7.899   1.903  1.00  0.00     0.167 HD
ATOM     52  C   UNL     1      12.811  -8.516   8.875  1.00  0.00     0.034 A 
ATOM     53  C   UNL     1       9.563 -10.189   2.727  1.00  0.00     0.034 A 
ATOM     54  C   UNL     1      11.455  -9.073   8.680  1.00  0.00     0.049 A 
ATOM     55  C   UNL     1       9.412 -11.181   3.877  1.00  0.00     0.074 A 
ATOM     56  C   UNL     1      10.168  -8.563   8.655  1.00  0.00     0.029 A 
ATOM     57  N   UNL     1      11.350 -10.369   8.199  1.00  0.00    -0.354 N 
ATOM     58  N   UNL     1       9.392 -10.873   5.146  1.00  0.00    -0.248 NA
ATOM     59  C   UNL     1       9.382 -12.628   3.663  1.00  0.00     0.031 C 
ATOM     60  C   UNL     1       9.301  -9.564   8.110  1.00  0.00     0.029 A 
ATOM     61  C   UNL     1      10.054 -10.693   7.837  1.00  0.00     0.049 A 
ATOM     62  H   UNL     1      12.111 -10.989   8.124  1.00  0.00     0.167 HD
ATOM     63  C   UNL     1       9.554 -12.015   5.894  1.00  0.00     0.074 A 
ATOM     64  C   UNL     1       9.493 -13.091   4.918  1.00  0.00     0.031 C 
ATOM     65  C   UNL     1       9.815 -12.005   7.241  1.00  0.00     0.034 A 
BRANCH  52  66
ATOM     66  C   UNL     1      13.248  -7.851  10.177  1.00  0.00     0.023 A 
ATOM     67  C   UNL     1      12.297  -7.799  11.222  1.00  0.00     0.012 A 
ATOM     68  C   UNL     1      14.472  -7.185  10.439  1.00  0.00     0.148 A 
ATOM     69  C   UNL     1      12.514  -7.090  12.412  1.00  0.00     0.002 A 
ATOM     70  C   UNL     1      14.696  -6.479  11.625  1.00  0.00     0.091 A 
ATOM     71  F   UNL     1      15.456  -7.202   9.546  1.00  0.00    -0.205 F 
ATOM     72  C   UNL     1      13.711  -6.420  12.611  1.00  0.00     0.022 A 
BRANCH  70  73
ATOM     73  S   UNL     1      16.224  -5.572  11.942  1.00  0.00     0.127 S 
ATOM     74  O   UNL     1      15.734  -4.205  12.128  1.00  0.00    -0.237 OA
ATOM     75  O   UNL     1      16.719  -6.211  13.160  1.00  0.00    -0.237 OA
ATOM     76  O   UNL     1      17.071  -5.753  10.769  1.00  0.00    -0.744 OA
ENDBRANCH  70  73
ENDBRANCH  52  66
BRANCH  53  77
ATOM     77  C   UNL     1      10.209 -10.501   1.414  1.00  0.00     0.023 A 
ATOM     78  C   UNL     1       9.758  -9.781   0.282  1.00  0.00     0.012 A 
ATOM     79  C   UNL     1      11.461 -11.139   1.358  1.00  0.00     0.148 A 
ATOM     80  C   UNL     1      10.594  -9.586  -0.819  1.00  0.00     0.002 A 
ATOM     81  C   UNL     1      12.286 -10.943   0.253  1.00  0.00     0.091 A 
ATOM     82  F   UNL     1      11.869 -11.851   2.415  1.00  0.00    -0.205 F 
ATOM     83  C   UNL     1      11.871 -10.135  -0.817  1.00  0.00     0.022 A 
BRANCH  81  84
ATOM     84  S   UNL     1      13.961 -11.594   0.219  1.00  0.00     0.127 S 
ATOM     85  O   UNL     1      13.772 -12.846  -0.505  1.00  0.00    -0.237 OA
ATOM     86  O   UNL     1      14.686 -10.557  -0.516  1.00  0.00    -0.237 OA
ATOM     87  O   UNL     1      14.345 -11.706   1.618  1.00  0.00    -0.744 OA
ENDBRANCH  81  84
ENDBRANCH  53  77
BRANCH  65  88
ATOM     88  C   UNL     1       9.929 -13.267   8.089  1.00  0.00     0.023 A 
ATOM     89  C   UNL     1       9.160 -14.410   7.786  1.00  0.00     0.012 A 
ATOM     90  C   UNL     1      10.702 -13.330   9.280  1.00  0.00     0.148 A 
ATOM     91  C   UNL     1       9.235 -15.582   8.548  1.00  0.00     0.002 A 
ATOM     92  C   UNL     1      10.716 -14.470  10.080  1.00  0.00     0.091 A 
ATOM     93  F   UNL     1      11.447 -12.285   9.650  1.00  0.00    -0.205 F 
ATOM     94  C   UNL     1      10.011 -15.612   9.697  1.00  0.00     0.022 A 
BRANCH  92  95
ATOM     95  S   UNL     1      11.552 -14.531  11.674  1.00  0.00     0.127 S 
ATOM     96  O   UNL     1      10.442 -14.845  12.575  1.00  0.00    -0.237 OA
ATOM     97  O   UNL     1      12.501 -15.626  11.472  1.00  0.00    -0.237 OA
ATOM     98  O   UNL     1      12.149 -13.220  11.877  1.00  0.00    -0.744 OA
ENDBRANCH  92  95
ENDBRANCH  65  88
ENDBRANCH  39  40
ENDBRANCH  31  34
ENDBRANCH  29  30
ENDBRANCH  28  29
ENDBRANCH   1  28
TORSDOF 19
