REMARK SMILES CCNC(=O)c1ccc(NC(=O)CC2(C(=O)NCCCNC(=O)c3ccc(-c4c5nc(c(-c6cccc(S(=O)(=O)[O-])c6F)c6ccc([nH]6)c(-c6cccc(S(=O)(=O)[O-])c6F)c6nc(c(-c7cccc(S(=O)(=O)[O-])c7F)c7ccc4[nH]7)C=C6)C=C5)cc3)CCCC2)cc1
REMARK SMILES IDX 18 1 17 2 15 3 16 4 14 6 87 7 90 8 88 9 89 10 13 11 11 12
REMARK SMILES IDX 10 13 12 15 9 16 6 17 7 18 92 19 8 20 91 21 4 22 3 23 5 25
REMARK SMILES IDX 2 26 1 27 19 28 20 29 21 30 22 31 23 33 24 34 25 35 86 36
REMARK SMILES IDX 26 37 85 38 27 39 28 40 29 41 79 42 30 43 84 44 78 45 80 46
REMARK SMILES IDX 31 47 83 48 77 49 76 50 32 52 64 53 44 54 63 55 45 56 48 57
REMARK SMILES IDX 62 58 81 59 46 60 47 61 61 63 82 64 49 65 33 66 34 67 42 68
REMARK SMILES IDX 35 69 37 70 43 71 36 72 38 73 39 74 40 75 41 76 65 77 66 78
REMARK SMILES IDX 74 79 67 80 69 81 75 82 68 83 70 84 71 85 72 86 73 87 50 88
REMARK SMILES IDX 51 89 59 90 52 91 54 92 60 93 53 94 55 95 56 96 57 97 58 98
REMARK H PARENT 17 5 10 14 3 24 21 32 80 51 48 62
REMARK Flexibility Score: inf
ROOT
ATOM      1  C   UNL     1      -5.330   2.623   7.902  1.00  0.00     0.117 C 
ENDROOT
BRANCH   1   2
ATOM      2  N   UNL     1      -6.467   2.901   7.054  1.00  0.00    -0.356 N 
ATOM      3  C   UNL     1      -6.614   2.859   5.700  1.00  0.00     0.226 C 
ATOM      4  O   UNL     1      -7.759   3.062   5.288  1.00  0.00    -0.274 OA
ATOM      5  H   UNL     1      -7.280   3.167   7.541  1.00  0.00     0.163 HD
BRANCH   3   6
ATOM      6  C   UNL     1      -5.419   2.606   4.739  1.00  0.00     0.058 C 
ATOM      7  C   UNL     1      -4.653   1.333   5.154  1.00  0.00     0.017 C 
ATOM      8  C   UNL     1      -4.407   3.777   4.884  1.00  0.00     0.017 C 
ATOM      9  C   UNL     1      -3.203   1.714   5.449  1.00  0.00     0.001 C 
ATOM     10  C   UNL     1      -3.090   3.226   5.410  1.00  0.00     0.001 C 
BRANCH   6  11
ATOM     11  C   UNL     1      -5.964   2.628   3.267  1.00  0.00     0.117 C 
BRANCH  11  12
ATOM     12  C   UNL     1      -6.328   1.308   2.607  1.00  0.00     0.225 C 
ATOM     13  N   UNL     1      -5.391   0.476   2.053  1.00  0.00    -0.326 N 
ATOM     14  H   UNL     1      -5.764  -0.312   1.597  1.00  0.00     0.169 HD
ATOM     15  O   UNL     1      -7.498   0.912   2.593  1.00  0.00    -0.275 OA
BRANCH  13  16
ATOM     16  C   UNL     1      -3.990   0.558   2.025  1.00  0.00     0.041 A 
ATOM     17  C   UNL     1      -1.244   0.623   2.500  1.00  0.00     0.039 A 
ATOM     18  C   UNL     1      -1.901   1.783   2.093  1.00  0.00     0.016 A 
ATOM     19  C   UNL     1      -1.936  -0.586   2.610  1.00  0.00     0.016 A 
ATOM     20  C   UNL     1      -3.275   1.743   1.841  1.00  0.00     0.027 A 
ATOM     21  C   UNL     1      -3.301  -0.624   2.331  1.00  0.00     0.027 A 
BRANCH  17  22
ATOM     22  C   UNL     1       0.158   0.712   2.944  1.00  0.00     0.251 C 
ATOM     23  N   UNL     1       1.109  -0.018   2.285  1.00  0.00    -0.352 N 
ATOM     24  H   UNL     1       1.997  -0.056   2.709  1.00  0.00     0.163 HD
ATOM     25  O   UNL     1       0.449   1.431   3.892  1.00  0.00    -0.269 OA
BRANCH  23  26
ATOM     26  C   UNL     1       0.966  -0.742   1.038  1.00  0.00     0.112 C 
ATOM     27  C   UNL     1       1.352   0.130  -0.140  1.00  0.00     0.027 C 
ENDBRANCH  23  26
ENDBRANCH  17  22
ENDBRANCH  13  16
ENDBRANCH  11  12
ENDBRANCH   6  11
ENDBRANCH   3   6
ENDBRANCH   1   2
BRANCH   1  28
ATOM     28  C   UNL     1      -4.875   3.819   8.704  1.00  0.00     0.042 C 
BRANCH  28  29
ATOM     29  C   UNL     1      -5.718   4.007   9.943  1.00  0.00     0.118 C 
BRANCH  29  30
ATOM     30  N   UNL     1      -5.630   2.855  10.840  1.00  0.00    -0.352 N 
ATOM     31  C   UNL     1      -5.119   2.762  12.108  1.00  0.00     0.251 C 
ATOM     32  H   UNL     1      -5.995   2.016  10.476  1.00  0.00     0.163 HD
ATOM     33  O   UNL     1      -4.899   1.658  12.598  1.00  0.00    -0.269 OA
BRANCH  31  34
ATOM     34  C   UNL     1      -4.845   3.993  12.870  1.00  0.00     0.039 A 
ATOM     35  C   UNL     1      -3.750   4.041  13.733  1.00  0.00     0.014 A 
ATOM     36  C   UNL     1      -5.683   5.101  12.731  1.00  0.00     0.014 A 
ATOM     37  C   UNL     1      -3.484   5.220  14.428  1.00  0.00     0.010 A 
ATOM     38  C   UNL     1      -5.327   6.310  13.296  1.00  0.00     0.010 A 
ATOM     39  C   UNL     1      -4.259   6.369  14.195  1.00  0.00    -0.014 A 
BRANCH  39  40
ATOM     40  C   UNL     1      -4.018   7.629  14.931  1.00  0.00     0.031 A 
ATOM     41  C   UNL     1      -5.116   8.215  15.781  1.00  0.00     0.074 A 
ATOM     42  C   UNL     1      -2.848   8.274  14.775  1.00  0.00     0.049 A 
ATOM     43  N   UNL     1      -5.115   9.319  16.480  1.00  0.00    -0.248 NA
ATOM     44  C   UNL     1      -6.402   7.492  15.819  1.00  0.00     0.031 C 
ATOM     45  C   UNL     1      -1.756   7.853  13.892  1.00  0.00     0.029 A 
ATOM     46  N   UNL     1      -2.387   9.431  15.344  1.00  0.00    -0.354 N 
ATOM     47  C   UNL     1      -6.400   9.441  16.997  1.00  0.00     0.074 A 
ATOM     48  C   UNL     1      -7.174   8.336  16.484  1.00  0.00     0.031 C 
ATOM     49  C   UNL     1      -0.741   8.724  14.002  1.00  0.00     0.029 A 
ATOM     50  C   UNL     1      -1.120   9.777  14.938  1.00  0.00     0.049 A 
ATOM     51  H   UNL     1      -2.912   9.965  15.983  1.00  0.00     0.167 HD
ATOM     52  C   UNL     1      -6.883  10.364  17.860  1.00  0.00     0.034 A 
ATOM     53  C   UNL     1      -0.351  10.823  15.292  1.00  0.00     0.034 A 
ATOM     54  C   UNL     1      -6.085  11.420  18.415  1.00  0.00     0.049 A 
ATOM     55  C   UNL     1      -0.882  11.789  16.316  1.00  0.00     0.074 A 
ATOM     56  C   UNL     1      -6.434  12.353  19.373  1.00  0.00     0.029 A 
ATOM     57  N   UNL     1      -4.770  11.682  18.058  1.00  0.00    -0.354 N 
ATOM     58  N   UNL     1      -2.044  11.794  16.924  1.00  0.00    -0.248 NA
ATOM     59  C   UNL     1       0.021  12.868  16.736  1.00  0.00     0.031 C 
ATOM     60  C   UNL     1      -5.336  13.195  19.579  1.00  0.00     0.029 A 
ATOM     61  C   UNL     1      -4.294  12.766  18.772  1.00  0.00     0.049 A 
ATOM     62  H   UNL     1      -4.253  11.171  17.395  1.00  0.00     0.167 HD
ATOM     63  C   UNL     1      -2.001  12.854  17.821  1.00  0.00     0.074 A 
ATOM     64  C   UNL     1      -0.684  13.447  17.697  1.00  0.00     0.031 C 
ATOM     65  C   UNL     1      -2.965  13.310  18.660  1.00  0.00     0.034 A 
BRANCH  52  66
ATOM     66  C   UNL     1      -8.318  10.228  18.299  1.00  0.00     0.023 A 
ATOM     67  C   UNL     1      -8.698   9.148  19.125  1.00  0.00     0.012 A 
ATOM     68  C   UNL     1      -9.284  11.182  17.926  1.00  0.00     0.148 A 
ATOM     69  C   UNL     1     -10.021   8.997  19.537  1.00  0.00     0.002 A 
ATOM     70  C   UNL     1     -10.591  11.052  18.383  1.00  0.00     0.091 A 
ATOM     71  F   UNL     1      -8.912  12.187  17.120  1.00  0.00    -0.205 F 
ATOM     72  C   UNL     1     -10.964   9.954  19.175  1.00  0.00     0.022 A 
BRANCH  70  73
ATOM     73  S   UNL     1     -11.862  12.274  18.043  1.00  0.00     0.127 S 
ATOM     74  O   UNL     1     -12.744  11.539  17.138  1.00  0.00    -0.237 OA
ATOM     75  O   UNL     1     -12.418  12.514  19.375  1.00  0.00    -0.237 OA
ATOM     76  O   UNL     1     -11.176  13.416  17.455  1.00  0.00    -0.744 OA
ENDBRANCH  70  73
ENDBRANCH  52  66
BRANCH  53  77
ATOM     77  C   UNL     1       1.026  10.957  14.741  1.00  0.00     0.023 A 
ATOM     78  C   UNL     1       2.133  10.750  15.588  1.00  0.00     0.012 A 
ATOM     79  C   UNL     1       1.246  11.257  13.384  1.00  0.00     0.148 A 
ATOM     80  C   UNL     1       3.434  10.878  15.101  1.00  0.00     0.002 A 
ATOM     81  C   UNL     1       2.544  11.327  12.893  1.00  0.00     0.091 A 
ATOM     82  F   UNL     1       0.179  11.455  12.596  1.00  0.00    -0.205 F 
ATOM     83  C   UNL     1       3.640  11.157  13.753  1.00  0.00     0.022 A 
BRANCH  81  84
ATOM     84  S   UNL     1       2.902  11.552  11.147  1.00  0.00     0.127 S 
ATOM     85  O   UNL     1       3.439  12.910  11.124  1.00  0.00    -0.237 OA
ATOM     86  O   UNL     1       3.885  10.496  10.902  1.00  0.00    -0.237 OA
ATOM     87  O   UNL     1       1.633  11.361  10.458  1.00  0.00    -0.744 OA
ENDBRANCH  81  84
ENDBRANCH  53  77
BRANCH  65  88
ATOM     88  C   UNL     1      -2.619  14.489  19.529  1.00  0.00     0.023 A 
ATOM     89  C   UNL     1      -2.465  15.765  18.951  1.00  0.00     0.012 A 
ATOM     90  C   UNL     1      -2.495  14.341  20.924  1.00  0.00     0.148 A 
ATOM     91  C   UNL     1      -2.145  16.866  19.743  1.00  0.00     0.002 A 
ATOM     92  C   UNL     1      -2.232  15.453  21.713  1.00  0.00     0.091 A 
ATOM     93  F   UNL     1      -2.628  13.116  21.453  1.00  0.00    -0.205 F 
ATOM     94  C   UNL     1      -2.040  16.713  21.123  1.00  0.00     0.022 A 
BRANCH  92  95
ATOM     95  S   UNL     1      -2.182  15.363  23.506  1.00  0.00     0.127 S 
ATOM     96  O   UNL     1      -0.746  15.428  23.767  1.00  0.00    -0.237 OA
ATOM     97  O   UNL     1      -2.929  16.559  23.898  1.00  0.00    -0.237 OA
ATOM     98  O   UNL     1      -2.830  14.107  23.860  1.00  0.00    -0.744 OA
ENDBRANCH  92  95
ENDBRANCH  65  88
ENDBRANCH  39  40
ENDBRANCH  31  34
ENDBRANCH  29  30
ENDBRANCH  28  29
ENDBRANCH   1  28
TORSDOF 18
