REMARK SMILES CCOc1cccc(C(=O)Nc2ccc(Cl)c(C(=O)NCCCNC(=O)c3ccc(-c4c5nc(c(-c6cccc(S(=O)(=O)[O-])c6F)c6ccc([nH]6)c(-c6cccc(S(=O)(=O)[O-])c6F)c6nc(c(-c7cccc(S(=O)(=O)[O-])c7F)c7ccc4[nH]7)C=C6)C=C5)cc3)c2)c1
REMARK SMILES IDX 21 1 20 2 18 3 19 4 17 6 12 7 13 8 90 9 14 10 15 11 16 12
REMARK SMILES IDX 11 13 9 14 10 15 8 17 4 18 5 19 91 20 6 21 7 22 3 23 2 24
REMARK SMILES IDX 1 25 22 26 23 27 24 28 25 29 26 31 27 32 28 33 89 34 29 35
REMARK SMILES IDX 88 36 30 37 31 38 32 39 82 40 33 41 87 42 81 43 83 44 34 45
REMARK SMILES IDX 86 46 80 47 79 48 35 50 67 51 47 52 66 53 48 54 51 55 65 56
REMARK SMILES IDX 84 57 49 58 50 59 64 61 85 62 52 63 36 64 37 65 45 66 38 67
REMARK SMILES IDX 40 68 46 69 39 70 41 71 42 72 43 73 44 74 68 75 69 76 77 77
REMARK SMILES IDX 70 78 72 79 78 80 71 81 73 82 74 83 75 84 76 85 53 86 54 87
REMARK SMILES IDX 62 88 55 89 57 90 63 91 56 92 58 93 59 94 60 95 61 96
REMARK H PARENT 20 5 11 16 24 30 83 49 51 60
REMARK Flexibility Score: inf
ROOT
ATOM      1  C   UNL     1       1.437  -3.652   0.852  1.00  0.00     0.118 C 
ENDROOT
BRANCH   1   2
ATOM      2  N   UNL     1       0.333  -3.023   1.545  1.00  0.00    -0.352 N 
ATOM      3  C   UNL     1       0.186  -1.831   2.209  1.00  0.00     0.252 C 
ATOM      4  O   UNL     1      -0.883  -1.690   2.801  1.00  0.00    -0.269 OA
ATOM      5  H   UNL     1      -0.488  -3.567   1.538  1.00  0.00     0.163 HD
BRANCH   3   6
ATOM      6  C   UNL     1       1.209  -0.733   2.213  1.00  0.00     0.060 A 
ATOM      7  C   UNL     1       3.502   0.061   1.877  1.00  0.00     0.042 A 
ATOM      8  C   UNL     1       3.112   1.365   2.156  1.00  0.00     0.028 A 
ATOM      9  C   UNL     1       2.580  -0.982   2.016  1.00  0.00     0.041 A 
ATOM     10  C   UNL     1       1.771   1.638   2.408  1.00  0.00     0.023 A 
ATOM     11  C   UNL     1       0.816   0.609   2.399  1.00  0.00     0.053 A 
ATOM     12  Cl  UNL     1      -0.825   1.147   2.544  1.00  0.00    -0.083 Cl
BRANCH   7  13
ATOM     13  N   UNL     1       4.816  -0.137   1.432  1.00  0.00    -0.322 N 
ATOM     14  C   UNL     1       5.344  -0.979   0.471  1.00  0.00     0.255 C 
ATOM     15  O   UNL     1       6.569  -1.108   0.421  1.00  0.00    -0.269 OA
ATOM     16  H   UNL     1       5.485   0.425   1.887  1.00  0.00     0.170 HD
BRANCH  14  17
ATOM     17  C   UNL     1       4.523  -1.647  -0.587  1.00  0.00     0.043 A 
ATOM     18  C   UNL     1       2.523  -1.897  -1.942  1.00  0.00     0.120 A 
ATOM     19  C   UNL     1       3.039  -3.071  -2.490  1.00  0.00     0.046 A 
ATOM     20  C   UNL     1       3.292  -1.151  -1.044  1.00  0.00     0.060 A 
ATOM     21  C   UNL     1       4.314  -3.508  -2.139  1.00  0.00     0.005 A 
ATOM     22  C   UNL     1       5.045  -2.809  -1.177  1.00  0.00     0.014 A 
BRANCH  18  23
ATOM     23  O   UNL     1       1.188  -1.690  -2.156  1.00  0.00    -0.494 OA
BRANCH  23  24
ATOM     24  C   UNL     1       0.758  -0.370  -2.478  1.00  0.00     0.226 C 
ATOM     25  C   UNL     1       0.305   0.417  -1.260  1.00  0.00     0.049 C 
ENDBRANCH  23  24
ENDBRANCH  18  23
ENDBRANCH  14  17
ENDBRANCH   7  13
ENDBRANCH   3   6
ENDBRANCH   1   2
BRANCH   1  26
ATOM     26  C   UNL     1       2.222  -4.564   1.786  1.00  0.00     0.042 C 
BRANCH  26  27
ATOM     27  C   UNL     1       1.569  -5.929   1.922  1.00  0.00     0.118 C 
BRANCH  27  28
ATOM     28  N   UNL     1       1.726  -6.719   0.707  1.00  0.00    -0.352 N 
ATOM     29  C   UNL     1       2.203  -7.993   0.556  1.00  0.00     0.251 C 
ATOM     30  H   UNL     1       1.450  -6.271  -0.126  1.00  0.00     0.163 HD
ATOM     31  O   UNL     1       2.465  -8.410  -0.576  1.00  0.00    -0.269 OA
BRANCH  29  32
ATOM     32  C   UNL     1       2.418  -8.856   1.736  1.00  0.00     0.039 A 
ATOM     33  C   UNL     1       3.531  -9.700   1.762  1.00  0.00     0.014 A 
ATOM     34  C   UNL     1       1.519  -8.851   2.807  1.00  0.00     0.014 A 
ATOM     35  C   UNL     1       3.759 -10.509   2.876  1.00  0.00     0.010 A 
ATOM     36  C   UNL     1       1.802  -9.582   3.955  1.00  0.00     0.010 A 
ATOM     37  C   UNL     1       2.908 -10.440   3.991  1.00  0.00    -0.014 A 
BRANCH  37  38
ATOM     38  C   UNL     1       3.151 -11.277   5.193  1.00  0.00     0.031 A 
ATOM     39  C   UNL     1       2.129 -12.296   5.626  1.00  0.00     0.074 A 
ATOM     40  C   UNL     1       4.261 -11.075   5.929  1.00  0.00     0.049 A 
ATOM     41  N   UNL     1       2.161 -13.112   6.647  1.00  0.00    -0.248 NA
ATOM     42  C   UNL     1       0.894 -12.389   4.828  1.00  0.00     0.031 C 
ATOM     43  C   UNL     1       5.276 -10.051   5.666  1.00  0.00     0.029 A 
ATOM     44  N   UNL     1       4.713 -11.707   7.058  1.00  0.00    -0.354 N 
ATOM     45  C   UNL     1       0.944 -13.784   6.636  1.00  0.00     0.074 A 
ATOM     46  C   UNL     1       0.176 -13.250   5.534  1.00  0.00     0.031 C 
ATOM     47  C   UNL     1       6.239 -10.138   6.597  1.00  0.00     0.029 A 
ATOM     48  C   UNL     1       5.902 -11.205   7.534  1.00  0.00     0.049 A 
ATOM     49  H   UNL     1       4.233 -12.451   7.489  1.00  0.00     0.167 HD
ATOM     50  C   UNL     1       0.517 -14.781   7.447  1.00  0.00     0.034 A 
ATOM     51  C   UNL     1       6.640 -11.569   8.600  1.00  0.00     0.034 A 
ATOM     52  C   UNL     1       1.307 -15.343   8.508  1.00  0.00     0.049 A 
ATOM     53  C   UNL     1       6.181 -12.733   9.435  1.00  0.00     0.074 A 
ATOM     54  C   UNL     1       1.008 -16.413   9.332  1.00  0.00     0.029 A 
ATOM     55  N   UNL     1       2.555 -14.878   8.893  1.00  0.00    -0.354 N 
ATOM     56  N   UNL     1       5.101 -13.466   9.308  1.00  0.00    -0.248 NA
ATOM     57  C   UNL     1       7.065 -13.152  10.531  1.00  0.00     0.031 C 
ATOM     58  C   UNL     1       2.070 -16.584  10.227  1.00  0.00     0.029 A 
ATOM     59  C   UNL     1       3.042 -15.639   9.941  1.00  0.00     0.049 A 
ATOM     60  H   UNL     1       3.027 -14.119   8.481  1.00  0.00     0.167 HD
ATOM     61  C   UNL     1       5.195 -14.456  10.279  1.00  0.00     0.074 A 
ATOM     62  C   UNL     1       6.450 -14.241  10.971  1.00  0.00     0.031 C 
ATOM     63  C   UNL     1       4.318 -15.445  10.581  1.00  0.00     0.034 A 
BRANCH  50  64
ATOM     64  C   UNL     1      -0.845 -15.369   7.176  1.00  0.00     0.023 A 
ATOM     65  C   UNL     1      -1.049 -16.149   6.019  1.00  0.00     0.012 A 
ATOM     66  C   UNL     1      -1.906 -15.195   8.086  1.00  0.00     0.148 A 
ATOM     67  C   UNL     1      -2.296 -16.713   5.751  1.00  0.00     0.002 A 
ATOM     68  C   UNL     1      -3.133 -15.802   7.836  1.00  0.00     0.091 A 
ATOM     69  F   UNL     1      -1.702 -14.433   9.170  1.00  0.00    -0.205 F 
ATOM     70  C   UNL     1      -3.333 -16.549   6.664  1.00  0.00     0.022 A 
BRANCH  68  71
ATOM     71  S   UNL     1      -4.507 -15.720   8.990  1.00  0.00     0.127 S 
ATOM     72  O   UNL     1      -5.440 -14.849   8.277  1.00  0.00    -0.237 OA
ATOM     73  O   UNL     1      -4.923 -17.122   9.071  1.00  0.00    -0.237 OA
ATOM     74  O   UNL     1      -3.963 -15.177  10.226  1.00  0.00    -0.744 OA
ENDBRANCH  68  71
ENDBRANCH  50  64
BRANCH  51  75
ATOM     75  C   UNL     1       7.933 -10.883   8.879  1.00  0.00     0.023 A 
ATOM     76  C   UNL     1       9.142 -11.575   8.670  1.00  0.00     0.012 A 
ATOM     77  C   UNL     1       7.974  -9.546   9.317  1.00  0.00     0.148 A 
ATOM     78  C   UNL     1      10.368 -10.961   8.927  1.00  0.00     0.002 A 
ATOM     79  C   UNL     1       9.200  -8.921   9.518  1.00  0.00     0.091 A 
ATOM     80  F   UNL     1       6.813  -8.907   9.518  1.00  0.00    -0.205 F 
ATOM     81  C   UNL     1      10.398  -9.632   9.341  1.00  0.00     0.022 A 
BRANCH  79  82
ATOM     82  S   UNL     1       9.334  -7.176   9.920  1.00  0.00     0.127 S 
ATOM     83  O   UNL     1       9.761  -7.223  11.318  1.00  0.00    -0.237 OA
ATOM     84  O   UNL     1      10.361  -6.726   8.979  1.00  0.00    -0.237 OA
ATOM     85  O   UNL     1       8.014  -6.615   9.678  1.00  0.00    -0.744 OA
ENDBRANCH  79  82
ENDBRANCH  51  75
BRANCH  63  86
ATOM     86  C   UNL     1       4.702 -16.402  11.678  1.00  0.00     0.023 A 
ATOM     87  C   UNL     1       4.708 -15.971  13.020  1.00  0.00     0.012 A 
ATOM     88  C   UNL     1       5.006 -17.745  11.382  1.00  0.00     0.148 A 
ATOM     89  C   UNL     1       5.052 -16.851  14.045  1.00  0.00     0.002 A 
ATOM     90  C   UNL     1       5.298 -18.629  12.414  1.00  0.00     0.091 A 
ATOM     91  F   UNL     1       5.016 -18.133  10.098  1.00  0.00    -0.205 F 
ATOM     92  C   UNL     1       5.336 -18.181  13.743  1.00  0.00     0.022 A 
BRANCH  90  93
ATOM     93  S   UNL     1       5.576 -20.379  12.120  1.00  0.00     0.127 S 
ATOM     94  O   UNL     1       7.031 -20.471  12.223  1.00  0.00    -0.237 OA
ATOM     95  O   UNL     1       4.847 -21.002  13.225  1.00  0.00    -0.237 OA
ATOM     96  O   UNL     1       5.018 -20.654  10.803  1.00  0.00    -0.744 OA
ENDBRANCH  90  93
ENDBRANCH  63  86
ENDBRANCH  37  38
ENDBRANCH  29  32
ENDBRANCH  27  28
ENDBRANCH  26  27
ENDBRANCH   1  26
TORSDOF 17
