REMARK SMILES CC1(C)CCCC[C@H]1[N@H+]1CCC[N@H+](CC(=O)NCCCNC(=O)c2ccc(-c3c4nc(c(-c5cccc(S(=O)(=O)[O-])c5F)c5ccc([nH]5)c(-c5cccc(S(=O)(=O)[O-])c5F)c5nc(c(-c6cccc(S(=O)(=O)[O-])c6F)c6ccc3[nH]6)C=C5)C=C4)cc2)CC1
REMARK SMILES IDX 18 1 17 2 15 3 16 4 14 6 13 7 87 9 88 10 9 11 8 13 1 14 2 15
REMARK SMILES IDX 3 16 4 17 5 18 7 19 6 20 10 21 12 23 11 24 19 26 20 27 21 28
REMARK SMILES IDX 22 29 23 31 24 32 25 33 86 34 26 35 85 36 27 37 28 38 29 39
REMARK SMILES IDX 79 40 30 41 84 42 78 43 80 44 31 45 83 46 77 47 76 48 32 50
REMARK SMILES IDX 64 51 44 52 63 53 45 54 48 55 62 56 81 57 46 58 47 59 61 61
REMARK SMILES IDX 82 62 49 63 33 64 34 65 42 66 35 67 37 68 43 69 36 70 38 71
REMARK SMILES IDX 39 72 40 73 41 74 65 75 66 76 74 77 67 78 69 79 75 80 68 81
REMARK SMILES IDX 70 82 71 83 72 84 73 85 50 86 51 87 59 88 52 89 54 90 60 91
REMARK SMILES IDX 53 92 55 93 56 94 57 95 58 96
REMARK H PARENT 17 5 13 8 9 12 21 30 80 49 48 60
REMARK Flexibility Score: 90.00
ROOT
ATOM      1  C   UNL     1       1.842  -1.396  -2.257  1.00  0.00     0.118 C 
ENDROOT
BRANCH   1   2
ATOM      2  N   UNL     1       2.270  -1.353  -0.877  1.00  0.00    -0.351 N 
ATOM      3  C   UNL     1       3.542  -1.130  -0.388  1.00  0.00     0.275 C 
ATOM      4  O   UNL     1       3.840  -0.082   0.189  1.00  0.00    -0.269 OA
ATOM      5  H   UNL     1       1.568  -1.500  -0.203  1.00  0.00     0.163 HD
BRANCH   3   6
ATOM      6  C   UNL     1       4.529  -2.284  -0.468  1.00  0.00     0.363 C 
BRANCH   6   7
ATOM      7  N   UNL     1       4.190  -3.428   0.396  1.00  0.00    -0.322 N 
ATOM      8  H   UNL     1       4.765  -4.130  -0.070  1.00  0.00     0.348 HD
BRANCH   7   9
ATOM      9  C   UNL     1       2.853  -3.990   0.266  1.00  0.00     0.324 C 
BRANCH   9  10
ATOM     10  C   UNL     1       1.647  -3.394   1.096  1.00  0.00     0.324 C 
BRANCH  10  11
ATOM     11  N   UNL     1       1.825  -2.113   1.835  1.00  0.00    -0.327 N 
ATOM     12  H   UNL     1       2.222  -1.468   1.153  1.00  0.00     0.348 HD
BRANCH  11  13
ATOM     13  C   UNL     1       0.563  -1.380   2.269  1.00  0.00     0.189 C 
ATOM     14  C   UNL     1       0.800   0.914   0.904  1.00  0.00     0.017 C 
ATOM     15  C   UNL     1       0.598   0.229   2.278  1.00  0.00     0.017 C 
ATOM     16  C   UNL     1       1.689   0.765   3.220  1.00  0.00     0.017 C 
ATOM     17  C   UNL     1      -0.764   0.767   2.816  1.00  0.00     0.012 C 
ATOM     18  C   UNL     1      -1.946   0.310   1.974  1.00  0.00     0.001 C 
ATOM     19  C   UNL     1      -0.709  -1.839   1.514  1.00  0.00     0.065 C 
ATOM     20  C   UNL     1      -2.013  -1.200   1.988  1.00  0.00     0.006 C 
ENDBRANCH  11  13
BRANCH  11  21
ATOM     21  C   UNL     1       2.752  -2.331   2.974  1.00  0.00     0.268 CG0
ATOM     22  G   UNL     1       3.749  -3.503   2.901  1.00  0.00     0.000 G0
ENDBRANCH  11  21
ENDBRANCH  10  11
ENDBRANCH   9  10
ENDBRANCH   7   9
BRANCH   7  23
ATOM     23  C   UNL     1       4.743  -3.449   1.739  1.00  0.00     0.268 C 
BRANCH  23  24
ATOM     24  C   UNL     1       3.749  -3.503   2.901  1.00  0.00     0.123 CG0
ATOM     25  G   UNL     1       2.752  -2.331   2.974  1.00  0.00     0.000 G0
ENDBRANCH  23  24
ENDBRANCH   7  23
ENDBRANCH   6   7
ENDBRANCH   3   6
ENDBRANCH   1   2
BRANCH   1  26
ATOM     26  C   UNL     1       0.942  -2.571  -2.694  1.00  0.00     0.042 C 
BRANCH  26  27
ATOM     27  C   UNL     1      -0.452  -2.843  -2.091  1.00  0.00     0.118 C 
BRANCH  27  28
ATOM     28  N   UNL     1      -1.390  -1.739  -2.062  1.00  0.00    -0.352 N 
ATOM     29  C   UNL     1      -2.750  -1.789  -1.820  1.00  0.00     0.251 C 
ATOM     30  H   UNL     1      -1.013  -0.846  -2.236  1.00  0.00     0.163 HD
ATOM     31  O   UNL     1      -3.412  -0.755  -1.870  1.00  0.00    -0.269 OA
BRANCH  29  32
ATOM     32  C   UNL     1      -3.443  -3.070  -1.514  1.00  0.00     0.039 A 
ATOM     33  C   UNL     1      -4.470  -3.506  -2.355  1.00  0.00     0.014 A 
ATOM     34  C   UNL     1      -3.177  -3.784  -0.343  1.00  0.00     0.014 A 
ATOM     35  C   UNL     1      -5.187  -4.672  -2.044  1.00  0.00     0.010 A 
ATOM     36  C   UNL     1      -3.894  -4.942  -0.025  1.00  0.00     0.010 A 
ATOM     37  C   UNL     1      -4.897  -5.407  -0.881  1.00  0.00    -0.014 A 
BRANCH  37  38
ATOM     38  C   UNL     1      -5.525  -6.731  -0.631  1.00  0.00     0.031 A 
ATOM     39  C   UNL     1      -6.524  -6.949   0.470  1.00  0.00     0.074 A 
ATOM     40  C   UNL     1      -5.093  -7.776  -1.365  1.00  0.00     0.049 A 
ATOM     41  N   UNL     1      -7.194  -8.034   0.768  1.00  0.00    -0.248 NA
ATOM     42  C   UNL     1      -6.790  -5.815   1.366  1.00  0.00     0.031 C 
ATOM     43  C   UNL     1      -4.038  -7.702  -2.379  1.00  0.00     0.029 A 
ATOM     44  N   UNL     1      -5.461  -9.096  -1.362  1.00  0.00    -0.354 N 
ATOM     45  C   UNL     1      -7.956  -7.721   1.889  1.00  0.00     0.074 A 
ATOM     46  C   UNL     1      -7.634  -6.352   2.239  1.00  0.00     0.031 C 
ATOM     47  C   UNL     1      -3.854  -8.920  -2.910  1.00  0.00     0.029 A 
ATOM     48  C   UNL     1      -4.765  -9.861  -2.269  1.00  0.00     0.049 A 
ATOM     49  H   UNL     1      -6.156  -9.461  -0.769  1.00  0.00     0.167 HD
ATOM     50  C   UNL     1      -8.854  -8.496   2.549  1.00  0.00     0.034 A 
ATOM     51  C   UNL     1      -4.858 -11.172  -2.561  1.00  0.00     0.034 A 
ATOM     52  C   UNL     1      -9.155  -9.859   2.187  1.00  0.00     0.049 A 
ATOM     53  C   UNL     1      -5.895 -11.998  -1.853  1.00  0.00     0.074 A 
ATOM     54  C   UNL     1     -10.108 -10.707   2.725  1.00  0.00     0.029 A 
ATOM     55  N   UNL     1      -8.488 -10.583   1.210  1.00  0.00    -0.354 N 
ATOM     56  N   UNL     1      -6.747 -11.631  -0.927  1.00  0.00    -0.248 NA
ATOM     57  C   UNL     1      -6.014 -13.404  -2.260  1.00  0.00     0.031 C 
ATOM     58  C   UNL     1      -9.992 -11.952   2.096  1.00  0.00     0.029 A 
ATOM     59  C   UNL     1      -8.994 -11.871   1.139  1.00  0.00     0.049 A 
ATOM     60  H   UNL     1      -7.759 -10.233   0.647  1.00  0.00     0.167 HD
ATOM     61  C   UNL     1      -7.529 -12.749  -0.664  1.00  0.00     0.074 A 
ATOM     62  C   UNL     1      -7.059 -13.800  -1.545  1.00  0.00     0.031 C 
ATOM     63  C   UNL     1      -8.537 -12.895   0.232  1.00  0.00     0.034 A 
BRANCH  50  64
ATOM     64  C   UNL     1      -9.611  -7.873   3.700  1.00  0.00     0.023 A 
ATOM     65  C   UNL     1     -10.551  -6.852   3.442  1.00  0.00     0.012 A 
ATOM     66  C   UNL     1      -9.438  -8.323   5.025  1.00  0.00     0.148 A 
ATOM     67  C   UNL     1     -11.264  -6.255   4.481  1.00  0.00     0.002 A 
ATOM     68  C   UNL     1     -10.187  -7.754   6.052  1.00  0.00     0.091 A 
ATOM     69  F   UNL     1      -8.538  -9.287   5.262  1.00  0.00    -0.205 F 
ATOM     70  C   UNL     1     -11.087  -6.710   5.784  1.00  0.00     0.022 A 
BRANCH  68  71
ATOM     71  S   UNL     1     -10.091  -8.321   7.755  1.00  0.00     0.127 S 
ATOM     72  O   UNL     1      -9.395  -7.206   8.398  1.00  0.00    -0.237 OA
ATOM     73  O   UNL     1     -11.504  -8.445   8.119  1.00  0.00    -0.237 OA
ATOM     74  O   UNL     1      -9.361  -9.578   7.720  1.00  0.00    -0.744 OA
ENDBRANCH  68  71
ENDBRANCH  50  64
BRANCH  51  75
ATOM     75  C   UNL     1      -4.009 -11.747  -3.642  1.00  0.00     0.023 A 
ATOM     76  C   UNL     1      -4.602 -12.112  -4.866  1.00  0.00     0.012 A 
ATOM     77  C   UNL     1      -2.615 -11.873  -3.489  1.00  0.00     0.148 A 
ATOM     78  C   UNL     1      -3.827 -12.617  -5.910  1.00  0.00     0.002 A 
ATOM     79  C   UNL     1      -1.841 -12.325  -4.552  1.00  0.00     0.091 A 
ATOM     80  F   UNL     1      -2.071 -11.521  -2.316  1.00  0.00    -0.205 F 
ATOM     81  C   UNL     1      -2.446 -12.714  -5.757  1.00  0.00     0.022 A 
BRANCH  79  82
ATOM     82  S   UNL     1      -0.045 -12.349  -4.492  1.00  0.00     0.127 S 
ATOM     83  O   UNL     1       0.233 -13.786  -4.515  1.00  0.00    -0.237 OA
ATOM     84  O   UNL     1       0.304 -11.637  -5.725  1.00  0.00    -0.237 OA
ATOM     85  O   UNL     1       0.321 -11.655  -3.273  1.00  0.00    -0.744 OA
ENDBRANCH  79  82
ENDBRANCH  51  75
BRANCH  63  86
ATOM     86  C   UNL     1      -9.223 -14.236   0.288  1.00  0.00     0.023 A 
ATOM     87  C   UNL     1      -8.552 -15.350   0.831  1.00  0.00     0.012 A 
ATOM     88  C   UNL     1     -10.558 -14.374  -0.142  1.00  0.00     0.148 A 
ATOM     89  C   UNL     1      -9.187 -16.589   0.913  1.00  0.00     0.002 A 
ATOM     90  C   UNL     1     -11.201 -15.598  -0.007  1.00  0.00     0.091 A 
ATOM     91  F   UNL     1     -11.172 -13.308  -0.675  1.00  0.00    -0.205 F 
ATOM     92  C   UNL     1     -10.514 -16.709   0.506  1.00  0.00     0.022 A 
BRANCH  90  93
ATOM     93  S   UNL     1     -12.937 -15.823  -0.410  1.00  0.00     0.127 S 
ATOM     94  O   UNL     1     -12.859 -16.649  -1.614  1.00  0.00    -0.237 OA
ATOM     95  O   UNL     1     -13.442 -16.517   0.775  1.00  0.00    -0.237 OA
ATOM     96  O   UNL     1     -13.482 -14.486  -0.606  1.00  0.00    -0.744 OA
ENDBRANCH  90  93
ENDBRANCH  63  86
ENDBRANCH  37  38
ENDBRANCH  29  32
ENDBRANCH  27  28
ENDBRANCH  26  27
ENDBRANCH   1  26
TORSDOF 15
