REMARK SMILES CSCC[C@H](C(=O)NCCCNC(=O)c1ccc(-c2c3nc(c(-c4cccc(S(=O)(=O)[O-])c4F)c4ccc([nH]4)c(-c4cccc(S(=O)(=O)[O-])c4F)c4nc(c(-c5cccc(S(=O)(=O)[O-])c5F)c5ccc2[nH]5)C=C4)C=C3)cc1)N1C(=O)/C(=C/c2ccc3ncccc3c2)SC1=S
REMARK SMILES IDX 10 1 9 2 8 3 6 4 7 5 5 7 4 8 3 9 2 10 1 11 78 12 79 13 94 14
REMARK SMILES IDX 80 15 81 16 93 17 95 18 82 19 83 20 84 21 92 22 85 23 91 24
REMARK SMILES IDX 86 25 90 26 87 27 89 28 88 29 11 30 12 31 13 32 14 34 15 35
REMARK SMILES IDX 16 36 77 37 17 38 76 39 18 40 19 41 20 42 70 43 21 44 75 45
REMARK SMILES IDX 69 46 71 47 22 48 74 49 68 50 67 51 23 53 55 54 35 55 54 56
REMARK SMILES IDX 36 57 39 58 53 59 72 60 37 61 38 62 52 64 73 65 40 66 24 67
REMARK SMILES IDX 25 68 33 69 26 70 28 71 34 72 27 73 29 74 30 75 31 76 32 77
REMARK SMILES IDX 56 78 57 79 65 80 58 81 60 82 66 83 59 84 61 85 62 86 63 87
REMARK SMILES IDX 64 88 41 89 42 90 50 91 43 92 45 93 51 94 44 95 46 96 47 97
REMARK SMILES IDX 48 98 49 99
REMARK H PARENT 8 6 12 33 71 52 39 63
REMARK Flexibility Score: inf
ROOT
ATOM      1  C   UNL     1       3.016  -4.371   4.053  1.00  0.00     0.042 C 
ENDROOT
BRANCH   1   2
ATOM      2  C   UNL     1       1.885  -4.273   3.069  1.00  0.00     0.117 C 
BRANCH   2   3
ATOM      3  N   UNL     1       1.096  -3.074   3.054  1.00  0.00    -0.354 N 
ATOM      4  C   UNL     1       0.360  -2.664   1.976  1.00  0.00     0.243 C 
ATOM      5  O   UNL     1      -0.657  -2.001   2.202  1.00  0.00    -0.273 OA
ATOM      6  H   UNL     1       1.085  -2.515   3.865  1.00  0.00     0.163 HD
BRANCH   4   7
ATOM      7  C   UNL     1       0.739  -3.057   0.515  1.00  0.00     0.182 C 
BRANCH   7   8
ATOM      8  C   UNL     1       2.207  -2.765   0.079  1.00  0.00     0.046 C 
BRANCH   8   9
ATOM      9  C   UNL     1       3.229  -3.878  -0.174  1.00  0.00     0.072 C 
BRANCH   9  10
ATOM     10  S   UNL     1       3.735  -4.024  -1.923  1.00  0.00    -0.165 SA
ATOM     11  C   UNL     1       2.273  -4.831  -2.594  1.00  0.00     0.085 C 
ENDBRANCH   9  10
ENDBRANCH   8   9
ENDBRANCH   7   8
BRANCH   7  12
ATOM     12  N   UNL     1       0.013  -4.228  -0.046  1.00  0.00    -0.280 N 
ATOM     13  C   UNL     1       0.311  -5.519   0.336  1.00  0.00     0.266 C 
ATOM     14  C   UNL     1      -1.011  -4.133  -0.979  1.00  0.00     0.149 C 
ATOM     15  O   UNL     1       1.129  -5.891   1.166  1.00  0.00    -0.268 OA
ATOM     16  C   UNL     1      -0.407  -6.517  -0.475  1.00  0.00     0.081 C 
ATOM     17  S   UNL     1      -1.506  -5.743  -1.519  1.00  0.00    -0.054 SA
ATOM     18  S   UNL     1      -1.724  -2.774  -1.639  1.00  0.00    -0.052 S 
ATOM     19  C   UNL     1      -0.003  -7.795  -0.430  1.00  0.00     0.029 C 
BRANCH  19  20
ATOM     20  C   UNL     1      -0.284  -8.787  -1.458  1.00  0.00    -0.024 A 
ATOM     21  C   UNL     1      -1.083  -9.900  -1.224  1.00  0.00     0.010 A 
ATOM     22  C   UNL     1       0.338  -8.630  -2.700  1.00  0.00     0.018 A 
ATOM     23  C   UNL     1      -1.292 -10.823  -2.256  1.00  0.00     0.029 A 
ATOM     24  C   UNL     1       0.117  -9.549  -3.726  1.00  0.00     0.001 A 
ATOM     25  C   UNL     1      -0.720 -10.663  -3.515  1.00  0.00     0.070 A 
ATOM     26  C   UNL     1       0.714  -9.377  -4.979  1.00  0.00     0.012 A 
ATOM     27  N   UNL     1      -0.968 -11.554  -4.492  1.00  0.00    -0.256 NA
ATOM     28  C   UNL     1       0.454 -10.291  -5.987  1.00  0.00     0.021 A 
ATOM     29  C   UNL     1      -0.387 -11.349  -5.697  1.00  0.00     0.112 A 
ENDBRANCH  19  20
ENDBRANCH   7  12
ENDBRANCH   4   7
ENDBRANCH   2   3
ENDBRANCH   1   2
BRANCH   1  30
ATOM     30  C   UNL     1       2.597  -4.931   5.396  1.00  0.00     0.118 C 
BRANCH  30  31
ATOM     31  N   UNL     1       2.001  -6.271   5.342  1.00  0.00    -0.352 N 
ATOM     32  C   UNL     1       2.370  -7.454   5.943  1.00  0.00     0.251 C 
ATOM     33  H   UNL     1       1.197  -6.336   4.778  1.00  0.00     0.163 HD
ATOM     34  O   UNL     1       1.743  -8.482   5.702  1.00  0.00    -0.269 OA
BRANCH  32  35
ATOM     35  C   UNL     1       3.544  -7.495   6.840  1.00  0.00     0.039 A 
ATOM     36  C   UNL     1       4.425  -8.578   6.776  1.00  0.00     0.014 A 
ATOM     37  C   UNL     1       3.811  -6.433   7.698  1.00  0.00     0.014 A 
ATOM     38  C   UNL     1       5.624  -8.532   7.492  1.00  0.00     0.010 A 
ATOM     39  C   UNL     1       5.067  -6.313   8.266  1.00  0.00     0.010 A 
ATOM     40  C   UNL     1       5.982  -7.371   8.194  1.00  0.00    -0.014 A 
BRANCH  40  41
ATOM     41  C   UNL     1       7.287  -7.230   8.889  1.00  0.00     0.031 A 
ATOM     42  C   UNL     1       7.315  -6.886  10.358  1.00  0.00     0.074 A 
ATOM     43  C   UNL     1       8.435  -7.289   8.184  1.00  0.00     0.049 A 
ATOM     44  N   UNL     1       8.338  -6.601  11.119  1.00  0.00    -0.248 NA
ATOM     45  C   UNL     1       6.016  -6.793  11.051  1.00  0.00     0.031 C 
ATOM     46  C   UNL     1       8.538  -7.504   6.738  1.00  0.00     0.029 A 
ATOM     47  N   UNL     1       9.739  -7.147   8.588  1.00  0.00    -0.354 N 
ATOM     48  C   UNL     1       7.804  -6.240  12.350  1.00  0.00     0.074 A 
ATOM     49  C   UNL     1       6.366  -6.283  12.220  1.00  0.00     0.031 C 
ATOM     50  C   UNL     1       9.832  -7.502   6.381  1.00  0.00     0.029 A 
ATOM     51  C   UNL     1      10.651  -7.255   7.563  1.00  0.00     0.049 A 
ATOM     52  H   UNL     1       9.998  -6.983   9.523  1.00  0.00     0.167 HD
ATOM     53  C   UNL     1       8.448  -5.946  13.504  1.00  0.00     0.034 A 
ATOM     54  C   UNL     1      11.995  -7.169   7.578  1.00  0.00     0.034 A 
ATOM     55  C   UNL     1       9.874  -5.998  13.652  1.00  0.00     0.049 A 
ATOM     56  C   UNL     1      12.691  -6.943   8.893  1.00  0.00     0.074 A 
ATOM     57  C   UNL     1      10.627  -5.838  14.800  1.00  0.00     0.029 A 
ATOM     58  N   UNL     1      10.764  -6.241  12.616  1.00  0.00    -0.354 N 
ATOM     59  N   UNL     1      12.169  -6.769  10.083  1.00  0.00    -0.248 NA
ATOM     60  C   UNL     1      14.161  -6.941   8.876  1.00  0.00     0.031 C 
ATOM     61  C   UNL     1      11.976  -5.975  14.456  1.00  0.00     0.029 A 
ATOM     62  C   UNL     1      12.060  -6.237  13.098  1.00  0.00     0.049 A 
ATOM     63  H   UNL     1      10.510  -6.394  11.678  1.00  0.00     0.167 HD
ATOM     64  C   UNL     1      13.242  -6.673  10.960  1.00  0.00     0.074 A 
ATOM     65  C   UNL     1      14.444  -6.831  10.167  1.00  0.00     0.031 C 
ATOM     66  C   UNL     1      13.238  -6.457  12.299  1.00  0.00     0.034 A 
BRANCH  53  67
ATOM     67  C   UNL     1       7.607  -5.625  14.712  1.00  0.00     0.023 A 
ATOM     68  C   UNL     1       6.847  -6.646  15.322  1.00  0.00     0.012 A 
ATOM     69  C   UNL     1       7.594  -4.331  15.267  1.00  0.00     0.148 A 
ATOM     70  C   UNL     1       6.056  -6.375  16.437  1.00  0.00     0.002 A 
ATOM     71  C   UNL     1       6.841  -4.080  16.408  1.00  0.00     0.091 A 
ATOM     72  F   UNL     1       8.302  -3.367  14.660  1.00  0.00    -0.205 F 
ATOM     73  C   UNL     1       6.061  -5.096  16.986  1.00  0.00     0.022 A 
BRANCH  71  74
ATOM     74  S   UNL     1       6.843  -2.488  17.240  1.00  0.00     0.127 S 
ATOM     75  O   UNL     1       5.506  -1.989  16.924  1.00  0.00    -0.237 OA
ATOM     76  O   UNL     1       7.036  -2.873  18.639  1.00  0.00    -0.237 OA
ATOM     77  O   UNL     1       7.946  -1.735  16.660  1.00  0.00    -0.744 OA
ENDBRANCH  71  74
ENDBRANCH  53  67
BRANCH  54  78
ATOM     78  C   UNL     1      12.772  -7.393   6.325  1.00  0.00     0.023 A 
ATOM     79  C   UNL     1      13.521  -8.578   6.184  1.00  0.00     0.012 A 
ATOM     80  C   UNL     1      12.749  -6.467   5.265  1.00  0.00     0.148 A 
ATOM     81  C   UNL     1      14.261  -8.821   5.026  1.00  0.00     0.002 A 
ATOM     82  C   UNL     1      13.446  -6.740   4.092  1.00  0.00     0.091 A 
ATOM     83  F   UNL     1      12.039  -5.341   5.420  1.00  0.00    -0.205 F 
ATOM     84  C   UNL     1      14.216  -7.907   3.977  1.00  0.00     0.022 A 
BRANCH  82  85
ATOM     85  S   UNL     1      13.339  -5.684   2.642  1.00  0.00     0.127 S 
ATOM     86  O   UNL     1      14.653  -5.048   2.637  1.00  0.00    -0.237 OA
ATOM     87  O   UNL     1      13.121  -6.658   1.572  1.00  0.00    -0.237 OA
ATOM     88  O   UNL     1      12.206  -4.801   2.886  1.00  0.00    -0.744 OA
ENDBRANCH  82  85
ENDBRANCH  54  78
BRANCH  66  89
ATOM     89  C   UNL     1      14.566  -6.412  13.003  1.00  0.00     0.023 A 
ATOM     90  C   UNL     1      15.405  -5.293  12.842  1.00  0.00     0.012 A 
ATOM     91  C   UNL     1      14.942  -7.441  13.889  1.00  0.00     0.148 A 
ATOM     92  C   UNL     1      16.614  -5.211  13.530  1.00  0.00     0.002 A 
ATOM     93  C   UNL     1      16.125  -7.330  14.608  1.00  0.00     0.091 A 
ATOM     94  F   UNL     1      14.137  -8.506  14.013  1.00  0.00    -0.205 F 
ATOM     95  C   UNL     1      16.968  -6.222  14.422  1.00  0.00     0.022 A 
BRANCH  93  96
ATOM     96  S   UNL     1      16.608  -8.534  15.850  1.00  0.00     0.127 S 
ATOM     97  O   UNL     1      17.677  -9.257  15.164  1.00  0.00    -0.237 OA
ATOM     98  O   UNL     1      17.058  -7.682  16.952  1.00  0.00    -0.237 OA
ATOM     99  O   UNL     1      15.411  -9.311  16.140  1.00  0.00    -0.744 OA
ENDBRANCH  93  96
ENDBRANCH  66  89
ENDBRANCH  40  41
ENDBRANCH  32  35
ENDBRANCH  30  31
ENDBRANCH   1  30
TORSDOF 18
