REMARK SMILES O=C(NCCCNC(=O)[C@@H]1CCCN1S(=O)(=O)c1ccc2[nH]c(=O)c(=O)[nH]c2c1)c1ccc(-c2c3nc(c(-c4cccc(S(=O)(=O)[O-])c4F)c4ccc([nH]4)c(-c4cccc(S(=O)(=O)[O-])c4F)c4nc(c(-c5cccc(S(=O)(=O)[O-])c5F)c5ccc2[nH]5)C=C4)C=C3)cc1
REMARK SMILES IDX 4 1 3 2 1 3 2 4 30 6 31 7 92 8 32 9 91 10 33 11 34 12 35 13
REMARK SMILES IDX 85 14 36 15 90 16 84 17 86 18 37 19 89 20 83 21 82 22 38 24
REMARK SMILES IDX 70 25 50 26 69 27 51 28 54 29 68 30 87 31 52 32 53 33 67 35
REMARK SMILES IDX 88 36 55 37 39 38 40 39 48 40 41 41 43 42 49 43 42 44 44 45
REMARK SMILES IDX 45 46 46 47 47 48 71 49 72 50 80 51 73 52 75 53 81 54 74 55
REMARK SMILES IDX 76 56 77 57 78 58 79 59 56 60 57 61 65 62 58 63 60 64 66 65
REMARK SMILES IDX 59 66 61 67 62 68 63 69 64 70 5 71 6 72 7 73 8 74 9 76 10 77
REMARK SMILES IDX 11 78 14 79 12 80 13 81 15 82 16 83 17 84 18 85 19 86 29 87
REMARK SMILES IDX 20 88 28 89 21 90 27 91 22 92 25 93 23 95 26 97 24 98
REMARK H PARENT 3 5 86 23 54 34 7 75 27 94 22 96
REMARK Flexibility Score: inf
ROOT
ATOM      1  C   UNL     1       4.245   0.719  -1.499  1.00  0.00     0.118 C 
ENDROOT
BRANCH   1   2
ATOM      2  N   UNL     1       2.895   0.795  -0.964  1.00  0.00    -0.352 N 
ATOM      3  O   UNL     1       1.113   0.184   0.245  1.00  0.00    -0.269 OA
ATOM      4  C   UNL     1       2.337   0.186   0.134  1.00  0.00     0.251 C 
ATOM      5  H   UNL     1       2.282   1.377  -1.470  1.00  0.00     0.163 HD
BRANCH   4   6
ATOM      6  C   UNL     1       3.179  -0.466   1.166  1.00  0.00     0.039 A 
ATOM      7  C   UNL     1       4.383   0.100   1.587  1.00  0.00     0.014 A 
ATOM      8  C   UNL     1       2.711  -1.629   1.791  1.00  0.00     0.014 A 
ATOM      9  C   UNL     1       5.175  -0.556   2.526  1.00  0.00     0.010 A 
ATOM     10  C   UNL     1       3.465  -2.239   2.802  1.00  0.00     0.010 A 
ATOM     11  C   UNL     1       4.716  -1.721   3.164  1.00  0.00    -0.014 A 
BRANCH  11  12
ATOM     12  C   UNL     1       5.525  -2.303   4.269  1.00  0.00     0.031 A 
ATOM     13  C   UNL     1       6.130  -3.675   4.169  1.00  0.00     0.074 A 
ATOM     14  C   UNL     1       5.731  -1.556   5.373  1.00  0.00     0.049 A 
ATOM     15  N   UNL     1       6.931  -4.280   5.010  1.00  0.00    -0.248 NA
ATOM     16  C   UNL     1       5.791  -4.479   2.985  1.00  0.00     0.031 C 
ATOM     17  C   UNL     1       5.136  -0.240   5.619  1.00  0.00     0.029 A 
ATOM     18  N   UNL     1       6.499  -1.784   6.486  1.00  0.00    -0.354 N 
ATOM     19  C   UNL     1       7.176  -5.538   4.472  1.00  0.00     0.074 A 
ATOM     20  C   UNL     1       6.420  -5.620   3.240  1.00  0.00     0.031 C 
ATOM     21  C   UNL     1       5.589   0.239   6.786  1.00  0.00     0.029 A 
ATOM     22  C   UNL     1       6.475  -0.748   7.392  1.00  0.00     0.049 A 
ATOM     23  H   UNL     1       7.018  -2.609   6.624  1.00  0.00     0.167 HD
ATOM     24  C   UNL     1       7.977  -6.523   4.947  1.00  0.00     0.034 A 
ATOM     25  C   UNL     1       7.096  -0.604   8.578  1.00  0.00     0.034 A 
ATOM     26  C   UNL     1       8.750  -6.427   6.158  1.00  0.00     0.049 A 
ATOM     27  C   UNL     1       8.023  -1.687   9.049  1.00  0.00     0.074 A 
ATOM     28  C   UNL     1       9.617  -7.359   6.703  1.00  0.00     0.029 A 
ATOM     29  N   UNL     1       8.753  -5.335   7.013  1.00  0.00    -0.354 N 
ATOM     30  N   UNL     1       8.341  -2.813   8.457  1.00  0.00    -0.248 NA
ATOM     31  C   UNL     1       8.704  -1.468  10.332  1.00  0.00     0.031 C 
ATOM     32  C   UNL     1      10.141  -6.832   7.889  1.00  0.00     0.029 A 
ATOM     33  C   UNL     1       9.608  -5.567   8.078  1.00  0.00     0.049 A 
ATOM     34  H   UNL     1       8.224  -4.515   6.883  1.00  0.00     0.167 HD
ATOM     35  C   UNL     1       9.266  -3.431   9.288  1.00  0.00     0.074 A 
ATOM     36  C   UNL     1       9.490  -2.534  10.403  1.00  0.00     0.031 C 
ATOM     37  C   UNL     1       9.855  -4.645   9.156  1.00  0.00     0.034 A 
BRANCH  24  38
ATOM     38  C   UNL     1       8.114  -7.775   4.119  1.00  0.00     0.023 A 
ATOM     39  C   UNL     1       8.896  -7.739   2.946  1.00  0.00     0.012 A 
ATOM     40  C   UNL     1       7.546  -8.996   4.532  1.00  0.00     0.148 A 
ATOM     41  C   UNL     1       9.092  -8.890   2.185  1.00  0.00     0.002 A 
ATOM     42  C   UNL     1       7.774 -10.149   3.787  1.00  0.00     0.091 A 
ATOM     43  F   UNL     1       6.790  -9.008   5.639  1.00  0.00    -0.205 F 
ATOM     44  C   UNL     1       8.540 -10.096   2.610  1.00  0.00     0.022 A 
BRANCH  42  45
ATOM     45  S   UNL     1       7.165 -11.764   4.284  1.00  0.00     0.127 S 
ATOM     46  O   UNL     1       6.104 -11.993   3.305  1.00  0.00    -0.237 OA
ATOM     47  O   UNL     1       8.347 -12.609   4.109  1.00  0.00    -0.237 OA
ATOM     48  O   UNL     1       6.723 -11.618   5.664  1.00  0.00    -0.744 OA
ENDBRANCH  42  45
ENDBRANCH  24  38
BRANCH  25  49
ATOM     49  C   UNL     1       6.900   0.646   9.366  1.00  0.00     0.023 A 
ATOM     50  C   UNL     1       7.963   1.559   9.502  1.00  0.00     0.012 A 
ATOM     51  C   UNL     1       5.650   0.959   9.934  1.00  0.00     0.148 A 
ATOM     52  C   UNL     1       7.790   2.750  10.210  1.00  0.00     0.002 A 
ATOM     53  C   UNL     1       5.468   2.174  10.583  1.00  0.00     0.091 A 
ATOM     54  F   UNL     1       4.654   0.069   9.816  1.00  0.00    -0.205 F 
ATOM     55  C   UNL     1       6.540   3.064  10.738  1.00  0.00     0.022 A 
BRANCH  53  56
ATOM     56  S   UNL     1       3.845   2.705  11.141  1.00  0.00     0.127 S 
ATOM     57  O   UNL     1       3.880   2.346  12.555  1.00  0.00    -0.237 OA
ATOM     58  O   UNL     1       3.876   4.143  10.869  1.00  0.00    -0.237 OA
ATOM     59  O   UNL     1       2.901   1.967  10.312  1.00  0.00    -0.744 OA
ENDBRANCH  53  56
ENDBRANCH  25  49
BRANCH  37  60
ATOM     60  C   UNL     1      10.801  -5.071  10.247  1.00  0.00     0.023 A 
ATOM     61  C   UNL     1      10.283  -5.461  11.498  1.00  0.00     0.012 A 
ATOM     62  C   UNL     1      12.190  -5.130  10.024  1.00  0.00     0.148 A 
ATOM     63  C   UNL     1      11.135  -5.870  12.522  1.00  0.00     0.002 A 
ATOM     64  C   UNL     1      13.030  -5.579  11.037  1.00  0.00     0.091 A 
ATOM     65  F   UNL     1      12.667  -4.733   8.835  1.00  0.00    -0.205 F 
ATOM     66  C   UNL     1      12.506  -5.939  12.289  1.00  0.00     0.022 A 
BRANCH  64  67
ATOM     67  S   UNL     1      14.798  -5.777  10.790  1.00  0.00     0.127 S 
ATOM     68  O   UNL     1      15.326  -4.575  11.434  1.00  0.00    -0.237 OA
ATOM     69  O   UNL     1      15.079  -7.023  11.504  1.00  0.00    -0.237 OA
ATOM     70  O   UNL     1      14.988  -5.857   9.348  1.00  0.00    -0.744 OA
ENDBRANCH  64  67
ENDBRANCH  37  60
ENDBRANCH  11  12
ENDBRANCH   4   6
ENDBRANCH   1   2
BRANCH   1  71
ATOM     71  C   UNL     1       4.324  -0.173  -2.734  1.00  0.00     0.042 C 
BRANCH  71  72
ATOM     72  C   UNL     1       3.715   0.447  -3.985  1.00  0.00     0.117 C 
BRANCH  72  73
ATOM     73  N   UNL     1       4.383   1.667  -4.416  1.00  0.00    -0.355 N 
ATOM     74  C   UNL     1       5.426   1.946  -5.236  1.00  0.00     0.238 C 
ATOM     75  H   UNL     1       3.986   2.475  -4.020  1.00  0.00     0.163 HD
ATOM     76  O   UNL     1       5.664   3.154  -5.381  1.00  0.00    -0.273 OA
BRANCH  74  77
ATOM     77  C   UNL     1       6.278   0.939  -5.988  1.00  0.00     0.162 C 
ATOM     78  C   UNL     1       5.872  -0.521  -6.078  1.00  0.00     0.032 C 
ATOM     79  N   UNL     1       7.774   0.890  -5.806  1.00  0.00    -0.185 NA
ATOM     80  C   UNL     1       6.955  -1.092  -6.972  1.00  0.00     0.019 C 
ATOM     81  C   UNL     1       8.218  -0.338  -6.571  1.00  0.00     0.103 C 
BRANCH  79  82
ATOM     82  S   UNL     1       8.463   0.929  -4.239  1.00  0.00     0.243 S 
ATOM     83  O   UNL     1       7.629   0.109  -3.380  1.00  0.00    -0.207 OA
ATOM     84  O   UNL     1       9.866   0.620  -4.395  1.00  0.00    -0.207 OA
BRANCH  82  85
ATOM     85  C   UNL     1       8.401   2.594  -3.615  1.00  0.00     0.084 A 
ATOM     86  C   UNL     1       7.276   3.032  -2.913  1.00  0.00     0.024 A 
ATOM     87  C   UNL     1       9.565   3.374  -3.611  1.00  0.00     0.050 A 
ATOM     88  C   UNL     1       7.242   4.303  -2.338  1.00  0.00     0.030 A 
ATOM     89  C   UNL     1       9.557   4.612  -2.965  1.00  0.00     0.066 A 
ATOM     90  C   UNL     1       8.386   5.091  -2.367  1.00  0.00     0.065 A 
ATOM     91  N   UNL     1      10.734   5.361  -2.875  1.00  0.00    -0.316 N 
ATOM     92  N   UNL     1       8.367   6.354  -1.773  1.00  0.00    -0.316 N 
ATOM     93  C   UNL     1      10.802   6.588  -2.248  1.00  0.00     0.314 A 
ATOM     94  H   UNL     1      11.554   4.995  -3.278  1.00  0.00     0.170 HD
ATOM     95  C   UNL     1       9.475   7.168  -1.698  1.00  0.00     0.314 A 
ATOM     96  H   UNL     1       7.521   6.678  -1.388  1.00  0.00     0.170 HD
ATOM     97  O   UNL     1      11.858   7.198  -2.139  1.00  0.00    -0.263 OA
ATOM     98  O   UNL     1       9.416   8.295  -1.224  1.00  0.00    -0.263 OA
ENDBRANCH  82  85
ENDBRANCH  79  82
ENDBRANCH  74  77
ENDBRANCH  72  73
ENDBRANCH  71  72
ENDBRANCH   1  71
TORSDOF 15
