REMARK SMILES Cc1ccc(C)c(-n2nc(C)c(/C=C(/C#N)C(=O)NCCCNC(=O)c3ccc(-c4c5nc(c(-c6cccc(S(=O)(=O)[O-])c6F)c6ccc([nH]6)c(-c6cccc(S(=O)(=O)[O-])c6F)c6nc(c(-c7cccc(S(=O)(=O)[O-])c7F)c7ccc4[nH]7)C=C6)C=C5)cc3)c2Cl)c1
REMARK SMILES IDX 21 1 20 2 19 3 17 4 18 5 14 7 13 8 12 9 8 10 9 11 89 12
REMARK SMILES IDX 10 13 90 14 11 15 7 16 1 17 2 18 3 19 91 20 4 21 5 22 6 23
REMARK SMILES IDX 15 24 16 25 22 26 23 27 24 28 25 30 26 31 27 32 88 33 28 34
REMARK SMILES IDX 87 35 29 36 30 37 31 38 81 39 32 40 86 41 80 42 82 43 33 44
REMARK SMILES IDX 85 45 79 46 78 47 34 49 66 50 46 51 65 52 47 53 50 54 64 55
REMARK SMILES IDX 83 56 48 57 49 58 63 60 84 61 51 62 35 63 36 64 44 65 37 66
REMARK SMILES IDX 39 67 45 68 38 69 40 70 41 71 42 72 43 73 67 74 68 75 76 76
REMARK SMILES IDX 69 77 71 78 77 79 70 80 72 81 73 82 74 83 75 84 52 85 53 86
REMARK SMILES IDX 61 87 54 88 56 89 62 90 55 91 57 92 58 93 59 94 60 95
REMARK H PARENT 19 6 23 29 82 48 50 59
REMARK Flexibility Score: inf
ROOT
ATOM      1  C   UNL     1      -5.379  10.034  -1.561  1.00  0.00     0.042 C 
ENDROOT
BRANCH   1   2
ATOM      2  C   UNL     1      -4.583   9.460  -0.364  1.00  0.00     0.118 C 
BRANCH   2   3
ATOM      3  N   UNL     1      -4.827   8.030  -0.130  1.00  0.00    -0.351 N 
ATOM      4  C   UNL     1      -4.268   6.860  -0.580  1.00  0.00     0.261 C 
ATOM      5  O   UNL     1      -4.875   5.835  -0.297  1.00  0.00    -0.268 OA
ATOM      6  H   UNL     1      -5.568   7.873   0.499  1.00  0.00     0.163 HD
BRANCH   4   7
ATOM      7  C   UNL     1      -3.024   6.816  -1.421  1.00  0.00     0.117 C 
ATOM      8  C   UNL     1      -2.080   5.861  -1.415  1.00  0.00     0.038 C 
BRANCH   8   9
ATOM      9  C   UNL     1      -1.920   4.665  -0.619  1.00  0.00     0.036 A 
ATOM     10  N   UNL     1      -1.265   2.582  -0.112  1.00  0.00    -0.221 N 
ATOM     11  N   UNL     1      -1.891   3.026   0.998  1.00  0.00    -0.171 NA
ATOM     12  C   UNL     1      -1.158   3.591  -1.044  1.00  0.00     0.140 A 
ATOM     13  C   UNL     1      -2.373   4.235   0.672  1.00  0.00     0.069 A 
ATOM     14  Cl  UNL     1      -0.307   3.339  -2.512  1.00  0.00    -0.061 Cl
ATOM     15  C   UNL     1      -3.215   4.883   1.710  1.00  0.00     0.069 C 
BRANCH  10  16
ATOM     16  C   UNL     1      -0.606   1.328  -0.058  1.00  0.00     0.069 A 
ATOM     17  C   UNL     1       2.993   0.071  -0.050  1.00  0.00     0.044 C 
ATOM     18  C   UNL     1       1.496   0.101  -0.017  1.00  0.00    -0.049 A 
ATOM     19  C   UNL     1       0.777  -1.090   0.126  1.00  0.00     0.004 A 
ATOM     20  C   UNL     1       0.797   1.308  -0.125  1.00  0.00     0.032 A 
ATOM     21  C   UNL     1      -0.618  -1.071   0.199  1.00  0.00     0.006 A 
ATOM     22  C   UNL     1      -1.331   0.137   0.132  1.00  0.00    -0.025 A 
ATOM     23  C   UNL     1      -2.835   0.054   0.153  1.00  0.00     0.047 C 
ENDBRANCH  10  16
ENDBRANCH   8   9
BRANCH   7  24
ATOM     24  C   UNL     1      -3.058   7.979  -2.401  1.00  0.00     0.105 C 
ATOM     25  N   UNL     1      -3.086   8.943  -3.213  1.00  0.00    -0.192 NA
ENDBRANCH   7  24
ENDBRANCH   4   7
ENDBRANCH   2   3
ENDBRANCH   1   2
BRANCH   1  26
ATOM     26  C   UNL     1      -6.784  10.605  -1.330  1.00  0.00     0.118 C 
BRANCH  26  27
ATOM     27  N   UNL     1      -6.797  11.750  -0.413  1.00  0.00    -0.352 N 
ATOM     28  C   UNL     1      -7.413  12.006   0.803  1.00  0.00     0.251 C 
ATOM     29  H   UNL     1      -6.247  12.502  -0.731  1.00  0.00     0.163 HD
ATOM     30  O   UNL     1      -7.405  13.143   1.237  1.00  0.00    -0.269 OA
BRANCH  28  31
ATOM     31  C   UNL     1      -8.073  10.925   1.577  1.00  0.00     0.039 A 
ATOM     32  C   UNL     1      -8.919  11.181   2.664  1.00  0.00     0.014 A 
ATOM     33  C   UNL     1      -7.828   9.613   1.227  1.00  0.00     0.014 A 
ATOM     34  C   UNL     1      -9.451  10.101   3.378  1.00  0.00     0.010 A 
ATOM     35  C   UNL     1      -8.575   8.589   1.710  1.00  0.00     0.010 A 
ATOM     36  C   UNL     1      -9.238   8.805   2.896  1.00  0.00    -0.014 A 
BRANCH  36  37
ATOM     37  C   UNL     1      -9.660   7.588   3.561  1.00  0.00     0.031 A 
ATOM     38  C   UNL     1     -11.103   7.304   3.453  1.00  0.00     0.074 A 
ATOM     39  C   UNL     1      -8.787   6.598   3.860  1.00  0.00     0.049 A 
ATOM     40  N   UNL     1     -11.984   7.367   4.393  1.00  0.00    -0.248 NA
ATOM     41  C   UNL     1     -11.659   7.059   2.113  1.00  0.00     0.031 C 
ATOM     42  C   UNL     1      -7.351   6.525   3.540  1.00  0.00     0.029 A 
ATOM     43  N   UNL     1      -9.051   5.352   4.335  1.00  0.00    -0.354 N 
ATOM     44  C   UNL     1     -13.161   6.921   3.804  1.00  0.00     0.074 A 
ATOM     45  C   UNL     1     -12.964   7.016   2.381  1.00  0.00     0.031 C 
ATOM     46  C   UNL     1      -6.951   5.234   3.584  1.00  0.00     0.029 A 
ATOM     47  C   UNL     1      -8.047   4.424   4.081  1.00  0.00     0.049 A 
ATOM     48  H   UNL     1      -9.880   5.126   4.816  1.00  0.00     0.167 HD
ATOM     49  C   UNL     1     -14.092   6.226   4.512  1.00  0.00     0.034 A 
ATOM     50  C   UNL     1      -8.147   3.078   4.201  1.00  0.00     0.034 A 
ATOM     51  C   UNL     1     -13.802   6.227   5.925  1.00  0.00     0.049 A 
ATOM     52  C   UNL     1      -9.341   2.796   5.037  1.00  0.00     0.074 A 
ATOM     53  C   UNL     1     -13.533   7.201   6.868  1.00  0.00     0.029 A 
ATOM     54  N   UNL     1     -13.350   5.047   6.472  1.00  0.00    -0.354 N 
ATOM     55  N   UNL     1      -9.439   3.107   6.301  1.00  0.00    -0.248 NA
ATOM     56  C   UNL     1     -10.601   2.541   4.357  1.00  0.00     0.031 C 
ATOM     57  C   UNL     1     -12.502   6.646   7.683  1.00  0.00     0.029 A 
ATOM     58  C   UNL     1     -12.250   5.349   7.230  1.00  0.00     0.049 A 
ATOM     59  H   UNL     1     -13.744   4.154   6.342  1.00  0.00     0.167 HD
ATOM     60  C   UNL     1     -10.756   3.524   6.455  1.00  0.00     0.074 A 
ATOM     61  C   UNL     1     -11.447   3.038   5.262  1.00  0.00     0.031 C 
ATOM     62  C   UNL     1     -11.100   4.479   7.373  1.00  0.00     0.034 A 
BRANCH  49  63
ATOM     63  C   UNL     1     -15.072   5.247   3.917  1.00  0.00     0.023 A 
ATOM     64  C   UNL     1     -16.147   4.842   4.736  1.00  0.00     0.012 A 
ATOM     65  C   UNL     1     -14.884   4.538   2.709  1.00  0.00     0.148 A 
ATOM     66  C   UNL     1     -16.973   3.769   4.386  1.00  0.00     0.002 A 
ATOM     67  C   UNL     1     -15.773   3.546   2.315  1.00  0.00     0.091 A 
ATOM     68  F   UNL     1     -13.768   4.705   1.993  1.00  0.00    -0.205 F 
ATOM     69  C   UNL     1     -16.799   3.133   3.164  1.00  0.00     0.022 A 
BRANCH  67  70
ATOM     70  S   UNL     1     -15.637   2.779   0.697  1.00  0.00     0.127 S 
ATOM     71  O   UNL     1     -14.906   1.556   1.011  1.00  0.00    -0.237 OA
ATOM     72  O   UNL     1     -17.041   2.586   0.330  1.00  0.00    -0.237 OA
ATOM     73  O   UNL     1     -14.943   3.765  -0.124  1.00  0.00    -0.744 OA
ENDBRANCH  67  70
ENDBRANCH  49  63
BRANCH  50  74
ATOM     74  C   UNL     1      -7.445   2.010   3.451  1.00  0.00     0.023 A 
ATOM     75  C   UNL     1      -7.320   0.728   4.021  1.00  0.00     0.012 A 
ATOM     76  C   UNL     1      -7.137   2.159   2.080  1.00  0.00     0.148 A 
ATOM     77  C   UNL     1      -6.922  -0.371   3.247  1.00  0.00     0.002 A 
ATOM     78  C   UNL     1      -6.747   1.061   1.315  1.00  0.00     0.091 A 
ATOM     79  F   UNL     1      -7.315   3.353   1.494  1.00  0.00    -0.205 F 
ATOM     80  C   UNL     1      -6.642  -0.207   1.893  1.00  0.00     0.022 A 
BRANCH  78  81
ATOM     81  S   UNL     1      -6.465   1.254  -0.451  1.00  0.00     0.127 S 
ATOM     82  O   UNL     1      -5.835  -0.013  -0.829  1.00  0.00    -0.237 OA
ATOM     83  O   UNL     1      -7.815   1.432  -0.971  1.00  0.00    -0.237 OA
ATOM     84  O   UNL     1      -5.574   2.404  -0.539  1.00  0.00    -0.744 OA
ENDBRANCH  78  81
ENDBRANCH  50  74
BRANCH  62  85
ATOM     85  C   UNL     1     -10.092   4.884   8.424  1.00  0.00     0.023 A 
ATOM     86  C   UNL     1      -8.822   5.399   8.087  1.00  0.00     0.012 A 
ATOM     87  C   UNL     1     -10.503   4.937   9.769  1.00  0.00     0.148 A 
ATOM     88  C   UNL     1      -7.976   5.928   9.066  1.00  0.00     0.002 A 
ATOM     89  C   UNL     1      -9.679   5.511  10.732  1.00  0.00     0.091 A 
ATOM     90  F   UNL     1     -11.712   4.448  10.086  1.00  0.00    -0.205 F 
ATOM     91  C   UNL     1      -8.411   5.999  10.386  1.00  0.00     0.022 A 
BRANCH  89  92
ATOM     92  S   UNL     1     -10.245   5.758  12.418  1.00  0.00     0.127 S 
ATOM     93  O   UNL     1      -9.631   4.631  13.116  1.00  0.00    -0.237 OA
ATOM     94  O   UNL     1      -9.681   7.067  12.757  1.00  0.00    -0.237 OA
ATOM     95  O   UNL     1     -11.702   5.744  12.351  1.00  0.00    -0.744 OA
ENDBRANCH  89  92
ENDBRANCH  62  85
ENDBRANCH  36  37
ENDBRANCH  28  31
ENDBRANCH  26  27
ENDBRANCH   1  26
TORSDOF 16
