REMARK SMILES COc1ccc(/C=C/c2cc(OC)cc(OC)c2/C=C/C(=O)NCCCNC(=O)c2ccc(-c3c4nc(c(-c5cccc(S(=O)(=O)[O-])c5F)c5ccc([nH]5)c(-c5cccc(S(=O)(=O)[O-])c5F)c5nc(c(-c6cccc(S(=O)(=O)[O-])c6F)c6ccc3[nH]6)C=C5)C=C4)cc2)cc1
REMARK SMILES IDX 24 1 23 2 21 3 22 4 20 6 19 7 18 8 9 9 10 10 11 11 15 12
REMARK SMILES IDX 14 13 8 14 7 15 6 16 3 17 4 18 94 19 5 20 93 21 2 22 1 23
REMARK SMILES IDX 12 24 13 25 16 26 17 27 25 28 26 29 27 30 28 31 29 33 30 34
REMARK SMILES IDX 31 35 92 36 32 37 91 38 33 39 34 40 35 41 85 42 36 43 90 44
REMARK SMILES IDX 84 45 86 46 37 47 89 48 83 49 82 50 38 52 70 53 50 54 69 55
REMARK SMILES IDX 51 56 54 57 68 58 87 59 52 60 53 61 67 63 88 64 55 65 39 66
REMARK SMILES IDX 40 67 48 68 41 69 43 70 49 71 42 72 44 73 45 74 46 75 47 76
REMARK SMILES IDX 71 77 72 78 80 79 73 80 75 81 81 82 74 83 76 84 77 85 78 86
REMARK SMILES IDX 79 87 56 88 57 89 65 90 58 91 60 92 66 93 59 94 61 95 62 96
REMARK SMILES IDX 63 97 64 98
REMARK H PARENT 23 5 27 32 86 51 54 62
REMARK Flexibility Score: inf
ROOT
ATOM      1  C   UNL     1       4.516   3.854  -4.038  1.00  0.00     0.118 C 
ENDROOT
BRANCH   1   2
ATOM      2  N   UNL     1       5.586   4.278  -4.916  1.00  0.00    -0.352 N 
ATOM      3  C   UNL     1       5.954   5.552  -5.215  1.00  0.00     0.244 C 
ATOM      4  O   UNL     1       6.962   5.789  -5.872  1.00  0.00    -0.270 OA
ATOM      5  H   UNL     1       6.107   3.562  -5.346  1.00  0.00     0.163 HD
BRANCH   3   6
ATOM      6  C   UNL     1       5.139   6.660  -4.684  1.00  0.00     0.072 C 
ATOM      7  C   UNL     1       3.926   6.895  -5.205  1.00  0.00     0.018 C 
BRANCH   7   8
ATOM      8  C   UNL     1       3.128   8.079  -4.851  1.00  0.00     0.024 A 
ATOM      9  C   UNL     1       1.929   7.884  -4.107  1.00  0.00    -0.011 A 
ATOM     10  C   UNL     1       1.116   8.982  -3.778  1.00  0.00     0.055 A 
ATOM     11  C   UNL     1       1.452  10.268  -4.189  1.00  0.00     0.123 A 
ATOM     12  C   UNL     1       3.475   9.391  -5.243  1.00  0.00     0.130 A 
ATOM     13  C   UNL     1       2.635  10.463  -4.894  1.00  0.00     0.093 A 
BRANCH   9  14
ATOM     14  C   UNL     1       1.429   6.559  -3.681  1.00  0.00     0.009 C 
ATOM     15  C   UNL     1       1.846   5.932  -2.567  1.00  0.00     0.009 C 
BRANCH  15  16
ATOM     16  C   UNL     1       1.396   4.591  -2.136  1.00  0.00    -0.025 A 
ATOM     17  C   UNL     1       0.670   1.972  -1.335  1.00  0.00     0.118 A 
ATOM     18  C   UNL     1      -0.192   2.746  -2.112  1.00  0.00     0.047 A 
ATOM     19  C   UNL     1       1.900   2.505  -0.957  1.00  0.00     0.047 A 
ATOM     20  C   UNL     1       0.161   4.045  -2.501  1.00  0.00     0.012 A 
ATOM     21  C   UNL     1       2.250   3.809  -1.340  1.00  0.00     0.012 A 
BRANCH  17  22
ATOM     22  O   UNL     1       0.209   0.721  -1.031  1.00  0.00    -0.497 OA
ATOM     23  C   UNL     1       0.876   0.035   0.022  1.00  0.00     0.278 C 
ENDBRANCH  17  22
ENDBRANCH  15  16
ENDBRANCH   9  14
BRANCH  11  24
ATOM     24  O   UNL     1       0.568  11.254  -3.846  1.00  0.00    -0.497 OA
ATOM     25  C   UNL     1       0.637  12.444  -4.626  1.00  0.00     0.278 C 
ENDBRANCH  11  24
BRANCH  12  26
ATOM     26  O   UNL     1       4.557   9.857  -5.944  1.00  0.00    -0.496 OA
ATOM     27  C   UNL     1       5.393   9.000  -6.702  1.00  0.00     0.278 C 
ENDBRANCH  12  26
ENDBRANCH   7   8
ENDBRANCH   3   6
ENDBRANCH   1   2
BRANCH   1  28
ATOM     28  C   UNL     1       3.470   3.029  -4.769  1.00  0.00     0.042 C 
BRANCH  28  29
ATOM     29  C   UNL     1       3.925   1.604  -5.039  1.00  0.00     0.118 C 
BRANCH  29  30
ATOM     30  N   UNL     1       4.180   0.859  -3.808  1.00  0.00    -0.352 N 
ATOM     31  C   UNL     1       3.585  -0.289  -3.341  1.00  0.00     0.251 C 
ATOM     32  H   UNL     1       4.881   1.234  -3.227  1.00  0.00     0.163 HD
ATOM     33  O   UNL     1       3.779  -0.661  -2.192  1.00  0.00    -0.269 OA
BRANCH  31  34
ATOM     34  C   UNL     1       2.720  -1.068  -4.251  1.00  0.00     0.039 A 
ATOM     35  C   UNL     1       1.492  -1.551  -3.794  1.00  0.00     0.014 A 
ATOM     36  C   UNL     1       3.131  -1.304  -5.564  1.00  0.00     0.014 A 
ATOM     37  C   UNL     1       0.645  -2.222  -4.679  1.00  0.00     0.010 A 
ATOM     38  C   UNL     1       2.252  -1.887  -6.463  1.00  0.00     0.010 A 
ATOM     39  C   UNL     1       1.008  -2.367  -6.027  1.00  0.00    -0.014 A 
BRANCH  39  40
ATOM     40  C   UNL     1       0.136  -3.042  -7.018  1.00  0.00     0.031 A 
ATOM     41  C   UNL     1       0.645  -4.272  -7.720  1.00  0.00     0.074 A 
ATOM     42  C   UNL     1      -1.032  -2.478  -7.383  1.00  0.00     0.049 A 
ATOM     43  N   UNL     1       0.146  -4.905  -8.747  1.00  0.00    -0.248 NA
ATOM     44  C   UNL     1       1.915  -4.837  -7.227  1.00  0.00     0.031 C 
ATOM     45  C   UNL     1      -1.592  -1.247  -6.821  1.00  0.00     0.029 A 
ATOM     46  N   UNL     1      -1.936  -2.844  -8.348  1.00  0.00    -0.354 N 
ATOM     47  C   UNL     1       1.066  -5.898  -9.061  1.00  0.00     0.074 A 
ATOM     48  C   UNL     1       2.168  -5.767  -8.135  1.00  0.00     0.031 C 
ATOM     49  C   UNL     1      -2.739  -0.956  -7.457  1.00  0.00     0.029 A 
ATOM     50  C   UNL     1      -2.977  -1.956  -8.492  1.00  0.00     0.049 A 
ATOM     51  H   UNL     1      -1.849  -3.664  -8.885  1.00  0.00     0.167 HD
ATOM     52  C   UNL     1       0.986  -6.852 -10.017  1.00  0.00     0.034 A 
ATOM     53  C   UNL     1      -3.997  -1.944  -9.373  1.00  0.00     0.034 A 
ATOM     54  C   UNL     1      -0.149  -7.018 -10.881  1.00  0.00     0.049 A 
ATOM     55  C   UNL     1      -4.099  -3.058 -10.380  1.00  0.00     0.074 A 
ATOM     56  C   UNL     1      -0.381  -8.011 -11.815  1.00  0.00     0.029 A 
ATOM     57  N   UNL     1      -1.247  -6.173 -10.910  1.00  0.00    -0.354 N 
ATOM     58  N   UNL     1      -3.291  -4.074 -10.570  1.00  0.00    -0.248 NA
ATOM     59  C   UNL     1      -5.268  -3.047 -11.272  1.00  0.00     0.031 C 
ATOM     60  C   UNL     1      -1.618  -7.760 -12.416  1.00  0.00     0.029 A 
ATOM     61  C   UNL     1      -2.163  -6.621 -11.843  1.00  0.00     0.049 A 
ATOM     62  H   UNL     1      -1.358  -5.371 -10.349  1.00  0.00     0.167 HD
ATOM     63  C   UNL     1      -3.873  -4.844 -11.570  1.00  0.00     0.074 A 
ATOM     64  C   UNL     1      -5.108  -4.183 -11.939  1.00  0.00     0.031 C 
ATOM     65  C   UNL     1      -3.421  -5.987 -12.141  1.00  0.00     0.034 A 
BRANCH  52  66
ATOM     66  C   UNL     1       2.129  -7.826 -10.134  1.00  0.00     0.023 A 
ATOM     67  C   UNL     1       2.321  -8.795  -9.128  1.00  0.00     0.012 A 
ATOM     68  C   UNL     1       2.982  -7.815 -11.255  1.00  0.00     0.148 A 
ATOM     69  C   UNL     1       3.367  -9.713  -9.216  1.00  0.00     0.002 A 
ATOM     70  C   UNL     1       3.994  -8.762 -11.357  1.00  0.00     0.091 A 
ATOM     71  F   UNL     1       2.799  -6.872 -12.190  1.00  0.00    -0.205 F 
ATOM     72  C   UNL     1       4.196  -9.703 -10.334  1.00  0.00     0.022 A 
BRANCH  70  73
ATOM     73  S   UNL     1       5.064  -8.884 -12.795  1.00  0.00     0.127 S 
ATOM     74  O   UNL     1       6.329  -8.377 -12.265  1.00  0.00    -0.237 OA
ATOM     75  O   UNL     1       5.051 -10.321 -13.069  1.00  0.00    -0.237 OA
ATOM     76  O   UNL     1       4.444  -8.064 -13.827  1.00  0.00    -0.744 OA
ENDBRANCH  70  73
ENDBRANCH  52  66
BRANCH  53  77
ATOM     77  C   UNL     1      -5.040  -0.883  -9.289  1.00  0.00     0.023 A 
ATOM     78  C   UNL     1      -6.327  -1.222  -8.829  1.00  0.00     0.012 A 
ATOM     79  C   UNL     1      -4.763   0.457  -9.622  1.00  0.00     0.148 A 
ATOM     80  C   UNL     1      -7.328  -0.255  -8.729  1.00  0.00     0.002 A 
ATOM     81  C   UNL     1      -5.750   1.427  -9.472  1.00  0.00     0.091 A 
ATOM     82  F   UNL     1      -3.536   0.761 -10.069  1.00  0.00    -0.205 F 
ATOM     83  C   UNL     1      -7.037   1.070  -9.041  1.00  0.00     0.022 A 
BRANCH  81  84
ATOM     84  S   UNL     1      -5.427   3.176  -9.725  1.00  0.00     0.127 S 
ATOM     85  O   UNL     1      -6.132   3.432 -10.978  1.00  0.00    -0.237 OA
ATOM     86  O   UNL     1      -6.043   3.774  -8.539  1.00  0.00    -0.237 OA
ATOM     87  O   UNL     1      -3.977   3.304  -9.774  1.00  0.00    -0.744 OA
ENDBRANCH  81  84
ENDBRANCH  53  77
BRANCH  65  88
ATOM     88  C   UNL     1      -4.280  -6.639 -13.189  1.00  0.00     0.023 A 
ATOM     89  C   UNL     1      -4.338  -6.094 -14.486  1.00  0.00     0.012 A 
ATOM     90  C   UNL     1      -4.931  -7.859 -12.917  1.00  0.00     0.148 A 
ATOM     91  C   UNL     1      -5.046  -6.745 -15.494  1.00  0.00     0.002 A 
ATOM     92  C   UNL     1      -5.595  -8.526 -13.939  1.00  0.00     0.091 A 
ATOM     93  F   UNL     1      -4.875  -8.349 -11.671  1.00  0.00    -0.205 F 
ATOM     94  C   UNL     1      -5.661  -7.966 -15.225  1.00  0.00     0.022 A 
BRANCH  92  95
ATOM     95  S   UNL     1      -6.330 -10.149 -13.711  1.00  0.00     0.127 S 
ATOM     96  O   UNL     1      -7.757  -9.841 -13.770  1.00  0.00    -0.237 OA
ATOM     97  O   UNL     1      -5.816 -10.886 -14.867  1.00  0.00    -0.237 OA
ATOM     98  O   UNL     1      -5.849 -10.632 -12.424  1.00  0.00    -0.744 OA
ENDBRANCH  92  95
ENDBRANCH  65  88
ENDBRANCH  39  40
ENDBRANCH  31  34
ENDBRANCH  29  30
ENDBRANCH  28  29
ENDBRANCH   1  28
TORSDOF 19
