REMARK SMILES C=CCNC(=O)C[NH2+][C@](C)(C(=O)NCCCNC(=O)c1ccc(-c2c3nc(c(-c4cccc(S(=O)(=O)[O-])c4F)c4ccc([nH]4)c(-c4cccc(S(=O)(=O)[O-])c4F)c4nc(c(-c5cccc(S(=O)(=O)[O-])c5F)c5ccc2[nH]5)C=C4)C=C3)cc1)C(F)(F)F
REMARK SMILES IDX 14 1 13 2 11 3 12 4 9 6 10 7 8 8 7 11 5 12 4 13 6 15 3 16
REMARK SMILES IDX 2 17 1 18 83 19 84 20 85 21 86 22 15 23 16 24 17 25 18 26
REMARK SMILES IDX 19 28 20 29 21 30 82 31 22 32 81 33 23 34 24 35 25 36 75 37
REMARK SMILES IDX 26 38 80 39 74 40 76 41 27 42 79 43 73 44 72 45 28 47 60 48
REMARK SMILES IDX 40 49 59 50 41 51 44 52 58 53 77 54 42 55 43 56 57 58 78 59
REMARK SMILES IDX 45 60 29 61 30 62 38 63 31 64 33 65 39 66 32 67 34 68 35 69
REMARK SMILES IDX 36 70 37 71 61 72 62 73 70 74 63 75 65 76 71 77 64 78 66 79
REMARK SMILES IDX 67 80 68 81 69 82 46 83 47 84 55 85 48 86 50 87 56 88 49 89
REMARK SMILES IDX 51 90 52 91 53 92 54 93
REMARK H PARENT 13 5 8 9 8 10 4 14 17 27 76 46 44 57
REMARK Flexibility Score: inf
ROOT
ATOM      1  C   UNL     1      -0.013  -5.522  -3.091  1.00  0.00     0.118 C 
ENDROOT
BRANCH   1   2
ATOM      2  N   UNL     1       0.152  -5.643  -1.651  1.00  0.00    -0.350 N 
ATOM      3  C   UNL     1      -0.739  -5.450  -0.632  1.00  0.00     0.290 C 
ATOM      4  O   UNL     1      -0.355  -5.787   0.490  1.00  0.00    -0.267 OA
ATOM      5  H   UNL     1       1.055  -5.909  -1.361  1.00  0.00     0.163 HD
BRANCH   3   6
ATOM      6  C   UNL     1      -2.156  -4.903  -0.905  1.00  0.00     0.268 C 
ATOM      7  C   UNL     1      -2.046  -3.484  -1.520  1.00  0.00     0.101 C 
BRANCH   6   8
ATOM      8  N   UNL     1      -2.928  -5.806  -1.844  1.00  0.00    -0.318 N 
ATOM      9  H   UNL     1      -3.924  -5.656  -1.684  1.00  0.00     0.347 HD
ATOM     10  H   UNL     1      -2.634  -5.559  -2.789  1.00  0.00     0.347 HD
BRANCH   8  11
ATOM     11  C   UNL     1      -2.647  -7.243  -1.680  1.00  0.00     0.362 C 
BRANCH  11  12
ATOM     12  C   UNL     1      -3.594  -8.033  -2.583  1.00  0.00     0.275 C 
ATOM     13  N   UNL     1      -4.758  -8.517  -2.071  1.00  0.00    -0.348 N 
ATOM     14  H   UNL     1      -5.298  -9.071  -2.681  1.00  0.00     0.163 HD
ATOM     15  O   UNL     1      -3.337  -8.209  -3.776  1.00  0.00    -0.268 OA
BRANCH  13  16
ATOM     16  C   UNL     1      -5.301  -8.322  -0.750  1.00  0.00     0.143 C 
BRANCH  16  17
ATOM     17  C   UNL     1      -6.534  -7.495  -0.893  1.00  0.00    -0.014 C 
ATOM     18  C   UNL     1      -7.745  -7.868  -0.464  1.00  0.00     0.006 C 
ENDBRANCH  16  17
ENDBRANCH  13  16
ENDBRANCH  11  12
ENDBRANCH   8  11
ENDBRANCH   6   8
BRANCH   6  19
ATOM     19  C   UNL     1      -2.852  -4.755   0.480  1.00  0.00     0.453 C 
ATOM     20  F   UNL     1      -2.185  -3.928   1.317  1.00  0.00    -0.164 F 
ATOM     21  F   UNL     1      -4.095  -4.217   0.327  1.00  0.00    -0.164 F 
ATOM     22  F   UNL     1      -3.032  -5.940   1.112  1.00  0.00    -0.164 F 
ENDBRANCH   6  19
ENDBRANCH   3   6
ENDBRANCH   1   2
BRANCH   1  23
ATOM     23  C   UNL     1       1.173  -4.848  -3.750  1.00  0.00     0.042 C 
BRANCH  23  24
ATOM     24  C   UNL     1       2.479  -5.607  -3.578  1.00  0.00     0.118 C 
BRANCH  24  25
ATOM     25  N   UNL     1       2.463  -6.929  -4.196  1.00  0.00    -0.352 N 
ATOM     26  C   UNL     1       3.262  -7.425  -5.200  1.00  0.00     0.251 C 
ATOM     27  H   UNL     1       1.787  -7.552  -3.845  1.00  0.00     0.163 HD
ATOM     28  O   UNL     1       3.021  -8.518  -5.704  1.00  0.00    -0.269 OA
BRANCH  26  29
ATOM     29  C   UNL     1       4.395  -6.612  -5.681  1.00  0.00     0.039 A 
ATOM     30  C   UNL     1       4.563  -6.411  -7.052  1.00  0.00     0.014 A 
ATOM     31  C   UNL     1       5.244  -5.991  -4.763  1.00  0.00     0.014 A 
ATOM     32  C   UNL     1       5.535  -5.513  -7.499  1.00  0.00     0.010 A 
ATOM     33  C   UNL     1       6.128  -5.017  -5.203  1.00  0.00     0.010 A 
ATOM     34  C   UNL     1       6.293  -4.774  -6.575  1.00  0.00    -0.014 A 
BRANCH  34  35
ATOM     35  C   UNL     1       7.281  -3.752  -7.000  1.00  0.00     0.031 A 
ATOM     36  C   UNL     1       8.722  -3.901  -6.591  1.00  0.00     0.074 A 
ATOM     37  C   UNL     1       6.867  -2.641  -7.642  1.00  0.00     0.049 A 
ATOM     38  N   UNL     1       9.713  -3.062  -6.736  1.00  0.00    -0.248 NA
ATOM     39  C   UNL     1       9.086  -5.140  -5.881  1.00  0.00     0.031 C 
ATOM     40  C   UNL     1       5.484  -2.340  -8.018  1.00  0.00     0.029 A 
ATOM     41  N   UNL     1       7.571  -1.541  -8.066  1.00  0.00    -0.354 N 
ATOM     42  C   UNL     1      10.797  -3.645  -6.091  1.00  0.00     0.074 A 
ATOM     43  C   UNL     1      10.332  -4.886  -5.514  1.00  0.00     0.031 C 
ATOM     44  C   UNL     1       5.443  -1.145  -8.628  1.00  0.00     0.029 A 
ATOM     45  C   UNL     1       6.787  -0.579  -8.659  1.00  0.00     0.049 A 
ATOM     46  H   UNL     1       8.545  -1.450  -7.955  1.00  0.00     0.167 HD
ATOM     47  C   UNL     1      12.077  -3.210  -6.020  1.00  0.00     0.034 A 
ATOM     48  C   UNL     1       7.118   0.623  -9.170  1.00  0.00     0.034 A 
ATOM     49  C   UNL     1      12.550  -2.015  -6.662  1.00  0.00     0.049 A 
ATOM     50  C   UNL     1       8.560   1.052  -9.143  1.00  0.00     0.074 A 
ATOM     51  C   UNL     1      13.843  -1.531  -6.736  1.00  0.00     0.029 A 
ATOM     52  N   UNL     1      11.746  -1.123  -7.354  1.00  0.00    -0.354 N 
ATOM     53  N   UNL     1       9.600   0.418  -8.655  1.00  0.00    -0.248 NA
ATOM     54  C   UNL     1       8.883   2.344  -9.767  1.00  0.00     0.031 C 
ATOM     55  C   UNL     1      13.820  -0.341  -7.471  1.00  0.00     0.029 A 
ATOM     56  C   UNL     1      12.514  -0.092  -7.864  1.00  0.00     0.049 A 
ATOM     57  H   UNL     1      10.772  -1.210  -7.466  1.00  0.00     0.167 HD
ATOM     58  C   UNL     1      10.703   1.212  -8.949  1.00  0.00     0.074 A 
ATOM     59  C   UNL     1      10.206   2.366  -9.670  1.00  0.00     0.031 C 
ATOM     60  C   UNL     1      12.007   1.013  -8.636  1.00  0.00     0.034 A 
BRANCH  47  61
ATOM     61  C   UNL     1      13.064  -4.075  -5.282  1.00  0.00     0.023 A 
ATOM     62  C   UNL     1      13.457  -5.309  -5.842  1.00  0.00     0.012 A 
ATOM     63  C   UNL     1      13.622  -3.667  -4.055  1.00  0.00     0.148 A 
ATOM     64  C   UNL     1      14.352  -6.142  -5.174  1.00  0.00     0.002 A 
ATOM     65  C   UNL     1      14.550  -4.482  -3.417  1.00  0.00     0.091 A 
ATOM     66  F   UNL     1      13.219  -2.504  -3.523  1.00  0.00    -0.205 F 
ATOM     67  C   UNL     1      14.906  -5.724  -3.967  1.00  0.00     0.022 A 
BRANCH  65  68
ATOM     68  S   UNL     1      15.378  -3.994  -1.899  1.00  0.00     0.127 S 
ATOM     69  O   UNL     1      14.684  -4.815  -0.908  1.00  0.00    -0.237 OA
ATOM     70  O   UNL     1      16.762  -4.392  -2.158  1.00  0.00    -0.237 OA
ATOM     71  O   UNL     1      15.175  -2.557  -1.780  1.00  0.00    -0.744 OA
ENDBRANCH  65  68
ENDBRANCH  47  61
BRANCH  48  72
ATOM     72  C   UNL     1       6.081   1.459  -9.839  1.00  0.00     0.023 A 
ATOM     73  C   UNL     1       6.111   1.591 -11.242  1.00  0.00     0.012 A 
ATOM     74  C   UNL     1       5.050   2.087  -9.114  1.00  0.00     0.148 A 
ATOM     75  C   UNL     1       5.153   2.355 -11.908  1.00  0.00     0.002 A 
ATOM     76  C   UNL     1       4.068   2.806  -9.788  1.00  0.00     0.091 A 
ATOM     77  F   UNL     1       5.043   1.959  -7.779  1.00  0.00    -0.205 F 
ATOM     78  C   UNL     1       4.127   2.954 -11.183  1.00  0.00     0.022 A 
BRANCH  76  79
ATOM     79  S   UNL     1       2.639   3.503  -8.952  1.00  0.00     0.127 S 
ATOM     80  O   UNL     1       2.932   4.932  -8.998  1.00  0.00    -0.237 OA
ATOM     81  O   UNL     1       1.540   3.070  -9.817  1.00  0.00    -0.237 OA
ATOM     82  O   UNL     1       2.628   2.899  -7.626  1.00  0.00    -0.744 OA
ENDBRANCH  76  79
ENDBRANCH  48  72
BRANCH  60  83
ATOM     83  C   UNL     1      13.003   2.039  -9.105  1.00  0.00     0.023 A 
ATOM     84  C   UNL     1      13.079   3.286  -8.454  1.00  0.00     0.012 A 
ATOM     85  C   UNL     1      13.921   1.732 -10.129  1.00  0.00     0.148 A 
ATOM     86  C   UNL     1      14.041   4.222  -8.832  1.00  0.00     0.002 A 
ATOM     87  C   UNL     1      14.905   2.652 -10.468  1.00  0.00     0.091 A 
ATOM     88  F   UNL     1      13.816   0.548 -10.748  1.00  0.00    -0.205 F 
ATOM     89  C   UNL     1      14.960   3.901  -9.828  1.00  0.00     0.022 A 
BRANCH  87  90
ATOM     90  S   UNL     1      16.188   2.284 -11.671  1.00  0.00     0.127 S 
ATOM     91  O   UNL     1      15.750   3.071 -12.823  1.00  0.00    -0.237 OA
ATOM     92  O   UNL     1      17.391   2.789 -11.008  1.00  0.00    -0.237 OA
ATOM     93  O   UNL     1      16.162   0.839 -11.851  1.00  0.00    -0.744 OA
ENDBRANCH  87  90
ENDBRANCH  60  83
ENDBRANCH  34  35
ENDBRANCH  26  29
ENDBRANCH  24  25
ENDBRANCH  23  24
ENDBRANCH   1  23
TORSDOF 19
