REMARK SMILES Cc1ccc(S(=O)(=O)N2CCCC2)cc1C(=O)N[C@H](CC1=c2ccccc2=NC1)C(=O)NCCCNC(=O)c1ccc(-c2c3nc(c(-c4cccc(S(=O)(=O)[O-])c4F)c4ccc([nH]4)c(-c4cccc(S(=O)(=O)[O-])c4F)c4nc(c(-c5cccc(S(=O)(=O)[O-])c5F)c5ccc2[nH]5)C=C4)C=C3)cc1
REMARK SMILES IDX 33 1 32 2 30 3 31 4 19 6 18 7 16 8 17 9 15 11 1 12 2 13 3 14
REMARK SMILES IDX 4 15 14 16 5 17 6 18 7 19 8 20 9 21 10 22 13 23 11 24 12 25
REMARK SMILES IDX 20 26 21 27 22 28 29 29 23 30 27 31 28 32 24 33 26 34 25 35
REMARK SMILES IDX 34 36 35 37 36 38 37 39 38 41 39 42 40 43 101 44 41 45
REMARK SMILES IDX 100 46 42 47 43 48 44 49 94 50 45 51 99 52 93 53 95 54 46 55
REMARK SMILES IDX 98 56 92 57 91 58 47 60 79 61 59 62 78 63 60 64 63 65 77 66
REMARK SMILES IDX 96 67 61 68 62 69 76 71 97 72 64 73 48 74 49 75 57 76 50 77
REMARK SMILES IDX 52 78 58 79 51 80 53 81 54 82 55 83 56 84 80 85 81 86 89 87
REMARK SMILES IDX 82 88 84 89 90 90 83 91 85 92 86 93 87 94 88 95 65 96 66 97
REMARK SMILES IDX 74 98 67 99 69 100 75 101 68 102 70 103 71 104 72 105 73 106
REMARK H PARENT 32 5 18 10 36 40 95 59 63 70
REMARK Flexibility Score: inf
ROOT
ATOM      1  C   UNL     1       6.293   2.282   0.386  1.00  0.00     0.117 C 
ENDROOT
BRANCH   1   2
ATOM      2  N   UNL     1       5.446   1.494   1.249  1.00  0.00    -0.354 N 
ATOM      3  C   UNL     1       4.174   1.041   1.137  1.00  0.00     0.242 C 
ATOM      4  O   UNL     1       3.831   0.289   2.055  1.00  0.00    -0.273 OA
ATOM      5  H   UNL     1       5.881   1.233   2.092  1.00  0.00     0.163 HD
BRANCH   3   6
ATOM      6  C   UNL     1       3.220   1.292  -0.079  1.00  0.00     0.175 C 
BRANCH   6   7
ATOM      7  N   UNL     1       3.664   2.017  -1.318  1.00  0.00    -0.340 N 
ATOM      8  C   UNL     1       3.908   3.213  -1.938  1.00  0.00     0.252 C 
ATOM      9  O   UNL     1       4.333   3.045  -3.094  1.00  0.00    -0.269 OA
ATOM     10  H   UNL     1       3.873   1.320  -1.981  1.00  0.00     0.164 HD
BRANCH   8  11
ATOM     11  C   UNL     1       3.800   4.650  -1.488  1.00  0.00     0.044 A 
ATOM     12  C   UNL     1       2.418   4.382   0.637  1.00  0.00     0.045 C 
ATOM     13  C   UNL     1       3.128   5.177  -0.381  1.00  0.00    -0.038 A 
ATOM     14  C   UNL     1       3.057   6.570  -0.165  1.00  0.00     0.005 A 
ATOM     15  C   UNL     1       3.675   7.464  -1.013  1.00  0.00     0.022 A 
ATOM     16  C   UNL     1       4.461   5.595  -2.328  1.00  0.00     0.035 A 
ATOM     17  C   UNL     1       4.382   6.979  -2.104  1.00  0.00     0.083 A 
BRANCH  17  18
ATOM     18  S   UNL     1       5.028   8.226  -3.197  1.00  0.00     0.243 S 
ATOM     19  O   UNL     1       3.910   8.634  -4.020  1.00  0.00    -0.207 OA
ATOM     20  O   UNL     1       5.731   9.183  -2.366  1.00  0.00    -0.207 OA
BRANCH  18  21
ATOM     21  N   UNL     1       6.148   7.522  -4.196  1.00  0.00    -0.198 NA
ATOM     22  C   UNL     1       5.772   6.666  -5.324  1.00  0.00     0.102 C 
ATOM     23  C   UNL     1       7.536   7.292  -3.780  1.00  0.00     0.102 C 
ATOM     24  C   UNL     1       6.951   5.710  -5.456  1.00  0.00     0.018 C 
ATOM     25  C   UNL     1       8.124   6.551  -4.979  1.00  0.00     0.018 C 
ENDBRANCH  18  21
ENDBRANCH  17  18
ENDBRANCH   8  11
ENDBRANCH   6   7
BRANCH   6  26
ATOM     26  C   UNL     1       1.660   1.327   0.202  1.00  0.00     0.068 C 
BRANCH  26  27
ATOM     27  C   UNL     1       1.077   1.370   1.605  1.00  0.00    -0.037 C 
ATOM     28  C   UNL     1       0.945   0.381   2.492  1.00  0.00     0.001 A 
ATOM     29  C   UNL     1       0.420   2.603   2.172  1.00  0.00     0.174 C 
ATOM     30  C   UNL     1       1.268  -1.009   2.527  1.00  0.00     0.010 A 
ATOM     31  C   UNL     1       0.328   1.038   3.659  1.00  0.00     0.065 A 
ATOM     32  N   UNL     1      -0.080   2.259   3.517  1.00  0.00    -0.280 NA
ATOM     33  C   UNL     1       1.114  -1.681   3.680  1.00  0.00     0.001 A 
ATOM     34  C   UNL     1       0.237   0.256   4.905  1.00  0.00     0.028 A 
ATOM     35  C   UNL     1       0.638  -1.025   4.887  1.00  0.00     0.002 A 
ENDBRANCH  26  27
ENDBRANCH   6  26
ENDBRANCH   3   6
ENDBRANCH   1   2
BRANCH   1  36
ATOM     36  C   UNL     1       6.106   3.765   0.623  1.00  0.00     0.042 C 
BRANCH  36  37
ATOM     37  C   UNL     1       6.961   4.368   1.730  1.00  0.00     0.118 C 
BRANCH  37  38
ATOM     38  N   UNL     1       7.759   5.448   1.146  1.00  0.00    -0.352 N 
ATOM     39  C   UNL     1       7.980   6.751   1.542  1.00  0.00     0.251 C 
ATOM     40  H   UNL     1       8.225   5.197   0.316  1.00  0.00     0.163 HD
ATOM     41  O   UNL     1       8.423   7.569   0.745  1.00  0.00    -0.269 OA
BRANCH  39  42
ATOM     42  C   UNL     1       7.884   7.053   2.982  1.00  0.00     0.039 A 
ATOM     43  C   UNL     1       9.126   7.118   3.627  1.00  0.00     0.014 A 
ATOM     44  C   UNL     1       6.727   6.705   3.666  1.00  0.00     0.014 A 
ATOM     45  C   UNL     1       9.278   6.492   4.851  1.00  0.00     0.010 A 
ATOM     46  C   UNL     1       6.889   6.019   4.850  1.00  0.00     0.010 A 
ATOM     47  C   UNL     1       8.178   5.831   5.378  1.00  0.00    -0.014 A 
BRANCH  47  48
ATOM     48  C   UNL     1       8.250   4.908   6.493  1.00  0.00     0.031 A 
ATOM     49  C   UNL     1       7.927   5.421   7.834  1.00  0.00     0.074 A 
ATOM     50  C   UNL     1       8.428   3.587   6.263  1.00  0.00     0.049 A 
ATOM     51  N   UNL     1       8.102   4.752   8.917  1.00  0.00    -0.248 NA
ATOM     52  C   UNL     1       7.432   6.778   8.060  1.00  0.00     0.031 C 
ATOM     53  C   UNL     1       8.071   2.489   7.156  1.00  0.00     0.029 A 
ATOM     54  N   UNL     1       9.184   2.974   5.255  1.00  0.00    -0.354 N 
ATOM     55  C   UNL     1       7.460   5.440   9.918  1.00  0.00     0.074 A 
ATOM     56  C   UNL     1       7.192   6.745   9.374  1.00  0.00     0.031 C 
ATOM     57  C   UNL     1       8.804   1.413   6.836  1.00  0.00     0.029 A 
ATOM     58  C   UNL     1       9.780   1.845   5.853  1.00  0.00     0.049 A 
ATOM     59  H   UNL     1       9.280   3.271   4.321  1.00  0.00     0.167 HD
ATOM     60  C   UNL     1       7.093   4.758  11.033  1.00  0.00     0.034 A 
ATOM     61  C   UNL     1      11.127   1.648   5.955  1.00  0.00     0.034 A 
ATOM     62  C   UNL     1       7.775   3.460  11.090  1.00  0.00     0.049 A 
ATOM     63  C   UNL     1      11.603   1.482   7.389  1.00  0.00     0.074 A 
ATOM     64  C   UNL     1       7.378   2.160  10.837  1.00  0.00     0.029 A 
ATOM     65  N   UNL     1       9.164   3.439  11.180  1.00  0.00    -0.354 N 
ATOM     66  N   UNL     1      10.853   1.689   8.437  1.00  0.00    -0.248 NA
ATOM     67  C   UNL     1      12.959   1.086   7.760  1.00  0.00     0.031 C 
ATOM     68  C   UNL     1       8.554   1.378  10.654  1.00  0.00     0.029 A 
ATOM     69  C   UNL     1       9.661   2.190  10.849  1.00  0.00     0.049 A 
ATOM     70  H   UNL     1       9.719   4.209  11.443  1.00  0.00     0.167 HD
ATOM     71  C   UNL     1      11.603   1.595   9.581  1.00  0.00     0.074 A 
ATOM     72  C   UNL     1      12.898   1.139   9.103  1.00  0.00     0.031 C 
ATOM     73  C   UNL     1      11.104   1.959  10.806  1.00  0.00     0.034 A 
BRANCH  60  74
ATOM     74  C   UNL     1       5.990   5.159  11.992  1.00  0.00     0.023 A 
ATOM     75  C   UNL     1       5.791   4.327  13.116  1.00  0.00     0.012 A 
ATOM     76  C   UNL     1       5.048   6.205  11.817  1.00  0.00     0.148 A 
ATOM     77  C   UNL     1       4.723   4.508  14.002  1.00  0.00     0.002 A 
ATOM     78  C   UNL     1       4.022   6.427  12.741  1.00  0.00     0.091 A 
ATOM     79  F   UNL     1       5.058   6.945  10.707  1.00  0.00    -0.205 F 
ATOM     80  C   UNL     1       3.845   5.567  13.825  1.00  0.00     0.022 A 
BRANCH  78  81
ATOM     81  S   UNL     1       2.881   7.817  12.598  1.00  0.00     0.127 S 
ATOM     82  O   UNL     1       1.637   7.155  12.208  1.00  0.00    -0.237 OA
ATOM     83  O   UNL     1       2.879   8.364  13.955  1.00  0.00    -0.237 OA
ATOM     84  O   UNL     1       3.451   8.710  11.596  1.00  0.00    -0.744 OA
ENDBRANCH  78  81
ENDBRANCH  60  74
BRANCH  61  85
ATOM     85  C   UNL     1      11.905   2.247   4.834  1.00  0.00     0.023 A 
ATOM     86  C   UNL     1      11.698   1.679   3.553  1.00  0.00     0.012 A 
ATOM     87  C   UNL     1      12.452   3.538   4.925  1.00  0.00     0.148 A 
ATOM     88  C   UNL     1      11.889   2.432   2.395  1.00  0.00     0.002 A 
ATOM     89  C   UNL     1      12.638   4.285   3.762  1.00  0.00     0.091 A 
ATOM     90  F   UNL     1      12.687   4.048   6.141  1.00  0.00    -0.205 F 
ATOM     91  C   UNL     1      12.320   3.748   2.503  1.00  0.00     0.022 A 
BRANCH  89  92
ATOM     92  S   UNL     1      13.143   6.010   3.804  1.00  0.00     0.127 S 
ATOM     93  O   UNL     1      14.558   5.908   3.460  1.00  0.00    -0.237 OA
ATOM     94  O   UNL     1      12.299   6.600   2.766  1.00  0.00    -0.237 OA
ATOM     95  O   UNL     1      12.838   6.460   5.153  1.00  0.00    -0.744 OA
ENDBRANCH  89  92
ENDBRANCH  61  85
BRANCH  73  96
ATOM     96  C   UNL     1      11.922   2.157  12.077  1.00  0.00     0.023 A 
ATOM     97  C   UNL     1      13.320   2.336  12.060  1.00  0.00     0.012 A 
ATOM     98  C   UNL     1      11.286   2.324  13.338  1.00  0.00     0.148 A 
ATOM     99  C   UNL     1      14.054   2.602  13.224  1.00  0.00     0.002 A 
ATOM    100  C   UNL     1      12.005   2.705  14.470  1.00  0.00     0.091 A 
ATOM    101  F   UNL     1       9.970   2.096  13.460  1.00  0.00    -0.205 F 
ATOM    102  C   UNL     1      13.395   2.812  14.425  1.00  0.00     0.022 A 
BRANCH 100 103
ATOM    103  S   UNL     1      11.157   3.233  15.967  1.00  0.00     0.127 S 
ATOM    104  O   UNL     1      11.067   1.988  16.724  1.00  0.00    -0.237 OA
ATOM    105  O   UNL     1      12.084   4.220  16.526  1.00  0.00    -0.237 OA
ATOM    106  O   UNL     1       9.898   3.800  15.500  1.00  0.00    -0.744 OA
ENDBRANCH 100 103
ENDBRANCH  73  96
ENDBRANCH  47  48
ENDBRANCH  39  42
ENDBRANCH  37  38
ENDBRANCH  36  37
ENDBRANCH   1  36
TORSDOF 19
