REMARK SMILES CCNC(=O)N1CC[C@H](Cc2cccc(C(=O)NCCCNC(=O)c3ccc(-c4c5nc(c(-c6cccc(S(=O)(=O)[O-])c6F)c6ccc([nH]6)c(-c6cccc(S(=O)(=O)[O-])c6F)c6nc(c(-c7cccc(S(=O)(=O)[O-])c7F)c7ccc4[nH]7)C=C6)C=C5)cc3)c2)C1
REMARK SMILES IDX 19 1 18 2 16 3 17 4 15 6 11 7 12 8 88 9 13 10 14 11 10 12
REMARK SMILES IDX 9 13 6 14 7 15 89 16 8 17 4 18 3 19 5 21 2 22 1 23 20 24
REMARK SMILES IDX 21 25 22 26 23 27 24 29 25 30 26 31 87 32 27 33 86 34 28 35
REMARK SMILES IDX 29 36 30 37 80 38 31 39 85 40 79 41 81 42 32 43 84 44 78 45
REMARK SMILES IDX 77 46 33 48 65 49 45 50 64 51 46 52 49 53 63 54 82 55 47 56
REMARK SMILES IDX 48 57 62 59 83 60 50 61 34 62 35 63 43 64 36 65 38 66 44 67
REMARK SMILES IDX 37 68 39 69 40 70 41 71 42 72 66 73 67 74 75 75 68 76 70 77
REMARK SMILES IDX 76 78 69 79 71 80 72 81 73 82 74 83 51 84 52 85 60 86 53 87
REMARK SMILES IDX 55 88 61 89 54 90 56 91 57 92 58 93 59 94
REMARK H PARENT 18 5 3 20 22 28 81 47 49 58
REMARK Flexibility Score: inf
ROOT
ATOM      1  C   UNL     1      -7.759  -3.270   2.483  1.00  0.00     0.118 C 
ENDROOT
BRANCH   1   2
ATOM      2  N   UNL     1      -8.797  -2.522   1.797  1.00  0.00    -0.352 N 
ATOM      3  C   UNL     1      -8.836  -1.293   1.190  1.00  0.00     0.251 C 
ATOM      4  O   UNL     1      -9.891  -0.995   0.625  1.00  0.00    -0.269 OA
ATOM      5  H   UNL     1      -9.657  -2.999   1.760  1.00  0.00     0.163 HD
BRANCH   3   6
ATOM      6  C   UNL     1      -7.689  -0.336   1.123  1.00  0.00     0.040 A 
ATOM      7  C   UNL     1      -5.439   0.445   1.678  1.00  0.00    -0.047 A 
ATOM      8  C   UNL     1      -5.574   1.492   0.762  1.00  0.00     0.004 A 
ATOM      9  C   UNL     1      -6.532  -0.410   1.899  1.00  0.00     0.017 A 
ATOM     10  C   UNL     1      -6.757   1.643   0.043  1.00  0.00     0.001 A 
ATOM     11  C   UNL     1      -7.794   0.722   0.205  1.00  0.00     0.014 A 
BRANCH   7  12
ATOM     12  C   UNL     1      -4.139   0.229   2.422  1.00  0.00     0.041 C 
BRANCH  12  13
ATOM     13  C   UNL     1      -3.597  -1.207   2.301  1.00  0.00     0.015 C 
ATOM     14  N   UNL     1      -1.363  -1.946   2.051  1.00  0.00    -0.325 N 
ATOM     15  C   UNL     1      -2.128  -2.581   0.999  1.00  0.00     0.121 C 
ATOM     16  C   UNL     1      -2.260  -1.388   3.042  1.00  0.00     0.125 C 
ATOM     17  C   UNL     1      -3.291  -1.624   0.845  1.00  0.00     0.027 C 
BRANCH  14  18
ATOM     18  C   UNL     1      -0.028  -2.036   2.278  1.00  0.00     0.317 C 
ATOM     19  N   UNL     1       0.816  -2.024   1.215  1.00  0.00    -0.338 N 
ATOM     20  H   UNL     1       1.636  -2.563   1.300  1.00  0.00     0.165 HD
ATOM     21  O   UNL     1       0.458  -2.069   3.407  1.00  0.00    -0.249 OA
BRANCH  19  22
ATOM     22  C   UNL     1       0.643  -1.305  -0.035  1.00  0.00     0.114 C 
ATOM     23  C   UNL     1       1.297   0.066   0.028  1.00  0.00     0.027 C 
ENDBRANCH  19  22
ENDBRANCH  14  18
ENDBRANCH  12  13
ENDBRANCH   7  12
ENDBRANCH   3   6
ENDBRANCH   1   2
BRANCH   1  24
ATOM     24  C   UNL     1      -7.838  -3.084   3.999  1.00  0.00     0.042 C 
BRANCH  24  25
ATOM     25  C   UNL     1      -8.922  -3.938   4.657  1.00  0.00     0.118 C 
BRANCH  25  26
ATOM     26  N   UNL     1      -8.639  -5.363   4.530  1.00  0.00    -0.352 N 
ATOM     27  C   UNL     1      -8.412  -6.321   5.484  1.00  0.00     0.251 C 
ATOM     28  H   UNL     1      -8.605  -5.692   3.603  1.00  0.00     0.163 HD
ATOM     29  O   UNL     1      -7.933  -7.399   5.137  1.00  0.00    -0.269 OA
BRANCH  27  30
ATOM     30  C   UNL     1      -8.743  -6.084   6.906  1.00  0.00     0.039 A 
ATOM     31  C   UNL     1      -7.925  -6.648   7.891  1.00  0.00     0.014 A 
ATOM     32  C   UNL     1      -9.893  -5.382   7.277  1.00  0.00     0.014 A 
ATOM     33  C   UNL     1      -8.240  -6.478   9.241  1.00  0.00     0.010 A 
ATOM     34  C   UNL     1     -10.162  -5.146   8.623  1.00  0.00     0.010 A 
ATOM     35  C   UNL     1      -9.350  -5.706   9.620  1.00  0.00    -0.014 A 
BRANCH  35  36
ATOM     36  C   UNL     1      -9.681  -5.479  11.050  1.00  0.00     0.031 A 
ATOM     37  C   UNL     1     -10.987  -5.972  11.616  1.00  0.00     0.074 A 
ATOM     38  C   UNL     1      -8.843  -4.754  11.816  1.00  0.00     0.049 A 
ATOM     39  N   UNL     1     -11.474  -5.819  12.820  1.00  0.00    -0.248 NA
ATOM     40  C   UNL     1     -11.878  -6.706  10.702  1.00  0.00     0.031 C 
ATOM     41  C   UNL     1      -7.590  -4.149  11.358  1.00  0.00     0.029 A 
ATOM     42  N   UNL     1      -8.930  -4.379  13.133  1.00  0.00    -0.354 N 
ATOM     43  C   UNL     1     -12.739  -6.396  12.797  1.00  0.00     0.074 A 
ATOM     44  C   UNL     1     -12.959  -6.873  11.450  1.00  0.00     0.031 C 
ATOM     45  C   UNL     1      -7.024  -3.484  12.378  1.00  0.00     0.029 A 
ATOM     46  C   UNL     1      -7.883  -3.592  13.552  1.00  0.00     0.049 A 
ATOM     47  H   UNL     1      -9.672  -4.647  13.722  1.00  0.00     0.167 HD
ATOM     48  C   UNL     1     -13.624  -6.544  13.811  1.00  0.00     0.034 A 
ATOM     49  C   UNL     1      -7.643  -3.019  14.748  1.00  0.00     0.034 A 
ATOM     50  C   UNL     1     -13.374  -6.118  15.162  1.00  0.00     0.049 A 
ATOM     51  C   UNL     1      -8.610  -3.258  15.876  1.00  0.00     0.074 A 
ATOM     52  C   UNL     1     -14.161  -6.307  16.284  1.00  0.00     0.029 A 
ATOM     53  N   UNL     1     -12.253  -5.415  15.574  1.00  0.00    -0.354 N 
ATOM     54  N   UNL     1      -9.725  -3.948  15.874  1.00  0.00    -0.248 NA
ATOM     55  C   UNL     1      -8.266  -2.674  17.180  1.00  0.00     0.031 C 
ATOM     56  C   UNL     1     -13.522  -5.703  17.372  1.00  0.00     0.029 A 
ATOM     57  C   UNL     1     -12.327  -5.157  16.932  1.00  0.00     0.049 A 
ATOM     58  H   UNL     1     -11.512  -5.138  14.987  1.00  0.00     0.167 HD
ATOM     59  C   UNL     1     -10.197  -3.911  17.180  1.00  0.00     0.074 A 
ATOM     60  C   UNL     1      -9.235  -3.150  17.951  1.00  0.00     0.031 C 
ATOM     61  C   UNL     1     -11.334  -4.445  17.694  1.00  0.00     0.034 A 
BRANCH  48  62
ATOM     62  C   UNL     1     -14.922  -7.251  13.513  1.00  0.00     0.023 A 
ATOM     63  C   UNL     1     -14.915  -8.639  13.263  1.00  0.00     0.012 A 
ATOM     64  C   UNL     1     -16.150  -6.561  13.535  1.00  0.00     0.148 A 
ATOM     65  C   UNL     1     -16.102  -9.322  13.001  1.00  0.00     0.002 A 
ATOM     66  C   UNL     1     -17.334  -7.258  13.318  1.00  0.00     0.091 A 
ATOM     67  F   UNL     1     -16.138  -5.239  13.754  1.00  0.00    -0.205 F 
ATOM     68  C   UNL     1     -17.311  -8.634  13.039  1.00  0.00     0.022 A 
BRANCH  66  69
ATOM     69  S   UNL     1     -18.951  -6.480  13.424  1.00  0.00     0.127 S 
ATOM     70  O   UNL     1     -19.359  -6.456  12.020  1.00  0.00    -0.237 OA
ATOM     71  O   UNL     1     -19.694  -7.424  14.258  1.00  0.00    -0.237 OA
ATOM     72  O   UNL     1     -18.729  -5.176  14.033  1.00  0.00    -0.744 OA
ENDBRANCH  66  69
ENDBRANCH  48  62
BRANCH  49  73
ATOM     73  C   UNL     1      -6.394  -2.234  14.958  1.00  0.00     0.023 A 
ATOM     74  C   UNL     1      -5.374  -2.765  15.771  1.00  0.00     0.012 A 
ATOM     75  C   UNL     1      -6.194  -0.989  14.330  1.00  0.00     0.148 A 
ATOM     76  C   UNL     1      -4.191  -2.057  15.982  1.00  0.00     0.002 A 
ATOM     77  C   UNL     1      -4.990  -0.314  14.501  1.00  0.00     0.091 A 
ATOM     78  F   UNL     1      -7.180  -0.496  13.568  1.00  0.00    -0.205 F 
ATOM     79  C   UNL     1      -3.994  -0.838  15.339  1.00  0.00     0.022 A 
BRANCH  77  80
ATOM     80  S   UNL     1      -4.599   1.194  13.607  1.00  0.00     0.127 S 
ATOM     81  O   UNL     1      -4.687   2.199  14.662  1.00  0.00    -0.237 OA
ATOM     82  O   UNL     1      -3.245   0.920  13.126  1.00  0.00    -0.237 OA
ATOM     83  O   UNL     1      -5.599   1.293  12.551  1.00  0.00    -0.744 OA
ENDBRANCH  77  80
ENDBRANCH  49  73
BRANCH  61  84
ATOM     84  C   UNL     1     -11.587  -4.256  19.166  1.00  0.00     0.023 A 
ATOM     85  C   UNL     1     -11.963  -2.990  19.655  1.00  0.00     0.012 A 
ATOM     86  C   UNL     1     -11.523  -5.349  20.052  1.00  0.00     0.148 A 
ATOM     87  C   UNL     1     -12.237  -2.806  21.009  1.00  0.00     0.002 A 
ATOM     88  C   UNL     1     -11.845  -5.170  21.392  1.00  0.00     0.091 A 
ATOM     89  F   UNL     1     -11.143  -6.543  19.571  1.00  0.00    -0.205 F 
ATOM     90  C   UNL     1     -12.190  -3.897  21.875  1.00  0.00     0.022 A 
BRANCH  88  91
ATOM     91  S   UNL     1     -11.905  -6.537  22.556  1.00  0.00     0.127 S 
ATOM     92  O   UNL     1     -10.687  -6.320  23.333  1.00  0.00    -0.237 OA
ATOM     93  O   UNL     1     -13.148  -6.273  23.283  1.00  0.00    -0.237 OA
ATOM     94  O   UNL     1     -11.927  -7.748  21.747  1.00  0.00    -0.744 OA
ENDBRANCH  88  91
ENDBRANCH  61  84
ENDBRANCH  35  36
ENDBRANCH  27  30
ENDBRANCH  25  26
ENDBRANCH  24  25
ENDBRANCH   1  24
TORSDOF 17
