REMARK SMILES O=C(CS(=O)(=O)Nc1ccc2ccccc2c1)NCCCNC(=O)c1ccc(-c2c3nc(c(-c4cccc(S(=O)(=O)[O-])c4F)c4ccc([nH]4)c(-c4cccc(S(=O)(=O)[O-])c4F)c4nc(c(-c5cccc(S(=O)(=O)[O-])c5F)c5ccc2[nH]5)C=C4)C=C3)cc1
REMARK SMILES IDX 20 1 19 2 18 3 1 4 2 5 3 7 4 8 5 9 6 10 7 11 8 13 9 14 17 15
REMARK SMILES IDX 10 16 16 17 11 18 15 19 12 20 14 21 13 22 21 23 22 24 23 25
REMARK SMILES IDX 24 27 25 28 26 29 87 30 27 31 86 32 28 33 29 34 30 35 80 36
REMARK SMILES IDX 31 37 85 38 79 39 81 40 32 41 84 42 78 43 77 44 33 46 65 47
REMARK SMILES IDX 45 48 64 49 46 50 49 51 63 52 82 53 47 54 48 55 62 57 83 58
REMARK SMILES IDX 50 59 34 60 35 61 43 62 36 63 38 64 44 65 37 66 39 67 40 68
REMARK SMILES IDX 41 69 42 70 66 71 67 72 75 73 68 74 70 75 76 76 69 77 71 78
REMARK SMILES IDX 72 79 73 80 74 81 51 82 52 83 60 84 53 85 55 86 61 87 54 88
REMARK SMILES IDX 56 89 57 90 58 91 59 92
REMARK H PARENT 18 6 7 12 22 26 81 45 49 56
REMARK Flexibility Score: inf
ROOT
ATOM      1  C   UNL     1       2.582   2.125   2.807  1.00  0.00     0.042 C 
ENDROOT
BRANCH   1   2
ATOM      2  C   UNL     1       2.235   1.945   1.344  1.00  0.00     0.117 C 
BRANCH   2   3
ATOM      3  N   UNL     1       2.959   0.867   0.695  1.00  0.00    -0.355 N 
ATOM      4  O   UNL     1       1.266  -0.655   0.781  1.00  0.00    -0.274 OA
ATOM      5  C   UNL     1       2.353  -0.308   0.316  1.00  0.00     0.237 C 
ATOM      6  H   UNL     1       3.921   0.981   0.519  1.00  0.00     0.163 HD
BRANCH   5   7
ATOM      7  C   UNL     1       3.069  -1.194  -0.664  1.00  0.00     0.259 C 
BRANCH   7   8
ATOM      8  S   UNL     1       3.981  -0.328  -1.931  1.00  0.00     0.241 S 
ATOM      9  O   UNL     1       4.630   0.828  -1.348  1.00  0.00    -0.206 OA
ATOM     10  O   UNL     1       4.797  -1.323  -2.608  1.00  0.00    -0.206 OA
BRANCH   8  11
ATOM     11  N   UNL     1       2.962   0.205  -3.143  1.00  0.00    -0.283 N 
ATOM     12  H   UNL     1       3.362   0.407  -4.020  1.00  0.00     0.180 HD
BRANCH  11  13
ATOM     13  C   UNL     1       1.557   0.388  -3.002  1.00  0.00     0.049 A 
ATOM     14  C   UNL     1       0.994   1.120  -1.970  1.00  0.00     0.027 A 
ATOM     15  C   UNL     1       0.726  -0.100  -4.012  1.00  0.00     0.035 A 
ATOM     16  C   UNL     1      -0.393   1.172  -1.808  1.00  0.00     0.011 A 
ATOM     17  C   UNL     1      -0.672   0.030  -3.925  1.00  0.00    -0.016 A 
ATOM     18  C   UNL     1      -1.240   0.619  -2.775  1.00  0.00    -0.018 A 
ATOM     19  C   UNL     1      -1.517  -0.412  -4.954  1.00  0.00     0.009 A 
ATOM     20  C   UNL     1      -2.635   0.673  -2.642  1.00  0.00     0.009 A 
ATOM     21  C   UNL     1      -2.904  -0.309  -4.830  1.00  0.00     0.001 A 
ATOM     22  C   UNL     1      -3.462   0.211  -3.666  1.00  0.00     0.001 A 
ENDBRANCH  11  13
ENDBRANCH   8  11
ENDBRANCH   7   8
ENDBRANCH   5   7
ENDBRANCH   2   3
ENDBRANCH   1   2
BRANCH   1  23
ATOM     23  C   UNL     1       4.052   2.418   3.070  1.00  0.00     0.118 C 
BRANCH  23  24
ATOM     24  N   UNL     1       4.520   3.662   2.470  1.00  0.00    -0.352 N 
ATOM     25  C   UNL     1       5.180   4.724   3.045  1.00  0.00     0.251 C 
ATOM     26  H   UNL     1       4.336   3.757   1.508  1.00  0.00     0.163 HD
ATOM     27  O   UNL     1       5.385   5.739   2.385  1.00  0.00    -0.269 OA
BRANCH  25  28
ATOM     28  C   UNL     1       5.615   4.661   4.459  1.00  0.00     0.039 A 
ATOM     29  C   UNL     1       5.440   5.787   5.269  1.00  0.00     0.014 A 
ATOM     30  C   UNL     1       6.188   3.504   4.991  1.00  0.00     0.014 A 
ATOM     31  C   UNL     1       5.768   5.723   6.626  1.00  0.00     0.010 A 
ATOM     32  C   UNL     1       6.423   3.412   6.360  1.00  0.00     0.010 A 
ATOM     33  C   UNL     1       6.223   4.521   7.194  1.00  0.00    -0.014 A 
BRANCH  33  34
ATOM     34  C   UNL     1       6.479   4.404   8.653  1.00  0.00     0.031 A 
ATOM     35  C   UNL     1       7.854   4.060   9.162  1.00  0.00     0.074 A 
ATOM     36  C   UNL     1       5.454   4.527   9.521  1.00  0.00     0.049 A 
ATOM     37  N   UNL     1       8.255   3.875  10.394  1.00  0.00    -0.248 NA
ATOM     38  C   UNL     1       8.913   3.873   8.156  1.00  0.00     0.031 C 
ATOM     39  C   UNL     1       4.058   4.776   9.153  1.00  0.00     0.029 A 
ATOM     40  N   UNL     1       5.422   4.434  10.891  1.00  0.00    -0.354 N 
ATOM     41  C   UNL     1       9.595   3.516  10.309  1.00  0.00     0.074 A 
ATOM     42  C   UNL     1       9.931   3.472   8.903  1.00  0.00     0.031 C 
ATOM     43  C   UNL     1       3.310   4.826  10.267  1.00  0.00     0.029 A 
ATOM     44  C   UNL     1       4.162   4.579  11.425  1.00  0.00     0.049 A 
ATOM     45  H   UNL     1       6.225   4.278  11.439  1.00  0.00     0.167 HD
ATOM     46  C   UNL     1      10.475   3.274  11.309  1.00  0.00     0.034 A 
ATOM     47  C   UNL     1       3.738   4.513  12.703  1.00  0.00     0.034 A 
ATOM     48  C   UNL     1      10.149   3.355  12.708  1.00  0.00     0.049 A 
ATOM     49  C   UNL     1       4.743   4.276  13.797  1.00  0.00     0.074 A 
ATOM     50  C   UNL     1      10.991   3.216  13.796  1.00  0.00     0.029 A 
ATOM     51  N   UNL     1       8.878   3.584  13.213  1.00  0.00    -0.354 N 
ATOM     52  N   UNL     1       6.039   4.100  13.704  1.00  0.00    -0.248 NA
ATOM     53  C   UNL     1       4.234   4.267  15.176  1.00  0.00     0.031 C 
ATOM     54  C   UNL     1      10.224   3.328  14.960  1.00  0.00     0.029 A 
ATOM     55  C   UNL     1       8.911   3.577  14.597  1.00  0.00     0.049 A 
ATOM     56  H   UNL     1       8.072   3.731  12.667  1.00  0.00     0.167 HD
ATOM     57  C   UNL     1       6.505   3.998  15.009  1.00  0.00     0.074 A 
ATOM     58  C   UNL     1       5.355   4.153  15.876  1.00  0.00     0.031 C 
ATOM     59  C   UNL     1       7.769   3.782  15.451  1.00  0.00     0.034 A 
BRANCH  46  60
ATOM     60  C   UNL     1      11.896   2.943  10.928  1.00  0.00     0.023 A 
ATOM     61  C   UNL     1      12.722   3.944  10.375  1.00  0.00     0.012 A 
ATOM     62  C   UNL     1      12.433   1.664  11.172  1.00  0.00     0.148 A 
ATOM     63  C   UNL     1      14.045   3.668  10.036  1.00  0.00     0.002 A 
ATOM     64  C   UNL     1      13.767   1.410  10.877  1.00  0.00     0.091 A 
ATOM     65  F   UNL     1      11.629   0.719  11.681  1.00  0.00    -0.205 F 
ATOM     66  C   UNL     1      14.570   2.406  10.296  1.00  0.00     0.022 A 
BRANCH  64  67
ATOM     67  S   UNL     1      14.563  -0.156  11.251  1.00  0.00     0.127 S 
ATOM     68  O   UNL     1      14.781  -0.703   9.913  1.00  0.00    -0.237 OA
ATOM     69  O   UNL     1      15.780   0.275  11.939  1.00  0.00    -0.237 OA
ATOM     70  O   UNL     1      13.624  -0.897  12.082  1.00  0.00    -0.744 OA
ENDBRANCH  64  67
ENDBRANCH  46  60
BRANCH  47  71
ATOM     71  C   UNL     1       2.298   4.732  13.023  1.00  0.00     0.023 A 
ATOM     72  C   UNL     1       1.911   5.901  13.707  1.00  0.00     0.012 A 
ATOM     73  C   UNL     1       1.312   3.803  12.640  1.00  0.00     0.148 A 
ATOM     74  C   UNL     1       0.573   6.123  14.037  1.00  0.00     0.002 A 
ATOM     75  C   UNL     1      -0.025   4.057  12.920  1.00  0.00     0.091 A 
ATOM     76  F   UNL     1       1.702   2.692  11.998  1.00  0.00    -0.205 F 
ATOM     77  C   UNL     1      -0.395   5.207  13.635  1.00  0.00     0.022 A 
BRANCH  75  78
ATOM     78  S   UNL     1      -1.352   3.001  12.329  1.00  0.00     0.127 S 
ATOM     79  O   UNL     1      -1.837   2.407  13.572  1.00  0.00    -0.237 OA
ATOM     80  O   UNL     1      -2.258   3.972  11.714  1.00  0.00    -0.237 OA
ATOM     81  O   UNL     1      -0.732   2.078  11.388  1.00  0.00    -0.744 OA
ENDBRANCH  75  78
ENDBRANCH  47  71
BRANCH  59  82
ATOM     82  C   UNL     1       7.993   3.745  16.941  1.00  0.00     0.023 A 
ATOM     83  C   UNL     1       7.526   2.652  17.698  1.00  0.00     0.012 A 
ATOM     84  C   UNL     1       8.730   4.763  17.578  1.00  0.00     0.148 A 
ATOM     85  C   UNL     1       7.755   2.593  19.072  1.00  0.00     0.002 A 
ATOM     86  C   UNL     1       9.001   4.670  18.938  1.00  0.00     0.091 A 
ATOM     87  F   UNL     1       9.152   5.803  16.845  1.00  0.00    -0.205 F 
ATOM     88  C   UNL     1       8.502   3.594  19.689  1.00  0.00     0.022 A 
BRANCH  86  89
ATOM     89  S   UNL     1      10.037   5.859  19.798  1.00  0.00     0.127 S 
ATOM     90  O   UNL     1       9.057   6.571  20.617  1.00  0.00    -0.237 OA
ATOM     91  O   UNL     1      10.945   4.992  20.549  1.00  0.00    -0.237 OA
ATOM     92  O   UNL     1      10.681   6.655  18.762  1.00  0.00    -0.744 OA
ENDBRANCH  86  89
ENDBRANCH  59  82
ENDBRANCH  33  34
ENDBRANCH  25  28
ENDBRANCH  23  24
ENDBRANCH   1  23
TORSDOF 16
