REMARK SMILES Cc1ccc(OC(F)(F)F)cc1C(=O)NCCCNC(=O)c1ccc(-c2c3nc(c(-c4cccc(S(=O)(=O)[O-])c4F)c4ccc([nH]4)c(-c4cccc(S(=O)(=O)[O-])c4F)c4nc(c(-c5cccc(S(=O)(=O)[O-])c5F)c5ccc2[nH]5)C=C4)C=C3)cc1
REMARK SMILES IDX 17 1 16 2 15 3 13 4 14 5 12 7 1 8 2 9 3 10 4 11 11 12 5 13
REMARK SMILES IDX 6 14 7 15 8 16 9 17 10 18 18 19 19 20 20 21 21 23 22 24
REMARK SMILES IDX 23 25 84 26 24 27 83 28 25 29 26 30 27 31 77 32 28 33 82 34
REMARK SMILES IDX 76 35 78 36 29 37 81 38 75 39 74 40 30 42 62 43 42 44 61 45
REMARK SMILES IDX 43 46 46 47 60 48 79 49 44 50 45 51 59 53 80 54 47 55 31 56
REMARK SMILES IDX 32 57 40 58 33 59 35 60 41 61 34 62 36 63 37 64 38 65 39 66
REMARK SMILES IDX 63 67 64 68 72 69 65 70 67 71 73 72 66 73 68 74 69 75 70 76
REMARK SMILES IDX 71 77 48 78 49 79 57 80 50 81 52 82 58 83 51 84 53 85 54 86
REMARK SMILES IDX 55 87 56 88
REMARK H PARENT 15 6 19 22 78 41 46 52
REMARK Flexibility Score: inf
ROOT
ATOM      1  C   UNL     1       4.090   0.672  -0.504  1.00  0.00     0.042 C 
ENDROOT
BRANCH   1   2
ATOM      2  C   UNL     1       3.227   1.310   0.583  1.00  0.00     0.118 C 
BRANCH   2   3
ATOM      3  N   UNL     1       2.175   2.124   0.012  1.00  0.00    -0.352 N 
ATOM      4  C   UNL     1       0.859   1.919  -0.305  1.00  0.00     0.251 C 
ATOM      5  O   UNL     1       0.275   2.896  -0.788  1.00  0.00    -0.269 OA
ATOM      6  H   UNL     1       2.476   3.038  -0.196  1.00  0.00     0.163 HD
BRANCH   4   7
ATOM      7  C   UNL     1       0.031   0.685  -0.057  1.00  0.00     0.046 A 
ATOM      8  C   UNL     1       1.664  -1.210  -0.722  1.00  0.00     0.045 C 
ATOM      9  C   UNL     1       0.365  -0.675  -0.215  1.00  0.00    -0.038 A 
ATOM     10  C   UNL     1      -0.613  -1.662   0.032  1.00  0.00     0.008 A 
ATOM     11  C   UNL     1      -1.933  -1.327   0.302  1.00  0.00     0.047 A 
ATOM     12  C   UNL     1      -1.329   0.992   0.225  1.00  0.00     0.061 A 
ATOM     13  C   UNL     1      -2.310   0.006   0.351  1.00  0.00     0.130 A 
BRANCH  13  14
ATOM     14  O   UNL     1      -3.649   0.209   0.516  1.00  0.00    -0.406 OA
BRANCH  14  15
ATOM     15  C   UNL     1      -4.165   1.475   0.137  1.00  0.00     0.573 C 
ATOM     16  F   UNL     1      -3.835   2.412   1.048  1.00  0.00    -0.132 F 
ATOM     17  F   UNL     1      -3.740   1.847  -1.087  1.00  0.00    -0.132 F 
ATOM     18  F   UNL     1      -5.515   1.386   0.098  1.00  0.00    -0.132 F 
ENDBRANCH  14  15
ENDBRANCH  13  14
ENDBRANCH   4   7
ENDBRANCH   2   3
ENDBRANCH   1   2
BRANCH   1  19
ATOM     19  C   UNL     1       5.362   1.412  -0.887  1.00  0.00     0.118 C 
BRANCH  19  20
ATOM     20  N   UNL     1       6.431   0.436  -1.146  1.00  0.00    -0.352 N 
ATOM     21  C   UNL     1       7.547   0.518  -1.962  1.00  0.00     0.251 C 
ATOM     22  H   UNL     1       6.339  -0.415  -0.660  1.00  0.00     0.163 HD
ATOM     23  O   UNL     1       8.327  -0.407  -2.058  1.00  0.00    -0.269 OA
BRANCH  21  24
ATOM     24  C   UNL     1       7.775   1.809  -2.631  1.00  0.00     0.039 A 
ATOM     25  C   UNL     1       8.726   2.647  -2.045  1.00  0.00     0.014 A 
ATOM     26  C   UNL     1       6.771   2.296  -3.464  1.00  0.00     0.014 A 
ATOM     27  C   UNL     1       8.504   4.016  -2.063  1.00  0.00     0.010 A 
ATOM     28  C   UNL     1       6.518   3.652  -3.427  1.00  0.00     0.010 A 
ATOM     29  C   UNL     1       7.332   4.488  -2.650  1.00  0.00    -0.014 A 
BRANCH  29  30
ATOM     30  C   UNL     1       6.874   5.858  -2.501  1.00  0.00     0.031 A 
ATOM     31  C   UNL     1       7.354   6.864  -3.457  1.00  0.00     0.074 A 
ATOM     32  C   UNL     1       6.021   6.213  -1.516  1.00  0.00     0.049 A 
ATOM     33  N   UNL     1       7.374   8.130  -3.227  1.00  0.00    -0.248 NA
ATOM     34  C   UNL     1       7.928   6.483  -4.737  1.00  0.00     0.031 C 
ATOM     35  C   UNL     1       5.268   7.457  -1.408  1.00  0.00     0.029 A 
ATOM     36  N   UNL     1       5.861   5.606  -0.268  1.00  0.00    -0.354 N 
ATOM     37  C   UNL     1       7.684   8.749  -4.416  1.00  0.00     0.074 A 
ATOM     38  C   UNL     1       8.130   7.683  -5.282  1.00  0.00     0.031 C 
ATOM     39  C   UNL     1       4.967   7.669  -0.119  1.00  0.00     0.029 A 
ATOM     40  C   UNL     1       5.655   6.652   0.656  1.00  0.00     0.049 A 
ATOM     41  H   UNL     1       5.888   4.642  -0.072  1.00  0.00     0.167 HD
ATOM     42  C   UNL     1       7.366  10.066  -4.567  1.00  0.00     0.034 A 
ATOM     43  C   UNL     1       6.441   6.873   1.750  1.00  0.00     0.034 A 
ATOM     44  C   UNL     1       6.900  10.649  -3.293  1.00  0.00     0.049 A 
ATOM     45  C   UNL     1       7.047   8.271   1.793  1.00  0.00     0.074 A 
ATOM     46  C   UNL     1       5.654  10.954  -2.768  1.00  0.00     0.029 A 
ATOM     47  N   UNL     1       7.791  10.746  -2.232  1.00  0.00    -0.354 N 
ATOM     48  N   UNL     1       6.839   9.209   0.910  1.00  0.00    -0.248 NA
ATOM     49  C   UNL     1       8.055   8.656   2.779  1.00  0.00     0.031 C 
ATOM     50  C   UNL     1       5.806  11.220  -1.375  1.00  0.00     0.029 A 
ATOM     51  C   UNL     1       7.146  11.100  -1.055  1.00  0.00     0.049 A 
ATOM     52  H   UNL     1       8.759  10.584  -2.306  1.00  0.00     0.167 HD
ATOM     53  C   UNL     1       7.775  10.207   1.071  1.00  0.00     0.074 A 
ATOM     54  C   UNL     1       8.501   9.813   2.267  1.00  0.00     0.031 C 
ATOM     55  C   UNL     1       7.936  11.229   0.168  1.00  0.00     0.034 A 
BRANCH  42  56
ATOM     56  C   UNL     1       7.171  10.746  -5.917  1.00  0.00     0.023 A 
ATOM     57  C   UNL     1       6.375  11.913  -5.944  1.00  0.00     0.012 A 
ATOM     58  C   UNL     1       7.621  10.288  -7.178  1.00  0.00     0.148 A 
ATOM     59  C   UNL     1       5.954  12.512  -7.137  1.00  0.00     0.002 A 
ATOM     60  C   UNL     1       7.142  10.836  -8.372  1.00  0.00     0.091 A 
ATOM     61  F   UNL     1       8.596   9.383  -7.252  1.00  0.00    -0.205 F 
ATOM     62  C   UNL     1       6.302  11.948  -8.355  1.00  0.00     0.022 A 
BRANCH  60  63
ATOM     63  S   UNL     1       7.502  10.105  -9.982  1.00  0.00     0.127 S 
ATOM     64  O   UNL     1       6.161   9.929 -10.545  1.00  0.00    -0.237 OA
ATOM     65  O   UNL     1       8.300  11.145 -10.628  1.00  0.00    -0.237 OA
ATOM     66  O   UNL     1       8.202   8.854  -9.716  1.00  0.00    -0.744 OA
ENDBRANCH  60  63
ENDBRANCH  42  56
BRANCH  43  67
ATOM     67  C   UNL     1       7.134   5.637   2.232  1.00  0.00     0.023 A 
ATOM     68  C   UNL     1       6.320   4.533   2.587  1.00  0.00     0.012 A 
ATOM     69  C   UNL     1       8.489   5.411   1.946  1.00  0.00     0.148 A 
ATOM     70  C   UNL     1       6.799   3.228   2.458  1.00  0.00     0.002 A 
ATOM     71  C   UNL     1       8.963   4.108   1.843  1.00  0.00     0.091 A 
ATOM     72  F   UNL     1       9.289   6.454   1.693  1.00  0.00    -0.205 F 
ATOM     73  C   UNL     1       8.108   3.015   2.038  1.00  0.00     0.022 A 
BRANCH  71  74
ATOM     74  S   UNL     1      10.659   3.818   1.336  1.00  0.00     0.127 S 
ATOM     75  O   UNL     1      11.370   3.958   2.602  1.00  0.00    -0.237 OA
ATOM     76  O   UNL     1      10.607   2.457   0.805  1.00  0.00    -0.237 OA
ATOM     77  O   UNL     1      10.906   4.841   0.330  1.00  0.00    -0.744 OA
ENDBRANCH  71  74
ENDBRANCH  43  67
BRANCH  55  78
ATOM     78  C   UNL     1       8.911  12.401   0.314  1.00  0.00     0.023 A 
ATOM     79  C   UNL     1       9.497  12.744   1.548  1.00  0.00     0.012 A 
ATOM     80  C   UNL     1       9.219  13.267  -0.773  1.00  0.00     0.148 A 
ATOM     81  C   UNL     1      10.448  13.764   1.674  1.00  0.00     0.002 A 
ATOM     82  C   UNL     1      10.141  14.305  -0.643  1.00  0.00     0.091 A 
ATOM     83  F   UNL     1       8.575  13.134  -1.936  1.00  0.00    -0.205 F 
ATOM     84  C   UNL     1      10.788  14.532   0.572  1.00  0.00     0.022 A 
BRANCH  82  85
ATOM     85  S   UNL     1      10.529  15.430  -1.992  1.00  0.00     0.127 S 
ATOM     86  O   UNL     1       9.905  16.669  -1.527  1.00  0.00    -0.237 OA
ATOM     87  O   UNL     1      11.992  15.440  -1.968  1.00  0.00    -0.237 OA
ATOM     88  O   UNL     1       9.945  14.848  -3.191  1.00  0.00    -0.744 OA
ENDBRANCH  82  85
ENDBRANCH  55  78
ENDBRANCH  29  30
ENDBRANCH  21  24
ENDBRANCH  19  20
ENDBRANCH   1  19
TORSDOF 15
