REMARK SMILES CCCCCCOC(=O)Nc1cccc(-c2ccc([C@@H](C)C(=O)NCCCNC(=O)c3ccc(-c4c5nc(c(-c6cccc(S(=O)(=O)[O-])c6F)c6ccc([nH]6)c(-c6cccc(S(=O)(=O)[O-])c6F)c6nc(c(-c7cccc(S(=O)(=O)[O-])c7F)c7ccc4[nH]7)C=C6)C=C5)cc3)cc2F)c1
REMARK SMILES IDX 20 1 21 2 19 3 16 4 17 5 95 6 18 7 94 8 96 9 15 10 11 11
REMARK SMILES IDX 12 12 97 13 13 14 14 15 10 16 8 17 9 18 7 20 6 21 5 22 4 23
REMARK SMILES IDX 3 24 2 25 1 26 22 27 23 28 24 29 25 31 26 32 27 33 28 34
REMARK SMILES IDX 29 35 30 37 31 38 32 39 93 40 33 41 92 42 34 43 35 44 36 45
REMARK SMILES IDX 86 46 37 47 91 48 85 49 87 50 38 51 90 52 84 53 83 54 39 56
REMARK SMILES IDX 71 57 51 58 70 59 52 60 55 61 69 62 88 63 53 64 54 65 68 67
REMARK SMILES IDX 89 68 56 69 40 70 41 71 49 72 42 73 44 74 50 75 43 76 45 77
REMARK SMILES IDX 46 78 47 79 48 80 72 81 73 82 81 83 74 84 76 85 82 86 75 87
REMARK SMILES IDX 77 88 78 89 79 90 80 91 57 92 58 93 66 94 59 95 61 96 67 97
REMARK SMILES IDX 60 98 62 99 63 100 64 101 65 102
REMARK H PARENT 10 19 24 30 28 36 87 55 55 66
REMARK Flexibility Score: inf
ROOT
ATOM      1  C   UNL     1      -6.052   3.580  10.635  1.00  0.00     0.105 C 
ATOM      2  C   UNL     1      -6.634   4.450  11.748  1.00  0.00     0.023 C 
ENDROOT
BRANCH   1   3
ATOM      3  C   UNL     1      -4.903   4.192   9.851  1.00  0.00    -0.033 A 
ATOM      4  C   UNL     1      -2.753   5.211   8.249  1.00  0.00     0.018 A 
ATOM      5  C   UNL     1      -3.871   5.995   8.574  1.00  0.00     0.012 A 
ATOM      6  C   UNL     1      -2.729   3.914   8.787  1.00  0.00     0.131 A 
ATOM      7  C   UNL     1      -4.907   5.509   9.385  1.00  0.00     0.005 A 
ATOM      8  C   UNL     1      -3.785   3.405   9.549  1.00  0.00     0.044 A 
ATOM      9  F   UNL     1      -1.672   3.108   8.598  1.00  0.00    -0.206 F 
BRANCH   4  10
ATOM     10  C   UNL     1      -1.677   5.738   7.375  1.00  0.00    -0.013 A 
ATOM     11  C   UNL     1       0.068   5.374   5.688  1.00  0.00     0.045 A 
ATOM     12  C   UNL     1       0.410   6.721   5.734  1.00  0.00     0.026 A 
ATOM     13  C   UNL     1      -0.981   4.897   6.485  1.00  0.00     0.035 A 
ATOM     14  C   UNL     1      -0.293   7.587   6.566  1.00  0.00     0.003 A 
ATOM     15  C   UNL     1      -1.310   7.097   7.389  1.00  0.00     0.009 A 
BRANCH  11  16
ATOM     16  N   UNL     1       0.869   4.516   4.922  1.00  0.00    -0.291 N 
ATOM     17  C   UNL     1       0.561   3.272   4.448  1.00  0.00     0.411 C 
ATOM     18  O   UNL     1       1.427   2.435   4.239  1.00  0.00    -0.224 OA
ATOM     19  H   UNL     1       1.766   4.853   4.697  1.00  0.00     0.173 HD
BRANCH  17  20
ATOM     20  O   UNL     1      -0.754   3.134   4.134  1.00  0.00    -0.449 OA
BRANCH  20  21
ATOM     21  C   UNL     1      -1.145   1.982   3.373  1.00  0.00     0.235 C 
BRANCH  21  22
ATOM     22  C   UNL     1      -0.917   2.164   1.866  1.00  0.00     0.042 C 
BRANCH  22  23
ATOM     23  C   UNL     1       0.533   2.030   1.381  1.00  0.00     0.003 C 
BRANCH  23  24
ATOM     24  C   UNL     1       1.207   0.688   1.694  1.00  0.00    -0.000 C 
BRANCH  24  25
ATOM     25  C   UNL     1       0.658  -0.508   0.917  1.00  0.00    -0.003 C 
ATOM     26  C   UNL     1       1.018  -0.465  -0.559  1.00  0.00     0.004 C 
ENDBRANCH  24  25
ENDBRANCH  23  24
ENDBRANCH  22  23
ENDBRANCH  21  22
ENDBRANCH  20  21
ENDBRANCH  17  20
ENDBRANCH  11  16
ENDBRANCH   4  10
ENDBRANCH   1   3
BRANCH   1  27
ATOM     27  C   UNL     1      -7.105   2.890   9.754  1.00  0.00     0.227 C 
ATOM     28  O   UNL     1      -7.156   1.655   9.713  1.00  0.00    -0.274 OA
ATOM     29  N   UNL     1      -8.027   3.556   9.008  1.00  0.00    -0.356 N 
ATOM     30  H   UNL     1      -8.656   2.968   8.529  1.00  0.00     0.163 HD
BRANCH  29  31
ATOM     31  C   UNL     1      -8.256   4.970   8.786  1.00  0.00     0.117 C 
BRANCH  31  32
ATOM     32  C   UNL     1      -7.659   5.463   7.471  1.00  0.00     0.042 C 
BRANCH  32  33
ATOM     33  C   UNL     1      -8.530   5.186   6.251  1.00  0.00     0.118 C 
BRANCH  33  34
ATOM     34  N   UNL     1      -9.744   5.993   6.248  1.00  0.00    -0.352 N 
ATOM     35  C   UNL     1     -10.178   6.955   5.368  1.00  0.00     0.251 C 
ATOM     36  H   UNL     1     -10.354   5.820   7.001  1.00  0.00     0.163 HD
ATOM     37  O   UNL     1     -11.137   7.656   5.686  1.00  0.00    -0.269 OA
BRANCH  35  38
ATOM     38  C   UNL     1      -9.514   7.165   4.060  1.00  0.00     0.039 A 
ATOM     39  C   UNL     1      -9.407   8.470   3.561  1.00  0.00     0.014 A 
ATOM     40  C   UNL     1      -9.055   6.095   3.290  1.00  0.00     0.014 A 
ATOM     41  C   UNL     1      -8.797   8.701   2.324  1.00  0.00     0.010 A 
ATOM     42  C   UNL     1      -8.379   6.332   2.094  1.00  0.00     0.010 A 
ATOM     43  C   UNL     1      -8.254   7.635   1.590  1.00  0.00    -0.014 A 
BRANCH  43  44
ATOM     44  C   UNL     1      -7.557   7.856   0.296  1.00  0.00     0.031 A 
ATOM     45  C   UNL     1      -8.102   7.250  -0.972  1.00  0.00     0.074 A 
ATOM     46  C   UNL     1      -6.379   8.511   0.276  1.00  0.00     0.049 A 
ATOM     47  N   UNL     1      -7.590   7.257  -2.176  1.00  0.00    -0.248 NA
ATOM     48  C   UNL     1      -9.374   6.516  -0.869  1.00  0.00     0.031 C 
ATOM     49  C   UNL     1      -5.703   9.069   1.450  1.00  0.00     0.029 A 
ATOM     50  N   UNL     1      -5.522   8.787  -0.761  1.00  0.00    -0.354 N 
ATOM     51  C   UNL     1      -8.445   6.489  -2.958  1.00  0.00     0.074 A 
ATOM     52  C   UNL     1      -9.500   6.015  -2.090  1.00  0.00     0.031 C 
ATOM     53  C   UNL     1      -4.534   9.609   1.069  1.00  0.00     0.029 A 
ATOM     54  C   UNL     1      -4.364   9.418  -0.368  1.00  0.00     0.049 A 
ATOM     55  H   UNL     1      -5.718   8.555  -1.698  1.00  0.00     0.167 HD
ATOM     56  C   UNL     1      -8.376   6.226  -4.285  1.00  0.00     0.034 A 
ATOM     57  C   UNL     1      -3.284   9.793  -1.081  1.00  0.00     0.034 A 
ATOM     58  C   UNL     1      -7.366   6.758  -5.159  1.00  0.00     0.049 A 
ATOM     59  C   UNL     1      -3.274   9.559  -2.569  1.00  0.00     0.074 A 
ATOM     60  C   UNL     1      -7.274   6.646  -6.535  1.00  0.00     0.029 A 
ATOM     61  N   UNL     1      -6.273   7.503  -4.744  1.00  0.00    -0.354 N 
ATOM     62  N   UNL     1      -4.184   8.987  -3.319  1.00  0.00    -0.248 NA
ATOM     63  C   UNL     1      -2.110  10.059  -3.315  1.00  0.00     0.031 C 
ATOM     64  C   UNL     1      -6.117   7.314  -6.951  1.00  0.00     0.029 A 
ATOM     65  C   UNL     1      -5.497   7.853  -5.835  1.00  0.00     0.049 A 
ATOM     66  H   UNL     1      -6.078   7.746  -3.810  1.00  0.00     0.167 HD
ATOM     67  C   UNL     1      -3.719   9.085  -4.626  1.00  0.00     0.074 A 
ATOM     68  C   UNL     1      -2.458   9.794  -4.568  1.00  0.00     0.031 C 
ATOM     69  C   UNL     1      -4.276   8.614  -5.769  1.00  0.00     0.034 A 
BRANCH  56  70
ATOM     70  C   UNL     1      -9.460   5.376  -4.894  1.00  0.00     0.023 A 
ATOM     71  C   UNL     1     -10.748   5.920  -5.073  1.00  0.00     0.012 A 
ATOM     72  C   UNL     1      -9.191   4.072  -5.354  1.00  0.00     0.148 A 
ATOM     73  C   UNL     1     -11.759   5.172  -5.675  1.00  0.00     0.002 A 
ATOM     74  C   UNL     1     -10.192   3.347  -5.989  1.00  0.00     0.091 A 
ATOM     75  F   UNL     1      -7.966   3.564  -5.156  1.00  0.00    -0.205 F 
ATOM     76  C   UNL     1     -11.478   3.891  -6.142  1.00  0.00     0.022 A 
BRANCH  74  77
ATOM     77  S   UNL     1      -9.911   1.718  -6.694  1.00  0.00     0.127 S 
ATOM     78  O   UNL     1     -10.638   0.862  -5.757  1.00  0.00    -0.237 OA
ATOM     79  O   UNL     1     -10.531   1.840  -8.014  1.00  0.00    -0.237 OA
ATOM     80  O   UNL     1      -8.467   1.535  -6.717  1.00  0.00    -0.744 OA
ENDBRANCH  74  77
ENDBRANCH  56  70
BRANCH  57  81
ATOM     81  C   UNL     1      -2.157  10.499  -0.406  1.00  0.00     0.023 A 
ATOM     82  C   UNL     1      -1.958  11.871  -0.657  1.00  0.00     0.012 A 
ATOM     83  C   UNL     1      -1.308   9.838   0.504  1.00  0.00     0.148 A 
ATOM     84  C   UNL     1      -0.916  12.564  -0.040  1.00  0.00     0.002 A 
ATOM     85  C   UNL     1      -0.304  10.547   1.156  1.00  0.00     0.091 A 
ATOM     86  F   UNL     1      -1.508   8.531   0.726  1.00  0.00    -0.205 F 
ATOM     87  C   UNL     1      -0.096  11.906   0.872  1.00  0.00     0.022 A 
BRANCH  85  88
ATOM     88  S   UNL     1       0.724   9.818   2.437  1.00  0.00     0.127 S 
ATOM     89  O   UNL     1       2.029   9.762   1.784  1.00  0.00    -0.237 OA
ATOM     90  O   UNL     1       0.618  10.803   3.514  1.00  0.00    -0.237 OA
ATOM     91  O   UNL     1       0.122   8.529   2.747  1.00  0.00    -0.744 OA
ENDBRANCH  85  88
ENDBRANCH  57  81
BRANCH  69  92
ATOM     92  C   UNL     1      -3.548   8.867  -7.061  1.00  0.00     0.023 A 
ATOM     93  C   UNL     1      -2.386   8.129  -7.361  1.00  0.00     0.012 A 
ATOM     94  C   UNL     1      -4.061   9.769  -8.014  1.00  0.00     0.148 A 
ATOM     95  C   UNL     1      -1.732   8.302  -8.580  1.00  0.00     0.002 A 
ATOM     96  C   UNL     1      -3.429   9.904  -9.245  1.00  0.00     0.091 A 
ATOM     97  F   UNL     1      -5.156  10.477  -7.702  1.00  0.00    -0.205 F 
ATOM     98  C   UNL     1      -2.259   9.179  -9.526  1.00  0.00     0.022 A 
BRANCH  96  99
ATOM     99  S   UNL     1      -4.092  10.939 -10.555  1.00  0.00     0.127 S 
ATOM    100  O   UNL     1      -3.198  12.095 -10.504  1.00  0.00    -0.237 OA
ATOM    101  O   UNL     1      -3.928  10.093 -11.738  1.00  0.00    -0.237 OA
ATOM    102  O   UNL     1      -5.478  11.201 -10.192  1.00  0.00    -0.744 OA
ENDBRANCH  96  99
ENDBRANCH  69  92
ENDBRANCH  43  44
ENDBRANCH  35  38
ENDBRANCH  33  34
ENDBRANCH  32  33
ENDBRANCH  31  32
ENDBRANCH  29  31
ENDBRANCH   1  27
TORSDOF 22
