REMARK SMILES CCCN(CCC)c1ccc(C(=O)NCCCNC(=O)c2ccc(-c3c4nc(c(-c5cccc(S(=O)(=O)[O-])c5F)c5ccc([nH]5)c(-c5cccc(S(=O)(=O)[O-])c5F)c5nc(c(-c6cccc(S(=O)(=O)[O-])c6F)c6ccc3[nH]6)C=C5)C=C4)cc2)cc1[N+](=O)[O-]
REMARK SMILES IDX 16 1 15 2 14 3 12 4 13 5 11 7 8 8 9 9 85 10 10 11 84 12 4 13
REMARK SMILES IDX 3 14 2 15 1 16 5 17 6 18 7 19 86 20 87 21 88 22 17 23 18 24
REMARK SMILES IDX 19 25 20 27 21 28 22 29 83 30 23 31 82 32 24 33 25 34 26 35
REMARK SMILES IDX 76 36 27 37 81 38 75 39 77 40 28 41 80 42 74 43 73 44 29 46
REMARK SMILES IDX 61 47 41 48 60 49 42 50 45 51 59 52 78 53 43 54 44 55 58 57
REMARK SMILES IDX 79 58 46 59 30 60 31 61 39 62 32 63 34 64 40 65 33 66 35 67
REMARK SMILES IDX 36 68 37 69 38 70 62 71 63 72 71 73 64 74 66 75 72 76 65 77
REMARK SMILES IDX 67 78 68 79 69 80 70 81 47 82 48 83 56 84 49 85 51 86 57 87
REMARK SMILES IDX 50 88 52 89 53 90 54 91 55 92
REMARK H PARENT 14 6 18 26 77 45 45 56
REMARK Flexibility Score: inf
ROOT
ATOM      1  C   UNL     1       0.680  -1.498  -5.009  1.00  0.00     0.042 C 
ENDROOT
BRANCH   1   2
ATOM      2  C   UNL     1       1.912  -0.663  -4.677  1.00  0.00     0.118 C 
BRANCH   2   3
ATOM      3  N   UNL     1       1.947   0.592  -5.414  1.00  0.00    -0.352 N 
ATOM      4  C   UNL     1       1.799   1.874  -4.952  1.00  0.00     0.251 C 
ATOM      5  O   UNL     1       2.048   2.833  -5.675  1.00  0.00    -0.269 OA
ATOM      6  H   UNL     1       2.100   0.508  -6.383  1.00  0.00     0.163 HD
BRANCH   4   7
ATOM      7  C   UNL     1       1.393   2.109  -3.554  1.00  0.00     0.046 A 
ATOM      8  C   UNL     1       0.728   2.561  -0.839  1.00  0.00     0.116 A 
ATOM      9  C   UNL     1       1.879   3.127  -1.414  1.00  0.00     0.034 A 
ATOM     10  C   UNL     1      -0.076   1.772  -1.681  1.00  0.00     0.293 A 
ATOM     11  C   UNL     1       2.205   2.918  -2.757  1.00  0.00     0.016 A 
ATOM     12  C   UNL     1       0.230   1.550  -3.030  1.00  0.00     0.101 A 
BRANCH   8  13
ATOM     13  N   UNL     1       0.440   2.810   0.492  1.00  0.00    -0.366 N 
BRANCH  13  14
ATOM     14  C   UNL     1       1.309   2.274   1.544  1.00  0.00     0.116 C 
BRANCH  14  15
ATOM     15  C   UNL     1       1.014   0.794   1.814  1.00  0.00     0.018 C 
ATOM     16  C   UNL     1       1.860  -0.153   0.972  1.00  0.00     0.006 C 
ENDBRANCH  14  15
ENDBRANCH  13  14
BRANCH  13  17
ATOM     17  C   UNL     1      -0.518   3.877   0.819  1.00  0.00     0.116 C 
BRANCH  17  18
ATOM     18  C   UNL     1       0.080   5.277   0.629  1.00  0.00     0.018 C 
ATOM     19  C   UNL     1      -0.268   5.889  -0.724  1.00  0.00     0.006 C 
ENDBRANCH  17  18
ENDBRANCH  13  17
ENDBRANCH   8  13
BRANCH  10  20
ATOM     20  N   UNL     1      -1.190   1.019  -1.139  1.00  0.00     0.065 N 
ATOM     21  O   UNL     1      -1.053  -0.213  -1.106  1.00  0.00    -0.258 OA
ATOM     22  O   UNL     1      -2.206   1.643  -0.809  1.00  0.00    -0.258 OA
ENDBRANCH  10  20
ENDBRANCH   4   7
ENDBRANCH   2   3
ENDBRANCH   1   2
BRANCH   1  23
ATOM     23  C   UNL     1       0.669  -2.044  -6.433  1.00  0.00     0.118 C 
BRANCH  23  24
ATOM     24  N   UNL     1       1.692  -3.059  -6.646  1.00  0.00    -0.352 N 
ATOM     25  C   UNL     1       1.566  -4.336  -7.135  1.00  0.00     0.251 C 
ATOM     26  H   UNL     1       2.607  -2.789  -6.405  1.00  0.00     0.163 HD
ATOM     27  O   UNL     1       2.524  -5.103  -7.069  1.00  0.00    -0.269 OA
BRANCH  25  28
ATOM     28  C   UNL     1       0.288  -4.795  -7.724  1.00  0.00     0.039 A 
ATOM     29  C   UNL     1      -0.176  -6.077  -7.413  1.00  0.00     0.014 A 
ATOM     30  C   UNL     1      -0.435  -3.985  -8.603  1.00  0.00     0.014 A 
ATOM     31  C   UNL     1      -1.389  -6.526  -7.943  1.00  0.00     0.010 A 
ATOM     32  C   UNL     1      -1.674  -4.408  -9.079  1.00  0.00     0.010 A 
ATOM     33  C   UNL     1      -2.159  -5.686  -8.762  1.00  0.00    -0.014 A 
BRANCH  33  34
ATOM     34  C   UNL     1      -3.472  -6.120  -9.303  1.00  0.00     0.031 A 
ATOM     35  C   UNL     1      -3.663  -6.281 -10.787  1.00  0.00     0.074 A 
ATOM     36  C   UNL     1      -4.519  -6.274  -8.468  1.00  0.00     0.049 A 
ATOM     37  N   UNL     1      -4.751  -6.570 -11.452  1.00  0.00    -0.248 NA
ATOM     38  C   UNL     1      -2.481  -6.062 -11.637  1.00  0.00     0.031 C 
ATOM     39  C   UNL     1      -4.481  -6.069  -7.018  1.00  0.00     0.029 A 
ATOM     40  N   UNL     1      -5.826  -6.607  -8.723  1.00  0.00    -0.354 N 
ATOM     41  C   UNL     1      -4.398  -6.526 -12.795  1.00  0.00     0.074 A 
ATOM     42  C   UNL     1      -3.000  -6.159 -12.853  1.00  0.00     0.031 C 
ATOM     43  C   UNL     1      -5.708  -6.277  -6.513  1.00  0.00     0.029 A 
ATOM     44  C   UNL     1      -6.623  -6.608  -7.602  1.00  0.00     0.049 A 
ATOM     45  H   UNL     1      -6.161  -6.824  -9.622  1.00  0.00     0.167 HD
ATOM     46  C   UNL     1      -5.160  -6.796 -13.882  1.00  0.00     0.034 A 
ATOM     47  C   UNL     1      -7.943  -6.846  -7.467  1.00  0.00     0.034 A 
ATOM     48  C   UNL     1      -6.531  -7.224 -13.819  1.00  0.00     0.049 A 
ATOM     49  C   UNL     1      -8.750  -7.210  -8.683  1.00  0.00     0.074 A 
ATOM     50  C   UNL     1      -7.358  -7.616 -14.857  1.00  0.00     0.029 A 
ATOM     51  N   UNL     1      -7.275  -7.322 -12.654  1.00  0.00    -0.354 N 
ATOM     52  N   UNL     1      -8.357  -7.321  -9.929  1.00  0.00    -0.248 NA
ATOM     53  C   UNL     1     -10.172  -7.518  -8.472  1.00  0.00     0.031 C 
ATOM     54  C   UNL     1      -8.606  -7.949 -14.318  1.00  0.00     0.029 A 
ATOM     55  C   UNL     1      -8.553  -7.769 -12.945  1.00  0.00     0.049 A 
ATOM     56  H   UNL     1      -6.944  -7.106 -11.753  1.00  0.00     0.167 HD
ATOM     57  C   UNL     1      -9.473  -7.742 -10.644  1.00  0.00     0.074 A 
ATOM     58  C   UNL     1     -10.552  -7.886  -9.688  1.00  0.00     0.031 C 
ATOM     59  C   UNL     1      -9.597  -7.970 -11.975  1.00  0.00     0.034 A 
BRANCH  46  60
ATOM     60  C   UNL     1      -4.503  -6.708 -15.234  1.00  0.00     0.023 A 
ATOM     61  C   UNL     1      -3.601  -7.718 -15.627  1.00  0.00     0.012 A 
ATOM     62  C   UNL     1      -4.814  -5.670 -16.133  1.00  0.00     0.148 A 
ATOM     63  C   UNL     1      -2.996  -7.681 -16.882  1.00  0.00     0.002 A 
ATOM     64  C   UNL     1      -4.234  -5.660 -17.398  1.00  0.00     0.091 A 
ATOM     65  F   UNL     1      -5.653  -4.705 -15.733  1.00  0.00    -0.205 F 
ATOM     66  C   UNL     1      -3.319  -6.659 -17.770  1.00  0.00     0.022 A 
BRANCH  64  67
ATOM     67  S   UNL     1      -4.644  -4.423 -18.635  1.00  0.00     0.127 S 
ATOM     68  O   UNL     1      -3.468  -3.555 -18.585  1.00  0.00    -0.237 OA
ATOM     69  O   UNL     1      -4.756  -5.225 -19.854  1.00  0.00    -0.237 OA
ATOM     70  O   UNL     1      -5.893  -3.820 -18.193  1.00  0.00    -0.744 OA
ENDBRANCH  64  67
ENDBRANCH  46  60
BRANCH  47  71
ATOM     71  C   UNL     1      -8.561  -6.833  -6.112  1.00  0.00     0.023 A 
ATOM     72  C   UNL     1      -8.938  -8.054  -5.520  1.00  0.00     0.012 A 
ATOM     73  C   UNL     1      -8.740  -5.636  -5.393  1.00  0.00     0.148 A 
ATOM     74  C   UNL     1      -9.503  -8.082  -4.245  1.00  0.00     0.002 A 
ATOM     75  C   UNL     1      -9.258  -5.676  -4.102  1.00  0.00     0.091 A 
ATOM     76  F   UNL     1      -8.392  -4.482  -5.980  1.00  0.00    -0.205 F 
ATOM     77  C   UNL     1      -9.652  -6.896  -3.532  1.00  0.00     0.022 A 
BRANCH  75  78
ATOM     78  S   UNL     1      -9.363  -4.208  -3.071  1.00  0.00     0.127 S 
ATOM     79  O   UNL     1     -10.784  -3.882  -3.158  1.00  0.00    -0.237 OA
ATOM     80  O   UNL     1      -8.926  -4.715  -1.769  1.00  0.00    -0.237 OA
ATOM     81  O   UNL     1      -8.448  -3.249  -3.675  1.00  0.00    -0.744 OA
ENDBRANCH  75  78
ENDBRANCH  47  71
BRANCH  59  82
ATOM     82  C   UNL     1     -10.938  -8.425 -12.484  1.00  0.00     0.023 A 
ATOM     83  C   UNL     1     -11.987  -7.492 -12.600  1.00  0.00     0.012 A 
ATOM     84  C   UNL     1     -11.133  -9.747 -12.926  1.00  0.00     0.148 A 
ATOM     85  C   UNL     1     -13.219  -7.875 -13.129  1.00  0.00     0.002 A 
ATOM     86  C   UNL     1     -12.351 -10.112 -13.489  1.00  0.00     0.091 A 
ATOM     87  F   UNL     1     -10.129 -10.625 -12.785  1.00  0.00    -0.205 F 
ATOM     88  C   UNL     1     -13.397  -9.180 -13.585  1.00  0.00     0.022 A 
BRANCH  86  89
ATOM     89  S   UNL     1     -12.632 -11.746 -14.181  1.00  0.00     0.127 S 
ATOM     90  O   UNL     1     -13.414 -12.387 -13.126  1.00  0.00    -0.237 OA
ATOM     91  O   UNL     1     -13.383 -11.448 -15.401  1.00  0.00    -0.237 OA
ATOM     92  O   UNL     1     -11.308 -12.309 -14.416  1.00  0.00    -0.744 OA
ENDBRANCH  86  89
ENDBRANCH  59  82
ENDBRANCH  33  34
ENDBRANCH  25  28
ENDBRANCH  23  24
ENDBRANCH   1  23
TORSDOF 19
