REMARK SMILES CCc1nc(=O)n([C@@H](CC)C(C)C)c(CC)c1CC(=O)NCCCNC(=O)c1ccc(-c2c3nc(c(-c4cccc(S(=O)(=O)[O-])c4F)c4ccc([nH]4)c(-c4cccc(S(=O)(=O)[O-])c4F)c4nc(c(-c5cccc(S(=O)(=O)[O-])c5F)c5ccc2[nH]5)C=C4)C=C3)cc1
REMARK SMILES IDX 23 1 22 2 21 3 19 4 20 5 18 7 17 8 3 9 4 10 5 11 14 12 6 13
REMARK SMILES IDX 7 14 2 15 1 16 15 17 16 18 8 19 9 20 10 21 11 22 12 23 13 24
REMARK SMILES IDX 24 25 25 26 26 27 27 29 28 30 29 31 90 32 30 33 89 34 31 35
REMARK SMILES IDX 32 36 33 37 83 38 34 39 88 40 82 41 84 42 35 43 87 44 81 45
REMARK SMILES IDX 80 46 36 48 68 49 48 50 67 51 49 52 52 53 66 54 85 55 50 56
REMARK SMILES IDX 51 57 65 59 86 60 53 61 37 62 38 63 46 64 39 65 41 66 47 67
REMARK SMILES IDX 40 68 42 69 43 70 44 71 45 72 69 73 70 74 78 75 71 76 73 77
REMARK SMILES IDX 79 78 72 79 74 80 75 81 76 82 77 83 54 84 55 85 63 86 56 87
REMARK SMILES IDX 58 88 64 89 57 90 59 91 60 92 61 93 62 94
REMARK H PARENT 21 6 25 28 84 47 52 58
REMARK Flexibility Score: inf
ROOT
ATOM      1  C   UNL     1      -2.482  -0.797  -3.507  1.00  0.00     0.042 C 
ENDROOT
BRANCH   1   2
ATOM      2  C   UNL     1      -2.610  -0.939  -2.001  1.00  0.00     0.117 C 
BRANCH   2   3
ATOM      3  N   UNL     1      -2.661  -2.320  -1.575  1.00  0.00    -0.356 N 
ATOM      4  C   UNL     1      -1.686  -3.067  -0.986  1.00  0.00     0.224 C 
ATOM      5  O   UNL     1      -1.951  -4.224  -0.658  1.00  0.00    -0.275 OA
ATOM      6  H   UNL     1      -3.516  -2.783  -1.731  1.00  0.00     0.163 HD
BRANCH   4   7
ATOM      7  C   UNL     1      -0.317  -2.453  -0.702  1.00  0.00     0.139 C 
BRANCH   7   8
ATOM      8  C   UNL     1       0.529  -2.148  -1.917  1.00  0.00     0.003 A 
ATOM      9  C   UNL     1       1.105  -0.777  -2.076  1.00  0.00     0.051 A 
ATOM     10  N   UNL     1       1.853  -0.419  -3.058  1.00  0.00    -0.198 NA
ATOM     11  C   UNL     1       2.177  -1.297  -4.046  1.00  0.00     0.348 A 
ATOM     12  C   UNL     1       0.878  -3.030  -2.890  1.00  0.00     0.028 A 
ATOM     13  O   UNL     1       2.919  -0.918  -4.947  1.00  0.00    -0.246 OA
ATOM     14  N   UNL     1       1.673  -2.610  -3.982  1.00  0.00    -0.293 N 
BRANCH   9  15
ATOM     15  C   UNL     1       0.855   0.339  -1.054  1.00  0.00     0.053 C 
ATOM     16  C   UNL     1       1.624   0.179   0.242  1.00  0.00     0.011 C 
ENDBRANCH   9  15
BRANCH  12  17
ATOM     17  C   UNL     1       0.503  -4.509  -2.772  1.00  0.00     0.051 C 
ATOM     18  C   UNL     1      -0.676  -4.949  -3.635  1.00  0.00     0.010 C 
ENDBRANCH  12  17
BRANCH  14  19
ATOM     19  C   UNL     1       2.018  -3.527  -5.117  1.00  0.00     0.094 C 
BRANCH  19  20
ATOM     20  C   UNL     1       1.167  -3.242  -6.386  1.00  0.00     0.022 C 
ATOM     21  C   UNL     1       1.518  -2.025  -7.225  1.00  0.00     0.006 C 
ENDBRANCH  19  20
BRANCH  19  22
ATOM     22  C   UNL     1       3.551  -3.720  -5.351  1.00  0.00     0.006 C 
ATOM     23  C   UNL     1       4.264  -4.093  -4.042  1.00  0.00     0.009 C 
ATOM     24  C   UNL     1       3.838  -4.814  -6.389  1.00  0.00     0.009 C 
ENDBRANCH  19  22
ENDBRANCH  14  19
ENDBRANCH   7   8
ENDBRANCH   4   7
ENDBRANCH   2   3
ENDBRANCH   1   2
BRANCH   1  25
ATOM     25  C   UNL     1      -3.760  -1.175  -4.237  1.00  0.00     0.118 C 
BRANCH  25  26
ATOM     26  N   UNL     1      -4.888  -0.320  -3.874  1.00  0.00    -0.352 N 
ATOM     27  C   UNL     1      -5.683   0.472  -4.670  1.00  0.00     0.251 C 
ATOM     28  H   UNL     1      -5.114  -0.310  -2.916  1.00  0.00     0.163 HD
ATOM     29  O   UNL     1      -6.468   1.260  -4.154  1.00  0.00    -0.269 OA
BRANCH  27  30
ATOM     30  C   UNL     1      -5.549   0.381  -6.136  1.00  0.00     0.039 A 
ATOM     31  C   UNL     1      -5.415  -0.867  -6.743  1.00  0.00     0.014 A 
ATOM     32  C   UNL     1      -5.487   1.549  -6.898  1.00  0.00     0.014 A 
ATOM     33  C   UNL     1      -4.988  -0.940  -8.059  1.00  0.00     0.010 A 
ATOM     34  C   UNL     1      -5.178   1.464  -8.258  1.00  0.00     0.010 A 
ATOM     35  C   UNL     1      -4.862   0.224  -8.834  1.00  0.00    -0.014 A 
BRANCH  35  36
ATOM     36  C   UNL     1      -4.393   0.110 -10.238  1.00  0.00     0.031 A 
ATOM     37  C   UNL     1      -3.126   0.788 -10.689  1.00  0.00     0.074 A 
ATOM     38  C   UNL     1      -5.095  -0.654 -11.099  1.00  0.00     0.049 A 
ATOM     39  N   UNL     1      -2.580   0.791 -11.878  1.00  0.00    -0.248 NA
ATOM     40  C   UNL     1      -2.373   1.563  -9.688  1.00  0.00     0.031 C 
ATOM     41  C   UNL     1      -6.338  -1.361 -10.779  1.00  0.00     0.029 A 
ATOM     42  N   UNL     1      -4.859  -0.977 -12.410  1.00  0.00    -0.354 N 
ATOM     43  C   UNL     1      -1.453   1.598 -11.781  1.00  0.00     0.074 A 
ATOM     44  C   UNL     1      -1.389   2.073 -10.417  1.00  0.00     0.031 C 
ATOM     45  C   UNL     1      -6.731  -2.068 -11.847  1.00  0.00     0.029 A 
ATOM     46  C   UNL     1      -5.812  -1.809 -12.948  1.00  0.00     0.049 A 
ATOM     47  H   UNL     1      -4.083  -0.646 -12.917  1.00  0.00     0.167 HD
ATOM     48  C   UNL     1      -0.545   1.900 -12.738  1.00  0.00     0.034 A 
ATOM     49  C   UNL     1      -5.952  -2.294 -14.196  1.00  0.00     0.034 A 
ATOM     50  C   UNL     1      -0.582   1.383 -14.079  1.00  0.00     0.049 A 
ATOM     51  C   UNL     1      -4.938  -1.933 -15.238  1.00  0.00     0.074 A 
ATOM     52  C   UNL     1       0.323   1.600 -15.103  1.00  0.00     0.029 A 
ATOM     53  N   UNL     1      -1.567   0.549 -14.582  1.00  0.00    -0.354 N 
ATOM     54  N   UNL     1      -3.851  -1.214 -15.108  1.00  0.00    -0.248 NA
ATOM     55  C   UNL     1      -5.159  -2.457 -16.593  1.00  0.00     0.031 C 
ATOM     56  C   UNL     1      -0.126   0.913 -16.233  1.00  0.00     0.029 A 
ATOM     57  C   UNL     1      -1.296   0.248 -15.904  1.00  0.00     0.049 A 
ATOM     58  H   UNL     1      -2.343   0.220 -14.074  1.00  0.00     0.167 HD
ATOM     59  C   UNL     1      -3.247  -1.211 -16.358  1.00  0.00     0.074 A 
ATOM     60  C   UNL     1      -4.082  -2.013 -17.229  1.00  0.00     0.031 C 
ATOM     61  C   UNL     1      -2.111  -0.587 -16.747  1.00  0.00     0.034 A 
BRANCH  48  62
ATOM     62  C   UNL     1       0.602   2.804 -12.377  1.00  0.00     0.023 A 
ATOM     63  C   UNL     1       1.694   2.283 -11.657  1.00  0.00     0.012 A 
ATOM     64  C   UNL     1       0.654   4.127 -12.859  1.00  0.00     0.148 A 
ATOM     65  C   UNL     1       2.823   3.067 -11.419  1.00  0.00     0.002 A 
ATOM     66  C   UNL     1       1.794   4.892 -12.644  1.00  0.00     0.091 A 
ATOM     67  F   UNL     1      -0.403   4.600 -13.534  1.00  0.00    -0.205 F 
ATOM     68  C   UNL     1       2.877   4.365 -11.922  1.00  0.00     0.022 A 
BRANCH  66  69
ATOM     69  S   UNL     1       1.987   6.556 -13.294  1.00  0.00     0.127 S 
ATOM     70  O   UNL     1       2.086   7.343 -12.065  1.00  0.00    -0.237 OA
ATOM     71  O   UNL     1       3.234   6.446 -14.050  1.00  0.00    -0.237 OA
ATOM     72  O   UNL     1       0.802   6.818 -14.098  1.00  0.00    -0.744 OA
ENDBRANCH  66  69
ENDBRANCH  48  62
BRANCH  49  73
ATOM     73  C   UNL     1      -7.093  -3.198 -14.497  1.00  0.00     0.023 A 
ATOM     74  C   UNL     1      -6.858  -4.577 -14.650  1.00  0.00     0.012 A 
ATOM     75  C   UNL     1      -8.413  -2.709 -14.540  1.00  0.00     0.148 A 
ATOM     76  C   UNL     1      -7.923  -5.456 -14.847  1.00  0.00     0.002 A 
ATOM     77  C   UNL     1      -9.471  -3.595 -14.695  1.00  0.00     0.091 A 
ATOM     78  F   UNL     1      -8.605  -1.392 -14.385  1.00  0.00    -0.205 F 
ATOM     79  C   UNL     1      -9.228  -4.968 -14.858  1.00  0.00     0.022 A 
BRANCH  77  80
ATOM     80  S   UNL     1     -11.188  -3.076 -14.622  1.00  0.00     0.127 S 
ATOM     81  O   UNL     1     -11.658  -3.412 -15.963  1.00  0.00    -0.237 OA
ATOM     82  O   UNL     1     -11.710  -3.928 -13.553  1.00  0.00    -0.237 OA
ATOM     83  O   UNL     1     -11.162  -1.654 -14.307  1.00  0.00    -0.744 OA
ENDBRANCH  77  80
ENDBRANCH  49  73
BRANCH  61  84
ATOM     84  C   UNL     1      -1.668  -0.750 -18.174  1.00  0.00     0.023 A 
ATOM     85  C   UNL     1      -2.294   0.003 -19.184  1.00  0.00     0.012 A 
ATOM     86  C   UNL     1      -0.549  -1.546 -18.486  1.00  0.00     0.148 A 
ATOM     87  C   UNL     1      -1.814  -0.038 -20.492  1.00  0.00     0.002 A 
ATOM     88  C   UNL     1      -0.055  -1.555 -19.784  1.00  0.00     0.091 A 
ATOM     89  F   UNL     1       0.023  -2.256 -17.503  1.00  0.00    -0.205 F 
ATOM     90  C   UNL     1      -0.688  -0.805 -20.789  1.00  0.00     0.022 A 
BRANCH  88  91
ATOM     91  S   UNL     1       1.426  -2.457 -20.251  1.00  0.00     0.127 S 
ATOM     92  O   UNL     1       0.888  -3.451 -21.180  1.00  0.00    -0.237 OA
ATOM     93  O   UNL     1       2.237  -1.413 -20.877  1.00  0.00    -0.237 OA
ATOM     94  O   UNL     1       1.977  -3.001 -19.017  1.00  0.00    -0.744 OA
ENDBRANCH  88  91
ENDBRANCH  61  84
ENDBRANCH  35  36
ENDBRANCH  27  30
ENDBRANCH  25  26
ENDBRANCH   1  25
TORSDOF 19
