REMARK SMILES O=C(NC1(C(=O)NCCCNC(=O)c2ccc(-c3c4nc(c(-c5cccc(S(=O)(=O)[O-])c5F)c5ccc([nH]5)c(-c5cccc(S(=O)(=O)[O-])c5F)c5nc(c(-c6cccc(S(=O)(=O)[O-])c6F)c6ccc3[nH]6)C=C5)C=C4)cc2)CC[NH2+]CC1)OCC1c2ccccc2-c2ccccc21
REMARK SMILES IDX 8 1 7 2 5 3 6 4 4 6 77 7 81 8 78 9 80 10 79 11 3 14 1 15
REMARK SMILES IDX 2 16 82 18 83 19 84 20 85 21 96 22 86 23 90 24 91 25 95 26
REMARK SMILES IDX 87 27 89 28 92 29 94 30 88 31 93 32 9 33 10 34 11 35 12 36
REMARK SMILES IDX 13 38 14 39 15 40 76 41 16 42 75 43 17 44 18 45 19 46 69 47
REMARK SMILES IDX 20 48 74 49 68 50 70 51 21 52 73 53 67 54 66 55 22 57 54 58
REMARK SMILES IDX 34 59 53 60 35 61 38 62 52 63 71 64 36 65 37 66 51 68 72 69
REMARK SMILES IDX 39 70 23 71 24 72 32 73 25 74 27 75 33 76 26 77 28 78 29 79
REMARK SMILES IDX 30 80 31 81 55 82 56 83 64 84 57 85 59 86 65 87 58 88 60 89
REMARK SMILES IDX 61 90 62 91 63 92 40 93 41 94 49 95 42 96 44 97 50 98 43 99
REMARK SMILES IDX 45 100 46 101 47 102 48 103
REMARK H PARENT 7 5 79 12 79 13 3 17 11 37 70 56 38 67
REMARK Flexibility Score: inf
ROOT
ATOM      1  C   UNL     1       7.471   0.778   1.250  1.00  0.00     0.117 C 
ENDROOT
BRANCH   1   2
ATOM      2  N   UNL     1       6.369  -0.065   1.645  1.00  0.00    -0.354 N 
ATOM      3  C   UNL     1       5.032   0.095   1.689  1.00  0.00     0.246 C 
ATOM      4  O   UNL     1       4.420  -0.930   2.037  1.00  0.00    -0.272 OA
ATOM      5  H   UNL     1       6.658  -0.956   1.949  1.00  0.00     0.163 HD
BRANCH   3   6
ATOM      6  C   UNL     1       4.244   1.427   1.463  1.00  0.00     0.132 C 
ATOM      7  C   UNL     1       4.124   2.050   2.876  1.00  0.00     0.100 C 
ATOM      8  C   UNL     1       4.787   2.533   0.567  1.00  0.00     0.100 C 
ATOM      9  C   UNL     1       3.522   3.461   2.929  1.00  0.00     0.263 C 
ATOM     10  C   UNL     1       3.833   3.719   0.551  1.00  0.00     0.263 C 
ATOM     11  N   UNL     1       3.913   4.372   1.854  1.00  0.00    -0.346 N 
ATOM     12  H   UNL     1       4.872   4.681   2.012  1.00  0.00     0.346 HD
ATOM     13  H   UNL     1       3.273   5.167   1.856  1.00  0.00     0.346 HD
BRANCH   6  14
ATOM     14  N   UNL     1       2.948   0.890   0.952  1.00  0.00    -0.307 N 
ATOM     15  O   UNL     1       1.713  -0.345  -0.500  1.00  0.00    -0.225 OA
ATOM     16  C   UNL     1       2.668   0.388  -0.300  1.00  0.00     0.408 C 
ATOM     17  H   UNL     1       2.198   0.895   1.591  1.00  0.00     0.168 HD
BRANCH  16  18
ATOM     18  O   UNL     1       3.458   0.843  -1.310  1.00  0.00    -0.449 OA
BRANCH  18  19
ATOM     19  C   UNL     1       4.514  -0.046  -1.714  1.00  0.00     0.248 C 
BRANCH  19  20
ATOM     20  C   UNL     1       5.483   0.576  -2.760  1.00  0.00     0.088 C 
ATOM     21  C   UNL     1       6.942   0.202  -2.449  1.00  0.00    -0.029 A 
ATOM     22  C   UNL     1       5.587   2.103  -2.839  1.00  0.00    -0.029 A 
ATOM     23  C   UNL     1       7.493  -1.054  -2.238  1.00  0.00     0.005 A 
ATOM     24  C   UNL     1       7.740   1.365  -2.352  1.00  0.00    -0.014 A 
ATOM     25  C   UNL     1       6.914   2.525  -2.593  1.00  0.00    -0.014 A 
ATOM     26  C   UNL     1       4.591   3.032  -3.106  1.00  0.00     0.005 A 
ATOM     27  C   UNL     1       8.851  -1.137  -1.912  1.00  0.00     0.000 A 
ATOM     28  C   UNL     1       9.088   1.282  -2.031  1.00  0.00     0.009 A 
ATOM     29  C   UNL     1       7.245   3.872  -2.583  1.00  0.00     0.009 A 
ATOM     30  C   UNL     1       4.925   4.390  -3.093  1.00  0.00     0.000 A 
ATOM     31  C   UNL     1       9.642   0.019  -1.806  1.00  0.00     0.001 A 
ATOM     32  C   UNL     1       6.239   4.807  -2.831  1.00  0.00     0.001 A 
ENDBRANCH  19  20
ENDBRANCH  18  19
ENDBRANCH  16  18
ENDBRANCH   6  14
ENDBRANCH   3   6
ENDBRANCH   1   2
BRANCH   1  33
ATOM     33  C   UNL     1       8.375   1.130   2.418  1.00  0.00     0.042 C 
BRANCH  33  34
ATOM     34  C   UNL     1       9.098  -0.079   3.003  1.00  0.00     0.118 C 
BRANCH  34  35
ATOM     35  N   UNL     1       9.966  -0.746   2.037  1.00  0.00    -0.352 N 
ATOM     36  C   UNL     1      11.321  -0.967   2.063  1.00  0.00     0.251 C 
ATOM     37  H   UNL     1       9.506  -1.093   1.239  1.00  0.00     0.163 HD
ATOM     38  O   UNL     1      11.882  -1.391   1.056  1.00  0.00    -0.269 OA
BRANCH  36  39
ATOM     39  C   UNL     1      12.102  -0.673   3.285  1.00  0.00     0.039 A 
ATOM     40  C   UNL     1      13.356  -0.069   3.160  1.00  0.00     0.014 A 
ATOM     41  C   UNL     1      11.603  -0.989   4.550  1.00  0.00     0.014 A 
ATOM     42  C   UNL     1      14.074   0.282   4.307  1.00  0.00     0.010 A 
ATOM     43  C   UNL     1      12.272  -0.550   5.688  1.00  0.00     0.010 A 
ATOM     44  C   UNL     1      13.521   0.079   5.581  1.00  0.00    -0.014 A 
BRANCH  44  45
ATOM     45  C   UNL     1      14.228   0.506   6.816  1.00  0.00     0.031 A 
ATOM     46  C   UNL     1      14.605  -0.511   7.861  1.00  0.00     0.074 A 
ATOM     47  C   UNL     1      14.440   1.818   7.046  1.00  0.00     0.049 A 
ATOM     48  N   UNL     1      15.157  -0.325   9.032  1.00  0.00    -0.248 NA
ATOM     49  C   UNL     1      14.286  -1.920   7.570  1.00  0.00     0.031 C 
ATOM     50  C   UNL     1      14.037   2.911   6.158  1.00  0.00     0.029 A 
ATOM     51  N   UNL     1      15.025   2.457   8.111  1.00  0.00    -0.354 N 
ATOM     52  C   UNL     1      15.203  -1.577   9.634  1.00  0.00     0.074 A 
ATOM     53  C   UNL     1      14.591  -2.511   8.715  1.00  0.00     0.031 C 
ATOM     54  C   UNL     1      14.397   4.082   6.708  1.00  0.00     0.029 A 
ATOM     55  C   UNL     1      15.033   3.828   7.997  1.00  0.00     0.049 A 
ATOM     56  H   UNL     1      15.403   1.979   8.884  1.00  0.00     0.167 HD
ATOM     57  C   UNL     1      15.739  -1.928  10.827  1.00  0.00     0.034 A 
ATOM     58  C   UNL     1      15.503   4.773   8.834  1.00  0.00     0.034 A 
ATOM     59  C   UNL     1      16.415  -1.012  11.704  1.00  0.00     0.049 A 
ATOM     60  C   UNL     1      16.171   4.348  10.114  1.00  0.00     0.074 A 
ATOM     61  C   UNL     1      17.091  -1.285  12.880  1.00  0.00     0.029 A 
ATOM     62  N   UNL     1      16.507   0.356  11.497  1.00  0.00    -0.354 N 
ATOM     63  N   UNL     1      16.359   3.139  10.584  1.00  0.00    -0.248 NA
ATOM     64  C   UNL     1      16.729   5.414  10.958  1.00  0.00     0.031 C 
ATOM     65  C   UNL     1      17.584  -0.079  13.390  1.00  0.00     0.029 A 
ATOM     66  C   UNL     1      17.227   0.942  12.523  1.00  0.00     0.049 A 
ATOM     67  H   UNL     1      16.117   0.839  10.733  1.00  0.00     0.167 HD
ATOM     68  C   UNL     1      17.089   3.295  11.756  1.00  0.00     0.074 A 
ATOM     69  C   UNL     1      17.327   4.715  11.914  1.00  0.00     0.031 C 
ATOM     70  C   UNL     1      17.510   2.350  12.633  1.00  0.00     0.034 A 
BRANCH  57  71
ATOM     71  C   UNL     1      15.677  -3.381  11.222  1.00  0.00     0.023 A 
ATOM     72  C   UNL     1      16.487  -4.318  10.549  1.00  0.00     0.012 A 
ATOM     73  C   UNL     1      14.861  -3.812  12.286  1.00  0.00     0.148 A 
ATOM     74  C   UNL     1      16.459  -5.666  10.901  1.00  0.00     0.002 A 
ATOM     75  C   UNL     1      14.872  -5.151  12.661  1.00  0.00     0.091 A 
ATOM     76  F   UNL     1      14.079  -2.912  12.900  1.00  0.00    -0.205 F 
ATOM     77  C   UNL     1      15.660  -6.080  11.963  1.00  0.00     0.022 A 
BRANCH  75  78
ATOM     78  S   UNL     1      13.937  -5.769  14.066  1.00  0.00     0.127 S 
ATOM     79  O   UNL     1      12.853  -6.492  13.403  1.00  0.00    -0.237 OA
ATOM     80  O   UNL     1      14.918  -6.622  14.738  1.00  0.00    -0.237 OA
ATOM     81  O   UNL     1      13.536  -4.593  14.826  1.00  0.00    -0.744 OA
ENDBRANCH  75  78
ENDBRANCH  57  71
BRANCH  58  82
ATOM     82  C   UNL     1      15.446   6.210   8.441  1.00  0.00     0.023 A 
ATOM     83  C   UNL     1      16.640   6.874   8.096  1.00  0.00     0.012 A 
ATOM     84  C   UNL     1      14.228   6.912   8.376  1.00  0.00     0.148 A 
ATOM     85  C   UNL     1      16.626   8.218   7.723  1.00  0.00     0.002 A 
ATOM     86  C   UNL     1      14.214   8.237   7.952  1.00  0.00     0.091 A 
ATOM     87  F   UNL     1      13.103   6.268   8.720  1.00  0.00    -0.205 F 
ATOM     88  C   UNL     1      15.414   8.896   7.641  1.00  0.00     0.022 A 
BRANCH  86  89
ATOM     89  S   UNL     1      12.687   9.145   7.688  1.00  0.00     0.127 S 
ATOM     90  O   UNL     1      12.677  10.053   8.831  1.00  0.00    -0.237 OA
ATOM     91  O   UNL     1      12.931   9.783   6.394  1.00  0.00    -0.237 OA
ATOM     92  O   UNL     1      11.634   8.137   7.666  1.00  0.00    -0.744 OA
ENDBRANCH  86  89
ENDBRANCH  58  82
BRANCH  70  93
ATOM     93  C   UNL     1      18.307   2.808  13.825  1.00  0.00     0.023 A 
ATOM     94  C   UNL     1      17.659   3.473  14.884  1.00  0.00     0.012 A 
ATOM     95  C   UNL     1      19.680   2.511  13.930  1.00  0.00     0.148 A 
ATOM     96  C   UNL     1      18.372   3.863  16.017  1.00  0.00     0.002 A 
ATOM     97  C   UNL     1      20.374   2.862  15.081  1.00  0.00     0.091 A 
ATOM     98  F   UNL     1      20.284   1.897  12.902  1.00  0.00    -0.205 F 
ATOM     99  C   UNL     1      19.725   3.547  16.121  1.00  0.00     0.022 A 
BRANCH  97 100
ATOM    100  S   UNL     1      22.094   2.407  15.335  1.00  0.00     0.127 S 
ATOM    101  O   UNL     1      22.780   3.669  15.065  1.00  0.00    -0.237 OA
ATOM    102  O   UNL     1      22.105   1.995  16.740  1.00  0.00    -0.237 OA
ATOM    103  O   UNL     1      22.361   1.329  14.392  1.00  0.00    -0.744 OA
ENDBRANCH  97 100
ENDBRANCH  70  93
ENDBRANCH  44  45
ENDBRANCH  36  39
ENDBRANCH  34  35
ENDBRANCH  33  34
ENDBRANCH   1  33
TORSDOF 17
