REMARK SMILES CS(=O)(=O)c1ccc(-c2cc(Cl)cc3c2O[C@H](C(F)(F)F)C(C(=O)NCCCNC(=O)c2ccc(-c4c5nc(c(-c6cccc(S(=O)(=O)[O-])c6F)c6ccc([nH]6)c(-c6cccc(S(=O)(=O)[O-])c6F)c6nc(c(-c7cccc(S(=O)(=O)[O-])c7F)c7ccc4[nH]7)C=C6)C=C5)cc2)=C3)cc1
REMARK SMILES IDX 27 1 26 2 25 3 23 4 24 5 22 7 9 8 10 9 15 10 11 11 14 12
REMARK SMILES IDX 16 13 12 14 13 15 95 16 17 17 8 18 5 19 6 20 97 21 7 22
REMARK SMILES IDX 96 23 2 24 1 25 3 26 4 27 18 28 19 29 20 30 21 31 28 32
REMARK SMILES IDX 29 33 30 34 31 36 32 37 33 38 94 39 34 40 93 41 35 42 36 43
REMARK SMILES IDX 37 44 87 45 38 46 92 47 86 48 88 49 39 50 91 51 85 52 84 53
REMARK SMILES IDX 40 55 72 56 52 57 71 58 53 59 56 60 70 61 89 62 54 63 55 64
REMARK SMILES IDX 69 66 90 67 57 68 41 69 42 70 50 71 43 72 45 73 51 74 44 75
REMARK SMILES IDX 46 76 47 77 48 78 49 79 73 80 74 81 82 82 75 83 77 84 83 85
REMARK SMILES IDX 76 86 78 87 79 88 80 89 81 90 58 91 59 92 67 93 60 94 62 95
REMARK SMILES IDX 68 96 61 97 63 98 64 99 65 100 66 101
REMARK H PARENT 25 6 29 35 88 54 56 65
REMARK Flexibility Score: inf
ROOT
ATOM      1  C   UNL     1       1.397   0.700  15.147  1.00  0.00     0.042 C 
ENDROOT
BRANCH   1   2
ATOM      2  C   UNL     1       2.002   1.695  14.155  1.00  0.00     0.118 C 
BRANCH   2   3
ATOM      3  N   UNL     1       2.732   0.988  13.121  1.00  0.00    -0.352 N 
ATOM      4  C   UNL     1       2.483   0.988  11.790  1.00  0.00     0.251 C 
ATOM      5  O   UNL     1       2.640  -0.041  11.143  1.00  0.00    -0.270 OA
ATOM      6  H   UNL     1       3.497   0.445  13.421  1.00  0.00     0.163 HD
BRANCH   4   7
ATOM      7  C   UNL     1       2.178   2.302  11.151  1.00  0.00     0.067 C 
ATOM      8  C   UNL     1       2.045   1.139   7.247  1.00  0.00     0.026 A 
ATOM      9  C   UNL     1       3.161   0.286   7.042  1.00  0.00     0.033 A 
ATOM     10  C   UNL     1       2.046   1.885   8.441  1.00  0.00     0.135 A 
ATOM     11  C   UNL     1       4.286   0.309   7.863  1.00  0.00     0.042 A 
ATOM     12  C   UNL     1       3.246   1.984   9.192  1.00  0.00     0.019 A 
ATOM     13  O   UNL     1       0.914   2.494   8.968  1.00  0.00    -0.475 OA
ATOM     14  Cl  UNL     1       5.591  -0.765   7.552  1.00  0.00    -0.084 Cl
ATOM     15  C   UNL     1       4.367   1.216   8.900  1.00  0.00     0.032 A 
ATOM     16  C   UNL     1       3.218   2.780  10.440  1.00  0.00     0.025 C 
ATOM     17  C   UNL     1       0.823   2.395  10.462  1.00  0.00     0.314 C 
BRANCH   8  18
ATOM     18  C   UNL     1       1.167   1.303   6.052  1.00  0.00    -0.015 A 
ATOM     19  C   UNL     1       0.518   1.511   3.293  1.00  0.00     0.067 A 
ATOM     20  C   UNL     1       0.438   0.274   3.930  1.00  0.00     0.021 A 
ATOM     21  C   UNL     1       0.812   2.656   4.040  1.00  0.00     0.021 A 
ATOM     22  C   UNL     1       0.743   0.181   5.301  1.00  0.00     0.010 A 
ATOM     23  C   UNL     1       1.119   2.553   5.408  1.00  0.00     0.010 A 
BRANCH  19  24
ATOM     24  S   UNL     1       0.307   1.664   1.528  1.00  0.00     0.175 S 
ATOM     25  C   UNL     1       1.080   0.260   0.768  1.00  0.00     0.163 C 
ATOM     26  O   UNL     1       1.077   2.825   1.106  1.00  0.00    -0.224 OA
ATOM     27  O   UNL     1      -1.115   1.584   1.270  1.00  0.00    -0.224 OA
ENDBRANCH  19  24
ENDBRANCH   8  18
BRANCH  17  28
ATOM     28  C   UNL     1       0.061   3.593  11.079  1.00  0.00     0.429 C 
ATOM     29  F   UNL     1      -0.151   4.590  10.190  1.00  0.00    -0.167 F 
ATOM     30  F   UNL     1      -1.143   3.214  11.566  1.00  0.00    -0.167 F 
ATOM     31  F   UNL     1       0.731   4.154  12.123  1.00  0.00    -0.167 F 
ENDBRANCH  17  28
ENDBRANCH   4   7
ENDBRANCH   2   3
ENDBRANCH   1   2
BRANCH   1  32
ATOM     32  C   UNL     1       2.413  -0.175  15.876  1.00  0.00     0.118 C 
BRANCH  32  33
ATOM     33  N   UNL     1       3.357   0.587  16.678  1.00  0.00    -0.352 N 
ATOM     34  C   UNL     1       3.744   0.382  17.980  1.00  0.00     0.251 C 
ATOM     35  H   UNL     1       3.776   1.355  16.226  1.00  0.00     0.163 HD
ATOM     36  O   UNL     1       4.443   1.216  18.548  1.00  0.00    -0.269 OA
BRANCH  34  37
ATOM     37  C   UNL     1       3.299  -0.833  18.698  1.00  0.00     0.039 A 
ATOM     38  C   UNL     1       2.837  -0.714  20.011  1.00  0.00     0.014 A 
ATOM     39  C   UNL     1       3.334  -2.084  18.078  1.00  0.00     0.014 A 
ATOM     40  C   UNL     1       2.374  -1.845  20.686  1.00  0.00     0.010 A 
ATOM     41  C   UNL     1       2.783  -3.190  18.716  1.00  0.00     0.010 A 
ATOM     42  C   UNL     1       2.323  -3.091  20.038  1.00  0.00    -0.014 A 
BRANCH  42  43
ATOM     43  C   UNL     1       1.837  -4.308  20.739  1.00  0.00     0.031 A 
ATOM     44  C   UNL     1       2.761  -5.485  20.928  1.00  0.00     0.074 A 
ATOM     45  C   UNL     1       0.555  -4.387  21.146  1.00  0.00     0.049 A 
ATOM     46  N   UNL     1       2.517  -6.648  21.474  1.00  0.00    -0.248 NA
ATOM     47  C   UNL     1       4.131  -5.350  20.404  1.00  0.00     0.031 C 
ATOM     48  C   UNL     1      -0.463  -3.352  20.950  1.00  0.00     0.029 A 
ATOM     49  N   UNL     1      -0.118  -5.393  21.794  1.00  0.00    -0.354 N 
ATOM     50  C   UNL     1       3.681  -7.393  21.320  1.00  0.00     0.074 A 
ATOM     51  C   UNL     1       4.615  -6.569  20.587  1.00  0.00     0.031 C 
ATOM     52  C   UNL     1      -1.625  -3.771  21.477  1.00  0.00     0.029 A 
ATOM     53  C   UNL     1      -1.445  -5.112  22.024  1.00  0.00     0.049 A 
ATOM     54  H   UNL     1       0.309  -6.237  22.067  1.00  0.00     0.167 HD
ATOM     55  C   UNL     1       3.965  -8.635  21.778  1.00  0.00     0.034 A 
ATOM     56  C   UNL     1      -2.406  -5.853  22.609  1.00  0.00     0.034 A 
ATOM     57  C   UNL     1       3.052  -9.432  22.550  1.00  0.00     0.049 A 
ATOM     58  C   UNL     1      -2.049  -7.207  23.162  1.00  0.00     0.074 A 
ATOM     59  C   UNL     1       3.268 -10.668  23.133  1.00  0.00     0.029 A 
ATOM     60  N   UNL     1       1.746  -9.073  22.847  1.00  0.00    -0.354 N 
ATOM     61  N   UNL     1      -0.897  -7.833  23.137  1.00  0.00    -0.248 NA
ATOM     62  C   UNL     1      -3.113  -7.936  23.866  1.00  0.00     0.031 C 
ATOM     63  C   UNL     1       2.083 -11.068  23.761  1.00  0.00     0.029 A 
ATOM     64  C   UNL     1       1.143 -10.062  23.603  1.00  0.00     0.049 A 
ATOM     65  H   UNL     1       1.312  -8.237  22.561  1.00  0.00     0.167 HD
ATOM     66  C   UNL     1      -1.084  -9.006  23.859  1.00  0.00     0.074 A 
ATOM     67  C   UNL     1      -2.455  -8.992  24.326  1.00  0.00     0.031 C 
ATOM     68  C   UNL     1      -0.206 -10.009  24.106  1.00  0.00     0.034 A 
BRANCH  55  69
ATOM     69  C   UNL     1       5.340  -9.187  21.494  1.00  0.00     0.023 A 
ATOM     70  C   UNL     1       6.466  -8.620  22.128  1.00  0.00     0.012 A 
ATOM     71  C   UNL     1       5.515 -10.290  20.637  1.00  0.00     0.148 A 
ATOM     72  C   UNL     1       7.747  -9.110  21.877  1.00  0.00     0.002 A 
ATOM     73  C   UNL     1       6.790 -10.808  20.434  1.00  0.00     0.091 A 
ATOM     74  F   UNL     1       4.438 -10.805  20.028  1.00  0.00    -0.205 F 
ATOM     75  C   UNL     1       7.907 -10.210  21.040  1.00  0.00     0.022 A 
BRANCH  73  76
ATOM     76  S   UNL     1       7.095 -12.274  19.442  1.00  0.00     0.127 S 
ATOM     77  O   UNL     1       7.794 -11.709  18.288  1.00  0.00    -0.237 OA
ATOM     78  O   UNL     1       7.935 -13.076  20.332  1.00  0.00    -0.237 OA
ATOM     79  O   UNL     1       5.787 -12.848  19.158  1.00  0.00    -0.744 OA
ENDBRANCH  73  76
ENDBRANCH  55  69
BRANCH  56  80
ATOM     80  C   UNL     1      -3.782  -5.301  22.772  1.00  0.00     0.023 A 
ATOM     81  C   UNL     1      -4.248  -4.969  24.060  1.00  0.00     0.012 A 
ATOM     82  C   UNL     1      -4.625  -5.094  21.664  1.00  0.00     0.148 A 
ATOM     83  C   UNL     1      -5.542  -4.481  24.246  1.00  0.00     0.002 A 
ATOM     84  C   UNL     1      -5.892  -4.554  21.850  1.00  0.00     0.091 A 
ATOM     85  F   UNL     1      -4.166  -5.422  20.448  1.00  0.00    -0.205 F 
ATOM     86  C   UNL     1      -6.360  -4.265  23.141  1.00  0.00     0.022 A 
BRANCH  84  87
ATOM     87  S   UNL     1      -6.967  -4.121  20.477  1.00  0.00     0.127 S 
ATOM     88  O   UNL     1      -8.036  -5.107  20.612  1.00  0.00    -0.237 OA
ATOM     89  O   UNL     1      -7.346  -2.749  20.814  1.00  0.00    -0.237 OA
ATOM     90  O   UNL     1      -6.145  -4.240  19.280  1.00  0.00    -0.744 OA
ENDBRANCH  84  87
ENDBRANCH  56  80
BRANCH  68  91
ATOM     91  C   UNL     1      -0.677 -11.150  24.970  1.00  0.00     0.023 A 
ATOM     92  C   UNL     1      -1.634 -12.063  24.483  1.00  0.00     0.012 A 
ATOM     93  C   UNL     1      -0.130 -11.344  26.254  1.00  0.00     0.148 A 
ATOM     94  C   UNL     1      -2.075 -13.120  25.278  1.00  0.00     0.002 A 
ATOM     95  C   UNL     1      -0.532 -12.432  27.018  1.00  0.00     0.091 A 
ATOM     96  F   UNL     1       0.766 -10.457  26.710  1.00  0.00    -0.205 F 
ATOM     97  C   UNL     1      -1.516 -13.311  26.540  1.00  0.00     0.022 A 
BRANCH  95  98
ATOM     98  S   UNL     1       0.212 -12.811  28.609  1.00  0.00     0.127 S 
ATOM     99  O   UNL     1      -0.833 -12.382  29.536  1.00  0.00    -0.237 OA
ATOM    100  O   UNL     1       0.399 -14.260  28.528  1.00  0.00    -0.237 OA
ATOM    101  O   UNL     1       1.451 -12.047  28.662  1.00  0.00    -0.744 OA
ENDBRANCH  95  98
ENDBRANCH  68  91
ENDBRANCH  42  43
ENDBRANCH  34  37
ENDBRANCH  32  33
ENDBRANCH   1  32
TORSDOF 16
