REMARK SMILES CC[C@@H]1CCC[C@@](Cc2cccc(O)c2)(C(=O)NCCCNC(=O)c2ccc(-c3c4nc(c(-c5cccc(S(=O)(=O)[O-])c5F)c5ccc([nH]5)c(-c5cccc(S(=O)(=O)[O-])c5F)c5nc(c(-c6cccc(S(=O)(=O)[O-])c6F)c6ccc3[nH]6)C=C5)C=C4)cc2)C1
REMARK SMILES IDX 20 1 19 2 18 3 16 4 17 5 7 7 3 8 4 9 88 10 5 11 6 12 2 13
REMARK SMILES IDX 1 14 8 15 9 16 10 17 15 18 11 19 13 20 12 21 14 22 21 24
REMARK SMILES IDX 22 25 23 26 24 28 25 29 26 30 87 31 27 32 86 33 28 34 29 35
REMARK SMILES IDX 30 36 80 37 31 38 85 39 79 40 81 41 32 42 84 43 78 44 77 45
REMARK SMILES IDX 33 47 65 48 45 49 64 50 46 51 49 52 63 53 82 54 47 55 48 56
REMARK SMILES IDX 62 58 83 59 50 60 34 61 35 62 43 63 36 64 38 65 44 66 37 67
REMARK SMILES IDX 39 68 40 69 41 70 42 71 66 72 67 73 75 74 68 75 70 76 76 77
REMARK SMILES IDX 69 78 71 79 72 80 73 81 74 82 51 83 52 84 60 85 53 86 55 87
REMARK SMILES IDX 61 88 54 89 56 90 57 91 58 92 59 93
REMARK H PARENT 18 6 14 23 22 27 81 46 49 57
REMARK Flexibility Score: inf
ROOT
ATOM      1  C   UNL     1       2.806  -1.116   7.784  1.00  0.00     0.042 C 
ENDROOT
BRANCH   1   2
ATOM      2  C   UNL     1       2.365   0.033   6.915  1.00  0.00     0.117 C 
BRANCH   2   3
ATOM      3  N   UNL     1       2.854   0.009   5.558  1.00  0.00    -0.356 N 
ATOM      4  C   UNL     1       2.221   0.410   4.422  1.00  0.00     0.226 C 
ATOM      5  O   UNL     1       2.959   0.791   3.505  1.00  0.00    -0.274 OA
ATOM      6  H   UNL     1       3.766  -0.344   5.438  1.00  0.00     0.163 HD
BRANCH   4   7
ATOM      7  C   UNL     1       0.675   0.412   4.267  1.00  0.00     0.053 C 
ATOM      8  C   UNL     1       0.815  -1.017   2.074  1.00  0.00    -0.010 C 
ATOM      9  C   UNL     1       0.255  -2.229   2.832  1.00  0.00     0.003 C 
ATOM     10  C   UNL     1       0.373   0.313   2.727  1.00  0.00     0.020 C 
ATOM     11  C   UNL     1       0.484  -2.138   4.333  1.00  0.00     0.001 C 
ATOM     12  C   UNL     1      -0.041  -0.813   4.889  1.00  0.00     0.017 C 
BRANCH   8  13
ATOM     13  C   UNL     1       0.389  -1.106   0.595  1.00  0.00     0.000 C 
ATOM     14  C   UNL     1       0.957   0.002  -0.280  1.00  0.00     0.004 C 
ENDBRANCH   8  13
BRANCH   7  15
ATOM     15  C   UNL     1       0.081   1.793   4.720  1.00  0.00     0.052 C 
BRANCH  15  16
ATOM     16  C   UNL     1       0.253   2.252   6.151  1.00  0.00    -0.043 A 
ATOM     17  C   UNL     1       1.357   3.039   6.523  1.00  0.00     0.004 A 
ATOM     18  C   UNL     1      -0.651   1.852   7.146  1.00  0.00     0.049 A 
ATOM     19  C   UNL     1       1.600   3.336   7.870  1.00  0.00     0.004 A 
ATOM     20  C   UNL     1      -0.395   2.147   8.484  1.00  0.00     0.115 A 
ATOM     21  C   UNL     1       0.733   2.868   8.858  1.00  0.00     0.046 A 
BRANCH  20  22
ATOM     22  O   UNL     1      -1.271   1.670   9.414  1.00  0.00    -0.508 OA
ATOM     23  H   UNL     1      -1.132   1.848  10.323  1.00  0.00     0.293 HD
ENDBRANCH  20  22
ENDBRANCH  15  16
ENDBRANCH   7  15
ENDBRANCH   4   7
ENDBRANCH   2   3
ENDBRANCH   1   2
BRANCH   1  24
ATOM     24  C   UNL     1       4.253  -0.990   8.223  1.00  0.00     0.118 C 
BRANCH  24  25
ATOM     25  N   UNL     1       4.540   0.267   8.923  1.00  0.00    -0.352 N 
ATOM     26  C   UNL     1       4.977   0.497  10.203  1.00  0.00     0.251 C 
ATOM     27  H   UNL     1       4.397   1.079   8.385  1.00  0.00     0.163 HD
ATOM     28  O   UNL     1       4.961   1.639  10.659  1.00  0.00    -0.269 OA
BRANCH  26  29
ATOM     29  C   UNL     1       5.443  -0.633  11.027  1.00  0.00     0.039 A 
ATOM     30  C   UNL     1       5.124  -0.676  12.385  1.00  0.00     0.014 A 
ATOM     31  C   UNL     1       6.162  -1.674  10.440  1.00  0.00     0.014 A 
ATOM     32  C   UNL     1       5.454  -1.811  13.126  1.00  0.00     0.010 A 
ATOM     33  C   UNL     1       6.349  -2.856  11.136  1.00  0.00     0.010 A 
ATOM     34  C   UNL     1       6.021  -2.932  12.493  1.00  0.00    -0.014 A 
BRANCH  34  35
ATOM     35  C   UNL     1       6.278  -4.191  13.231  1.00  0.00     0.031 A 
ATOM     36  C   UNL     1       7.668  -4.770  13.283  1.00  0.00     0.074 A 
ATOM     37  C   UNL     1       5.241  -4.855  13.779  1.00  0.00     0.049 A 
ATOM     38  N   UNL     1       8.080  -5.864  13.869  1.00  0.00    -0.248 NA
ATOM     39  C   UNL     1       8.727  -4.055  12.549  1.00  0.00     0.031 C 
ATOM     40  C   UNL     1       3.833  -4.457  13.687  1.00  0.00     0.029 A 
ATOM     41  N   UNL     1       5.207  -6.013  14.512  1.00  0.00    -0.354 N 
ATOM     42  C   UNL     1       9.426  -5.985  13.541  1.00  0.00     0.074 A 
ATOM     43  C   UNL     1       9.748  -4.889  12.658  1.00  0.00     0.031 C 
ATOM     44  C   UNL     1       3.080  -5.335  14.368  1.00  0.00     0.029 A 
ATOM     45  C   UNL     1       3.943  -6.373  14.918  1.00  0.00     0.049 A 
ATOM     46  H   UNL     1       6.012  -6.538  14.728  1.00  0.00     0.167 HD
ATOM     47  C   UNL     1      10.325  -6.900  13.971  1.00  0.00     0.034 A 
ATOM     48  C   UNL     1       3.530  -7.418  15.659  1.00  0.00     0.034 A 
ATOM     49  C   UNL     1      10.005  -7.956  14.891  1.00  0.00     0.049 A 
ATOM     50  C   UNL     1       4.561  -8.373  16.194  1.00  0.00     0.074 A 
ATOM     51  C   UNL     1      10.855  -8.882  15.469  1.00  0.00     0.029 A 
ATOM     52  N   UNL     1       8.731  -8.229  15.365  1.00  0.00    -0.354 N 
ATOM     53  N   UNL     1       5.860  -8.372  16.012  1.00  0.00    -0.248 NA
ATOM     54  C   UNL     1       4.077  -9.443  17.075  1.00  0.00     0.031 C 
ATOM     55  C   UNL     1      10.088  -9.732  16.273  1.00  0.00     0.029 A 
ATOM     56  C   UNL     1       8.768  -9.311  16.226  1.00  0.00     0.049 A 
ATOM     57  H   UNL     1       7.920  -7.727  15.124  1.00  0.00     0.167 HD
ATOM     58  C   UNL     1       6.353  -9.416  16.785  1.00  0.00     0.074 A 
ATOM     59  C   UNL     1       5.213 -10.008  17.457  1.00  0.00     0.031 C 
ATOM     60  C   UNL     1       7.629  -9.856  16.918  1.00  0.00     0.034 A 
BRANCH  47  61
ATOM     61  C   UNL     1      11.749  -6.760  13.495  1.00  0.00     0.023 A 
ATOM     62  C   UNL     1      12.530  -5.671  13.936  1.00  0.00     0.012 A 
ATOM     63  C   UNL     1      12.329  -7.725  12.649  1.00  0.00     0.148 A 
ATOM     64  C   UNL     1      13.850  -5.521  13.511  1.00  0.00     0.002 A 
ATOM     65  C   UNL     1      13.661  -7.597  12.272  1.00  0.00     0.091 A 
ATOM     66  F   UNL     1      11.566  -8.740  12.220  1.00  0.00    -0.205 F 
ATOM     67  C   UNL     1      14.418  -6.490  12.690  1.00  0.00     0.022 A 
BRANCH  65  68
ATOM     68  S   UNL     1      14.512  -8.834  11.286  1.00  0.00     0.127 S 
ATOM     69  O   UNL     1      14.719  -8.117  10.029  1.00  0.00    -0.237 OA
ATOM     70  O   UNL     1      15.729  -9.061  12.066  1.00  0.00    -0.237 OA
ATOM     71  O   UNL     1      13.614  -9.977  11.211  1.00  0.00    -0.744 OA
ENDBRANCH  65  68
ENDBRANCH  47  61
BRANCH  48  72
ATOM     72  C   UNL     1       2.088  -7.562  16.010  1.00  0.00     0.023 A 
ATOM     73  C   UNL     1       1.674  -7.354  17.340  1.00  0.00     0.012 A 
ATOM     74  C   UNL     1       1.125  -7.872  15.031  1.00  0.00     0.148 A 
ATOM     75  C   UNL     1       0.332  -7.491  17.698  1.00  0.00     0.002 A 
ATOM     76  C   UNL     1      -0.218  -7.949  15.383  1.00  0.00     0.091 A 
ATOM     77  F   UNL     1       1.540  -8.071  13.773  1.00  0.00    -0.205 F 
ATOM     78  C   UNL     1      -0.614  -7.779  16.719  1.00  0.00     0.022 A 
BRANCH  76  79
ATOM     79  S   UNL     1      -1.519  -8.178  14.166  1.00  0.00     0.127 S 
ATOM     80  O   UNL     1      -1.971  -9.534  14.463  1.00  0.00    -0.237 OA
ATOM     81  O   UNL     1      -2.462  -7.119  14.531  1.00  0.00    -0.237 OA
ATOM     82  O   UNL     1      -0.881  -7.992  12.870  1.00  0.00    -0.744 OA
ENDBRANCH  76  79
ENDBRANCH  48  72
BRANCH  60  83
ATOM     83  C   UNL     1       7.866 -11.007  17.860  1.00  0.00     0.023 A 
ATOM     84  C   UNL     1       7.408 -12.298  17.529  1.00  0.00     0.012 A 
ATOM     85  C   UNL     1       8.580 -10.812  19.058  1.00  0.00     0.148 A 
ATOM     86  C   UNL     1       7.612 -13.366  18.401  1.00  0.00     0.002 A 
ATOM     87  C   UNL     1       8.829 -11.892  19.895  1.00  0.00     0.091 A 
ATOM     88  F   UNL     1       8.992  -9.573  19.365  1.00  0.00    -0.205 F 
ATOM     89  C   UNL     1       8.331 -13.165  19.577  1.00  0.00     0.022 A 
BRANCH  87  90
ATOM     90  S   UNL     1       9.834 -11.742  21.375  1.00  0.00     0.127 S 
ATOM     91  O   UNL     1       8.819 -11.765  22.427  1.00  0.00    -0.237 OA
ATOM     92  O   UNL     1      10.670 -12.941  21.307  1.00  0.00    -0.237 OA
ATOM     93  O   UNL     1      10.566 -10.490  21.235  1.00  0.00    -0.744 OA
ENDBRANCH  87  90
ENDBRANCH  60  83
ENDBRANCH  34  35
ENDBRANCH  26  29
ENDBRANCH  24  25
ENDBRANCH   1  24
TORSDOF 17
