REMARK SMILES C[C@@H]1CN(C(=O)N2CCC(CC(=O)NCCCNC(=O)c3ccc(-c4c5nc(c(-c6cccc(S(=O)(=O)[O-])c6F)c6ccc([nH]6)c(-c6cccc(S(=O)(=O)[O-])c6F)c6nc(c(-c7cccc(S(=O)(=O)[O-])c7F)c7ccc4[nH]7)C=C6)C=C5)cc3)CC2)C[C@@H](C)S1
REMARK SMILES IDX 17 1 16 2 15 3 14 4 12 5 13 6 11 8 10 9 1 10 2 11 3 12 89 13
REMARK SMILES IDX 4 14 87 15 5 16 86 17 88 18 6 19 7 20 8 21 85 22 9 23 84 24
REMARK SMILES IDX 18 25 19 26 20 28 21 29 22 30 83 31 23 32 82 33 24 34 25 35
REMARK SMILES IDX 26 36 76 37 27 38 81 39 75 40 77 41 28 42 80 43 74 44 73 45
REMARK SMILES IDX 29 47 61 48 41 49 60 50 42 51 45 52 59 53 78 54 43 55 44 56
REMARK SMILES IDX 58 58 79 59 46 60 30 61 31 62 39 63 32 64 34 65 40 66 33 67
REMARK SMILES IDX 35 68 36 69 37 70 38 71 62 72 63 73 71 74 64 75 66 76 72 77
REMARK SMILES IDX 65 78 67 79 68 80 69 81 70 82 47 83 48 84 56 85 49 86 51 87
REMARK SMILES IDX 57 88 50 89 52 90 53 91 54 92 55 93
REMARK H PARENT 14 7 18 27 77 46 45 57
REMARK Flexibility Score: inf
ROOT
ATOM      1  C   UNL     1       3.671   4.628  -5.907  1.00  0.00     0.118 C 
ENDROOT
BRANCH   1   2
ATOM      2  C   UNL     1       3.427   3.665  -4.755  1.00  0.00     0.042 C 
BRANCH   2   3
ATOM      3  C   UNL     1       3.804   2.211  -5.051  1.00  0.00     0.117 C 
BRANCH   3   4
ATOM      4  N   UNL     1       5.245   2.016  -5.155  1.00  0.00    -0.356 N 
ATOM      5  C   UNL     1       6.144   1.411  -4.327  1.00  0.00     0.220 C 
ATOM      6  O   UNL     1       7.328   1.394  -4.672  1.00  0.00    -0.275 OA
ATOM      7  H   UNL     1       5.642   2.390  -5.974  1.00  0.00     0.163 HD
BRANCH   5   8
ATOM      8  C   UNL     1       5.714   0.760  -3.025  1.00  0.00     0.103 C 
BRANCH   8   9
ATOM      9  C   UNL     1       5.907   1.645  -1.770  1.00  0.00     0.002 C 
ATOM     10  C   UNL     1       1.379   0.045  -0.377  1.00  0.00     0.021 C 
ATOM     11  C   UNL     1       0.660   1.307  -0.853  1.00  0.00     0.063 C 
ATOM     12  C   UNL     1       1.550   2.564  -0.791  1.00  0.00     0.135 C 
ATOM     13  S   UNL     1      -0.902   1.541   0.072  1.00  0.00    -0.152 SA
ATOM     14  N   UNL     1       1.905   2.962   0.572  1.00  0.00    -0.322 N 
ATOM     15  C   UNL     1      -0.203   2.170   1.658  1.00  0.00     0.063 C 
ATOM     16  C   UNL     1       3.092   2.595   1.188  1.00  0.00     0.320 C 
ATOM     17  C   UNL     1       0.769   3.339   1.414  1.00  0.00     0.135 C 
ATOM     18  C   UNL     1      -1.361   2.595   2.555  1.00  0.00     0.021 C 
ATOM     19  O   UNL     1       3.114   2.253   2.371  1.00  0.00    -0.248 OA
ATOM     20  N   UNL     1       4.224   2.546   0.401  1.00  0.00    -0.325 N 
ATOM     21  C   UNL     1       5.306   1.638   0.729  1.00  0.00     0.121 C 
ATOM     22  C   UNL     1       4.593   3.558  -0.574  1.00  0.00     0.121 C 
ATOM     23  C   UNL     1       5.614   0.800  -0.509  1.00  0.00     0.026 C 
ATOM     24  C   UNL     1       5.031   2.902  -1.874  1.00  0.00     0.026 C 
ENDBRANCH   8   9
ENDBRANCH   5   8
ENDBRANCH   3   4
ENDBRANCH   2   3
ENDBRANCH   1   2
BRANCH   1  25
ATOM     25  N   UNL     1       2.534   4.685  -6.805  1.00  0.00    -0.352 N 
ATOM     26  C   UNL     1       1.641   5.706  -7.030  1.00  0.00     0.251 C 
ATOM     27  H   UNL     1       2.377   3.869  -7.333  1.00  0.00     0.163 HD
ATOM     28  O   UNL     1       0.597   5.449  -7.627  1.00  0.00    -0.269 OA
BRANCH  26  29
ATOM     29  C   UNL     1       1.906   7.096  -6.573  1.00  0.00     0.039 A 
ATOM     30  C   UNL     1       0.821   7.892  -6.189  1.00  0.00     0.014 A 
ATOM     31  C   UNL     1       3.186   7.658  -6.601  1.00  0.00     0.014 A 
ATOM     32  C   UNL     1       1.019   9.231  -5.830  1.00  0.00     0.010 A 
ATOM     33  C   UNL     1       3.394   8.966  -6.159  1.00  0.00     0.010 A 
ATOM     34  C   UNL     1       2.310   9.781  -5.806  1.00  0.00    -0.014 A 
BRANCH  34  35
ATOM     35  C   UNL     1       2.531  11.218  -5.483  1.00  0.00     0.031 A 
ATOM     36  C   UNL     1       3.117  12.146  -6.520  1.00  0.00     0.074 A 
ATOM     37  C   UNL     1       2.258  11.685  -4.248  1.00  0.00     0.049 A 
ATOM     38  N   UNL     1       3.409  13.418  -6.420  1.00  0.00    -0.248 NA
ATOM     39  C   UNL     1       3.443  11.563  -7.833  1.00  0.00     0.031 C 
ATOM     40  C   UNL     1       1.760  10.883  -3.130  1.00  0.00     0.029 A 
ATOM     41  N   UNL     1       2.382  12.948  -3.721  1.00  0.00    -0.354 N 
ATOM     42  C   UNL     1       3.988  13.774  -7.633  1.00  0.00     0.074 A 
ATOM     43  C   UNL     1       4.040  12.577  -8.442  1.00  0.00     0.031 C 
ATOM     44  C   UNL     1       1.615  11.672  -2.053  1.00  0.00     0.029 A 
ATOM     45  C   UNL     1       2.028  13.030  -2.394  1.00  0.00     0.049 A 
ATOM     46  H   UNL     1       2.694  13.721  -4.244  1.00  0.00     0.167 HD
ATOM     47  C   UNL     1       4.406  14.992  -8.055  1.00  0.00     0.034 A 
ATOM     48  C   UNL     1       2.033  14.080  -1.549  1.00  0.00     0.034 A 
ATOM     49  C   UNL     1       4.293  16.196  -7.279  1.00  0.00     0.049 A 
ATOM     50  C   UNL     1       2.442  15.436  -2.062  1.00  0.00     0.074 A 
ATOM     51  C   UNL     1       4.599  17.493  -7.654  1.00  0.00     0.029 A 
ATOM     52  N   UNL     1       3.836  16.255  -5.972  1.00  0.00    -0.354 N 
ATOM     53  N   UNL     1       2.832  15.779  -3.265  1.00  0.00    -0.248 NA
ATOM     54  C   UNL     1       2.370  16.556  -1.113  1.00  0.00     0.031 C 
ATOM     55  C   UNL     1       4.339  18.334  -6.567  1.00  0.00     0.029 A 
ATOM     56  C   UNL     1       3.854  17.563  -5.523  1.00  0.00     0.049 A 
ATOM     57  H   UNL     1       3.542  15.479  -5.442  1.00  0.00     0.167 HD
ATOM     58  C   UNL     1       3.018  17.157  -3.228  1.00  0.00     0.074 A 
ATOM     59  C   UNL     1       2.674  17.588  -1.888  1.00  0.00     0.031 C 
ATOM     60  C   UNL     1       3.450  17.988  -4.207  1.00  0.00     0.034 A 
BRANCH  47  61
ATOM     61  C   UNL     1       4.966  15.097  -9.451  1.00  0.00     0.023 A 
ATOM     62  C   UNL     1       4.097  14.989 -10.556  1.00  0.00     0.012 A 
ATOM     63  C   UNL     1       6.332  15.364  -9.671  1.00  0.00     0.148 A 
ATOM     64  C   UNL     1       4.582  15.109 -11.858  1.00  0.00     0.002 A 
ATOM     65  C   UNL     1       6.801  15.525 -10.970  1.00  0.00     0.091 A 
ATOM     66  F   UNL     1       7.147  15.444  -8.609  1.00  0.00    -0.205 F 
ATOM     67  C   UNL     1       5.930  15.387 -12.064  1.00  0.00     0.022 A 
BRANCH  65  68
ATOM     68  S   UNL     1       8.504  15.962 -11.339  1.00  0.00     0.127 S 
ATOM     69  O   UNL     1       9.012  14.713 -11.904  1.00  0.00    -0.237 OA
ATOM     70  O   UNL     1       8.341  17.047 -12.307  1.00  0.00    -0.237 OA
ATOM     71  O   UNL     1       9.098  16.364 -10.072  1.00  0.00    -0.744 OA
ENDBRANCH  65  68
ENDBRANCH  47  61
BRANCH  48  72
ATOM     72  C   UNL     1       1.562  13.908  -0.145  1.00  0.00     0.023 A 
ATOM     73  C   UNL     1       0.337  14.483   0.248  1.00  0.00     0.012 A 
ATOM     74  C   UNL     1       2.303  13.164   0.792  1.00  0.00     0.148 A 
ATOM     75  C   UNL     1      -0.125  14.349   1.558  1.00  0.00     0.002 A 
ATOM     76  C   UNL     1       1.810  12.988   2.081  1.00  0.00     0.091 A 
ATOM     77  F   UNL     1       3.473  12.638   0.404  1.00  0.00    -0.205 F 
ATOM     78  C   UNL     1       0.606  13.593   2.471  1.00  0.00     0.022 A 
BRANCH  76  79
ATOM     79  S   UNL     1       2.618  11.920   3.278  1.00  0.00     0.127 S 
ATOM     80  O   UNL     1       3.210  12.890   4.193  1.00  0.00    -0.237 OA
ATOM     81  O   UNL     1       1.490  11.165   3.822  1.00  0.00    -0.237 OA
ATOM     82  O   UNL     1       3.558  11.115   2.507  1.00  0.00    -0.744 OA
ENDBRANCH  76  79
ENDBRANCH  48  72
BRANCH  60  83
ATOM     83  C   UNL     1       3.547  19.457  -3.889  1.00  0.00     0.023 A 
ATOM     84  C   UNL     1       4.579  19.925  -3.053  1.00  0.00     0.012 A 
ATOM     85  C   UNL     1       2.662  20.381  -4.480  1.00  0.00     0.148 A 
ATOM     86  C   UNL     1       4.711  21.287  -2.784  1.00  0.00     0.002 A 
ATOM     87  C   UNL     1       2.829  21.741  -4.245  1.00  0.00     0.091 A 
ATOM     88  F   UNL     1       1.674  19.915  -5.257  1.00  0.00    -0.205 F 
ATOM     89  C   UNL     1       3.845  22.195  -3.388  1.00  0.00     0.022 A 
BRANCH  87  90
ATOM     90  S   UNL     1       1.819  22.985  -5.058  1.00  0.00     0.127 S 
ATOM     91  O   UNL     1       0.925  23.397  -3.977  1.00  0.00    -0.237 OA
ATOM     92  O   UNL     1       2.811  23.989  -5.445  1.00  0.00    -0.237 OA
ATOM     93  O   UNL     1       1.180  22.309  -6.179  1.00  0.00    -0.744 OA
ENDBRANCH  87  90
ENDBRANCH  60  83
ENDBRANCH  34  35
ENDBRANCH  26  29
ENDBRANCH   1  25
TORSDOF 14
