REMARK SMILES Cn1c(C(=O)NCCCNC(=O)c2ccc(-c3c4nc(c(-c5cccc(S(=O)(=O)[O-])c5F)c5ccc([nH]5)c(-c5cccc(S(=O)(=O)[O-])c5F)c5nc(c(-c6cccc(S(=O)(=O)[O-])c6F)c6ccc3[nH]6)C=C5)C=C4)cc2)cc2cc(OCc3ccccc3)ccc21
REMARK SMILES IDX 8 1 7 2 6 3 4 4 5 5 3 7 1 8 2 9 90 10 76 11 77 12 89 13
REMARK SMILES IDX 78 14 88 15 79 16 80 17 81 18 82 19 83 20 87 21 84 22 86 23
REMARK SMILES IDX 85 24 9 25 10 26 11 27 12 29 13 30 14 31 75 32 15 33 74 34
REMARK SMILES IDX 16 35 17 36 18 37 68 38 19 39 73 40 67 41 69 42 20 43 72 44
REMARK SMILES IDX 66 45 65 46 21 48 53 49 33 50 52 51 34 52 37 53 51 54 70 55
REMARK SMILES IDX 35 56 36 57 50 59 71 60 38 61 22 62 23 63 31 64 24 65 26 66
REMARK SMILES IDX 32 67 25 68 27 69 28 70 29 71 30 72 54 73 55 74 63 75 56 76
REMARK SMILES IDX 58 77 64 78 57 79 59 80 60 81 61 82 62 83 39 84 40 85 48 86
REMARK SMILES IDX 41 87 43 88 49 89 42 90 44 91 45 92 46 93 47 94
REMARK H PARENT 6 6 10 28 69 47 37 58
REMARK Flexibility Score: inf
ROOT
ATOM      1  C   UNL     1       5.154   1.307   1.722  1.00  0.00     0.042 C 
ENDROOT
BRANCH   1   2
ATOM      2  C   UNL     1       4.226   0.910   0.598  1.00  0.00     0.118 C 
BRANCH   2   3
ATOM      3  N   UNL     1       4.248  -0.480   0.206  1.00  0.00    -0.351 N 
ATOM      4  C   UNL     1       3.224  -1.285  -0.238  1.00  0.00     0.267 C 
ATOM      5  O   UNL     1       3.526  -2.445  -0.514  1.00  0.00    -0.268 OA
ATOM      6  H   UNL     1       5.128  -0.917   0.266  1.00  0.00     0.163 HD
BRANCH   4   7
ATOM      7  C   UNL     1       1.849  -0.813  -0.302  1.00  0.00     0.107 A 
ATOM      8  C   UNL     1       1.985   1.546  -1.264  1.00  0.00     0.150 C 
ATOM      9  N   UNL     1       1.331   0.430  -0.612  1.00  0.00    -0.340 N 
ATOM     10  C   UNL     1      -0.024   0.467  -0.352  1.00  0.00     0.049 A 
ATOM     11  C   UNL     1       0.732  -1.632  -0.125  1.00  0.00     0.042 A 
ATOM     12  C   UNL     1      -0.444  -0.839  -0.142  1.00  0.00     0.004 A 
ATOM     13  C   UNL     1      -0.904   1.549  -0.353  1.00  0.00     0.031 A 
ATOM     14  C   UNL     1      -1.825  -1.089   0.015  1.00  0.00     0.056 A 
ATOM     15  C   UNL     1      -2.261   1.276  -0.210  1.00  0.00     0.048 A 
ATOM     16  C   UNL     1      -2.735  -0.021  -0.031  1.00  0.00     0.120 A 
BRANCH  16  17
ATOM     17  O   UNL     1      -4.054  -0.361   0.133  1.00  0.00    -0.489 OA
BRANCH  17  18
ATOM     18  C   UNL     1      -5.037   0.684   0.049  1.00  0.00     0.265 C 
BRANCH  18  19
ATOM     19  C   UNL     1      -5.066   1.570   1.277  1.00  0.00    -0.011 A 
ATOM     20  C   UNL     1      -5.154   1.005   2.555  1.00  0.00     0.007 A 
ATOM     21  C   UNL     1      -4.944   2.965   1.159  1.00  0.00     0.007 A 
ATOM     22  C   UNL     1      -5.073   1.811   3.691  1.00  0.00     0.000 A 
ATOM     23  C   UNL     1      -4.836   3.766   2.296  1.00  0.00     0.000 A 
ATOM     24  C   UNL     1      -4.897   3.188   3.561  1.00  0.00     0.000 A 
ENDBRANCH  18  19
ENDBRANCH  17  18
ENDBRANCH  16  17
ENDBRANCH   4   7
ENDBRANCH   2   3
ENDBRANCH   1   2
BRANCH   1  25
ATOM     25  C   UNL     1       6.632   1.133   1.435  1.00  0.00     0.118 C 
BRANCH  25  26
ATOM     26  N   UNL     1       7.130   1.934   0.319  1.00  0.00    -0.352 N 
ATOM     27  C   UNL     1       7.976   3.021   0.281  1.00  0.00     0.251 C 
ATOM     28  H   UNL     1       6.801   1.646  -0.563  1.00  0.00     0.163 HD
ATOM     29  O   UNL     1       8.163   3.594  -0.790  1.00  0.00    -0.269 OA
BRANCH  27  30
ATOM     30  C   UNL     1       8.629   3.526   1.512  1.00  0.00     0.039 A 
ATOM     31  C   UNL     1       8.807   4.903   1.682  1.00  0.00     0.014 A 
ATOM     32  C   UNL     1       9.064   2.655   2.507  1.00  0.00     0.014 A 
ATOM     33  C   UNL     1       9.336   5.393   2.881  1.00  0.00     0.010 A 
ATOM     34  C   UNL     1       9.431   3.147   3.751  1.00  0.00     0.010 A 
ATOM     35  C   UNL     1       9.609   4.521   3.947  1.00  0.00    -0.014 A 
BRANCH  35  36
ATOM     36  C   UNL     1      10.121   5.007   5.255  1.00  0.00     0.031 A 
ATOM     37  C   UNL     1      11.422   4.469   5.802  1.00  0.00     0.074 A 
ATOM     38  C   UNL     1       9.383   5.861   5.992  1.00  0.00     0.049 A 
ATOM     39  N   UNL     1      12.005   4.724   6.945  1.00  0.00    -0.248 NA
ATOM     40  C   UNL     1      12.145   3.483   4.977  1.00  0.00     0.031 C 
ATOM     41  C   UNL     1       8.063   6.379   5.624  1.00  0.00     0.029 A 
ATOM     42  N   UNL     1       9.630   6.431   7.216  1.00  0.00    -0.354 N 
ATOM     43  C   UNL     1      13.126   3.901   6.992  1.00  0.00     0.074 A 
ATOM     44  C   UNL     1      13.112   3.096   5.793  1.00  0.00     0.031 C 
ATOM     45  C   UNL     1       7.629   7.207   6.587  1.00  0.00     0.029 A 
ATOM     46  C   UNL     1       8.619   7.254   7.657  1.00  0.00     0.049 A 
ATOM     47  H   UNL     1      10.453   6.266   7.730  1.00  0.00     0.167 HD
ATOM     48  C   UNL     1      14.106   3.847   7.924  1.00  0.00     0.034 A 
ATOM     49  C   UNL     1       8.505   7.966   8.796  1.00  0.00     0.034 A 
ATOM     50  C   UNL     1      14.148   4.690   9.086  1.00  0.00     0.049 A 
ATOM     51  C   UNL     1       9.636   7.936   9.788  1.00  0.00     0.074 A 
ATOM     52  C   UNL     1      15.140   4.784  10.046  1.00  0.00     0.029 A 
ATOM     53  N   UNL     1      13.152   5.582   9.449  1.00  0.00    -0.354 N 
ATOM     54  N   UNL     1      10.763   7.268   9.736  1.00  0.00    -0.248 NA
ATOM     55  C   UNL     1       9.499   8.792  10.974  1.00  0.00     0.031 C 
ATOM     56  C   UNL     1      14.728   5.713  11.006  1.00  0.00     0.029 A 
ATOM     57  C   UNL     1      13.501   6.229  10.621  1.00  0.00     0.049 A 
ATOM     58  H   UNL     1      12.319   5.734   8.947  1.00  0.00     0.167 HD
ATOM     59  C   UNL     1      11.487   7.655  10.858  1.00  0.00     0.074 A 
ATOM     60  C   UNL     1      10.678   8.632  11.558  1.00  0.00     0.031 C 
ATOM     61  C   UNL     1      12.707   7.235  11.277  1.00  0.00     0.034 A 
BRANCH  48  62
ATOM     62  C   UNL     1      15.240   2.880   7.694  1.00  0.00     0.023 A 
ATOM     63  C   UNL     1      16.151   3.106   6.641  1.00  0.00     0.012 A 
ATOM     64  C   UNL     1      15.431   1.773   8.544  1.00  0.00     0.148 A 
ATOM     65  C   UNL     1      17.206   2.224   6.410  1.00  0.00     0.002 A 
ATOM     66  C   UNL     1      16.516   0.928   8.340  1.00  0.00     0.091 A 
ATOM     67  F   UNL     1      14.543   1.560   9.526  1.00  0.00    -0.205 F 
ATOM     68  C   UNL     1      17.395   1.143   7.266  1.00  0.00     0.022 A 
BRANCH  66  69
ATOM     69  S   UNL     1      16.898  -0.442   9.437  1.00  0.00     0.127 S 
ATOM     70  O   UNL     1      16.619  -1.592   8.579  1.00  0.00    -0.237 OA
ATOM     71  O   UNL     1      18.316  -0.220   9.720  1.00  0.00    -0.237 OA
ATOM     72  O   UNL     1      16.017  -0.294  10.587  1.00  0.00    -0.744 OA
ENDBRANCH  66  69
ENDBRANCH  48  62
BRANCH  49  73
ATOM     73  C   UNL     1       7.308   8.826   9.024  1.00  0.00     0.023 A 
ATOM     74  C   UNL     1       7.446  10.228   9.000  1.00  0.00     0.012 A 
ATOM     75  C   UNL     1       6.035   8.266   9.245  1.00  0.00     0.148 A 
ATOM     76  C   UNL     1       6.348  11.056   9.233  1.00  0.00     0.002 A 
ATOM     77  C   UNL     1       4.934   9.097   9.418  1.00  0.00     0.091 A 
ATOM     78  F   UNL     1       5.925   6.931   9.270  1.00  0.00    -0.205 F 
ATOM     79  C   UNL     1       5.091  10.492   9.432  1.00  0.00     0.022 A 
BRANCH  77  80
ATOM     80  S   UNL     1       3.259   8.463   9.548  1.00  0.00     0.127 S 
ATOM     81  O   UNL     1       2.932   8.766  10.939  1.00  0.00    -0.237 OA
ATOM     82  O   UNL     1       2.553   9.276   8.557  1.00  0.00    -0.237 OA
ATOM     83  O   UNL     1       3.346   7.049   9.212  1.00  0.00    -0.744 OA
ENDBRANCH  77  80
ENDBRANCH  49  73
BRANCH  61  84
ATOM     84  C   UNL     1      13.271   7.867  12.522  1.00  0.00     0.023 A 
ATOM     85  C   UNL     1      12.709   7.580  13.781  1.00  0.00     0.012 A 
ATOM     86  C   UNL     1      14.402   8.704  12.444  1.00  0.00     0.148 A 
ATOM     87  C   UNL     1      13.235   8.154  14.938  1.00  0.00     0.002 A 
ATOM     88  C   UNL     1      14.955   9.226  13.605  1.00  0.00     0.091 A 
ATOM     89  F   UNL     1      14.913   8.979  11.234  1.00  0.00    -0.205 F 
ATOM     90  C   UNL     1      14.363   8.966  14.852  1.00  0.00     0.022 A 
BRANCH  88  91
ATOM     91  S   UNL     1      16.467  10.195  13.597  1.00  0.00     0.127 S 
ATOM     92  O   UNL     1      15.959  11.542  13.853  1.00  0.00    -0.237 OA
ATOM     93  O   UNL     1      17.220   9.606  14.705  1.00  0.00    -0.237 OA
ATOM     94  O   UNL     1      17.066   9.991  12.285  1.00  0.00    -0.744 OA
ENDBRANCH  88  91
ENDBRANCH  61  84
ENDBRANCH  35  36
ENDBRANCH  27  30
ENDBRANCH  25  26
ENDBRANCH   1  25
TORSDOF 16
