REMARK SMILES Cc1cc(C(=O)N2CCC[C@@H]2C)sc1/C=C/C(=O)NCCCNC(=O)c1ccc(-c2c3nc(c(-c4cccc(S(=O)(=O)[O-])c4F)c4ccc([nH]4)c(-c4cccc(S(=O)(=O)[O-])c4F)c4nc(c(-c5cccc(S(=O)(=O)[O-])c5F)c5ccc2[nH]5)C=C4)C=C3)cc1
REMARK SMILES IDX 21 1 20 2 19 3 17 4 18 5 16 7 15 8 14 9 1 10 2 11 3 12 4 13
REMARK SMILES IDX 13 14 5 15 6 16 7 17 8 18 11 19 9 20 10 21 12 22 22 23 23 24
REMARK SMILES IDX 24 25 25 27 26 28 27 29 88 30 28 31 87 32 29 33 30 34 31 35
REMARK SMILES IDX 81 36 32 37 86 38 80 39 82 40 33 41 85 42 79 43 78 44 34 46
REMARK SMILES IDX 66 47 46 48 65 49 47 50 50 51 64 52 83 53 48 54 49 55 63 57
REMARK SMILES IDX 84 58 51 59 35 60 36 61 44 62 37 63 39 64 45 65 38 66 40 67
REMARK SMILES IDX 41 68 42 69 43 70 67 71 68 72 76 73 69 74 71 75 77 76 70 77
REMARK SMILES IDX 72 78 73 79 74 80 75 81 52 82 53 83 61 84 54 85 56 86 62 87
REMARK SMILES IDX 55 88 57 89 58 90 59 91 60 92
REMARK H PARENT 19 6 23 26 82 45 50 56
REMARK Flexibility Score: inf
ROOT
ATOM      1  C   UNL     1       3.140  -4.643   0.719  1.00  0.00     0.042 C 
ENDROOT
BRANCH   1   2
ATOM      2  C   UNL     1       2.213  -4.672  -0.493  1.00  0.00     0.118 C 
BRANCH   2   3
ATOM      3  N   UNL     1       0.932  -5.277  -0.170  1.00  0.00    -0.352 N 
ATOM      4  C   UNL     1      -0.300  -4.715  -0.050  1.00  0.00     0.244 C 
ATOM      5  O   UNL     1      -1.287  -5.430   0.100  1.00  0.00    -0.270 OA
ATOM      6  H   UNL     1       0.960  -6.248  -0.015  1.00  0.00     0.163 HD
BRANCH   4   7
ATOM      7  C   UNL     1      -0.477  -3.257  -0.208  1.00  0.00     0.072 C 
ATOM      8  C   UNL     1       0.258  -2.336   0.433  1.00  0.00     0.025 C 
BRANCH   8   9
ATOM      9  C   UNL     1       0.067  -0.932   0.251  1.00  0.00     0.031 A 
ATOM     10  C   UNL     1       2.509  -0.112   0.240  1.00  0.00     0.046 C 
ATOM     11  C   UNL     1       1.023   0.076   0.211  1.00  0.00    -0.032 A 
ATOM     12  C   UNL     1       0.412   1.373   0.097  1.00  0.00     0.029 A 
ATOM     13  C   UNL     1      -0.967   1.333   0.001  1.00  0.00     0.093 A 
ATOM     14  S   UNL     1      -1.505  -0.280   0.039  1.00  0.00    -0.130 S 
BRANCH  13  15
ATOM     15  C   UNL     1      -1.841   2.455  -0.328  1.00  0.00     0.264 C 
ATOM     16  O   UNL     1      -1.390   3.451  -0.902  1.00  0.00    -0.268 OA
BRANCH  15  17
ATOM     17  N   UNL     1      -3.210   2.385  -0.095  1.00  0.00    -0.335 N 
ATOM     18  C   UNL     1      -4.114   3.079  -0.984  1.00  0.00     0.120 C 
ATOM     19  C   UNL     1      -3.957   1.722   0.980  1.00  0.00     0.082 C 
ATOM     20  C   UNL     1      -5.350   2.202  -0.946  1.00  0.00     0.024 C 
ATOM     21  C   UNL     1      -5.425   1.781   0.518  1.00  0.00     0.026 C 
ATOM     22  C   UNL     1      -3.772   2.443   2.312  1.00  0.00     0.031 C 
ENDBRANCH  15  17
ENDBRANCH  13  15
ENDBRANCH   8   9
ENDBRANCH   4   7
ENDBRANCH   2   3
ENDBRANCH   1   2
BRANCH   1  23
ATOM     23  C   UNL     1       3.714  -6.011   1.076  1.00  0.00     0.118 C 
BRANCH  23  24
ATOM     24  N   UNL     1       4.626  -6.503   0.052  1.00  0.00    -0.352 N 
ATOM     25  C   UNL     1       5.950  -6.852   0.142  1.00  0.00     0.251 C 
ATOM     26  H   UNL     1       4.231  -6.599  -0.844  1.00  0.00     0.163 HD
ATOM     27  O   UNL     1       6.595  -7.021  -0.889  1.00  0.00    -0.269 OA
BRANCH  25  28
ATOM     28  C   UNL     1       6.603  -7.021   1.459  1.00  0.00     0.039 A 
ATOM     29  C   UNL     1       7.919  -6.577   1.620  1.00  0.00     0.014 A 
ATOM     30  C   UNL     1       5.948  -7.658   2.517  1.00  0.00     0.014 A 
ATOM     31  C   UNL     1       8.559  -6.731   2.852  1.00  0.00     0.010 A 
ATOM     32  C   UNL     1       6.561  -7.744   3.765  1.00  0.00     0.010 A 
ATOM     33  C   UNL     1       7.877  -7.293   3.943  1.00  0.00    -0.014 A 
BRANCH  33  34
ATOM     34  C   UNL     1       8.520  -7.411   5.277  1.00  0.00     0.031 A 
ATOM     35  C   UNL     1       8.757  -8.765   5.891  1.00  0.00     0.074 A 
ATOM     36  C   UNL     1       8.813  -6.295   5.972  1.00  0.00     0.049 A 
ATOM     37  N   UNL     1       9.249  -9.062   7.066  1.00  0.00    -0.248 NA
ATOM     38  C   UNL     1       8.364  -9.938   5.093  1.00  0.00     0.031 C 
ATOM     39  C   UNL     1       8.557  -4.926   5.519  1.00  0.00     0.029 A 
ATOM     40  N   UNL     1       9.363  -6.133   7.219  1.00  0.00    -0.354 N 
ATOM     41  C   UNL     1       9.192 -10.447   7.164  1.00  0.00     0.074 A 
ATOM     42  C   UNL     1       8.587 -10.931   5.942  1.00  0.00     0.031 C 
ATOM     43  C   UNL     1       8.948  -4.066   6.472  1.00  0.00     0.029 A 
ATOM     44  C   UNL     1       9.457  -4.819   7.614  1.00  0.00     0.049 A 
ATOM     45  H   UNL     1       9.661  -6.887   7.778  1.00  0.00     0.167 HD
ATOM     46  C   UNL     1       9.631 -11.248   8.165  1.00  0.00     0.034 A 
ATOM     47  C   UNL     1       9.896  -4.281   8.768  1.00  0.00     0.034 A 
ATOM     48  C   UNL     1      10.273 -10.764   9.358  1.00  0.00     0.049 A 
ATOM     49  C   UNL     1      10.424  -5.190   9.844  1.00  0.00     0.074 A 
ATOM     50  C   UNL     1      10.832 -11.496  10.391  1.00  0.00     0.029 A 
ATOM     51  N   UNL     1      10.439  -9.427   9.681  1.00  0.00    -0.354 N 
ATOM     52  N   UNL     1      10.507  -6.498   9.850  1.00  0.00    -0.248 NA
ATOM     53  C   UNL     1      10.956  -4.549  11.055  1.00  0.00     0.031 C 
ATOM     54  C   UNL     1      11.319 -10.600  11.348  1.00  0.00     0.029 A 
ATOM     55  C   UNL     1      11.086  -9.310  10.899  1.00  0.00     0.049 A 
ATOM     56  H   UNL     1      10.141  -8.671   9.125  1.00  0.00     0.167 HD
ATOM     57  C   UNL     1      11.130  -6.836  11.046  1.00  0.00     0.074 A 
ATOM     58  C   UNL     1      11.423  -5.592  11.729  1.00  0.00     0.031 C 
ATOM     59  C   UNL     1      11.419  -8.064  11.542  1.00  0.00     0.034 A 
BRANCH  46  60
ATOM     60  C   UNL     1       9.484 -12.737   7.987  1.00  0.00     0.023 A 
ATOM     61  C   UNL     1      10.296 -13.407   7.048  1.00  0.00     0.012 A 
ATOM     62  C   UNL     1       8.591 -13.482   8.782  1.00  0.00     0.148 A 
ATOM     63  C   UNL     1      10.196 -14.787   6.876  1.00  0.00     0.002 A 
ATOM     64  C   UNL     1       8.530 -14.864   8.637  1.00  0.00     0.091 A 
ATOM     65  F   UNL     1       7.813 -12.828   9.656  1.00  0.00    -0.205 F 
ATOM     66  C   UNL     1       9.322 -15.516   7.677  1.00  0.00     0.022 A 
BRANCH  64  67
ATOM     67  S   UNL     1       7.494 -15.903   9.674  1.00  0.00     0.127 S 
ATOM     68  O   UNL     1       6.454 -16.316   8.733  1.00  0.00    -0.237 OA
ATOM     69  O   UNL     1       8.419 -16.968  10.065  1.00  0.00    -0.237 OA
ATOM     70  O   UNL     1       7.046 -15.056  10.771  1.00  0.00    -0.744 OA
ENDBRANCH  64  67
ENDBRANCH  46  60
BRANCH  47  71
ATOM     71  C   UNL     1       9.919  -2.800   8.933  1.00  0.00     0.023 A 
ATOM     72  C   UNL     1      11.156  -2.126   8.944  1.00  0.00     0.012 A 
ATOM     73  C   UNL     1       8.729  -2.054   9.038  1.00  0.00     0.148 A 
ATOM     74  C   UNL     1      11.209  -0.739   9.087  1.00  0.00     0.002 A 
ATOM     75  C   UNL     1       8.787  -0.668   9.123  1.00  0.00     0.091 A 
ATOM     76  F   UNL     1       7.563  -2.716   9.036  1.00  0.00    -0.205 F 
ATOM     77  C   UNL     1      10.025  -0.009   9.166  1.00  0.00     0.022 A 
BRANCH  75  78
ATOM     78  S   UNL     1       7.314   0.360   9.090  1.00  0.00     0.127 S 
ATOM     79  O   UNL     1       7.257   0.847  10.465  1.00  0.00    -0.237 OA
ATOM     80  O   UNL     1       7.671   1.368   8.091  1.00  0.00    -0.237 OA
ATOM     81  O   UNL     1       6.228  -0.524   8.684  1.00  0.00    -0.744 OA
ENDBRANCH  75  78
ENDBRANCH  47  71
BRANCH  59  82
ATOM     82  C   UNL     1      12.118  -8.132  12.875  1.00  0.00     0.023 A 
ATOM     83  C   UNL     1      11.409  -7.828  14.054  1.00  0.00     0.012 A 
ATOM     84  C   UNL     1      13.455  -8.568  12.964  1.00  0.00     0.148 A 
ATOM     85  C   UNL     1      12.030  -7.925  15.299  1.00  0.00     0.002 A 
ATOM     86  C   UNL     1      14.052  -8.709  14.211  1.00  0.00     0.091 A 
ATOM     87  F   UNL     1      14.118  -8.834  11.829  1.00  0.00    -0.205 F 
ATOM     88  C   UNL     1      13.345  -8.376  15.378  1.00  0.00     0.022 A 
BRANCH  86  89
ATOM     89  S   UNL     1      15.708  -9.374  14.413  1.00  0.00     0.127 S 
ATOM     90  O   UNL     1      16.471  -8.175  14.758  1.00  0.00    -0.237 OA
ATOM     91  O   UNL     1      15.530 -10.321  15.515  1.00  0.00    -0.237 OA
ATOM     92  O   UNL     1      16.050  -9.990  13.139  1.00  0.00    -0.744 OA
ENDBRANCH  86  89
ENDBRANCH  59  82
ENDBRANCH  33  34
ENDBRANCH  25  28
ENDBRANCH  23  24
ENDBRANCH   1  23
TORSDOF 16
