REMARK SMILES O=C(NCc1ccsc1)NC[C@H]1CC[C@@H](C(=O)NCCCNC(=O)c2ccc(-c3c4nc(c(-c5cccc(S(=O)(=O)[O-])c5F)c5ccc([nH]5)c(-c5cccc(S(=O)(=O)[O-])c5F)c5nc(c(-c6cccc(S(=O)(=O)[O-])c6F)c6ccc3[nH]6)C=C5)C=C4)cc2)CC1
REMARK SMILES IDX 19 1 18 2 16 3 17 4 15 6 12 7 13 8 89 9 14 10 88 11 11 12
REMARK SMILES IDX 10 13 1 14 2 15 3 16 4 19 5 20 6 21 9 22 7 23 8 24 20 25
REMARK SMILES IDX 21 26 22 27 23 28 24 30 25 31 26 32 87 33 27 34 86 35 28 36
REMARK SMILES IDX 29 37 30 38 80 39 31 40 85 41 79 42 81 43 32 44 84 45 78 46
REMARK SMILES IDX 77 47 33 49 65 50 45 51 64 52 46 53 49 54 63 55 82 56 47 57
REMARK SMILES IDX 48 58 62 60 83 61 50 62 34 63 35 64 43 65 36 66 38 67 44 68
REMARK SMILES IDX 37 69 39 70 40 71 41 72 42 73 66 74 67 75 75 76 68 77 70 78
REMARK SMILES IDX 76 79 69 80 71 81 72 82 73 83 74 84 51 85 52 86 60 87 53 88
REMARK SMILES IDX 55 89 61 90 54 91 56 92 57 93 58 94 59 95
REMARK H PARENT 18 5 3 17 10 18 22 29 81 48 49 59
REMARK Flexibility Score: inf
ROOT
ATOM      1  C   UNL     1      -0.069   3.795  -1.048  1.00  0.00     0.117 C 
ENDROOT
BRANCH   1   2
ATOM      2  N   UNL     1       0.077   5.177  -0.672  1.00  0.00    -0.356 N 
ATOM      3  C   UNL     1       1.097   6.048  -0.863  1.00  0.00     0.223 C 
ATOM      4  O   UNL     1       0.885   7.215  -0.511  1.00  0.00    -0.275 OA
ATOM      5  H   UNL     1      -0.697   5.554  -0.193  1.00  0.00     0.163 HD
BRANCH   3   6
ATOM      6  C   UNL     1       2.468   5.677  -1.457  1.00  0.00     0.078 C 
ATOM      7  C   UNL     1       3.354   2.855  -2.152  1.00  0.00     0.008 C 
ATOM      8  C   UNL     1       2.614   3.718  -3.193  1.00  0.00     0.006 C 
ATOM      9  C   UNL     1       3.319   3.375  -0.707  1.00  0.00     0.006 C 
ATOM     10  C   UNL     1       2.521   5.219  -2.914  1.00  0.00     0.014 C 
ATOM     11  C   UNL     1       3.380   4.880  -0.536  1.00  0.00     0.014 C 
BRANCH   7  12
ATOM     12  C   UNL     1       2.829   1.395  -2.223  1.00  0.00     0.121 C 
BRANCH  12  13
ATOM     13  N   UNL     1       3.388   0.547  -1.186  1.00  0.00    -0.338 N 
ATOM     14  O   UNL     1       1.397  -0.270  -0.435  1.00  0.00    -0.249 OA
ATOM     15  C   UNL     1       2.614  -0.185  -0.335  1.00  0.00     0.315 C 
ATOM     16  N   UNL     1       3.243  -0.811   0.685  1.00  0.00    -0.334 N 
ATOM     17  H   UNL     1       2.638  -1.267   1.314  1.00  0.00     0.165 HD
ATOM     18  H   UNL     1       4.367   0.499  -1.094  1.00  0.00     0.165 HD
BRANCH  16  19
ATOM     19  C   UNL     1       4.645  -0.933   1.017  1.00  0.00     0.154 C 
BRANCH  19  20
ATOM     20  C   UNL     1       4.910  -0.275   2.331  1.00  0.00    -0.018 A 
ATOM     21  C   UNL     1       5.394  -0.973   3.485  1.00  0.00     0.017 A 
ATOM     22  C   UNL     1       4.758   1.072   2.613  1.00  0.00     0.070 A 
ATOM     23  C   UNL     1       5.596  -0.149   4.570  1.00  0.00     0.065 A 
ATOM     24  S   UNL     1       5.210   1.475   4.215  1.00  0.00    -0.152 S 
ENDBRANCH  19  20
ENDBRANCH  16  19
ENDBRANCH  12  13
ENDBRANCH   7  12
ENDBRANCH   3   6
ENDBRANCH   1   2
BRANCH   1  25
ATOM     25  C   UNL     1      -0.091   2.847   0.135  1.00  0.00     0.042 C 
BRANCH  25  26
ATOM     26  C   UNL     1      -1.478   2.392   0.537  1.00  0.00     0.118 C 
BRANCH  26  27
ATOM     27  N   UNL     1      -2.174   1.662  -0.520  1.00  0.00    -0.352 N 
ATOM     28  C   UNL     1      -2.645   0.371  -0.566  1.00  0.00     0.251 C 
ATOM     29  H   UNL     1      -2.334   2.184  -1.339  1.00  0.00     0.163 HD
ATOM     30  O   UNL     1      -3.076  -0.068  -1.631  1.00  0.00    -0.269 OA
BRANCH  28  31
ATOM     31  C   UNL     1      -2.647  -0.483   0.643  1.00  0.00     0.039 A 
ATOM     32  C   UNL     1      -2.439  -1.859   0.511  1.00  0.00     0.014 A 
ATOM     33  C   UNL     1      -2.877   0.059   1.906  1.00  0.00     0.014 A 
ATOM     34  C   UNL     1      -2.403  -2.669   1.650  1.00  0.00     0.010 A 
ATOM     35  C   UNL     1      -2.690  -0.716   3.041  1.00  0.00     0.010 A 
ATOM     36  C   UNL     1      -2.489  -2.097   2.929  1.00  0.00    -0.014 A 
BRANCH  36  37
ATOM     37  C   UNL     1      -2.411  -2.912   4.168  1.00  0.00     0.031 A 
ATOM     38  C   UNL     1      -3.541  -2.868   5.168  1.00  0.00     0.074 A 
ATOM     39  C   UNL     1      -1.292  -3.612   4.440  1.00  0.00     0.049 A 
ATOM     40  N   UNL     1      -3.625  -3.431   6.345  1.00  0.00    -0.248 NA
ATOM     41  C   UNL     1      -4.715  -2.046   4.820  1.00  0.00     0.031 C 
ATOM     42  C   UNL     1      -0.095  -3.662   3.596  1.00  0.00     0.029 A 
ATOM     43  N   UNL     1      -0.968  -4.397   5.518  1.00  0.00    -0.354 N 
ATOM     44  C   UNL     1      -4.826  -2.992   6.892  1.00  0.00     0.074 A 
ATOM     45  C   UNL     1      -5.413  -2.074   5.944  1.00  0.00     0.031 C 
ATOM     46  C   UNL     1       0.821  -4.453   4.176  1.00  0.00     0.029 A 
ATOM     47  C   UNL     1       0.297  -4.933   5.450  1.00  0.00     0.049 A 
ATOM     48  H   UNL     1      -1.583  -4.561   6.269  1.00  0.00     0.167 HD
ATOM     49  C   UNL     1      -5.411  -3.349   8.059  1.00  0.00     0.034 A 
ATOM     50  C   UNL     1       0.961  -5.718   6.321  1.00  0.00     0.034 A 
ATOM     51  C   UNL     1      -4.850  -4.309   8.968  1.00  0.00     0.049 A 
ATOM     52  C   UNL     1       0.268  -6.144   7.587  1.00  0.00     0.074 A 
ATOM     53  C   UNL     1      -5.402  -4.820  10.129  1.00  0.00     0.029 A 
ATOM     54  N   UNL     1      -3.606  -4.902   8.820  1.00  0.00    -0.354 N 
ATOM     55  N   UNL     1      -0.935  -5.839   8.013  1.00  0.00    -0.248 NA
ATOM     56  C   UNL     1       1.008  -7.050   8.476  1.00  0.00     0.031 C 
ATOM     57  C   UNL     1      -4.477  -5.700  10.699  1.00  0.00     0.029 A 
ATOM     58  C   UNL     1      -3.366  -5.767   9.872  1.00  0.00     0.049 A 
ATOM     59  H   UNL     1      -2.985  -4.732   8.075  1.00  0.00     0.167 HD
ATOM     60  C   UNL     1      -1.111  -6.547   9.197  1.00  0.00     0.074 A 
ATOM     61  C   UNL     1       0.102  -7.310   9.409  1.00  0.00     0.031 C 
ATOM     62  C   UNL     1      -2.174  -6.557  10.038  1.00  0.00     0.034 A 
BRANCH  49  63
ATOM     63  C   UNL     1      -6.750  -2.739   8.391  1.00  0.00     0.023 A 
ATOM     64  C   UNL     1      -7.886  -3.087   7.630  1.00  0.00     0.012 A 
ATOM     65  C   UNL     1      -6.895  -1.859   9.482  1.00  0.00     0.148 A 
ATOM     66  C   UNL     1      -9.134  -2.537   7.920  1.00  0.00     0.002 A 
ATOM     67  C   UNL     1      -8.152  -1.356   9.798  1.00  0.00     0.091 A 
ATOM     68  F   UNL     1      -5.803  -1.524  10.183  1.00  0.00    -0.205 F 
ATOM     69  C   UNL     1      -9.268  -1.681   9.009  1.00  0.00     0.022 A 
BRANCH  67  70
ATOM     70  S   UNL     1      -8.449  -0.315  11.231  1.00  0.00     0.127 S 
ATOM     71  O   UNL     1      -8.761   0.968  10.604  1.00  0.00    -0.237 OA
ATOM     72  O   UNL     1      -9.591  -0.980  11.860  1.00  0.00    -0.237 OA
ATOM     73  O   UNL     1      -7.221  -0.345  12.013  1.00  0.00    -0.744 OA
ENDBRANCH  67  70
ENDBRANCH  49  63
BRANCH  50  74
ATOM     74  C   UNL     1       2.331  -6.206   5.995  1.00  0.00     0.023 A 
ATOM     75  C   UNL     1       2.529  -7.571   5.710  1.00  0.00     0.012 A 
ATOM     76  C   UNL     1       3.431  -5.328   5.945  1.00  0.00     0.148 A 
ATOM     77  C   UNL     1       3.804  -8.062   5.423  1.00  0.00     0.002 A 
ATOM     78  C   UNL     1       4.689  -5.814   5.608  1.00  0.00     0.091 A 
ATOM     79  F   UNL     1       3.217  -4.029   6.193  1.00  0.00    -0.205 F 
ATOM     80  C   UNL     1       4.882  -7.183   5.369  1.00  0.00     0.022 A 
BRANCH  78  81
ATOM     81  S   UNL     1       6.117  -4.744   5.414  1.00  0.00     0.127 S 
ATOM     82  O   UNL     1       7.111  -5.398   6.262  1.00  0.00    -0.237 OA
ATOM     83  O   UNL     1       6.368  -4.843   3.976  1.00  0.00    -0.237 OA
ATOM     84  O   UNL     1       5.696  -3.426   5.868  1.00  0.00    -0.744 OA
ENDBRANCH  78  81
ENDBRANCH  50  74
BRANCH  62  85
ATOM     85  C   UNL     1      -2.103  -7.457  11.244  1.00  0.00     0.023 A 
ATOM     86  C   UNL     1      -1.251  -7.132  12.318  1.00  0.00     0.012 A 
ATOM     87  C   UNL     1      -2.943  -8.583  11.341  1.00  0.00     0.148 A 
ATOM     88  C   UNL     1      -1.212  -7.936  13.456  1.00  0.00     0.002 A 
ATOM     89  C   UNL     1      -2.938  -9.348  12.500  1.00  0.00     0.091 A 
ATOM     90  F   UNL     1      -3.734  -8.883  10.300  1.00  0.00    -0.205 F 
ATOM     91  C   UNL     1      -2.063  -9.034  13.553  1.00  0.00     0.022 A 
BRANCH  89  92
ATOM     92  S   UNL     1      -4.072 -10.717  12.755  1.00  0.00     0.127 S 
ATOM     93  O   UNL     1      -3.170 -11.866  12.682  1.00  0.00    -0.237 OA
ATOM     94  O   UNL     1      -4.597 -10.438  14.092  1.00  0.00    -0.237 OA
ATOM     95  O   UNL     1      -5.058 -10.629  11.687  1.00  0.00    -0.744 OA
ENDBRANCH  89  92
ENDBRANCH  62  85
ENDBRANCH  36  37
ENDBRANCH  28  31
ENDBRANCH  26  27
ENDBRANCH  25  26
ENDBRANCH   1  25
TORSDOF 17
