REMARK SMILES C[N@H+](C[C@H]1CCC[N@@H+]1C)C[C@]([NH3+])(C(=O)NCCCNC(=O)c1ccc(-c2c3nc(c(-c4cccc(S(=O)(=O)[O-])c4F)c4ccc([nH]4)c(-c4cccc(S(=O)(=O)[O-])c4F)c4nc(c(-c5cccc(S(=O)(=O)[O-])c5F)c5ccc2[nH]5)C=C4)C=C3)cc1)c1ccccc1
REMARK SMILES IDX 16 1 15 2 13 3 14 4 11 6 10 7 2 8 1 9 3 11 4 12 5 13 8 14
REMARK SMILES IDX 6 15 7 16 9 17 85 19 86 20 90 21 87 22 89 23 88 24 12 25
REMARK SMILES IDX 17 29 18 30 19 31 20 32 21 34 22 35 23 36 84 37 24 38 83 39
REMARK SMILES IDX 25 40 26 41 27 42 77 43 28 44 82 45 76 46 78 47 29 48 81 49
REMARK SMILES IDX 75 50 74 51 30 53 62 54 42 55 61 56 43 57 46 58 60 59 79 60
REMARK SMILES IDX 44 61 45 62 59 64 80 65 47 66 31 67 32 68 40 69 33 70 35 71
REMARK SMILES IDX 41 72 34 73 36 74 37 75 38 76 39 77 63 78 64 79 72 80 65 81
REMARK SMILES IDX 67 82 73 83 66 84 68 85 69 86 70 87 71 88 48 89 49 90 57 91
REMARK SMILES IDX 50 92 52 93 58 94 51 95 53 96 54 97 55 98 56 99
REMARK H PARENT 15 5 2 10 8 18 12 26 12 27 12 28 19 33 78 52 46 63
REMARK Flexibility Score: inf
ROOT
ATOM      1  C   UNL     1       3.509  -2.653  -1.155  1.00  0.00     0.118 C 
ENDROOT
BRANCH   1   2
ATOM      2  N   UNL     1       2.304  -3.037  -0.398  1.00  0.00    -0.350 N 
ATOM      3  C   UNL     1       0.948  -2.833  -0.516  1.00  0.00     0.292 C 
ATOM      4  O   UNL     1       0.304  -3.706   0.089  1.00  0.00    -0.267 OA
ATOM      5  H   UNL     1       2.525  -3.577   0.395  1.00  0.00     0.163 HD
BRANCH   3   6
ATOM      6  C   UNL     1       0.209  -1.527  -1.107  1.00  0.00     0.248 C 
BRANCH   6   7
ATOM      7  C   UNL     1       0.551  -1.133  -2.582  1.00  0.00     0.347 C 
BRANCH   7   8
ATOM      8  N   UNL     1       1.901  -1.414  -3.045  1.00  0.00    -0.326 N 
ATOM      9  C   UNL     1       2.690  -0.186  -3.163  1.00  0.00     0.333 C 
ATOM     10  H   UNL     1       2.343  -1.972  -2.315  1.00  0.00     0.348 HD
BRANCH   8  11
ATOM     11  C   UNL     1       1.983  -2.311  -4.210  1.00  0.00     0.327 C 
BRANCH  11  12
ATOM     12  C   UNL     1       1.436  -3.812  -4.127  1.00  0.00     0.239 C 
ATOM     13  C   UNL     1       1.617  -4.415  -5.533  1.00  0.00     0.077 C 
ATOM     14  N   UNL     1       2.126  -4.783  -3.215  1.00  0.00    -0.330 N 
ATOM     15  C   UNL     1       2.029  -5.852  -5.314  1.00  0.00     0.068 C 
ATOM     16  C   UNL     1       2.860  -5.748  -4.056  1.00  0.00     0.262 C 
ATOM     17  C   UNL     1       1.212  -5.537  -2.335  1.00  0.00     0.333 C 
ATOM     18  H   UNL     1       2.736  -4.239  -2.605  1.00  0.00     0.348 HD
ENDBRANCH  11  12
ENDBRANCH   8  11
ENDBRANCH   7   8
ENDBRANCH   6   7
BRANCH   6  19
ATOM     19  C   UNL     1      -1.375  -1.574  -1.120  1.00  0.00     0.028 A 
ATOM     20  C   UNL     1      -2.107  -0.385  -1.381  1.00  0.00     0.011 A 
ATOM     21  C   UNL     1      -2.128  -2.757  -1.042  1.00  0.00     0.011 A 
ATOM     22  C   UNL     1      -3.495  -0.392  -1.585  1.00  0.00     0.001 A 
ATOM     23  C   UNL     1      -3.522  -2.760  -1.213  1.00  0.00     0.001 A 
ATOM     24  C   UNL     1      -4.204  -1.583  -1.503  1.00  0.00     0.000 A 
ENDBRANCH   6  19
BRANCH   6  25
ATOM     25  N   UNL     1       0.605  -0.430  -0.160  1.00  0.00    -0.336 N 
ATOM     26  H   UNL     1       0.374  -0.706   0.795  1.00  0.00     0.345 HD
ATOM     27  H   UNL     1       0.100   0.423  -0.399  1.00  0.00     0.345 HD
ATOM     28  H   UNL     1       1.608  -0.263  -0.233  1.00  0.00     0.345 HD
ENDBRANCH   6  25
ENDBRANCH   3   6
ENDBRANCH   1   2
BRANCH   1  29
ATOM     29  C   UNL     1       4.802  -3.304  -0.642  1.00  0.00     0.042 C 
BRANCH  29  30
ATOM     30  C   UNL     1       5.557  -4.186  -1.652  1.00  0.00     0.118 C 
BRANCH  30  31
ATOM     31  N   UNL     1       6.222  -3.505  -2.764  1.00  0.00    -0.352 N 
ATOM     32  C   UNL     1       7.464  -3.775  -3.314  1.00  0.00     0.251 C 
ATOM     33  H   UNL     1       5.723  -2.760  -3.172  1.00  0.00     0.163 HD
ATOM     34  O   UNL     1       7.885  -3.116  -4.264  1.00  0.00    -0.269 OA
BRANCH  32  35
ATOM     35  C   UNL     1       8.315  -4.835  -2.719  1.00  0.00     0.039 A 
ATOM     36  C   UNL     1       9.617  -4.522  -2.320  1.00  0.00     0.014 A 
ATOM     37  C   UNL     1       7.798  -6.109  -2.473  1.00  0.00     0.014 A 
ATOM     38  C   UNL     1      10.352  -5.447  -1.568  1.00  0.00     0.010 A 
ATOM     39  C   UNL     1       8.496  -6.992  -1.649  1.00  0.00     0.010 A 
ATOM     40  C   UNL     1       9.776  -6.668  -1.173  1.00  0.00    -0.014 A 
BRANCH  40  41
ATOM     41  C   UNL     1      10.488  -7.573  -0.228  1.00  0.00     0.031 A 
ATOM     42  C   UNL     1      10.868  -8.974  -0.632  1.00  0.00     0.074 A 
ATOM     43  C   UNL     1      10.744  -7.152   1.029  1.00  0.00     0.049 A 
ATOM     44  N   UNL     1      11.550  -9.867   0.040  1.00  0.00    -0.248 NA
ATOM     45  C   UNL     1      10.400  -9.446  -1.944  1.00  0.00     0.031 C 
ATOM     46  C   UNL     1      10.319  -5.869   1.594  1.00  0.00     0.029 A 
ATOM     47  N   UNL     1      11.414  -7.759   2.064  1.00  0.00    -0.354 N 
ATOM     48  C   UNL     1      11.573 -11.007  -0.756  1.00  0.00     0.074 A 
ATOM     49  C   UNL     1      10.793 -10.711  -1.936  1.00  0.00     0.031 C 
ATOM     50  C   UNL     1      10.765  -5.771   2.857  1.00  0.00     0.029 A 
ATOM     51  C   UNL     1      11.494  -6.987   3.201  1.00  0.00     0.049 A 
ATOM     52  H   UNL     1      11.800  -8.662   1.999  1.00  0.00     0.167 HD
ATOM     53  C   UNL     1      12.220 -12.179  -0.547  1.00  0.00     0.034 A 
ATOM     54  C   UNL     1      12.104  -7.221   4.381  1.00  0.00     0.034 A 
ATOM     55  C   UNL     1      13.028 -12.458   0.609  1.00  0.00     0.049 A 
ATOM     56  C   UNL     1      12.883  -8.496   4.557  1.00  0.00     0.074 A 
ATOM     57  C   UNL     1      13.800 -13.576   0.873  1.00  0.00     0.029 A 
ATOM     58  N   UNL     1      13.163 -11.614   1.701  1.00  0.00    -0.354 N 
ATOM     59  N   UNL     1      13.056  -9.482   3.710  1.00  0.00    -0.248 NA
ATOM     60  C   UNL     1      13.591  -8.671   5.834  1.00  0.00     0.031 C 
ATOM     61  C   UNL     1      14.387 -13.415   2.133  1.00  0.00     0.029 A 
ATOM     62  C   UNL     1      14.000 -12.187   2.644  1.00  0.00     0.049 A 
ATOM     63  H   UNL     1      12.728 -10.735   1.792  1.00  0.00     0.167 HD
ATOM     64  C   UNL     1      13.910 -10.381   4.339  1.00  0.00     0.074 A 
ATOM     65  C   UNL     1      14.248  -9.804   5.624  1.00  0.00     0.031 C 
ATOM     66  C   UNL     1      14.358 -11.584   3.902  1.00  0.00     0.034 A 
BRANCH  53  67
ATOM     67  C   UNL     1      12.134 -13.224  -1.631  1.00  0.00     0.023 A 
ATOM     68  C   UNL     1      12.801 -13.007  -2.855  1.00  0.00     0.012 A 
ATOM     69  C   UNL     1      11.441 -14.434  -1.430  1.00  0.00     0.148 A 
ATOM     70  C   UNL     1      12.746 -13.954  -3.876  1.00  0.00     0.002 A 
ATOM     71  C   UNL     1      11.428 -15.394  -2.436  1.00  0.00     0.091 A 
ATOM     72  F   UNL     1      10.796 -14.617  -0.269  1.00  0.00    -0.205 F 
ATOM     73  C   UNL     1      12.069 -15.151  -3.663  1.00  0.00     0.022 A 
BRANCH  71  74
ATOM     74  S   UNL     1      10.650 -17.001  -2.235  1.00  0.00     0.127 S 
ATOM     75  O   UNL     1       9.496 -16.883  -3.125  1.00  0.00    -0.237 OA
ATOM     76  O   UNL     1      11.694 -17.910  -2.709  1.00  0.00    -0.237 OA
ATOM     77  O   UNL     1      10.337 -17.122  -0.818  1.00  0.00    -0.744 OA
ENDBRANCH  71  74
ENDBRANCH  53  67
BRANCH  54  78
ATOM     78  C   UNL     1      12.082  -6.182   5.453  1.00  0.00     0.023 A 
ATOM     79  C   UNL     1      13.266  -5.488   5.771  1.00  0.00     0.012 A 
ATOM     80  C   UNL     1      10.894  -5.858   6.136  1.00  0.00     0.148 A 
ATOM     81  C   UNL     1      13.276  -4.515   6.772  1.00  0.00     0.002 A 
ATOM     82  C   UNL     1      10.898  -4.847   7.091  1.00  0.00     0.091 A 
ATOM     83  F   UNL     1       9.780  -6.538   5.831  1.00  0.00    -0.205 F 
ATOM     84  C   UNL     1      12.091  -4.187   7.424  1.00  0.00     0.022 A 
BRANCH  82  85
ATOM     85  S   UNL     1       9.392  -4.265   7.880  1.00  0.00     0.127 S 
ATOM     86  O   UNL     1       9.539  -4.793   9.233  1.00  0.00    -0.237 OA
ATOM     87  O   UNL     1       9.533  -2.812   7.766  1.00  0.00    -0.237 OA
ATOM     88  O   UNL     1       8.300  -4.823   7.094  1.00  0.00    -0.744 OA
ENDBRANCH  82  85
ENDBRANCH  54  78
BRANCH  66  89
ATOM     89  C   UNL     1      15.274 -12.355   4.817  1.00  0.00     0.023 A 
ATOM     90  C   UNL     1      14.758 -12.938   5.993  1.00  0.00     0.012 A 
ATOM     91  C   UNL     1      16.630 -12.547   4.490  1.00  0.00     0.148 A 
ATOM     92  C   UNL     1      15.586 -13.661   6.849  1.00  0.00     0.002 A 
ATOM     93  C   UNL     1      17.439 -13.311   5.324  1.00  0.00     0.091 A 
ATOM     94  F   UNL     1      17.110 -11.970   3.379  1.00  0.00    -0.205 F 
ATOM     95  C   UNL     1      16.923 -13.857   6.510  1.00  0.00     0.022 A 
BRANCH  93  96
ATOM     96  S   UNL     1      19.146 -13.694   4.914  1.00  0.00     0.127 S 
ATOM     97  O   UNL     1      19.875 -12.787   5.798  1.00  0.00    -0.237 OA
ATOM     98  O   UNL     1      19.245 -15.108   5.275  1.00  0.00    -0.237 OA
ATOM     99  O   UNL     1      19.280 -13.428   3.488  1.00  0.00    -0.744 OA
ENDBRANCH  93  96
ENDBRANCH  66  89
ENDBRANCH  40  41
ENDBRANCH  32  35
ENDBRANCH  30  31
ENDBRANCH  29  30
ENDBRANCH   1  29
TORSDOF 19
