REMARK SMILES C[C@H](CC(=O)NCCCNC(=O)c1ccc(-c2c3nc(c(-c4cccc(S(=O)(=O)[O-])c4F)c4ccc([nH]4)c(-c4cccc(S(=O)(=O)[O-])c4F)c4nc(c(-c5cccc(S(=O)(=O)[O-])c5F)c5ccc2[nH]5)C=C4)C=C3)cc1)NC(=O)Cn1nc2ccccn2c1=O
REMARK SMILES IDX 7 1 6 2 4 3 5 4 3 6 2 7 1 8 76 9 77 10 78 12 79 13 80 14
REMARK SMILES IDX 81 15 88 16 82 17 87 18 89 19 83 20 86 21 84 22 85 23 8 24
REMARK SMILES IDX 9 25 10 26 11 27 12 29 13 30 14 31 75 32 15 33 74 34 16 35
REMARK SMILES IDX 17 36 18 37 68 38 19 39 73 40 67 41 69 42 20 43 72 44 66 45
REMARK SMILES IDX 65 46 21 48 53 49 33 50 52 51 34 52 37 53 51 54 70 55 35 56
REMARK SMILES IDX 36 57 50 59 71 60 38 61 22 62 23 63 31 64 24 65 26 66 32 67
REMARK SMILES IDX 25 68 27 69 28 70 29 71 30 72 54 73 55 74 63 75 56 76 58 77
REMARK SMILES IDX 64 78 57 79 59 80 60 81 61 82 62 83 39 84 40 85 48 86 41 87
REMARK SMILES IDX 43 88 49 89 42 90 44 91 45 92 46 93 47 94
REMARK H PARENT 6 5 76 11 10 28 69 47 37 58
REMARK Flexibility Score: inf
ROOT
ATOM      1  C   UNL     1       2.972   0.581  -2.687  1.00  0.00     0.117 C 
ENDROOT
BRANCH   1   2
ATOM      2  N   UNL     1       3.176   0.530  -1.252  1.00  0.00    -0.356 N 
ATOM      3  C   UNL     1       2.279   0.325  -0.247  1.00  0.00     0.222 C 
ATOM      4  O   UNL     1       2.692   0.422   0.911  1.00  0.00    -0.275 OA
ATOM      5  H   UNL     1       4.106   0.665  -0.958  1.00  0.00     0.163 HD
BRANCH   3   6
ATOM      6  C   UNL     1       0.828  -0.017  -0.553  1.00  0.00     0.124 C 
BRANCH   6   7
ATOM      7  C   UNL     1      -0.071   1.232  -0.631  1.00  0.00     0.088 C 
ATOM      8  C   UNL     1      -0.414   1.608  -2.070  1.00  0.00     0.031 C 
BRANCH   7   9
ATOM      9  N   UNL     1      -1.369   1.029   0.027  1.00  0.00    -0.352 N 
ATOM     10  C   UNL     1      -2.012   1.806   0.958  1.00  0.00     0.242 C 
ATOM     11  H   UNL     1      -1.850   0.212  -0.240  1.00  0.00     0.163 HD
ATOM     12  O   UNL     1      -3.173   1.524   1.259  1.00  0.00    -0.273 OA
BRANCH  10  13
ATOM     13  C   UNL     1      -1.238   2.905   1.674  1.00  0.00     0.249 C 
BRANCH  13  14
ATOM     14  N   UNL     1      -0.605   2.416   2.889  1.00  0.00    -0.203 N 
ATOM     15  N   UNL     1      -0.051   3.320   3.796  1.00  0.00    -0.149 NA
ATOM     16  C   UNL     1       0.036   1.166   3.019  1.00  0.00     0.350 A 
ATOM     17  C   UNL     1       0.875   2.635   4.390  1.00  0.00     0.161 A 
ATOM     18  N   UNL     1       1.007   1.357   3.963  1.00  0.00    -0.250 N 
ATOM     19  O   UNL     1      -0.194   0.127   2.417  1.00  0.00    -0.246 OA
ATOM     20  C   UNL     1       1.836   3.103   5.409  1.00  0.00     0.050 A 
ATOM     21  C   UNL     1       2.026   0.515   4.307  1.00  0.00     0.098 A 
ATOM     22  C   UNL     1       2.910   2.327   5.640  1.00  0.00     0.005 A 
ATOM     23  C   UNL     1       3.004   0.983   5.096  1.00  0.00     0.019 A 
ENDBRANCH  13  14
ENDBRANCH  10  13
ENDBRANCH   7   9
ENDBRANCH   6   7
ENDBRANCH   3   6
ENDBRANCH   1   2
BRANCH   1  24
ATOM     24  C   UNL     1       2.924   2.022  -3.182  1.00  0.00     0.042 C 
BRANCH  24  25
ATOM     25  C   UNL     1       4.285   2.686  -3.288  1.00  0.00     0.118 C 
BRANCH  25  26
ATOM     26  N   UNL     1       5.038   2.212  -4.436  1.00  0.00    -0.352 N 
ATOM     27  C   UNL     1       5.276   2.797  -5.657  1.00  0.00     0.251 C 
ATOM     28  H   UNL     1       5.445   1.323  -4.321  1.00  0.00     0.163 HD
ATOM     29  O   UNL     1       5.737   2.098  -6.558  1.00  0.00    -0.269 OA
BRANCH  27  30
ATOM     30  C   UNL     1       4.989   4.231  -5.910  1.00  0.00     0.039 A 
ATOM     31  C   UNL     1       4.607   4.621  -7.199  1.00  0.00     0.014 A 
ATOM     32  C   UNL     1       5.168   5.209  -4.930  1.00  0.00     0.014 A 
ATOM     33  C   UNL     1       4.391   5.973  -7.490  1.00  0.00     0.010 A 
ATOM     34  C   UNL     1       4.836   6.538  -5.189  1.00  0.00     0.010 A 
ATOM     35  C   UNL     1       4.491   6.945  -6.484  1.00  0.00    -0.014 A 
BRANCH  35  36
ATOM     36  C   UNL     1       4.316   8.393  -6.781  1.00  0.00     0.031 A 
ATOM     37  C   UNL     1       5.450   9.359  -6.527  1.00  0.00     0.074 A 
ATOM     38  C   UNL     1       3.128   8.854  -7.224  1.00  0.00     0.049 A 
ATOM     39  N   UNL     1       5.480  10.657  -6.685  1.00  0.00    -0.248 NA
ATOM     40  C   UNL     1       6.708   8.801  -5.996  1.00  0.00     0.031 C 
ATOM     41  C   UNL     1       1.927   8.043  -7.432  1.00  0.00     0.029 A 
ATOM     42  N   UNL     1       2.729  10.125  -7.559  1.00  0.00    -0.354 N 
ATOM     43  C   UNL     1       6.727  11.071  -6.228  1.00  0.00     0.074 A 
ATOM     44  C   UNL     1       7.417   9.893  -5.756  1.00  0.00     0.031 C 
ATOM     45  C   UNL     1       0.929   8.832  -7.863  1.00  0.00     0.029 A 
ATOM     46  C   UNL     1       1.408  10.209  -7.936  1.00  0.00     0.049 A 
ATOM     47  H   UNL     1       3.331  10.903  -7.531  1.00  0.00     0.167 HD
ATOM     48  C   UNL     1       7.265  12.313  -6.230  1.00  0.00     0.034 A 
ATOM     49  C   UNL     1       0.665  11.276  -8.293  1.00  0.00     0.034 A 
ATOM     50  C   UNL     1       6.609  13.471  -6.769  1.00  0.00     0.049 A 
ATOM     51  C   UNL     1       1.318  12.631  -8.360  1.00  0.00     0.074 A 
ATOM     52  C   UNL     1       7.112  14.752  -6.917  1.00  0.00     0.029 A 
ATOM     53  N   UNL     1       5.310  13.492  -7.248  1.00  0.00    -0.354 N 
ATOM     54  N   UNL     1       2.554  12.967  -8.079  1.00  0.00    -0.248 NA
ATOM     55  C   UNL     1       0.488  13.747  -8.836  1.00  0.00     0.031 C 
ATOM     56  C   UNL     1       6.105  15.555  -7.461  1.00  0.00     0.029 A 
ATOM     57  C   UNL     1       4.991  14.764  -7.688  1.00  0.00     0.049 A 
ATOM     58  H   UNL     1       4.704  12.716  -7.272  1.00  0.00     0.167 HD
ATOM     59  C   UNL     1       2.661  14.318  -8.392  1.00  0.00     0.074 A 
ATOM     60  C   UNL     1       1.371  14.733  -8.901  1.00  0.00     0.031 C 
ATOM     61  C   UNL     1       3.727  15.144  -8.258  1.00  0.00     0.034 A 
BRANCH  48  62
ATOM     62  C   UNL     1       8.658  12.490  -5.681  1.00  0.00     0.023 A 
ATOM     63  C   UNL     1       9.764  12.009  -6.409  1.00  0.00     0.012 A 
ATOM     64  C   UNL     1       8.874  13.222  -4.497  1.00  0.00     0.148 A 
ATOM     65  C   UNL     1      11.064  12.234  -5.957  1.00  0.00     0.002 A 
ATOM     66  C   UNL     1      10.173  13.485  -4.078  1.00  0.00     0.091 A 
ATOM     67  F   UNL     1       7.807  13.655  -3.810  1.00  0.00    -0.205 F 
ATOM     68  C   UNL     1      11.268  12.983  -4.801  1.00  0.00     0.022 A 
BRANCH  66  69
ATOM     69  S   UNL     1      10.546  14.512  -2.653  1.00  0.00     0.127 S 
ATOM     70  O   UNL     1      11.167  13.545  -1.748  1.00  0.00    -0.237 OA
ATOM     71  O   UNL     1      11.468  15.496  -3.219  1.00  0.00    -0.237 OA
ATOM     72  O   UNL     1       9.273  15.055  -2.200  1.00  0.00    -0.744 OA
ENDBRANCH  66  69
ENDBRANCH  48  62
BRANCH  49  73
ATOM     73  C   UNL     1      -0.768  11.106  -8.671  1.00  0.00     0.023 A 
ATOM     74  C   UNL     1      -1.170  11.324 -10.004  1.00  0.00     0.012 A 
ATOM     75  C   UNL     1      -1.736  10.746  -7.715  1.00  0.00     0.148 A 
ATOM     76  C   UNL     1      -2.515  11.237 -10.366  1.00  0.00     0.002 A 
ATOM     77  C   UNL     1      -3.066  10.601  -8.095  1.00  0.00     0.091 A 
ATOM     78  F   UNL     1      -1.340  10.554  -6.449  1.00  0.00    -0.205 F 
ATOM     79  C   UNL     1      -3.461  10.869  -9.414  1.00  0.00     0.022 A 
BRANCH  77  80
ATOM     80  S   UNL     1      -4.321   9.998  -6.962  1.00  0.00     0.127 S 
ATOM     81  O   UNL     1      -5.050  11.222  -6.643  1.00  0.00    -0.237 OA
ATOM     82  O   UNL     1      -5.053   9.044  -7.798  1.00  0.00    -0.237 OA
ATOM     83  O   UNL     1      -3.588   9.385  -5.862  1.00  0.00    -0.744 OA
ENDBRANCH  77  80
ENDBRANCH  49  73
BRANCH  61  84
ATOM     84  C   UNL     1       3.578  16.565  -8.734  1.00  0.00     0.023 A 
ATOM     85  C   UNL     1       2.773  17.472  -8.018  1.00  0.00     0.012 A 
ATOM     86  C   UNL     1       4.297  17.015  -9.859  1.00  0.00     0.148 A 
ATOM     87  C   UNL     1       2.654  18.796  -8.440  1.00  0.00     0.002 A 
ATOM     88  C   UNL     1       4.217  18.348 -10.240  1.00  0.00     0.091 A 
ATOM     89  F   UNL     1       5.043  16.131 -10.538  1.00  0.00    -0.205 F 
ATOM     90  C   UNL     1       3.385  19.236  -9.542  1.00  0.00     0.022 A 
BRANCH  88  91
ATOM     91  S   UNL     1       5.205  19.020 -11.581  1.00  0.00     0.127 S 
ATOM     92  O   UNL     1       4.206  19.177 -12.637  1.00  0.00    -0.237 OA
ATOM     93  O   UNL     1       5.690  20.277 -11.010  1.00  0.00    -0.237 OA
ATOM     94  O   UNL     1       6.246  18.037 -11.843  1.00  0.00    -0.744 OA
ENDBRANCH  88  91
ENDBRANCH  61  84
ENDBRANCH  35  36
ENDBRANCH  27  30
ENDBRANCH  25  26
ENDBRANCH  24  25
ENDBRANCH   1  24
TORSDOF 17
