REMARK SMILES O=C(NCCCNC(=O)c1cc(SCC(=O)N2CCOCC2)ccn1)c1ccc(-c2c3nc(c(-c4cccc(S(=O)(=O)[O-])c4F)c4ccc([nH]4)c(-c4cccc(S(=O)(=O)[O-])c4F)c4nc(c(-c5cccc(S(=O)(=O)[O-])c5F)c5ccc2[nH]5)C=C4)C=C3)cc1
REMARK SMILES IDX 5 1 4 2 3 3 1 4 2 5 26 7 27 8 88 9 28 10 87 11 29 12 30 13
REMARK SMILES IDX 31 14 81 15 32 16 86 17 80 18 82 19 33 20 85 21 79 22 78 23
REMARK SMILES IDX 34 25 66 26 46 27 65 28 47 29 50 30 64 31 83 32 48 33 49 34
REMARK SMILES IDX 63 36 84 37 51 38 35 39 36 40 44 41 37 42 39 43 45 44 38 45
REMARK SMILES IDX 40 46 41 47 42 48 43 49 67 50 68 51 76 52 69 53 71 54 77 55
REMARK SMILES IDX 70 56 72 57 73 58 74 59 75 60 52 61 53 62 61 63 54 64 56 65
REMARK SMILES IDX 62 66 55 67 57 68 58 69 59 70 60 71 6 72 7 73 8 74 9 76
REMARK SMILES IDX 10 77 11 78 25 79 12 80 24 81 23 82 13 83 14 84 15 85 16 86
REMARK SMILES IDX 17 87 18 88 22 89 19 90 21 91 20 92
REMARK H PARENT 3 6 82 24 50 35 7 75
REMARK Flexibility Score: inf
ROOT
ATOM      1  C   UNL     1       4.959  -1.862  -1.727  1.00  0.00     0.042 C 
ENDROOT
BRANCH   1   2
ATOM      2  C   UNL     1       4.566  -0.426  -1.428  1.00  0.00     0.118 C 
BRANCH   2   3
ATOM      3  N   UNL     1       3.130  -0.259  -1.234  1.00  0.00    -0.352 N 
ATOM      4  O   UNL     1       1.182  -0.015  -0.140  1.00  0.00    -0.269 OA
ATOM      5  C   UNL     1       2.408   0.074  -0.113  1.00  0.00     0.251 C 
ATOM      6  H   UNL     1       2.587  -0.411  -2.041  1.00  0.00     0.163 HD
BRANCH   5   7
ATOM      7  C   UNL     1       3.093   0.498   1.129  1.00  0.00     0.039 A 
ATOM      8  C   UNL     1       4.219   1.319   1.086  1.00  0.00     0.014 A 
ATOM      9  C   UNL     1       2.592   0.075   2.365  1.00  0.00     0.014 A 
ATOM     10  C   UNL     1       4.954   1.548   2.243  1.00  0.00     0.010 A 
ATOM     11  C   UNL     1       3.268   0.407   3.543  1.00  0.00     0.010 A 
ATOM     12  C   UNL     1       4.483   1.105   3.489  1.00  0.00    -0.014 A 
BRANCH  12  13
ATOM     13  C   UNL     1       5.255   1.443   4.713  1.00  0.00     0.031 A 
ATOM     14  C   UNL     1       5.842   0.372   5.592  1.00  0.00     0.074 A 
ATOM     15  C   UNL     1       5.450   2.743   5.012  1.00  0.00     0.049 A 
ATOM     16  N   UNL     1       6.596   0.505   6.653  1.00  0.00    -0.248 NA
ATOM     17  C   UNL     1       5.538  -1.027   5.249  1.00  0.00     0.031 C 
ATOM     18  C   UNL     1       4.890   3.871   4.261  1.00  0.00     0.029 A 
ATOM     19  N   UNL     1       6.179   3.339   6.008  1.00  0.00    -0.354 N 
ATOM     20  C   UNL     1       6.819  -0.781   7.131  1.00  0.00     0.074 A 
ATOM     21  C   UNL     1       6.114  -1.685   6.247  1.00  0.00     0.031 C 
ATOM     22  C   UNL     1       5.338   5.018   4.789  1.00  0.00     0.029 A 
ATOM     23  C   UNL     1       6.170   4.713   5.947  1.00  0.00     0.049 A 
ATOM     24  H   UNL     1       6.663   2.833   6.700  1.00  0.00     0.167 HD
ATOM     25  C   UNL     1       7.559  -1.175   8.196  1.00  0.00     0.034 A 
ATOM     26  C   UNL     1       6.762   5.630   6.735  1.00  0.00     0.034 A 
ATOM     27  C   UNL     1       8.302  -0.276   9.039  1.00  0.00     0.049 A 
ATOM     28  C   UNL     1       7.611   5.162   7.880  1.00  0.00     0.074 A 
ATOM     29  C   UNL     1       9.140  -0.584  10.098  1.00  0.00     0.029 A 
ATOM     30  N   UNL     1       8.297   1.106   8.924  1.00  0.00    -0.354 N 
ATOM     31  N   UNL     1       7.914   3.936   8.233  1.00  0.00    -0.248 NA
ATOM     32  C   UNL     1       8.218   6.201   8.722  1.00  0.00     0.031 C 
ATOM     33  C   UNL     1       9.630   0.614  10.631  1.00  0.00     0.029 A 
ATOM     34  C   UNL     1       9.109   1.667   9.896  1.00  0.00     0.049 A 
ATOM     35  H   UNL     1       7.791   1.614   8.250  1.00  0.00     0.167 HD
ATOM     36  C   UNL     1       8.765   4.055   9.324  1.00  0.00     0.074 A 
ATOM     37  C   UNL     1       8.952   5.474   9.554  1.00  0.00     0.031 C 
ATOM     38  C   UNL     1       9.323   3.079  10.081  1.00  0.00     0.034 A 
BRANCH  25  39
ATOM     39  C   UNL     1       7.642  -2.651   8.487  1.00  0.00     0.023 A 
ATOM     40  C   UNL     1       8.435  -3.478   7.666  1.00  0.00     0.012 A 
ATOM     41  C   UNL     1       6.991  -3.209   9.606  1.00  0.00     0.148 A 
ATOM     42  C   UNL     1       8.557  -4.841   7.937  1.00  0.00     0.002 A 
ATOM     43  C   UNL     1       7.148  -4.562   9.890  1.00  0.00     0.091 A 
ATOM     44  F   UNL     1       6.221  -2.414  10.362  1.00  0.00    -0.205 F 
ATOM     45  C   UNL     1       7.923  -5.380   9.053  1.00  0.00     0.022 A 
BRANCH  43  46
ATOM     46  S   UNL     1       6.428  -5.327  11.349  1.00  0.00     0.127 S 
ATOM     47  O   UNL     1       5.279  -6.027  10.778  1.00  0.00    -0.237 OA
ATOM     48  O   UNL     1       7.508  -6.203  11.808  1.00  0.00    -0.237 OA
ATOM     49  O   UNL     1       6.115  -4.232  12.256  1.00  0.00    -0.744 OA
ENDBRANCH  43  46
ENDBRANCH  25  39
BRANCH  26  50
ATOM     50  C   UNL     1       6.622   7.078   6.414  1.00  0.00     0.023 A 
ATOM     51  C   UNL     1       7.738   7.790   5.934  1.00  0.00     0.012 A 
ATOM     52  C   UNL     1       5.381   7.736   6.521  1.00  0.00     0.148 A 
ATOM     53  C   UNL     1       7.625   9.135   5.584  1.00  0.00     0.002 A 
ATOM     54  C   UNL     1       5.263   9.060   6.114  1.00  0.00     0.091 A 
ATOM     55  F   UNL     1       4.335   7.048   6.998  1.00  0.00    -0.205 F 
ATOM     56  C   UNL     1       6.386   9.766   5.660  1.00  0.00     0.022 A 
BRANCH  54  57
ATOM     57  S   UNL     1       3.673   9.894   6.042  1.00  0.00     0.127 S 
ATOM     58  O   UNL     1       3.731  10.750   7.223  1.00  0.00    -0.237 OA
ATOM     59  O   UNL     1       3.756  10.602   4.763  1.00  0.00    -0.237 OA
ATOM     60  O   UNL     1       2.678   8.831   6.070  1.00  0.00    -0.744 OA
ENDBRANCH  54  57
ENDBRANCH  26  50
BRANCH  38  61
ATOM     61  C   UNL     1      10.204   3.512  11.222  1.00  0.00     0.023 A 
ATOM     62  C   UNL     1       9.619   4.057  12.382  1.00  0.00     0.012 A 
ATOM     63  C   UNL     1      11.599   3.330  11.169  1.00  0.00     0.148 A 
ATOM     64  C   UNL     1      10.412   4.444  13.461  1.00  0.00     0.002 A 
ATOM     65  C   UNL     1      12.379   3.678  12.266  1.00  0.00     0.091 A 
ATOM     66  F   UNL     1      12.139   2.833  10.047  1.00  0.00    -0.205 F 
ATOM     67  C   UNL     1      11.790   4.245  13.407  1.00  0.00     0.022 A 
BRANCH  65  68
ATOM     68  S   UNL     1      14.149   3.370  12.311  1.00  0.00     0.127 S 
ATOM     69  O   UNL     1      14.690   4.698  12.028  1.00  0.00    -0.237 OA
ATOM     70  O   UNL     1      14.354   2.909  13.685  1.00  0.00    -0.237 OA
ATOM     71  O   UNL     1      14.399   2.356  11.295  1.00  0.00    -0.744 OA
ENDBRANCH  65  68
ENDBRANCH  38  61
ENDBRANCH  12  13
ENDBRANCH   5   7
ENDBRANCH   2   3
ENDBRANCH   1   2
BRANCH   1  72
ATOM     72  C   UNL     1       4.403  -2.385  -3.038  1.00  0.00     0.118 C 
BRANCH  72  73
ATOM     73  N   UNL     1       4.940  -1.704  -4.207  1.00  0.00    -0.351 N 
ATOM     74  C   UNL     1       5.722  -2.204  -5.225  1.00  0.00     0.269 C 
ATOM     75  H   UNL     1       4.711  -0.750  -4.281  1.00  0.00     0.163 HD
ATOM     76  O   UNL     1       6.111  -1.454  -6.118  1.00  0.00    -0.268 OA
BRANCH  74  77
ATOM     77  C   UNL     1       6.087  -3.648  -5.234  1.00  0.00     0.129 A 
ATOM     78  C   UNL     1       5.093  -4.621  -5.186  1.00  0.00     0.049 A 
ATOM     79  N   UNL     1       7.417  -3.916  -5.243  1.00  0.00    -0.251 NA
ATOM     80  C   UNL     1       5.486  -5.943  -5.034  1.00  0.00     0.012 A 
ATOM     81  C   UNL     1       7.769  -5.210  -5.170  1.00  0.00     0.113 A 
ATOM     82  C   UNL     1       6.853  -6.240  -5.052  1.00  0.00     0.035 A 
BRANCH  80  83
ATOM     83  S   UNL     1       4.392  -7.328  -4.821  1.00  0.00    -0.116 SA
BRANCH  83  84
ATOM     84  C   UNL     1       2.824  -6.665  -4.202  1.00  0.00     0.175 C 
BRANCH  84  85
ATOM     85  C   UNL     1       2.810  -5.701  -3.027  1.00  0.00     0.233 C 
ATOM     86  O   UNL     1       2.287  -4.593  -3.204  1.00  0.00    -0.274 OA
ATOM     87  N   UNL     1       3.179  -6.103  -1.761  1.00  0.00    -0.337 N 
ATOM     88  C   UNL     1       4.120  -7.163  -1.397  1.00  0.00     0.148 C 
ATOM     89  C   UNL     1       2.647  -5.391  -0.588  1.00  0.00     0.148 C 
ATOM     90  C   UNL     1       3.501  -8.112  -0.369  1.00  0.00     0.181 C 
ATOM     91  C   UNL     1       2.046  -6.405   0.397  1.00  0.00     0.181 C 
ATOM     92  O   UNL     1       3.017  -7.396   0.774  1.00  0.00    -0.378 OA
ENDBRANCH  84  85
ENDBRANCH  83  84
ENDBRANCH  80  83
ENDBRANCH  74  77
ENDBRANCH  72  73
ENDBRANCH   1  72
TORSDOF 16
