REMARK SMILES O=C(NCCCNC(=O)[C@H](NC(=O)[C@H]1CC(=O)N(CC2CC2)C1)c1ccccc1C(F)(F)F)c1ccc(-c2c3nc(c(-c4cccc(S(=O)(=O)[O-])c4F)c4ccc([nH]4)c(-c4cccc(S(=O)(=O)[O-])c4F)c4nc(c(-c5cccc(S(=O)(=O)[O-])c5F)c5ccc2[nH]5)C=C4)C=C3)cc1
REMARK SMILES IDX 5 1 4 2 3 3 1 4 2 5 34 7 35 8 96 9 36 10 95 11 37 12 38 13
REMARK SMILES IDX 39 14 89 15 40 16 94 17 88 18 90 19 41 20 93 21 87 22 86 23
REMARK SMILES IDX 42 25 74 26 54 27 73 28 55 29 58 30 72 31 91 32 56 33 57 34
REMARK SMILES IDX 71 36 92 37 59 38 43 39 44 40 52 41 45 42 47 43 53 44 46 45
REMARK SMILES IDX 48 46 49 47 50 48 51 49 75 50 76 51 84 52 77 53 79 54 85 55
REMARK SMILES IDX 78 56 80 57 81 58 82 59 83 60 60 61 61 62 69 63 62 64 64 65
REMARK SMILES IDX 70 66 63 67 65 68 66 69 67 70 68 71 6 72 7 73 8 74 9 76
REMARK SMILES IDX 10 77 24 78 25 79 29 80 26 81 28 82 27 83 30 84 31 85 32 86
REMARK SMILES IDX 33 87 11 88 12 89 13 91 14 92 15 93 23 94 16 95 18 96 17 97
REMARK SMILES IDX 19 98 20 99 21 100 22 101
REMARK H PARENT 3 6 90 24 58 35 7 75 11 90
REMARK Flexibility Score: inf
ROOT
ATOM      1  C   UNL     1       3.092   5.544  -1.047  1.00  0.00     0.042 C 
ENDROOT
BRANCH   1   2
ATOM      2  C   UNL     1       2.277   5.944  -2.262  1.00  0.00     0.118 C 
BRANCH   2   3
ATOM      3  N   UNL     1       3.141   6.162  -3.411  1.00  0.00    -0.352 N 
ATOM      4  O   UNL     1       4.625   5.440  -4.936  1.00  0.00    -0.269 OA
ATOM      5  C   UNL     1       3.571   5.245  -4.339  1.00  0.00     0.251 C 
ATOM      6  H   UNL     1       3.459   7.085  -3.541  1.00  0.00     0.163 HD
BRANCH   5   7
ATOM      7  C   UNL     1       2.746   4.051  -4.616  1.00  0.00     0.039 A 
ATOM      8  C   UNL     1       1.353   4.150  -4.566  1.00  0.00     0.014 A 
ATOM      9  C   UNL     1       3.349   2.856  -5.019  1.00  0.00     0.014 A 
ATOM     10  C   UNL     1       0.565   3.037  -4.793  1.00  0.00     0.010 A 
ATOM     11  C   UNL     1       2.548   1.771  -5.384  1.00  0.00     0.010 A 
ATOM     12  C   UNL     1       1.151   1.864  -5.283  1.00  0.00    -0.014 A 
BRANCH  12  13
ATOM     13  C   UNL     1       0.257   0.847  -5.879  1.00  0.00     0.031 A 
ATOM     14  C   UNL     1       0.158  -0.536  -5.319  1.00  0.00     0.074 A 
ATOM     15  C   UNL     1      -0.465   1.221  -6.957  1.00  0.00     0.049 A 
ATOM     16  N   UNL     1      -0.585  -1.527  -5.734  1.00  0.00    -0.248 NA
ATOM     17  C   UNL     1       1.000  -0.860  -4.156  1.00  0.00     0.031 C 
ATOM     18  C   UNL     1      -0.391   2.539  -7.601  1.00  0.00     0.029 A 
ATOM     19  N   UNL     1      -1.394   0.547  -7.703  1.00  0.00    -0.354 N 
ATOM     20  C   UNL     1      -0.265  -2.607  -4.923  1.00  0.00     0.074 A 
ATOM     21  C   UNL     1       0.727  -2.147  -3.976  1.00  0.00     0.031 C 
ATOM     22  C   UNL     1      -1.255   2.587  -8.621  1.00  0.00     0.029 A 
ATOM     23  C   UNL     1      -1.883   1.282  -8.759  1.00  0.00     0.049 A 
ATOM     24  H   UNL     1      -1.685  -0.372  -7.504  1.00  0.00     0.167 HD
ATOM     25  C   UNL     1      -0.763  -3.863  -4.976  1.00  0.00     0.034 A 
ATOM     26  C   UNL     1      -2.711   0.932  -9.759  1.00  0.00     0.034 A 
ATOM     27  C   UNL     1      -1.778  -4.283  -5.906  1.00  0.00     0.049 A 
ATOM     28  C   UNL     1      -3.253  -0.464  -9.769  1.00  0.00     0.074 A 
ATOM     29  C   UNL     1      -2.424  -5.505  -5.976  1.00  0.00     0.029 A 
ATOM     30  N   UNL     1      -2.278  -3.506  -6.940  1.00  0.00    -0.354 N 
ATOM     31  N   UNL     1      -3.062  -1.424  -8.896  1.00  0.00    -0.248 NA
ATOM     32  C   UNL     1      -4.133  -0.826 -10.886  1.00  0.00     0.031 C 
ATOM     33  C   UNL     1      -3.288  -5.478  -7.075  1.00  0.00     0.029 A 
ATOM     34  C   UNL     1      -3.200  -4.231  -7.674  1.00  0.00     0.049 A 
ATOM     35  H   UNL     1      -2.015  -2.575  -7.125  1.00  0.00     0.167 HD
ATOM     36  C   UNL     1      -3.799  -2.504  -9.356  1.00  0.00     0.074 A 
ATOM     37  C   UNL     1      -4.478  -2.063 -10.559  1.00  0.00     0.031 C 
ATOM     38  C   UNL     1      -3.886  -3.757  -8.848  1.00  0.00     0.034 A 
BRANCH  25  39
ATOM     39  C   UNL     1      -0.243  -4.882  -4.000  1.00  0.00     0.023 A 
ATOM     40  C   UNL     1      -0.675  -4.854  -2.660  1.00  0.00     0.012 A 
ATOM     41  C   UNL     1       0.585  -5.934  -4.441  1.00  0.00     0.148 A 
ATOM     42  C   UNL     1      -0.285  -5.854  -1.769  1.00  0.00     0.002 A 
ATOM     43  C   UNL     1       0.939  -6.947  -3.558  1.00  0.00     0.091 A 
ATOM     44  F   UNL     1       1.000  -5.927  -5.715  1.00  0.00    -0.205 F 
ATOM     45  C   UNL     1       0.510  -6.905  -2.221  1.00  0.00     0.022 A 
BRANCH  43  46
ATOM     46  S   UNL     1       1.898  -8.381  -4.057  1.00  0.00     0.127 S 
ATOM     47  O   UNL     1       3.130  -8.191  -3.293  1.00  0.00    -0.237 OA
ATOM     48  O   UNL     1       1.057  -9.486  -3.595  1.00  0.00    -0.237 OA
ATOM     49  O   UNL     1       2.045  -8.286  -5.503  1.00  0.00    -0.744 OA
ENDBRANCH  43  46
ENDBRANCH  25  39
BRANCH  26  50
ATOM     50  C   UNL     1      -3.052   1.915 -10.825  1.00  0.00     0.023 A 
ATOM     51  C   UNL     1      -4.370   2.397 -10.937  1.00  0.00     0.012 A 
ATOM     52  C   UNL     1      -2.066   2.407 -11.703  1.00  0.00     0.148 A 
ATOM     53  C   UNL     1      -4.703   3.327 -11.923  1.00  0.00     0.002 A 
ATOM     54  C   UNL     1      -2.390   3.382 -12.638  1.00  0.00     0.091 A 
ATOM     55  F   UNL     1      -0.819   1.924 -11.598  1.00  0.00    -0.205 F 
ATOM     56  C   UNL     1      -3.712   3.830 -12.764  1.00  0.00     0.022 A 
BRANCH  54  57
ATOM     57  S   UNL     1      -1.133   4.185 -13.638  1.00  0.00     0.127 S 
ATOM     58  O   UNL     1      -1.256   3.471 -14.906  1.00  0.00    -0.237 OA
ATOM     59  O   UNL     1      -1.596   5.573 -13.664  1.00  0.00    -0.237 OA
ATOM     60  O   UNL     1       0.114   3.991 -12.909  1.00  0.00    -0.744 OA
ENDBRANCH  54  57
ENDBRANCH  26  50
BRANCH  38  61
ATOM     61  C   UNL     1      -4.745  -4.736  -9.597  1.00  0.00     0.023 A 
ATOM     62  C   UNL     1      -4.287  -5.265 -10.819  1.00  0.00     0.012 A 
ATOM     63  C   UNL     1      -5.971  -5.174  -9.063  1.00  0.00     0.148 A 
ATOM     64  C   UNL     1      -5.053  -6.196 -11.517  1.00  0.00     0.002 A 
ATOM     65  C   UNL     1      -6.705  -6.139  -9.739  1.00  0.00     0.091 A 
ATOM     66  F   UNL     1      -6.394  -4.640  -7.907  1.00  0.00    -0.205 F 
ATOM     67  C   UNL     1      -6.255  -6.642 -10.971  1.00  0.00     0.022 A 
BRANCH  65  68
ATOM     68  S   UNL     1      -8.216  -6.841  -9.070  1.00  0.00     0.127 S 
ATOM     69  O   UNL     1      -9.227  -6.279  -9.965  1.00  0.00    -0.237 OA
ATOM     70  O   UNL     1      -7.988  -8.277  -9.230  1.00  0.00    -0.237 OA
ATOM     71  O   UNL     1      -8.291  -6.391  -7.686  1.00  0.00    -0.744 OA
ENDBRANCH  65  68
ENDBRANCH  38  61
ENDBRANCH  12  13
ENDBRANCH   5   7
ENDBRANCH   2   3
ENDBRANCH   1   2
BRANCH   1  72
ATOM     72  C   UNL     1       4.027   6.655  -0.604  1.00  0.00     0.117 C 
BRANCH  72  73
ATOM     73  N   UNL     1       3.319   7.740   0.020  1.00  0.00    -0.354 N 
ATOM     74  C   UNL     1       3.015   7.921   1.325  1.00  0.00     0.247 C 
ATOM     75  H   UNL     1       3.013   8.451  -0.589  1.00  0.00     0.163 HD
ATOM     76  O   UNL     1       2.499   9.008   1.620  1.00  0.00    -0.272 OA
BRANCH  74  77
ATOM     77  C   UNL     1       3.364   6.907   2.442  1.00  0.00     0.202 C 
BRANCH  77  78
ATOM     78  C   UNL     1       2.915   5.451   2.313  1.00  0.00    -0.004 A 
ATOM     79  C   UNL     1       1.533   5.215   2.553  1.00  0.00     0.007 A 
ATOM     80  C   UNL     1       3.771   4.329   2.170  1.00  0.00     0.061 A 
ATOM     81  C   UNL     1       1.024   3.931   2.735  1.00  0.00     0.000 A 
ATOM     82  C   UNL     1       3.217   3.036   2.341  1.00  0.00     0.013 A 
ATOM     83  C   UNL     1       1.871   2.840   2.643  1.00  0.00     0.001 A 
BRANCH  80  84
ATOM     84  C   UNL     1       5.263   4.343   1.878  1.00  0.00     0.416 C 
ATOM     85  F   UNL     1       5.982   3.716   2.849  1.00  0.00    -0.166 F 
ATOM     86  F   UNL     1       5.542   3.680   0.719  1.00  0.00    -0.166 F 
ATOM     87  F   UNL     1       5.839   5.563   1.726  1.00  0.00    -0.166 F 
ENDBRANCH  80  84
ENDBRANCH  77  78
BRANCH  77  88
ATOM     88  N   UNL     1       4.613   7.094   3.179  1.00  0.00    -0.340 N 
ATOM     89  C   UNL     1       4.904   6.759   4.483  1.00  0.00     0.226 C 
ATOM     90  H   UNL     1       5.346   7.517   2.675  1.00  0.00     0.164 HD
ATOM     91  O   UNL     1       6.028   6.983   4.926  1.00  0.00    -0.275 OA
BRANCH  89  92
ATOM     92  C   UNL     1       3.823   6.105   5.319  1.00  0.00     0.107 C 
ATOM     93  C   UNL     1       4.168   5.583   6.710  1.00  0.00     0.115 C 
ATOM     94  C   UNL     1       2.771   7.128   5.668  1.00  0.00     0.133 C 
ATOM     95  C   UNL     1       2.777   5.545   7.342  1.00  0.00     0.223 C 
ATOM     96  N   UNL     1       1.998   6.511   6.692  1.00  0.00    -0.342 N 
ATOM     97  O   UNL     1       2.415   4.780   8.208  1.00  0.00    -0.275 OA
BRANCH  96  98
ATOM     98  C   UNL     1       0.542   6.477   6.665  1.00  0.00     0.123 C 
BRANCH  98  99
ATOM     99  C   UNL     1      -0.202   7.766   6.401  1.00  0.00     0.008 C 
ATOM    100  C   UNL     1       0.393   9.135   6.151  1.00  0.00     0.006 C 
ATOM    101  C   UNL     1      -0.278   8.402   5.023  1.00  0.00     0.006 C 
ENDBRANCH  98  99
ENDBRANCH  96  98
ENDBRANCH  89  92
ENDBRANCH  77  88
ENDBRANCH  74  77
ENDBRANCH  72  73
ENDBRANCH   1  72
TORSDOF 19
