REMARK SMILES O=C(NCCCNC(=O)[C@H]1CCCN(C(=O)c2cc(Br)ccc2Cl)C1)c1ccc(-c2c3nc(c(-c4cccc(S(=O)(=O)[O-])c4F)c4ccc([nH]4)c(-c4cccc(S(=O)(=O)[O-])c4F)c4nc(c(-c5cccc(S(=O)(=O)[O-])c5F)c5ccc2[nH]5)C=C4)C=C3)cc1
REMARK SMILES IDX 4 1 3 2 1 3 2 4 26 6 27 7 88 8 28 9 87 10 29 11 30 12 31 13
REMARK SMILES IDX 81 14 32 15 86 16 80 17 82 18 33 19 85 20 79 21 78 22 34 24
REMARK SMILES IDX 66 25 46 26 65 27 47 28 50 29 64 30 83 31 48 32 49 33 63 35
REMARK SMILES IDX 84 36 51 37 35 38 36 39 44 40 37 41 39 42 45 43 38 44 40 45
REMARK SMILES IDX 41 46 42 47 43 48 67 49 68 50 76 51 69 52 71 53 77 54 70 55
REMARK SMILES IDX 72 56 73 57 74 58 75 59 52 60 53 61 61 62 54 63 56 64 62 65
REMARK SMILES IDX 55 66 57 67 58 68 59 69 60 70 5 71 6 72 7 73 8 74 9 76 10 77
REMARK SMILES IDX 11 78 25 79 12 80 14 81 13 82 15 83 16 84 17 85 18 86 23 87
REMARK SMILES IDX 19 88 22 89 24 90 20 91 21 92
REMARK H PARENT 3 5 82 23 50 34 7 75
REMARK Flexibility Score: inf
ROOT
ATOM      1  C   UNL     1       5.714  -3.264   2.572  1.00  0.00     0.118 C 
ENDROOT
BRANCH   1   2
ATOM      2  N   UNL     1       5.806  -1.825   2.756  1.00  0.00    -0.352 N 
ATOM      3  O   UNL     1       5.320   0.197   3.606  1.00  0.00    -0.269 OA
ATOM      4  C   UNL     1       5.275  -1.024   3.741  1.00  0.00     0.251 C 
ATOM      5  H   UNL     1       6.328  -1.350   2.070  1.00  0.00     0.163 HD
BRANCH   4   6
ATOM      6  C   UNL     1       4.630  -1.617   4.937  1.00  0.00     0.039 A 
ATOM      7  C   UNL     1       5.182  -2.722   5.588  1.00  0.00     0.014 A 
ATOM      8  C   UNL     1       3.458  -1.038   5.434  1.00  0.00     0.014 A 
ATOM      9  C   UNL     1       4.481  -3.346   6.617  1.00  0.00     0.010 A 
ATOM     10  C   UNL     1       2.804  -1.611   6.531  1.00  0.00     0.010 A 
ATOM     11  C   UNL     1       3.284  -2.798   7.105  1.00  0.00    -0.014 A 
BRANCH  11  12
ATOM     12  C   UNL     1       2.581  -3.462   8.236  1.00  0.00     0.031 A 
ATOM     13  C   UNL     1       1.193  -4.024   8.072  1.00  0.00     0.074 A 
ATOM     14  C   UNL     1       3.210  -3.569   9.424  1.00  0.00     0.049 A 
ATOM     15  N   UNL     1       0.466  -4.683   8.939  1.00  0.00    -0.248 NA
ATOM     16  C   UNL     1       0.527  -3.812   6.777  1.00  0.00     0.031 C 
ATOM     17  C   UNL     1       4.534  -3.021   9.727  1.00  0.00     0.029 A 
ATOM     18  N   UNL     1       2.829  -4.178  10.593  1.00  0.00    -0.354 N 
ATOM     19  C   UNL     1      -0.754  -4.922   8.316  1.00  0.00     0.074 A 
ATOM     20  C   UNL     1      -0.674  -4.330   6.998  1.00  0.00     0.031 C 
ATOM     21  C   UNL     1       4.872  -3.351  10.982  1.00  0.00     0.029 A 
ATOM     22  C   UNL     1       3.775  -4.097  11.589  1.00  0.00     0.049 A 
ATOM     23  H   UNL     1       1.963  -4.631  10.707  1.00  0.00     0.167 HD
ATOM     24  C   UNL     1      -1.835  -5.589   8.789  1.00  0.00     0.034 A 
ATOM     25  C   UNL     1       3.765  -4.570  12.850  1.00  0.00     0.034 A 
ATOM     26  C   UNL     1      -1.893  -6.227  10.078  1.00  0.00     0.049 A 
ATOM     27  C   UNL     1       2.576  -5.356  13.325  1.00  0.00     0.074 A 
ATOM     28  C   UNL     1      -2.913  -6.993  10.614  1.00  0.00     0.029 A 
ATOM     29  N   UNL     1      -0.891  -6.173  11.035  1.00  0.00    -0.354 N 
ATOM     30  N   UNL     1       1.493  -5.692  12.668  1.00  0.00    -0.248 NA
ATOM     31  C   UNL     1       2.621  -5.855  14.707  1.00  0.00     0.031 C 
ATOM     32  C   UNL     1      -2.533  -7.392  11.901  1.00  0.00     0.029 A 
ATOM     33  C   UNL     1      -1.269  -6.888  12.159  1.00  0.00     0.049 A 
ATOM     34  H   UNL     1      -0.035  -5.697  10.930  1.00  0.00     0.167 HD
ATOM     35  C   UNL     1       0.745  -6.471  13.542  1.00  0.00     0.074 A 
ATOM     36  C   UNL     1       1.509  -6.574  14.768  1.00  0.00     0.031 C 
ATOM     37  C   UNL     1      -0.473  -7.036  13.351  1.00  0.00     0.034 A 
BRANCH  24  38
ATOM     38  C   UNL     1      -3.039  -5.707   7.889  1.00  0.00     0.023 A 
ATOM     39  C   UNL     1      -3.002  -6.588   6.789  1.00  0.00     0.012 A 
ATOM     40  C   UNL     1      -4.226  -5.002   8.169  1.00  0.00     0.148 A 
ATOM     41  C   UNL     1      -4.116  -6.743   5.964  1.00  0.00     0.002 A 
ATOM     42  C   UNL     1      -5.346  -5.192   7.365  1.00  0.00     0.091 A 
ATOM     43  F   UNL     1      -4.239  -4.152   9.205  1.00  0.00    -0.205 F 
ATOM     44  C   UNL     1      -5.290  -6.054   6.258  1.00  0.00     0.022 A 
BRANCH  42  45
ATOM     45  S   UNL     1      -6.925  -4.407   7.713  1.00  0.00     0.127 S 
ATOM     46  O   UNL     1      -6.953  -3.341   6.713  1.00  0.00    -0.237 OA
ATOM     47  O   UNL     1      -7.875  -5.494   7.470  1.00  0.00    -0.237 OA
ATOM     48  O   UNL     1      -6.853  -3.969   9.100  1.00  0.00    -0.744 OA
ENDBRANCH  42  45
ENDBRANCH  24  38
BRANCH  25  49
ATOM     49  C   UNL     1       4.960  -4.381  13.719  1.00  0.00     0.023 A 
ATOM     50  C   UNL     1       5.759  -5.495  14.041  1.00  0.00     0.012 A 
ATOM     51  C   UNL     1       5.336  -3.108  14.186  1.00  0.00     0.148 A 
ATOM     52  C   UNL     1       6.899  -5.348  14.832  1.00  0.00     0.002 A 
ATOM     53  C   UNL     1       6.503  -2.960  14.926  1.00  0.00     0.091 A 
ATOM     54  F   UNL     1       4.554  -2.062  13.883  1.00  0.00    -0.205 F 
ATOM     55  C   UNL     1       7.278  -4.080  15.264  1.00  0.00     0.022 A 
BRANCH  53  56
ATOM     56  S   UNL     1       7.136  -1.347  15.402  1.00  0.00     0.127 S 
ATOM     57  O   UNL     1       6.826  -1.313  16.829  1.00  0.00    -0.237 OA
ATOM     58  O   UNL     1       8.559  -1.472  15.083  1.00  0.00    -0.237 OA
ATOM     59  O   UNL     1       6.421  -0.388  14.571  1.00  0.00    -0.744 OA
ENDBRANCH  53  56
ENDBRANCH  25  49
BRANCH  37  60
ATOM     60  C   UNL     1      -1.046  -7.850  14.480  1.00  0.00     0.023 A 
ATOM     61  C   UNL     1      -1.544  -7.202  15.627  1.00  0.00     0.012 A 
ATOM     62  C   UNL     1      -1.147  -9.252  14.378  1.00  0.00     0.148 A 
ATOM     63  C   UNL     1      -2.104  -7.939  16.670  1.00  0.00     0.002 A 
ATOM     64  C   UNL     1      -1.748  -9.975  15.401  1.00  0.00     0.091 A 
ATOM     65  F   UNL     1      -0.646  -9.854  13.289  1.00  0.00    -0.205 F 
ATOM     66  C   UNL     1      -2.216  -9.323  16.553  1.00  0.00     0.022 A 
BRANCH  64  67
ATOM     67  S   UNL     1      -2.013 -11.748  15.283  1.00  0.00     0.127 S 
ATOM     68  O   UNL     1      -0.910 -12.271  16.085  1.00  0.00    -0.237 OA
ATOM     69  O   UNL     1      -3.337 -11.911  15.886  1.00  0.00    -0.237 OA
ATOM     70  O   UNL     1      -1.963 -12.059  13.860  1.00  0.00    -0.744 OA
ENDBRANCH  64  67
ENDBRANCH  37  60
ENDBRANCH  11  12
ENDBRANCH   4   6
ENDBRANCH   1   2
BRANCH   1  71
ATOM     71  C   UNL     1       4.922  -3.654   1.331  1.00  0.00     0.042 C 
BRANCH  71  72
ATOM     72  C   UNL     1       5.646  -3.390   0.013  1.00  0.00     0.117 C 
BRANCH  72  73
ATOM     73  N   UNL     1       6.889  -4.140  -0.099  1.00  0.00    -0.356 N 
ATOM     74  C   UNL     1       7.191  -5.247  -0.835  1.00  0.00     0.224 C 
ATOM     75  H   UNL     1       7.632  -3.791   0.444  1.00  0.00     0.163 HD
ATOM     76  O   UNL     1       8.336  -5.695  -0.757  1.00  0.00    -0.275 OA
BRANCH  74  77
ATOM     77  C   UNL     1       6.137  -5.875  -1.733  1.00  0.00     0.098 C 
ATOM     78  C   UNL     1       6.766  -6.867  -2.732  1.00  0.00     0.017 C 
ATOM     79  C   UNL     1       5.095  -6.621  -0.906  1.00  0.00     0.133 C 
ATOM     80  C   UNL     1       5.697  -7.553  -3.591  1.00  0.00     0.022 C 
ATOM     81  N   UNL     1       4.084  -7.199  -1.785  1.00  0.00    -0.338 N 
ATOM     82  C   UNL     1       4.595  -8.183  -2.736  1.00  0.00     0.120 C 
BRANCH  81  83
ATOM     83  C   UNL     1       2.801  -6.664  -1.766  1.00  0.00     0.255 C 
ATOM     84  O   UNL     1       2.504  -5.635  -1.163  1.00  0.00    -0.269 OA
BRANCH  83  85
ATOM     85  C   UNL     1       1.738  -7.317  -2.547  1.00  0.00     0.059 A 
ATOM     86  C   UNL     1       1.174  -6.584  -3.600  1.00  0.00     0.031 A 
ATOM     87  C   UNL     1       1.257  -8.594  -2.234  1.00  0.00     0.053 A 
ATOM     88  C   UNL     1       0.160  -7.154  -4.365  1.00  0.00     0.018 A 
ATOM     89  C   UNL     1       0.240  -9.155  -3.012  1.00  0.00     0.022 A 
ATOM     90  Cl  UNL     1       1.856  -9.517  -0.904  1.00  0.00    -0.083 Cl
ATOM     91  Br  UNL     1      -0.593  -6.181  -5.800  1.00  0.00    -0.051 Br
ATOM     92  C   UNL     1      -0.304  -8.438  -4.082  1.00  0.00     0.017 A 
ENDBRANCH  83  85
ENDBRANCH  81  83
ENDBRANCH  74  77
ENDBRANCH  72  73
ENDBRANCH  71  72
ENDBRANCH   1  71
TORSDOF 15
