REMARK SMILES COc1cc(N)ccc1SCc1ccc(C(=O)NCCCNC(=O)c2ccc(-c3c4nc(c(-c5cccc(S(=O)(=O)[O-])c5F)c5ccc([nH]5)c(-c5cccc(S(=O)(=O)[O-])c5F)c5nc(c(-c6cccc(S(=O)(=O)[O-])c6F)c6ccc3[nH]6)C=C5)C=C4)cc2)s1
REMARK SMILES IDX 19 1 18 2 16 3 17 4 15 6 12 7 13 8 88 9 14 10 11 11 10 12
REMARK SMILES IDX 9 13 3 14 4 15 5 16 8 17 7 18 2 19 1 20 6 21 20 24 21 25
REMARK SMILES IDX 22 26 23 27 24 29 25 30 26 31 87 32 27 33 86 34 28 35 29 36
REMARK SMILES IDX 30 37 80 38 31 39 85 40 79 41 81 42 32 43 84 44 78 45 77 46
REMARK SMILES IDX 33 48 65 49 45 50 64 51 46 52 49 53 63 54 82 55 47 56 48 57
REMARK SMILES IDX 62 59 83 60 50 61 34 62 35 63 43 64 36 65 38 66 44 67 37 68
REMARK SMILES IDX 39 69 40 70 41 71 42 72 66 73 67 74 75 75 68 76 70 77 76 78
REMARK SMILES IDX 69 79 71 80 72 81 73 82 74 83 51 84 52 85 60 86 53 87 55 88
REMARK SMILES IDX 61 89 54 90 56 91 57 92 58 93 59 94
REMARK H PARENT 18 5 6 22 6 23 22 28 81 47 49 58
REMARK Flexibility Score: inf
ROOT
ATOM      1  C   UNL     1       2.428  -4.823   3.486  1.00  0.00     0.118 C 
ENDROOT
BRANCH   1   2
ATOM      2  N   UNL     1       1.456  -5.819   3.075  1.00  0.00    -0.351 N 
ATOM      3  C   UNL     1       0.313  -5.708   2.316  1.00  0.00     0.261 C 
ATOM      4  O   UNL     1      -0.213  -6.776   1.992  1.00  0.00    -0.268 OA
ATOM      5  H   UNL     1       1.647  -6.730   3.394  1.00  0.00     0.163 HD
BRANCH   3   6
ATOM      6  C   UNL     1      -0.202  -4.404   1.923  1.00  0.00     0.092 A 
ATOM      7  C   UNL     1      -1.328  -2.605   0.615  1.00  0.00     0.016 A 
ATOM      8  C   UNL     1      -0.768  -2.142   1.790  1.00  0.00     0.017 A 
ATOM      9  S   UNL     1      -1.127  -4.298   0.474  1.00  0.00    -0.134 S 
ATOM     10  C   UNL     1      -0.141  -3.172   2.544  1.00  0.00     0.026 A 
BRANCH   7  11
ATOM     11  C   UNL     1      -2.098  -1.782  -0.378  1.00  0.00     0.121 C 
BRANCH  11  12
ATOM     12  S   UNL     1      -1.916  -2.179  -2.143  1.00  0.00    -0.117 SA
BRANCH  12  13
ATOM     13  C   UNL     1      -0.186  -1.948  -2.568  1.00  0.00     0.050 A 
ATOM     14  C   UNL     1       0.810  -1.250  -1.865  1.00  0.00     0.134 A 
ATOM     15  C   UNL     1       2.127  -1.225  -2.365  1.00  0.00     0.073 A 
ATOM     16  C   UNL     1       2.467  -1.840  -3.573  1.00  0.00     0.035 A 
ATOM     17  C   UNL     1       0.157  -2.510  -3.812  1.00  0.00     0.021 A 
ATOM     18  C   UNL     1       1.457  -2.437  -4.317  1.00  0.00     0.027 A 
BRANCH  14  19
ATOM     19  O   UNL     1       0.465  -0.625  -0.698  1.00  0.00    -0.496 OA
ATOM     20  C   UNL     1       1.231   0.509  -0.314  1.00  0.00     0.278 C 
ENDBRANCH  14  19
BRANCH  16  21
ATOM     21  N   UNL     1       3.750  -1.730  -4.088  1.00  0.00    -0.399 N 
ATOM     22  H   UNL     1       4.460  -1.306  -3.554  1.00  0.00     0.156 HD
ATOM     23  H   UNL     1       3.951  -2.076  -4.987  1.00  0.00     0.156 HD
ENDBRANCH  16  21
ENDBRANCH  12  13
ENDBRANCH  11  12
ENDBRANCH   7  11
ENDBRANCH   3   6
ENDBRANCH   1   2
BRANCH   1  24
ATOM     24  C   UNL     1       2.278  -4.436   4.956  1.00  0.00     0.042 C 
BRANCH  24  25
ATOM     25  C   UNL     1       2.669  -5.540   5.937  1.00  0.00     0.118 C 
BRANCH  25  26
ATOM     26  N   UNL     1       4.093  -5.842   5.896  1.00  0.00    -0.352 N 
ATOM     27  C   UNL     1       5.036  -5.815   6.894  1.00  0.00     0.251 C 
ATOM     28  H   UNL     1       4.434  -6.107   5.012  1.00  0.00     0.163 HD
ATOM     29  O   UNL     1       6.223  -5.920   6.593  1.00  0.00    -0.269 OA
BRANCH  27  30
ATOM     30  C   UNL     1       4.649  -5.655   8.315  1.00  0.00     0.039 A 
ATOM     31  C   UNL     1       5.453  -4.865   9.144  1.00  0.00     0.014 A 
ATOM     32  C   UNL     1       3.541  -6.317   8.851  1.00  0.00     0.014 A 
ATOM     33  C   UNL     1       5.120  -4.701  10.492  1.00  0.00     0.010 A 
ATOM     34  C   UNL     1       3.172  -6.098  10.178  1.00  0.00     0.010 A 
ATOM     35  C   UNL     1       3.962  -5.297  11.016  1.00  0.00    -0.014 A 
BRANCH  35  36
ATOM     36  C   UNL     1       3.560  -5.090  12.431  1.00  0.00     0.031 A 
ATOM     37  C   UNL     1       3.515  -6.252  13.389  1.00  0.00     0.074 A 
ATOM     38  C   UNL     1       3.151  -3.871  12.835  1.00  0.00     0.049 A 
ATOM     39  N   UNL     1       3.138  -6.275  14.641  1.00  0.00    -0.248 NA
ATOM     40  C   UNL     1       3.924  -7.565  12.863  1.00  0.00     0.031 C 
ATOM     41  C   UNL     1       3.075  -2.682  11.984  1.00  0.00     0.029 A 
ATOM     42  N   UNL     1       2.696  -3.436  14.054  1.00  0.00    -0.354 N 
ATOM     43  C   UNL     1       3.224  -7.603  15.041  1.00  0.00     0.074 A 
ATOM     44  C   UNL     1       3.664  -8.362  13.890  1.00  0.00     0.031 C 
ATOM     45  C   UNL     1       2.606  -1.652  12.708  1.00  0.00     0.029 A 
ATOM     46  C   UNL     1       2.325  -2.111  14.065  1.00  0.00     0.049 A 
ATOM     47  H   UNL     1       2.640  -4.017  14.847  1.00  0.00     0.167 HD
ATOM     48  C   UNL     1       2.990  -8.140  16.263  1.00  0.00     0.034 A 
ATOM     49  C   UNL     1       1.815  -1.352  15.054  1.00  0.00     0.034 A 
ATOM     50  C   UNL     1       2.606  -7.376  17.419  1.00  0.00     0.049 A 
ATOM     51  C   UNL     1       1.613  -1.962  16.415  1.00  0.00     0.074 A 
ATOM     52  C   UNL     1       2.437  -7.811  18.722  1.00  0.00     0.029 A 
ATOM     53  N   UNL     1       2.330  -6.018  17.413  1.00  0.00    -0.354 N 
ATOM     54  N   UNL     1       1.859  -3.186  16.815  1.00  0.00    -0.248 NA
ATOM     55  C   UNL     1       1.099  -1.077  17.470  1.00  0.00     0.031 C 
ATOM     56  C   UNL     1       2.047  -6.716  19.502  1.00  0.00     0.029 A 
ATOM     57  C   UNL     1       1.987  -5.597  18.687  1.00  0.00     0.049 A 
ATOM     58  H   UNL     1       2.372  -5.437  16.620  1.00  0.00     0.167 HD
ATOM     59  C   UNL     1       1.566  -3.209  18.174  1.00  0.00     0.074 A 
ATOM     60  C   UNL     1       1.143  -1.871  18.532  1.00  0.00     0.031 C 
ATOM     61  C   UNL     1       1.625  -4.249  19.042  1.00  0.00     0.034 A 
BRANCH  48  62
ATOM     62  C   UNL     1       3.206  -9.623  16.427  1.00  0.00     0.023 A 
ATOM     63  C   UNL     1       4.521 -10.133  16.433  1.00  0.00     0.012 A 
ATOM     64  C   UNL     1       2.124 -10.502  16.627  1.00  0.00     0.148 A 
ATOM     65  C   UNL     1       4.754 -11.498  16.597  1.00  0.00     0.002 A 
ATOM     66  C   UNL     1       2.367 -11.856  16.832  1.00  0.00     0.091 A 
ATOM     67  F   UNL     1       0.879 -10.004  16.597  1.00  0.00    -0.205 F 
ATOM     68  C   UNL     1       3.679 -12.357  16.806  1.00  0.00     0.022 A 
BRANCH  66  69
ATOM     69  S   UNL     1       1.052 -13.029  17.186  1.00  0.00     0.127 S 
ATOM     70  O   UNL     1       0.931 -13.730  15.909  1.00  0.00    -0.237 OA
ATOM     71  O   UNL     1       1.630 -13.829  18.267  1.00  0.00    -0.237 OA
ATOM     72  O   UNL     1      -0.100 -12.229  17.577  1.00  0.00    -0.744 OA
ENDBRANCH  66  69
ENDBRANCH  48  62
BRANCH  49  73
ATOM     73  C   UNL     1       1.544   0.094  14.815  1.00  0.00     0.023 A 
ATOM     74  C   UNL     1       2.378   1.055  15.419  1.00  0.00     0.012 A 
ATOM     75  C   UNL     1       0.502   0.523  13.972  1.00  0.00     0.148 A 
ATOM     76  C   UNL     1       2.163   2.417  15.210  1.00  0.00     0.002 A 
ATOM     77  C   UNL     1       0.326   1.880  13.725  1.00  0.00     0.091 A 
ATOM     78  F   UNL     1      -0.290  -0.406  13.417  1.00  0.00    -0.205 F 
ATOM     79  C   UNL     1       1.144   2.830  14.355  1.00  0.00     0.022 A 
BRANCH  77  80
ATOM     80  S   UNL     1      -0.873   2.491  12.533  1.00  0.00     0.127 S 
ATOM     81  O   UNL     1      -1.907   3.043  13.404  1.00  0.00    -0.237 OA
ATOM     82  O   UNL     1      -0.091   3.486  11.797  1.00  0.00    -0.237 OA
ATOM     83  O   UNL     1      -1.259   1.332  11.740  1.00  0.00    -0.744 OA
ENDBRANCH  77  80
ENDBRANCH  49  73
BRANCH  61  84
ATOM     84  C   UNL     1       1.254  -3.981  20.477  1.00  0.00     0.023 A 
ATOM     85  C   UNL     1      -0.099  -3.795  20.823  1.00  0.00     0.012 A 
ATOM     86  C   UNL     1       2.233  -3.984  21.489  1.00  0.00     0.148 A 
ATOM     87  C   UNL     1      -0.469  -3.587  22.151  1.00  0.00     0.002 A 
ATOM     88  C   UNL     1       1.853  -3.822  22.816  1.00  0.00     0.091 A 
ATOM     89  F   UNL     1       3.518  -4.141  21.138  1.00  0.00    -0.205 F 
ATOM     90  C   UNL     1       0.504  -3.613  23.148  1.00  0.00     0.022 A 
BRANCH  88  91
ATOM     91  S   UNL     1       3.029  -3.933  24.170  1.00  0.00     0.127 S 
ATOM     92  O   UNL     1       3.211  -2.527  24.524  1.00  0.00    -0.237 OA
ATOM     93  O   UNL     1       2.294  -4.722  25.160  1.00  0.00    -0.237 OA
ATOM     94  O   UNL     1       4.202  -4.601  23.622  1.00  0.00    -0.744 OA
ENDBRANCH  88  91
ENDBRANCH  61  84
ENDBRANCH  35  36
ENDBRANCH  27  30
ENDBRANCH  25  26
ENDBRANCH  24  25
ENDBRANCH   1  24
TORSDOF 18
