REMARK SMILES C[C@@H]1[C@@H](C(=O)NCCCNC(=O)c2ccc(-c3c4nc(c(-c5cccc(S(=O)(=O)[O-])c5F)c5ccc([nH]5)c(-c5cccc(S(=O)(=O)[O-])c5F)c5nc(c(-c6cccc(S(=O)(=O)[O-])c6F)c6ccc3[nH]6)C=C5)C=C4)cc2)CCN1c1nc2sccn2c1[N+](=O)[O-]
REMARK SMILES IDX 8 1 7 2 6 3 4 4 5 5 3 7 1 8 2 9 78 10 76 11 77 12 79 13
REMARK SMILES IDX 80 14 86 15 81 16 85 17 82 18 84 19 83 20 87 21 88 22 89 23
REMARK SMILES IDX 9 24 10 25 11 26 12 28 13 29 14 30 75 31 15 32 74 33 16 34
REMARK SMILES IDX 17 35 18 36 68 37 19 38 73 39 67 40 69 41 20 42 72 43 66 44
REMARK SMILES IDX 65 45 21 47 53 48 33 49 52 50 34 51 37 52 51 53 70 54 35 55
REMARK SMILES IDX 36 56 50 58 71 59 38 60 22 61 23 62 31 63 24 64 26 65 32 66
REMARK SMILES IDX 25 67 27 68 28 69 29 70 30 71 54 72 55 73 63 74 56 75 58 76
REMARK SMILES IDX 64 77 57 78 59 79 60 80 61 81 62 82 39 83 40 84 48 85 41 86
REMARK SMILES IDX 43 87 49 88 42 89 44 90 45 91 46 92 47 93
REMARK H PARENT 6 6 10 27 69 46 37 57
REMARK Flexibility Score: inf
ROOT
ATOM      1  C   UNL     1      -2.955   4.234  -1.179  1.00  0.00     0.042 C 
ENDROOT
BRANCH   1   2
ATOM      2  C   UNL     1      -2.579   2.825  -0.758  1.00  0.00     0.117 C 
BRANCH   2   3
ATOM      3  N   UNL     1      -1.820   2.106  -1.761  1.00  0.00    -0.356 N 
ATOM      4  C   UNL     1      -0.769   1.253  -1.628  1.00  0.00     0.225 C 
ATOM      5  O   UNL     1      -0.326   0.768  -2.671  1.00  0.00    -0.275 OA
ATOM      6  H   UNL     1      -2.113   2.259  -2.688  1.00  0.00     0.163 HD
BRANCH   4   7
ATOM      7  C   UNL     1      -0.141   1.002  -0.258  1.00  0.00     0.102 C 
ATOM      8  C   UNL     1       2.006   0.013   0.681  1.00  0.00     0.032 C 
ATOM      9  C   UNL     1       0.881  -0.160  -0.342  1.00  0.00     0.093 C 
ATOM     10  N   UNL     1       0.074  -1.362  -0.023  1.00  0.00    -0.346 N 
ATOM     11  C   UNL     1      -1.109   0.482   0.806  1.00  0.00     0.037 C 
ATOM     12  C   UNL     1      -1.243  -0.990   0.459  1.00  0.00     0.119 C 
BRANCH  10  13
ATOM     13  C   UNL     1       0.441  -2.595  -0.439  1.00  0.00     0.229 A 
ATOM     14  N   UNL     1       1.729  -2.766  -0.917  1.00  0.00    -0.173 NA
ATOM     15  C   UNL     1      -0.237  -3.803  -0.444  1.00  0.00     0.373 A 
ATOM     16  C   UNL     1       1.795  -4.035  -1.192  1.00  0.00     0.286 A 
ATOM     17  N   UNL     1       0.647  -4.720  -0.928  1.00  0.00    -0.166 N 
ATOM     18  S   UNL     1       3.035  -5.080  -1.812  1.00  0.00    -0.078 S 
ATOM     19  C   UNL     1       0.702  -6.072  -1.209  1.00  0.00     0.220 A 
ATOM     20  C   UNL     1       1.906  -6.435  -1.684  1.00  0.00     0.114 A 
BRANCH  15  21
ATOM     21  N   UNL     1      -1.539  -4.194  -0.077  1.00  0.00    -0.023 N 
ATOM     22  O   UNL     1      -2.479  -3.469  -0.413  1.00  0.00    -0.358 OA
ATOM     23  O   UNL     1      -1.647  -5.274   0.519  1.00  0.00    -0.358 OA
ENDBRANCH  15  21
ENDBRANCH  10  13
ENDBRANCH   4   7
ENDBRANCH   2   3
ENDBRANCH   1   2
BRANCH   1  24
ATOM     24  C   UNL     1      -3.706   4.333  -2.497  1.00  0.00     0.118 C 
BRANCH  24  25
ATOM     25  N   UNL     1      -5.024   3.712  -2.472  1.00  0.00    -0.352 N 
ATOM     26  C   UNL     1      -6.281   4.277  -2.513  1.00  0.00     0.251 C 
ATOM     27  H   UNL     1      -5.015   2.729  -2.417  1.00  0.00     0.163 HD
ATOM     28  O   UNL     1      -7.267   3.572  -2.355  1.00  0.00    -0.269 OA
BRANCH  26  29
ATOM     29  C   UNL     1      -6.436   5.738  -2.707  1.00  0.00     0.039 A 
ATOM     30  C   UNL     1      -7.365   6.430  -1.925  1.00  0.00     0.014 A 
ATOM     31  C   UNL     1      -5.660   6.431  -3.635  1.00  0.00     0.014 A 
ATOM     32  C   UNL     1      -7.442   7.824  -2.010  1.00  0.00     0.010 A 
ATOM     33  C   UNL     1      -5.650   7.821  -3.630  1.00  0.00     0.010 A 
ATOM     34  C   UNL     1      -6.546   8.537  -2.824  1.00  0.00    -0.014 A 
BRANCH  34  35
ATOM     35  C   UNL     1      -6.524  10.024  -2.853  1.00  0.00     0.031 A 
ATOM     36  C   UNL     1      -6.738  10.759  -4.151  1.00  0.00     0.074 A 
ATOM     37  C   UNL     1      -6.212  10.713  -1.735  1.00  0.00     0.049 A 
ATOM     38  N   UNL     1      -6.668  12.043  -4.394  1.00  0.00    -0.248 NA
ATOM     39  C   UNL     1      -7.034   9.944  -5.342  1.00  0.00     0.031 C 
ATOM     40  C   UNL     1      -5.895  10.120  -0.433  1.00  0.00     0.029 A 
ATOM     41  N   UNL     1      -6.081  12.063  -1.521  1.00  0.00    -0.354 N 
ATOM     42  C   UNL     1      -6.864  12.182  -5.763  1.00  0.00     0.074 A 
ATOM     43  C   UNL     1      -7.013  10.851  -6.306  1.00  0.00     0.031 C 
ATOM     44  C   UNL     1      -5.622  11.099   0.444  1.00  0.00     0.029 A 
ATOM     45  C   UNL     1      -5.707  12.386  -0.237  1.00  0.00     0.049 A 
ATOM     46  H   UNL     1      -6.240  12.737  -2.221  1.00  0.00     0.167 HD
ATOM     47  C   UNL     1      -6.951  13.315  -6.500  1.00  0.00     0.034 A 
ATOM     48  C   UNL     1      -5.454  13.584   0.328  1.00  0.00     0.034 A 
ATOM     49  C   UNL     1      -6.862  14.639  -5.950  1.00  0.00     0.049 A 
ATOM     50  C   UNL     1      -5.606  14.830  -0.501  1.00  0.00     0.074 A 
ATOM     51  C   UNL     1      -7.032  15.851  -6.596  1.00  0.00     0.029 A 
ATOM     52  N   UNL     1      -6.577  14.928  -4.625  1.00  0.00    -0.354 N 
ATOM     53  N   UNL     1      -5.949  14.946  -1.762  1.00  0.00    -0.248 NA
ATOM     54  C   UNL     1      -5.373  16.113   0.177  1.00  0.00     0.031 C 
ATOM     55  C   UNL     1      -6.828  16.874  -5.664  1.00  0.00     0.029 A 
ATOM     56  C   UNL     1      -6.559  16.298  -4.433  1.00  0.00     0.049 A 
ATOM     57  H   UNL     1      -6.412  14.256  -3.924  1.00  0.00     0.167 HD
ATOM     58  C   UNL     1      -6.011  16.311  -2.016  1.00  0.00     0.074 A 
ATOM     59  C   UNL     1      -5.689  16.982  -0.774  1.00  0.00     0.031 C 
ATOM     60  C   UNL     1      -6.294  16.952  -3.177  1.00  0.00     0.034 A 
BRANCH  47  61
ATOM     61  C   UNL     1      -7.216  13.170  -7.977  1.00  0.00     0.023 A 
ATOM     62  C   UNL     1      -8.481  12.727  -8.417  1.00  0.00     0.012 A 
ATOM     63  C   UNL     1      -6.240  13.523  -8.929  1.00  0.00     0.148 A 
ATOM     64  C   UNL     1      -8.757  12.598  -9.777  1.00  0.00     0.002 A 
ATOM     65  C   UNL     1      -6.539  13.438 -10.284  1.00  0.00     0.091 A 
ATOM     66  F   UNL     1      -5.037  13.923  -8.494  1.00  0.00    -0.205 F 
ATOM     67  C   UNL     1      -7.791  12.964 -10.710  1.00  0.00     0.022 A 
BRANCH  65  68
ATOM     68  S   UNL     1      -5.394  13.963 -11.565  1.00  0.00     0.127 S 
ATOM     69  O   UNL     1      -5.011  12.683 -12.160  1.00  0.00    -0.237 OA
ATOM     70  O   UNL     1      -6.243  14.799 -12.413  1.00  0.00    -0.237 OA
ATOM     71  O   UNL     1      -4.326  14.678 -10.881  1.00  0.00    -0.744 OA
ENDBRANCH  65  68
ENDBRANCH  47  61
BRANCH  48  72
ATOM     72  C   UNL     1      -5.102  13.668   1.775  1.00  0.00     0.023 A 
ATOM     73  C   UNL     1      -6.029  14.222   2.679  1.00  0.00     0.012 A 
ATOM     74  C   UNL     1      -3.873  13.184   2.263  1.00  0.00     0.148 A 
ATOM     75  C   UNL     1      -5.726  14.326   4.037  1.00  0.00     0.002 A 
ATOM     76  C   UNL     1      -3.599  13.239   3.625  1.00  0.00     0.091 A 
ATOM     77  F   UNL     1      -2.999  12.670   1.387  1.00  0.00    -0.205 F 
ATOM     78  C   UNL     1      -4.516  13.826   4.511  1.00  0.00     0.022 A 
BRANCH  76  79
ATOM     79  S   UNL     1      -2.127  12.502   4.343  1.00  0.00     0.127 S 
ATOM     80  O   UNL     1      -1.362  13.682   4.737  1.00  0.00    -0.237 OA
ATOM     81  O   UNL     1      -2.687  11.730   5.454  1.00  0.00    -0.237 OA
ATOM     82  O   UNL     1      -1.540  11.689   3.287  1.00  0.00    -0.744 OA
ENDBRANCH  76  79
ENDBRANCH  48  72
BRANCH  60  83
ATOM     83  C   UNL     1      -6.314  18.458  -3.160  1.00  0.00     0.023 A 
ATOM     84  C   UNL     1      -5.105  19.175  -3.064  1.00  0.00     0.012 A 
ATOM     85  C   UNL     1      -7.525  19.159  -3.319  1.00  0.00     0.148 A 
ATOM     86  C   UNL     1      -5.106  20.569  -3.094  1.00  0.00     0.002 A 
ATOM     87  C   UNL     1      -7.512  20.546  -3.399  1.00  0.00     0.091 A 
ATOM     88  F   UNL     1      -8.666  18.458  -3.390  1.00  0.00    -0.205 F 
ATOM     89  C   UNL     1      -6.306  21.253  -3.274  1.00  0.00     0.022 A 
BRANCH  87  90
ATOM     90  S   UNL     1      -8.995  21.505  -3.728  1.00  0.00     0.127 S 
ATOM     91  O   UNL     1      -9.241  22.129  -2.429  1.00  0.00    -0.237 OA
ATOM     92  O   UNL     1      -8.544  22.426  -4.771  1.00  0.00    -0.237 OA
ATOM     93  O   UNL     1     -10.004  20.548  -4.163  1.00  0.00    -0.744 OA
ENDBRANCH  87  90
ENDBRANCH  60  83
ENDBRANCH  34  35
ENDBRANCH  26  29
ENDBRANCH  24  25
ENDBRANCH   1  24
TORSDOF 15
