REMARK SMILES CCc1ccc(S(=O)(=O)N[C@H](C(=O)NCCCNC(=O)c2ccc(-c3c4nc(c(-c5cccc(S(=O)(=O)[O-])c5F)c5ccc([nH]5)c(-c5cccc(S(=O)(=O)[O-])c5F)c5nc(c(-c6cccc(S(=O)(=O)[O-])c6F)c6ccc3[nH]6)C=C5)C=C4)cc2)C(C)C)cc1
REMARK SMILES IDX 15 1 14 2 12 3 13 4 11 6 10 7 7 9 8 10 9 11 6 12 3 13 4 14
REMARK SMILES IDX 88 15 5 16 87 17 2 18 1 19 84 20 85 21 86 22 16 23 17 24
REMARK SMILES IDX 18 25 19 26 20 28 21 29 22 30 83 31 23 32 82 33 24 34 25 35
REMARK SMILES IDX 26 36 76 37 27 38 81 39 75 40 77 41 28 42 80 43 74 44 73 45
REMARK SMILES IDX 29 47 61 48 41 49 60 50 42 51 45 52 59 53 78 54 43 55 44 56
REMARK SMILES IDX 58 58 79 59 46 60 30 61 31 62 39 63 32 64 34 65 40 66 33 67
REMARK SMILES IDX 35 68 36 69 37 70 38 71 62 72 63 73 71 74 64 75 66 76 72 77
REMARK SMILES IDX 65 78 67 79 68 80 69 81 70 82 47 83 48 84 56 85 49 86 51 87
REMARK SMILES IDX 57 88 50 89 52 90 53 91 54 92 55 93
REMARK H PARENT 14 5 10 8 18 27 77 46 45 57
REMARK Flexibility Score: inf
ROOT
ATOM      1  C   UNL     1       1.589   0.676  -6.097  1.00  0.00     0.117 C 
ENDROOT
BRANCH   1   2
ATOM      2  N   UNL     1       1.881  -0.417  -7.009  1.00  0.00    -0.355 N 
ATOM      3  C   UNL     1       3.081  -0.902  -7.430  1.00  0.00     0.238 C 
ATOM      4  O   UNL     1       3.086  -1.696  -8.376  1.00  0.00    -0.273 OA
ATOM      5  H   UNL     1       1.092  -0.876  -7.378  1.00  0.00     0.163 HD
BRANCH   3   6
ATOM      6  C   UNL     1       4.371  -0.522  -6.696  1.00  0.00     0.161 C 
BRANCH   6   7
ATOM      7  N   UNL     1       5.025  -1.789  -6.305  1.00  0.00    -0.198 NA
ATOM      8  H   UNL     1       4.663  -2.500  -6.940  1.00  0.00     0.142 HD
BRANCH   7   9
ATOM      9  S   UNL     1       4.906  -2.436  -4.777  1.00  0.00     0.241 S 
ATOM     10  O   UNL     1       4.934  -1.335  -3.840  1.00  0.00    -0.207 OA
ATOM     11  O   UNL     1       5.880  -3.506  -4.717  1.00  0.00    -0.207 OA
BRANCH   9  12
ATOM     12  C   UNL     1       3.314  -3.211  -4.618  1.00  0.00     0.082 A 
ATOM     13  C   UNL     1       0.767  -4.352  -4.240  1.00  0.00    -0.048 A 
ATOM     14  C   UNL     1       1.599  -4.088  -3.144  1.00  0.00     0.005 A 
ATOM     15  C   UNL     1       1.258  -4.094  -5.529  1.00  0.00     0.005 A 
ATOM     16  C   UNL     1       2.855  -3.501  -3.328  1.00  0.00     0.022 A 
ATOM     17  C   UNL     1       2.536  -3.555  -5.718  1.00  0.00     0.022 A 
BRANCH  13  18
ATOM     18  C   UNL     1      -0.603  -4.968  -4.068  1.00  0.00     0.032 C 
ATOM     19  C   UNL     1      -1.467  -4.288  -3.011  1.00  0.00     0.009 C 
ENDBRANCH  13  18
ENDBRANCH   9  12
ENDBRANCH   7   9
ENDBRANCH   6   7
BRANCH   6  20
ATOM     20  C   UNL     1       5.297   0.279  -7.642  1.00  0.00     0.010 C 
ATOM     21  C   UNL     1       4.599   1.521  -8.211  1.00  0.00     0.009 C 
ATOM     22  C   UNL     1       6.573   0.722  -6.920  1.00  0.00     0.009 C 
ENDBRANCH   6  20
ENDBRANCH   3   6
ENDBRANCH   1   2
BRANCH   1  23
ATOM     23  C   UNL     1       1.122   1.911  -6.857  1.00  0.00     0.042 C 
BRANCH  23  24
ATOM     24  C   UNL     1      -0.199   1.704  -7.584  1.00  0.00     0.118 C 
BRANCH  24  25
ATOM     25  N   UNL     1      -1.317   1.563  -6.662  1.00  0.00    -0.352 N 
ATOM     26  C   UNL     1      -2.432   2.357  -6.536  1.00  0.00     0.251 C 
ATOM     27  H   UNL     1      -1.268   0.796  -6.046  1.00  0.00     0.163 HD
ATOM     28  O   UNL     1      -3.176   2.226  -5.569  1.00  0.00    -0.269 OA
BRANCH  26  29
ATOM     29  C   UNL     1      -2.713   3.376  -7.568  1.00  0.00     0.039 A 
ATOM     30  C   UNL     1      -3.066   4.670  -7.177  1.00  0.00     0.014 A 
ATOM     31  C   UNL     1      -2.602   3.052  -8.922  1.00  0.00     0.014 A 
ATOM     32  C   UNL     1      -3.250   5.657  -8.149  1.00  0.00     0.010 A 
ATOM     33  C   UNL     1      -2.694   4.054  -9.878  1.00  0.00     0.010 A 
ATOM     34  C   UNL     1      -3.036   5.363  -9.505  1.00  0.00    -0.014 A 
BRANCH  34  35
ATOM     35  C   UNL     1      -3.196   6.384 -10.572  1.00  0.00     0.031 A 
ATOM     36  C   UNL     1      -4.221   6.163 -11.652  1.00  0.00     0.074 A 
ATOM     37  C   UNL     1      -2.359   7.438 -10.636  1.00  0.00     0.049 A 
ATOM     38  N   UNL     1      -4.417   6.835 -12.756  1.00  0.00    -0.248 NA
ATOM     39  C   UNL     1      -5.123   5.009 -11.485  1.00  0.00     0.031 C 
ATOM     40  C   UNL     1      -1.293   7.735  -9.677  1.00  0.00     0.029 A 
ATOM     41  N   UNL     1      -2.248   8.434 -11.575  1.00  0.00    -0.354 N 
ATOM     42  C   UNL     1      -5.424   6.159 -13.435  1.00  0.00     0.074 A 
ATOM     43  C   UNL     1      -5.775   5.006 -12.637  1.00  0.00     0.031 C 
ATOM     44  C   UNL     1      -0.635   8.835 -10.079  1.00  0.00     0.029 A 
ATOM     45  C   UNL     1      -1.198   9.294 -11.345  1.00  0.00     0.049 A 
ATOM     46  H   UNL     1      -2.862   8.526 -12.339  1.00  0.00     0.167 HD
ATOM     47  C   UNL     1      -6.021   6.482 -14.606  1.00  0.00     0.034 A 
ATOM     48  C   UNL     1      -0.728  10.319 -12.083  1.00  0.00     0.034 A 
ATOM     49  C   UNL     1      -5.696   7.652 -15.373  1.00  0.00     0.049 A 
ATOM     50  C   UNL     1      -1.416  10.666 -13.377  1.00  0.00     0.074 A 
ATOM     51  C   UNL     1      -6.293   8.111 -16.533  1.00  0.00     0.029 A 
ATOM     52  N   UNL     1      -4.682   8.543 -15.062  1.00  0.00    -0.354 N 
ATOM     53  N   UNL     1      -2.445  10.085 -13.944  1.00  0.00    -0.248 NA
ATOM     54  C   UNL     1      -0.900  11.826 -14.119  1.00  0.00     0.031 C 
ATOM     55  C   UNL     1      -5.615   9.262 -16.943  1.00  0.00     0.029 A 
ATOM     56  C   UNL     1      -4.630   9.547 -16.011  1.00  0.00     0.049 A 
ATOM     57  H   UNL     1      -4.087   8.473 -14.281  1.00  0.00     0.167 HD
ATOM     58  C   UNL     1      -2.734  10.840 -15.075  1.00  0.00     0.074 A 
ATOM     59  C   UNL     1      -1.771  11.920 -15.116  1.00  0.00     0.031 C 
ATOM     60  C   UNL     1      -3.710  10.654 -15.998  1.00  0.00     0.034 A 
BRANCH  47  61
ATOM     61  C   UNL     1      -7.112   5.574 -15.112  1.00  0.00     0.023 A 
ATOM     62  C   UNL     1      -8.345   5.510 -14.431  1.00  0.00     0.012 A 
ATOM     63  C   UNL     1      -6.935   4.823 -16.291  1.00  0.00     0.148 A 
ATOM     64  C   UNL     1      -9.367   4.681 -14.888  1.00  0.00     0.002 A 
ATOM     65  C   UNL     1      -7.977   4.040 -16.770  1.00  0.00     0.091 A 
ATOM     66  F   UNL     1      -5.750   4.881 -16.915  1.00  0.00    -0.205 F 
ATOM     67  C   UNL     1      -9.188   3.955 -16.062  1.00  0.00     0.022 A 
BRANCH  65  68
ATOM     68  S   UNL     1      -7.876   3.134 -18.318  1.00  0.00     0.127 S 
ATOM     69  O   UNL     1      -7.849   1.750 -17.848  1.00  0.00    -0.237 OA
ATOM     70  O   UNL     1      -9.118   3.528 -18.984  1.00  0.00    -0.237 OA
ATOM     71  O   UNL     1      -6.661   3.593 -18.975  1.00  0.00    -0.744 OA
ENDBRANCH  65  68
ENDBRANCH  47  61
BRANCH  48  72
ATOM     72  C   UNL     1       0.428  11.125 -11.595  1.00  0.00     0.023 A 
ATOM     73  C   UNL     1       0.220  12.457 -11.188  1.00  0.00     0.012 A 
ATOM     74  C   UNL     1       1.724  10.579 -11.519  1.00  0.00     0.148 A 
ATOM     75  C   UNL     1       1.286  13.243 -10.750  1.00  0.00     0.002 A 
ATOM     76  C   UNL     1       2.772  11.349 -11.028  1.00  0.00     0.091 A 
ATOM     77  F   UNL     1       1.902   9.311 -11.916  1.00  0.00    -0.205 F 
ATOM     78  C   UNL     1       2.559  12.687 -10.662  1.00  0.00     0.022 A 
BRANCH  76  79
ATOM     79  S   UNL     1       4.418  10.682 -10.761  1.00  0.00     0.127 S 
ATOM     80  O   UNL     1       5.199  11.405 -11.762  1.00  0.00    -0.237 OA
ATOM     81  O   UNL     1       4.678  11.073  -9.375  1.00  0.00    -0.237 OA
ATOM     82  O   UNL     1       4.301   9.245 -10.969  1.00  0.00    -0.744 OA
ENDBRANCH  76  79
ENDBRANCH  48  72
BRANCH  60  83
ATOM     83  C   UNL     1      -3.861  11.677 -17.092  1.00  0.00     0.023 A 
ATOM     84  C   UNL     1      -2.942  11.722 -18.158  1.00  0.00     0.012 A 
ATOM     85  C   UNL     1      -4.999  12.508 -17.120  1.00  0.00     0.148 A 
ATOM     86  C   UNL     1      -3.147  12.592 -19.229  1.00  0.00     0.002 A 
ATOM     87  C   UNL     1      -5.224  13.332 -18.214  1.00  0.00     0.091 A 
ATOM     88  F   UNL     1      -5.850  12.458 -16.084  1.00  0.00    -0.205 F 
ATOM     89  C   UNL     1      -4.294  13.383 -19.265  1.00  0.00     0.022 A 
BRANCH  87  90
ATOM     90  S   UNL     1      -6.724  14.302 -18.398  1.00  0.00     0.127 S 
ATOM     91  O   UNL     1      -6.208  15.667 -18.308  1.00  0.00    -0.237 OA
ATOM     92  O   UNL     1      -7.183  13.909 -19.730  1.00  0.00    -0.237 OA
ATOM     93  O   UNL     1      -7.604  13.900 -17.308  1.00  0.00    -0.744 OA
ENDBRANCH  87  90
ENDBRANCH  60  83
ENDBRANCH  34  35
ENDBRANCH  26  29
ENDBRANCH  24  25
ENDBRANCH  23  24
ENDBRANCH   1  23
TORSDOF 18
