REMARK SMILES CC(=O)N1CCCN(S(=O)(=O)c2ccc(C)c(C(=O)NCCCNC(=O)c3ccc(-c4c5nc(c(-c6cccc(S(=O)(=O)[O-])c6F)c6ccc([nH]6)c(-c6cccc(S(=O)(=O)[O-])c6F)c6nc(c(-c7cccc(S(=O)(=O)[O-])c7F)c7ccc4[nH]7)C=C6)C=C5)cc3)c2)CC1
REMARK SMILES IDX 18 1 19 2 20 3 17 5 12 6 13 7 90 8 14 9 15 10 16 11 9 12
REMARK SMILES IDX 10 13 11 14 8 15 7 16 6 17 5 18 4 19 2 20 1 21 3 22 92 23
REMARK SMILES IDX 91 25 21 27 22 28 23 29 24 30 25 31 26 33 27 34 28 35 89 36
REMARK SMILES IDX 29 37 88 38 30 39 31 40 32 41 82 42 33 43 87 44 81 45 83 46
REMARK SMILES IDX 34 47 86 48 80 49 79 50 35 52 67 53 47 54 66 55 48 56 51 57
REMARK SMILES IDX 65 58 84 59 49 60 50 61 64 63 85 64 52 65 36 66 37 67 45 68
REMARK SMILES IDX 38 69 40 70 46 71 39 72 41 73 42 74 43 75 44 76 68 77 69 78
REMARK SMILES IDX 77 79 70 80 72 81 78 82 71 83 73 84 74 85 75 86 76 87 53 88
REMARK SMILES IDX 54 89 62 90 55 91 57 92 63 93 56 94 58 95 59 96 60 97 61 98
REMARK H PARENT 20 4 24 32 83 51 51 62
REMARK Flexibility Score: 80.00
ROOT
ATOM      1  C   UNL     1      -0.387   2.880   9.779  1.00  0.00     0.251 C 
ATOM      2  O   UNL     1       0.814   2.723  10.041  1.00  0.00    -0.269 OA
ATOM      3  N   UNL     1      -1.153   3.073  10.891  1.00  0.00    -0.352 N 
ATOM      4  H   UNL     1      -0.609   3.081  11.711  1.00  0.00     0.163 HD
ENDROOT
BRANCH   1   5
ATOM      5  C   UNL     1      -0.781   2.816   8.316  1.00  0.00     0.044 A 
ATOM      6  C   UNL     1       0.337   2.675   6.114  1.00  0.00     0.083 A 
ATOM      7  C   UNL     1      -0.829   2.185   5.560  1.00  0.00     0.022 A 
ATOM      8  C   UNL     1       0.363   2.978   7.476  1.00  0.00     0.035 A 
ATOM      9  C   UNL     1      -1.984   2.150   6.304  1.00  0.00     0.005 A 
ATOM     10  C   UNL     1      -1.997   2.480   7.673  1.00  0.00    -0.038 A 
ATOM     11  C   UNL     1      -3.364   2.302   8.236  1.00  0.00     0.045 C 
BRANCH   6  12
ATOM     12  S   UNL     1       1.828   2.641   5.154  1.00  0.00     0.243 S 
ATOM     13  O   UNL     1       1.972   1.280   4.695  1.00  0.00    -0.207 OA
ATOM     14  O   UNL     1       2.884   3.267   5.927  1.00  0.00    -0.207 OA
BRANCH  12  15
ATOM     15  N   UNL     1       1.581   3.646   3.799  1.00  0.00    -0.196 NA
BRANCH  15  16
ATOM     16  C   UNL     1       2.772   3.905   2.962  1.00  0.00     0.104 C 
BRANCH  16  17
ATOM     17  C   UNL     1       3.346   2.697   2.229  1.00  0.00     0.038 C 
BRANCH  17  18
ATOM     18  C   UNL     1       2.454   1.556   1.724  1.00  0.00     0.121 C 
BRANCH  18  19
ATOM     19  N   UNL     1       1.116   1.897   1.242  1.00  0.00    -0.342 N 
BRANCH  19  20
ATOM     20  C   UNL     1       0.573   1.423   0.049  1.00  0.00     0.219 C 
ATOM     21  C   UNL     1       1.257   0.249  -0.603  1.00  0.00     0.114 C 
ATOM     22  O   UNL     1      -0.482   1.859  -0.416  1.00  0.00    -0.275 OA
ENDBRANCH  19  20
BRANCH  19  23
ATOM     23  C   UNL     1       0.128   2.280   2.244  1.00  0.00     0.136 CG0
ATOM     24  G   UNL     1       0.356   3.598   2.970  1.00  0.00     0.000 G0
ENDBRANCH  19  23
ENDBRANCH  18  19
ENDBRANCH  17  18
ENDBRANCH  16  17
ENDBRANCH  15  16
BRANCH  15  25
ATOM     25  C   UNL     1       0.356   3.598   2.970  1.00  0.00     0.124 CG0
ATOM     26  G   UNL     1       0.128   2.280   2.244  1.00  0.00     0.000 G0
ENDBRANCH  15  25
ENDBRANCH  12  15
ENDBRANCH   6  12
ENDBRANCH   1   5
BRANCH   3  27
ATOM     27  C   UNL     1      -2.554   3.271  11.175  1.00  0.00     0.118 C 
BRANCH  27  28
ATOM     28  C   UNL     1      -3.293   1.942  11.150  1.00  0.00     0.042 C 
BRANCH  28  29
ATOM     29  C   UNL     1      -3.725   1.403  12.492  1.00  0.00     0.118 C 
BRANCH  29  30
ATOM     30  N   UNL     1      -5.181   1.462  12.629  1.00  0.00    -0.352 N 
ATOM     31  C   UNL     1      -5.996   0.837  13.553  1.00  0.00     0.251 C 
ATOM     32  H   UNL     1      -5.646   2.026  11.970  1.00  0.00     0.163 HD
ATOM     33  O   UNL     1      -7.212   0.843  13.419  1.00  0.00    -0.269 OA
BRANCH  31  34
ATOM     34  C   UNL     1      -5.346   0.315  14.770  1.00  0.00     0.039 A 
ATOM     35  C   UNL     1      -5.573   1.062  15.931  1.00  0.00     0.014 A 
ATOM     36  C   UNL     1      -4.223  -0.493  14.631  1.00  0.00     0.014 A 
ATOM     37  C   UNL     1      -4.534   1.237  16.832  1.00  0.00     0.010 A 
ATOM     38  C   UNL     1      -3.156  -0.227  15.458  1.00  0.00     0.010 A 
ATOM     39  C   UNL     1      -3.297   0.689  16.515  1.00  0.00    -0.014 A 
BRANCH  39  40
ATOM     40  C   UNL     1      -2.067   0.979  17.227  1.00  0.00     0.031 A 
ATOM     41  C   UNL     1      -1.564  -0.033  18.175  1.00  0.00     0.074 A 
ATOM     42  C   UNL     1      -1.317   2.046  16.875  1.00  0.00     0.049 A 
ATOM     43  N   UNL     1      -0.615   0.160  19.021  1.00  0.00    -0.248 NA
ATOM     44  C   UNL     1      -2.168  -1.356  18.270  1.00  0.00     0.031 C 
ATOM     45  C   UNL     1       0.107   2.224  17.128  1.00  0.00     0.029 A 
ATOM     46  N   UNL     1      -1.742   3.290  16.392  1.00  0.00    -0.354 N 
ATOM     47  C   UNL     1      -0.300  -1.064  19.575  1.00  0.00     0.074 A 
ATOM     48  C   UNL     1      -1.354  -1.946  19.145  1.00  0.00     0.031 C 
ATOM     49  C   UNL     1       0.396   3.531  17.066  1.00  0.00     0.029 A 
ATOM     50  C   UNL     1      -0.864   4.243  16.943  1.00  0.00     0.049 A 
ATOM     51  H   UNL     1      -2.501   3.463  15.790  1.00  0.00     0.167 HD
ATOM     52  C   UNL     1       0.894  -1.202  20.217  1.00  0.00     0.034 A 
ATOM     53  C   UNL     1      -1.255   5.282  17.737  1.00  0.00     0.034 A 
ATOM     54  C   UNL     1       1.546   0.108  20.368  1.00  0.00     0.049 A 
ATOM     55  C   UNL     1      -0.618   5.257  19.116  1.00  0.00     0.074 A 
ATOM     56  C   UNL     1       2.526   0.769  19.645  1.00  0.00     0.029 A 
ATOM     57  N   UNL     1       0.978   1.054  21.213  1.00  0.00    -0.354 N 
ATOM     58  N   UNL     1       0.146   4.292  19.552  1.00  0.00    -0.248 NA
ATOM     59  C   UNL     1      -0.823   6.290  20.131  1.00  0.00     0.031 C 
ATOM     60  C   UNL     1       2.463   2.149  19.985  1.00  0.00     0.029 A 
ATOM     61  C   UNL     1       1.474   2.319  20.940  1.00  0.00     0.049 A 
ATOM     62  H   UNL     1       0.314   0.852  21.911  1.00  0.00     0.167 HD
ATOM     63  C   UNL     1       0.391   4.462  20.890  1.00  0.00     0.074 A 
ATOM     64  C   UNL     1      -0.161   5.774  21.182  1.00  0.00     0.031 C 
ATOM     65  C   UNL     1       0.953   3.479  21.658  1.00  0.00     0.034 A 
BRANCH  52  66
ATOM     66  C   UNL     1       1.621  -2.516  20.473  1.00  0.00     0.023 A 
ATOM     67  C   UNL     1       2.995  -2.433  20.797  1.00  0.00     0.012 A 
ATOM     68  C   UNL     1       1.109  -3.829  20.335  1.00  0.00     0.148 A 
ATOM     69  C   UNL     1       3.821  -3.561  20.886  1.00  0.00     0.002 A 
ATOM     70  C   UNL     1       1.937  -4.955  20.379  1.00  0.00     0.091 A 
ATOM     71  F   UNL     1      -0.200  -4.031  20.221  1.00  0.00    -0.205 F 
ATOM     72  C   UNL     1       3.299  -4.823  20.648  1.00  0.00     0.022 A 
BRANCH  70  73
ATOM     73  S   UNL     1       1.326  -6.619  20.039  1.00  0.00     0.127 S 
ATOM     74  O   UNL     1       2.213  -7.057  18.960  1.00  0.00    -0.237 OA
ATOM     75  O   UNL     1       1.541  -7.297  21.316  1.00  0.00    -0.237 OA
ATOM     76  O   UNL     1      -0.070  -6.474  19.642  1.00  0.00    -0.744 OA
ENDBRANCH  70  73
ENDBRANCH  52  66
BRANCH  53  77
ATOM     77  C   UNL     1      -2.602   5.821  17.406  1.00  0.00     0.023 A 
ATOM     78  C   UNL     1      -2.719   6.517  16.180  1.00  0.00     0.012 A 
ATOM     79  C   UNL     1      -3.764   5.332  18.027  1.00  0.00     0.148 A 
ATOM     80  C   UNL     1      -3.948   6.620  15.528  1.00  0.00     0.002 A 
ATOM     81  C   UNL     1      -4.985   5.424  17.360  1.00  0.00     0.091 A 
ATOM     82  F   UNL     1      -3.641   4.694  19.198  1.00  0.00    -0.205 F 
ATOM     83  C   UNL     1      -5.073   6.042  16.102  1.00  0.00     0.022 A 
BRANCH  81  84
ATOM     84  S   UNL     1      -6.475   4.618  17.963  1.00  0.00     0.127 S 
ATOM     85  O   UNL     1      -7.255   5.758  18.436  1.00  0.00    -0.237 OA
ATOM     86  O   UNL     1      -6.985   3.983  16.748  1.00  0.00    -0.237 OA
ATOM     87  O   UNL     1      -6.020   3.685  18.983  1.00  0.00    -0.744 OA
ENDBRANCH  81  84
ENDBRANCH  53  77
BRANCH  65  88
ATOM     88  C   UNL     1       1.021   3.491  23.172  1.00  0.00     0.023 A 
ATOM     89  C   UNL     1       0.074   4.174  23.961  1.00  0.00     0.012 A 
ATOM     90  C   UNL     1       1.942   2.657  23.856  1.00  0.00     0.148 A 
ATOM     91  C   UNL     1       0.069   4.074  25.357  1.00  0.00     0.002 A 
ATOM     92  C   UNL     1       1.861   2.476  25.235  1.00  0.00     0.091 A 
ATOM     93  F   UNL     1       2.913   2.034  23.171  1.00  0.00    -0.205 F 
ATOM     94  C   UNL     1       0.944   3.204  25.994  1.00  0.00     0.022 A 
BRANCH  92  95
ATOM     95  S   UNL     1       2.814   1.179  26.039  1.00  0.00     0.127 S 
ATOM     96  O   UNL     1       4.071   1.861  26.338  1.00  0.00    -0.237 OA
ATOM     97  O   UNL     1       2.000   0.863  27.215  1.00  0.00    -0.237 OA
ATOM     98  O   UNL     1       2.876   0.107  25.054  1.00  0.00    -0.744 OA
ENDBRANCH  92  95
ENDBRANCH  65  88
ENDBRANCH  39  40
ENDBRANCH  31  34
ENDBRANCH  29  30
ENDBRANCH  28  29
ENDBRANCH  27  28
ENDBRANCH   3  27
TORSDOF 16
