REMARK SMILES C[C@H]1[C@H](C(=O)NCCCNC(=O)c2ccc(-c3c4nc(c(-c5cccc(S(=O)(=O)[O-])c5F)c5ccc([nH]5)c(-c5cccc(S(=O)(=O)[O-])c5F)c5nc(c(-c6cccc(S(=O)(=O)[O-])c6F)c6ccc3[nH]6)C=C5)C=C4)cc2)CC[N@@H+]1CC(=O)N1CCCC1
REMARK SMILES IDX 8 1 7 2 6 3 4 4 5 5 3 7 1 8 2 9 78 10 76 11 77 12 79 14
REMARK SMILES IDX 80 15 81 16 82 17 83 18 86 19 84 20 85 21 9 22 10 23 11 24
REMARK SMILES IDX 12 26 13 27 14 28 75 29 15 30 74 31 16 32 17 33 18 34 68 35
REMARK SMILES IDX 19 36 73 37 67 38 69 39 20 40 72 41 66 42 65 43 21 45 53 46
REMARK SMILES IDX 33 47 52 48 34 49 37 50 51 51 70 52 35 53 36 54 50 56 71 57
REMARK SMILES IDX 38 58 22 59 23 60 31 61 24 62 26 63 32 64 25 65 27 66 28 67
REMARK SMILES IDX 29 68 30 69 54 70 55 71 63 72 56 73 58 74 64 75 57 76 59 77
REMARK SMILES IDX 60 78 61 79 62 80 39 81 40 82 48 83 41 84 43 85 49 86 42 87
REMARK SMILES IDX 44 88 45 89 46 90 47 91
REMARK H PARENT 6 6 78 13 10 25 69 44 37 55
REMARK Flexibility Score: inf
ROOT
ATOM      1  C   UNL     1      -2.226   0.075   4.372  1.00  0.00     0.042 C 
ENDROOT
BRANCH   1   2
ATOM      2  C   UNL     1      -2.639   0.759   3.016  1.00  0.00     0.117 C 
BRANCH   2   3
ATOM      3  N   UNL     1      -1.782   1.747   2.327  1.00  0.00    -0.356 N 
ATOM      4  C   UNL     1      -1.317   2.016   1.070  1.00  0.00     0.229 C 
ATOM      5  O   UNL     1      -0.924   3.196   0.952  1.00  0.00    -0.275 OA
ATOM      6  H   UNL     1      -1.443   2.413   2.967  1.00  0.00     0.163 HD
BRANCH   4   7
ATOM      7  C   UNL     1      -1.118   1.128  -0.194  1.00  0.00     0.142 C 
ATOM      8  C   UNL     1       1.023   0.902  -1.735  1.00  0.00     0.076 C 
ATOM      9  C   UNL     1       0.330   0.628  -0.395  1.00  0.00     0.194 C 
ATOM     10  N   UNL     1       0.311  -0.839  -0.299  1.00  0.00    -0.324 N 
ATOM     11  C   UNL     1      -1.990  -0.077  -0.428  1.00  0.00     0.081 C 
ATOM     12  C   UNL     1      -1.084  -1.293  -0.273  1.00  0.00     0.263 C 
ATOM     13  H   UNL     1       0.745  -1.252  -1.125  1.00  0.00     0.348 HD
BRANCH  10  14
ATOM     14  C   UNL     1       1.159  -1.343   0.813  1.00  0.00     0.364 C 
BRANCH  14  15
ATOM     15  C   UNL     1       0.824  -0.603   2.101  1.00  0.00     0.277 C 
ATOM     16  O   UNL     1      -0.251  -0.865   2.634  1.00  0.00    -0.268 OA
ATOM     17  N   UNL     1       1.611   0.451   2.515  1.00  0.00    -0.338 N 
ATOM     18  C   UNL     1       2.975   0.758   2.139  1.00  0.00     0.119 C 
ATOM     19  C   UNL     1       1.086   1.512   3.337  1.00  0.00     0.119 C 
ATOM     20  C   UNL     1       3.401   1.898   3.072  1.00  0.00     0.023 C 
ATOM     21  C   UNL     1       2.269   2.064   4.080  1.00  0.00     0.023 C 
ENDBRANCH  14  15
ENDBRANCH  10  14
ENDBRANCH   4   7
ENDBRANCH   2   3
ENDBRANCH   1   2
BRANCH   1  22
ATOM     22  C   UNL     1      -1.600   0.840   5.554  1.00  0.00     0.118 C 
BRANCH  22  23
ATOM     23  N   UNL     1      -2.519   0.994   6.673  1.00  0.00    -0.352 N 
ATOM     24  C   UNL     1      -2.456   0.529   7.968  1.00  0.00     0.251 C 
ATOM     25  H   UNL     1      -3.325   1.522   6.469  1.00  0.00     0.163 HD
ATOM     26  O   UNL     1      -3.461   0.631   8.672  1.00  0.00    -0.269 OA
BRANCH  24  27
ATOM     27  C   UNL     1      -1.233  -0.085   8.554  1.00  0.00     0.039 A 
ATOM     28  C   UNL     1      -1.386  -1.219   9.363  1.00  0.00     0.014 A 
ATOM     29  C   UNL     1       0.030   0.507   8.451  1.00  0.00     0.014 A 
ATOM     30  C   UNL     1      -0.292  -1.756  10.055  1.00  0.00     0.010 A 
ATOM     31  C   UNL     1       1.135  -0.059   9.113  1.00  0.00     0.010 A 
ATOM     32  C   UNL     1       0.985  -1.181   9.946  1.00  0.00    -0.014 A 
BRANCH  32  33
ATOM     33  C   UNL     1       2.122  -1.737  10.743  1.00  0.00     0.031 A 
ATOM     34  C   UNL     1       2.756  -0.935  11.856  1.00  0.00     0.074 A 
ATOM     35  C   UNL     1       2.585  -2.978  10.487  1.00  0.00     0.049 A 
ATOM     36  N   UNL     1       3.678  -1.294  12.714  1.00  0.00    -0.248 NA
ATOM     37  C   UNL     1       2.306   0.457  12.016  1.00  0.00     0.031 C 
ATOM     38  C   UNL     1       2.122  -3.840   9.399  1.00  0.00     0.029 A 
ATOM     39  N   UNL     1       3.548  -3.731  11.118  1.00  0.00    -0.354 N 
ATOM     40  C   UNL     1       3.931  -0.174  13.501  1.00  0.00     0.074 A 
ATOM     41  C   UNL     1       3.095   0.890  12.989  1.00  0.00     0.031 C 
ATOM     42  C   UNL     1       2.789  -5.005   9.445  1.00  0.00     0.029 A 
ATOM     43  C   UNL     1       3.738  -4.972  10.555  1.00  0.00     0.049 A 
ATOM     44  H   UNL     1       4.054  -3.411  11.899  1.00  0.00     0.167 HD
ATOM     45  C   UNL     1       4.754  -0.045  14.572  1.00  0.00     0.034 A 
ATOM     46  C   UNL     1       4.575  -5.975  10.892  1.00  0.00     0.034 A 
ATOM     47  C   UNL     1       5.569  -1.109  15.100  1.00  0.00     0.049 A 
ATOM     48  C   UNL     1       5.450  -5.827  12.109  1.00  0.00     0.074 A 
ATOM     49  C   UNL     1       6.380  -1.098  16.221  1.00  0.00     0.029 A 
ATOM     50  N   UNL     1       5.686  -2.371  14.537  1.00  0.00    -0.354 N 
ATOM     51  N   UNL     1       5.553  -4.812  12.933  1.00  0.00    -0.248 NA
ATOM     52  C   UNL     1       6.293  -6.977  12.468  1.00  0.00     0.031 C 
ATOM     53  C   UNL     1       7.013  -2.343  16.318  1.00  0.00     0.029 A 
ATOM     54  C   UNL     1       6.565  -3.143  15.279  1.00  0.00     0.049 A 
ATOM     55  H   UNL     1       5.213  -2.674  13.729  1.00  0.00     0.167 HD
ATOM     56  C   UNL     1       6.447  -5.211  13.921  1.00  0.00     0.074 A 
ATOM     57  C   UNL     1       6.833  -6.571  13.609  1.00  0.00     0.031 C 
ATOM     58  C   UNL     1       6.917  -4.508  14.982  1.00  0.00     0.034 A 
BRANCH  45  59
ATOM     59  C   UNL     1       4.780   1.290  15.279  1.00  0.00     0.023 A 
ATOM     60  C   UNL     1       3.653   1.708  16.018  1.00  0.00     0.012 A 
ATOM     61  C   UNL     1       5.928   2.106  15.257  1.00  0.00     0.148 A 
ATOM     62  C   UNL     1       3.650   2.935  16.682  1.00  0.00     0.002 A 
ATOM     63  C   UNL     1       5.935   3.306  15.960  1.00  0.00     0.091 A 
ATOM     64  F   UNL     1       6.987   1.702  14.541  1.00  0.00    -0.205 F 
ATOM     65  C   UNL     1       4.793   3.729  16.660  1.00  0.00     0.022 A 
BRANCH  63  66
ATOM     66  S   UNL     1       7.383   4.366  16.062  1.00  0.00     0.127 S 
ATOM     67  O   UNL     1       6.961   5.519  15.268  1.00  0.00    -0.237 OA
ATOM     68  O   UNL     1       7.477   4.620  17.501  1.00  0.00    -0.237 OA
ATOM     69  O   UNL     1       8.486   3.596  15.507  1.00  0.00    -0.744 OA
ENDBRANCH  63  66
ENDBRANCH  45  59
BRANCH  46  70
ATOM     70  C   UNL     1       4.584  -7.237  10.095  1.00  0.00     0.023 A 
ATOM     71  C   UNL     1       4.088  -8.429  10.657  1.00  0.00     0.012 A 
ATOM     72  C   UNL     1       5.059  -7.251   8.768  1.00  0.00     0.148 A 
ATOM     73  C   UNL     1       4.093  -9.618   9.925  1.00  0.00     0.002 A 
ATOM     74  C   UNL     1       5.005  -8.425   8.025  1.00  0.00     0.091 A 
ATOM     75  F   UNL     1       5.543  -6.111   8.256  1.00  0.00    -0.205 F 
ATOM     76  C   UNL     1       4.539  -9.613   8.606  1.00  0.00     0.022 A 
BRANCH  74  77
ATOM     77  S   UNL     1       5.431  -8.471   6.280  1.00  0.00     0.127 S 
ATOM     78  O   UNL     1       6.665  -9.263   6.297  1.00  0.00    -0.237 OA
ATOM     79  O   UNL     1       4.271  -9.162   5.707  1.00  0.00    -0.237 OA
ATOM     80  O   UNL     1       5.572  -7.091   5.867  1.00  0.00    -0.744 OA
ENDBRANCH  74  77
ENDBRANCH  46  70
BRANCH  58  81
ATOM     81  C   UNL     1       7.886  -5.204  15.905  1.00  0.00     0.023 A 
ATOM     82  C   UNL     1       9.196  -5.485  15.468  1.00  0.00     0.012 A 
ATOM     83  C   UNL     1       7.516  -5.529  17.225  1.00  0.00     0.148 A 
ATOM     84  C   UNL     1      10.107  -6.117  16.314  1.00  0.00     0.002 A 
ATOM     85  C   UNL     1       8.445  -6.110  18.080  1.00  0.00     0.091 A 
ATOM     86  F   UNL     1       6.261  -5.270  17.620  1.00  0.00    -0.205 F 
ATOM     87  C   UNL     1       9.736  -6.419  17.622  1.00  0.00     0.022 A 
BRANCH  85  88
ATOM     88  S   UNL     1       8.087  -6.444  19.808  1.00  0.00     0.127 S 
ATOM     89  O   UNL     1       7.971  -7.902  19.812  1.00  0.00    -0.237 OA
ATOM     90  O   UNL     1       9.280  -5.926  20.478  1.00  0.00    -0.237 OA
ATOM     91  O   UNL     1       6.861  -5.718  20.112  1.00  0.00    -0.744 OA
ENDBRANCH  85  88
ENDBRANCH  58  81
ENDBRANCH  32  33
ENDBRANCH  24  27
ENDBRANCH  22  23
ENDBRANCH   1  22
TORSDOF 15
