REMARK SMILES Cc1cscc1C(=O)N1C[C@@H](C(=O)NCCCNC(=O)c2ccc(-c3c4nc(c(-c5cccc(S(=O)(=O)[O-])c5F)c5ccc([nH]5)c(-c5cccc(S(=O)(=O)[O-])c5F)c5nc(c(-c6cccc(S(=O)(=O)[O-])c6F)c6ccc3[nH]6)C=C5)C=C4)cc2)Oc2ccccc21
REMARK SMILES IDX 16 1 15 2 14 3 12 4 13 5 11 7 9 8 10 9 90 10 85 11 89 12
REMARK SMILES IDX 84 13 86 14 88 15 87 16 7 17 8 18 6 19 1 20 2 21 3 22 4 23
REMARK SMILES IDX 5 24 17 25 18 26 19 27 20 29 21 30 22 31 83 32 23 33 82 34
REMARK SMILES IDX 24 35 25 36 26 37 76 38 27 39 81 40 75 41 77 42 28 43 80 44
REMARK SMILES IDX 74 45 73 46 29 48 61 49 41 50 60 51 42 52 45 53 59 54 78 55
REMARK SMILES IDX 43 56 44 57 58 59 79 60 46 61 30 62 31 63 39 64 32 65 34 66
REMARK SMILES IDX 40 67 33 68 35 69 36 70 37 71 38 72 62 73 63 74 71 75 64 76
REMARK SMILES IDX 66 77 72 78 65 79 67 80 68 81 69 82 70 83 47 84 48 85 56 86
REMARK SMILES IDX 49 87 51 88 57 89 50 90 52 91 53 92 54 93 55 94
REMARK H PARENT 14 6 18 28 77 47 45 58
REMARK Flexibility Score: inf
ROOT
ATOM      1  C   UNL     1       5.783   7.054  -0.740  1.00  0.00     0.042 C 
ENDROOT
BRANCH   1   2
ATOM      2  C   UNL     1       5.190   5.671  -0.527  1.00  0.00     0.118 C 
BRANCH   2   3
ATOM      3  N   UNL     1       4.345   5.216  -1.614  1.00  0.00    -0.353 N 
ATOM      4  C   UNL     1       3.948   3.956  -1.939  1.00  0.00     0.262 C 
ATOM      5  O   UNL     1       3.093   3.855  -2.829  1.00  0.00    -0.271 OA
ATOM      6  H   UNL     1       4.007   5.926  -2.206  1.00  0.00     0.163 HD
BRANCH   4   7
ATOM      7  C   UNL     1       4.555   2.679  -1.306  1.00  0.00     0.281 C 
ATOM      8  N   UNL     1       2.767   2.136   0.314  1.00  0.00    -0.301 N 
ATOM      9  C   UNL     1       3.419   1.716  -0.933  1.00  0.00     0.181 C 
ATOM     10  C   UNL     1       3.641   2.691   1.298  1.00  0.00     0.086 A 
ATOM     11  C   UNL     1       4.995   2.878   0.989  1.00  0.00     0.144 A 
ATOM     12  C   UNL     1       3.210   2.997   2.596  1.00  0.00     0.030 A 
ATOM     13  O   UNL     1       5.522   2.717  -0.268  1.00  0.00    -0.477 OA
ATOM     14  C   UNL     1       5.902   3.311   1.962  1.00  0.00     0.049 A 
ATOM     15  C   UNL     1       4.109   3.470   3.557  1.00  0.00     0.002 A 
ATOM     16  C   UNL     1       5.456   3.617   3.244  1.00  0.00     0.004 A 
BRANCH   8  17
ATOM     17  C   UNL     1       1.384   2.131   0.468  1.00  0.00     0.259 C 
ATOM     18  O   UNL     1       0.776   3.054   1.022  1.00  0.00    -0.269 OA
BRANCH  17  19
ATOM     19  C   UNL     1       0.628   0.964  -0.016  1.00  0.00     0.053 A 
ATOM     20  C   UNL     1       2.270  -1.049   0.465  1.00  0.00     0.046 C 
ATOM     21  C   UNL     1       0.987  -0.446  -0.006  1.00  0.00    -0.028 A 
ATOM     22  C   UNL     1      -0.063  -1.230  -0.456  1.00  0.00     0.069 A 
ATOM     23  S   UNL     1      -1.454  -0.333  -0.852  1.00  0.00    -0.151 S 
ATOM     24  C   UNL     1      -0.685   1.126  -0.433  1.00  0.00     0.079 A 
ENDBRANCH  17  19
ENDBRANCH   8  17
ENDBRANCH   4   7
ENDBRANCH   2   3
ENDBRANCH   1   2
BRANCH   1  25
ATOM     25  C   UNL     1       4.774   8.182  -0.899  1.00  0.00     0.118 C 
BRANCH  25  26
ATOM     26  N   UNL     1       4.041   8.498   0.319  1.00  0.00    -0.352 N 
ATOM     27  C   UNL     1       4.007   9.663   1.054  1.00  0.00     0.251 C 
ATOM     28  H   UNL     1       3.483   7.767   0.672  1.00  0.00     0.163 HD
ATOM     29  O   UNL     1       3.393   9.694   2.119  1.00  0.00    -0.269 OA
BRANCH  27  30
ATOM     30  C   UNL     1       4.739  10.866   0.594  1.00  0.00     0.039 A 
ATOM     31  C   UNL     1       5.494  11.594   1.520  1.00  0.00     0.014 A 
ATOM     32  C   UNL     1       4.703  11.272  -0.741  1.00  0.00     0.014 A 
ATOM     33  C   UNL     1       6.287  12.663   1.087  1.00  0.00     0.010 A 
ATOM     34  C   UNL     1       5.565  12.271  -1.185  1.00  0.00     0.010 A 
ATOM     35  C   UNL     1       6.369  12.978  -0.279  1.00  0.00    -0.014 A 
BRANCH  35  36
ATOM     36  C   UNL     1       7.287  14.030  -0.791  1.00  0.00     0.031 A 
ATOM     37  C   UNL     1       6.736  15.208  -1.550  1.00  0.00     0.074 A 
ATOM     38  C   UNL     1       8.622  13.869  -0.681  1.00  0.00     0.049 A 
ATOM     39  N   UNL     1       7.378  16.151  -2.190  1.00  0.00    -0.248 NA
ATOM     40  C   UNL     1       5.270  15.319  -1.636  1.00  0.00     0.031 C 
ATOM     41  C   UNL     1       9.291  12.729  -0.049  1.00  0.00     0.029 A 
ATOM     42  N   UNL     1       9.658  14.652  -1.126  1.00  0.00    -0.354 N 
ATOM     43  C   UNL     1       6.401  16.927  -2.802  1.00  0.00     0.074 A 
ATOM     44  C   UNL     1       5.123  16.334  -2.476  1.00  0.00     0.031 C 
ATOM     45  C   UNL     1      10.621  12.892  -0.139  1.00  0.00     0.029 A 
ATOM     46  C   UNL     1      10.903  14.131  -0.856  1.00  0.00     0.049 A 
ATOM     47  H   UNL     1       9.524  15.507  -1.595  1.00  0.00     0.167 HD
ATOM     48  C   UNL     1       6.548  18.052  -3.541  1.00  0.00     0.034 A 
ATOM     49  C   UNL     1      12.133  14.598  -1.151  1.00  0.00     0.034 A 
ATOM     50  C   UNL     1       7.808  18.698  -3.782  1.00  0.00     0.049 A 
ATOM     51  C   UNL     1      12.264  15.909  -1.875  1.00  0.00     0.074 A 
ATOM     52  C   UNL     1       8.050  19.897  -4.430  1.00  0.00     0.029 A 
ATOM     53  N   UNL     1       9.037  18.211  -3.368  1.00  0.00    -0.354 N 
ATOM     54  N   UNL     1      11.320  16.704  -2.317  1.00  0.00    -0.248 NA
ATOM     55  C   UNL     1      13.628  16.407  -2.112  1.00  0.00     0.031 C 
ATOM     56  C   UNL     1       9.428  20.141  -4.394  1.00  0.00     0.029 A 
ATOM     57  C   UNL     1      10.041  19.090  -3.732  1.00  0.00     0.049 A 
ATOM     58  H   UNL     1       9.175  17.363  -2.886  1.00  0.00     0.167 HD
ATOM     59  C   UNL     1      11.972  17.808  -2.853  1.00  0.00     0.074 A 
ATOM     60  C   UNL     1      13.391  17.590  -2.665  1.00  0.00     0.031 C 
ATOM     61  C   UNL     1      11.443  18.894  -3.469  1.00  0.00     0.034 A 
BRANCH  48  62
ATOM     62  C   UNL     1       5.300  18.707  -4.066  1.00  0.00     0.023 A 
ATOM     63  C   UNL     1       4.480  19.433  -3.178  1.00  0.00     0.012 A 
ATOM     64  C   UNL     1       4.960  18.649  -5.431  1.00  0.00     0.148 A 
ATOM     65  C   UNL     1       3.326  20.066  -3.634  1.00  0.00     0.002 A 
ATOM     66  C   UNL     1       3.826  19.314  -5.885  1.00  0.00     0.091 A 
ATOM     67  F   UNL     1       5.736  17.931  -6.257  1.00  0.00    -0.205 F 
ATOM     68  C   UNL     1       3.004  20.015  -4.987  1.00  0.00     0.022 A 
BRANCH  66  69
ATOM     69  S   UNL     1       3.374  19.357  -7.624  1.00  0.00     0.127 S 
ATOM     70  O   UNL     1       2.329  18.337  -7.684  1.00  0.00    -0.237 OA
ATOM     71  O   UNL     1       2.894  20.730  -7.790  1.00  0.00    -0.237 OA
ATOM     72  O   UNL     1       4.596  19.057  -8.354  1.00  0.00    -0.744 OA
ENDBRANCH  66  69
ENDBRANCH  48  62
BRANCH  49  73
ATOM     73  C   UNL     1      13.338  13.868  -0.665  1.00  0.00     0.023 A 
ATOM     74  C   UNL     1      14.073  14.407   0.408  1.00  0.00     0.012 A 
ATOM     75  C   UNL     1      13.736  12.636  -1.218  1.00  0.00     0.148 A 
ATOM     76  C   UNL     1      15.196  13.747   0.906  1.00  0.00     0.002 A 
ATOM     77  C   UNL     1      14.828  11.959  -0.685  1.00  0.00     0.091 A 
ATOM     78  F   UNL     1      13.038  12.144  -2.252  1.00  0.00    -0.205 F 
ATOM     79  C   UNL     1      15.567  12.518   0.368  1.00  0.00     0.022 A 
BRANCH  77  80
ATOM     80  S   UNL     1      15.277  10.311  -1.244  1.00  0.00     0.127 S 
ATOM     81  O   UNL     1      16.325  10.597  -2.219  1.00  0.00    -0.237 OA
ATOM     82  O   UNL     1      15.743   9.676  -0.009  1.00  0.00    -0.237 OA
ATOM     83  O   UNL     1      14.043   9.743  -1.770  1.00  0.00    -0.744 OA
ENDBRANCH  77  80
ENDBRANCH  49  73
BRANCH  61  84
ATOM     84  C   UNL     1      12.392  19.950  -3.963  1.00  0.00     0.023 A 
ATOM     85  C   UNL     1      13.102  19.732  -5.160  1.00  0.00     0.012 A 
ATOM     86  C   UNL     1      12.511  21.185  -3.300  1.00  0.00     0.148 A 
ATOM     87  C   UNL     1      13.930  20.725  -5.681  1.00  0.00     0.002 A 
ATOM     88  C   UNL     1      13.312  22.183  -3.844  1.00  0.00     0.091 A 
ATOM     89  F   UNL     1      11.848  21.364  -2.148  1.00  0.00    -0.205 F 
ATOM     90  C   UNL     1      14.026  21.953  -5.031  1.00  0.00     0.022 A 
BRANCH  88  91
ATOM     91  S   UNL     1      13.417  23.818  -3.106  1.00  0.00     0.127 S 
ATOM     92  O   UNL     1      14.643  23.714  -2.318  1.00  0.00    -0.237 OA
ATOM     93  O   UNL     1      13.518  24.692  -4.276  1.00  0.00    -0.237 OA
ATOM     94  O   UNL     1      12.185  23.981  -2.345  1.00  0.00    -0.744 OA
ENDBRANCH  88  91
ENDBRANCH  61  84
ENDBRANCH  35  36
ENDBRANCH  27  30
ENDBRANCH  25  26
ENDBRANCH   1  25
TORSDOF 15
