REMARK SMILES O=C(NCCCNC(=O)c1ccc(-c2c3nc(c(-c4cccc(S(=O)(=O)[O-])c4F)c4ccc([nH]4)c(-c4cccc(S(=O)(=O)[O-])c4F)c4nc(c(-c5cccc(S(=O)(=O)[O-])c5F)c5ccc2[nH]5)C=C4)C=C3)cc1)C1=Cc2c(ccc(Cl)c2-c2ccccc2)O[C@H]1C(F)(F)F
REMARK SMILES IDX 6 1 5 2 4 3 3 4 1 5 2 6 73 8 74 9 89 10 75 11 88 12 76 13
REMARK SMILES IDX 81 14 77 15 79 16 78 17 80 18 90 19 91 20 92 21 93 22 82 23
REMARK SMILES IDX 83 24 87 25 84 26 86 27 85 28 7 29 8 30 9 32 10 33 11 34
REMARK SMILES IDX 72 35 12 36 71 37 13 38 14 39 15 40 65 41 16 42 70 43 64 44
REMARK SMILES IDX 66 45 17 46 69 47 63 48 62 49 18 51 50 52 30 53 49 54 31 55
REMARK SMILES IDX 34 56 48 57 67 58 32 59 33 60 47 62 68 63 35 64 19 65 20 66
REMARK SMILES IDX 28 67 21 68 23 69 29 70 22 71 24 72 25 73 26 74 27 75 51 76
REMARK SMILES IDX 52 77 60 78 53 79 55 80 61 81 54 82 56 83 57 84 58 85 59 86
REMARK SMILES IDX 36 87 37 88 45 89 38 90 40 91 46 92 39 93 41 94 42 95 43 96
REMARK SMILES IDX 44 97
REMARK H PARENT 3 7 7 31 66 50 34 61
REMARK Flexibility Score: inf
ROOT
ATOM      1  C   UNL     1       3.746   2.846  -2.855  1.00  0.00     0.118 C 
ENDROOT
BRANCH   1   2
ATOM      2  C   UNL     1       4.226   1.401  -2.839  1.00  0.00     0.042 C 
BRANCH   2   3
ATOM      3  C   UNL     1       4.001   0.692  -1.516  1.00  0.00     0.118 C 
BRANCH   3   4
ATOM      4  N   UNL     1       2.647   0.230  -1.269  1.00  0.00    -0.352 N 
ATOM      5  O   UNL     1       1.017  -0.946  -0.252  1.00  0.00    -0.270 OA
ATOM      6  C   UNL     1       2.211  -0.667  -0.333  1.00  0.00     0.251 C 
ATOM      7  H   UNL     1       1.951   0.612  -1.852  1.00  0.00     0.163 HD
BRANCH   6   8
ATOM      8  C   UNL     1       3.165  -1.306   0.603  1.00  0.00     0.067 C 
ATOM      9  C   UNL     1       3.479  -0.630   1.717  1.00  0.00     0.026 C 
ATOM     10  C   UNL     1       4.119  -2.355   0.112  1.00  0.00     0.314 C 
ATOM     11  C   UNL     1       4.818  -0.003   1.536  1.00  0.00     0.027 A 
ATOM     12  O   UNL     1       5.526  -1.952   0.260  1.00  0.00    -0.475 OA
ATOM     13  C   UNL     1       5.771  -0.703   0.780  1.00  0.00     0.128 A 
ATOM     14  C   UNL     1       5.025   1.336   1.957  1.00  0.00     0.011 A 
ATOM     15  C   UNL     1       6.957  -0.073   0.422  1.00  0.00     0.049 A 
ATOM     16  C   UNL     1       6.216   1.960   1.560  1.00  0.00     0.049 A 
ATOM     17  C   UNL     1       7.167   1.262   0.794  1.00  0.00     0.025 A 
ATOM     18  Cl  UNL     1       6.536   3.614   1.935  1.00  0.00    -0.084 Cl
BRANCH  10  19
ATOM     19  C   UNL     1       3.862  -3.707   0.813  1.00  0.00     0.429 C 
ATOM     20  F   UNL     1       2.934  -3.628   1.799  1.00  0.00    -0.167 F 
ATOM     21  F   UNL     1       3.422  -4.639  -0.065  1.00  0.00    -0.167 F 
ATOM     22  F   UNL     1       4.983  -4.203   1.392  1.00  0.00    -0.167 F 
ENDBRANCH  10  19
BRANCH  14  23
ATOM     23  C   UNL     1       3.902   1.993   2.655  1.00  0.00    -0.016 A 
ATOM     24  C   UNL     1       2.955   2.723   1.916  1.00  0.00     0.009 A 
ATOM     25  C   UNL     1       3.571   1.587   3.959  1.00  0.00     0.009 A 
ATOM     26  C   UNL     1       1.670   2.927   2.419  1.00  0.00     0.001 A 
ATOM     27  C   UNL     1       2.281   1.783   4.455  1.00  0.00     0.001 A 
ATOM     28  C   UNL     1       1.325   2.426   3.673  1.00  0.00     0.000 A 
ENDBRANCH  14  23
ENDBRANCH   6   8
ENDBRANCH   3   4
ENDBRANCH   2   3
ENDBRANCH   1   2
BRANCH   1  29
ATOM     29  N   UNL     1       4.533   3.756  -2.021  1.00  0.00    -0.352 N 
ATOM     30  C   UNL     1       5.494   4.700  -2.308  1.00  0.00     0.251 C 
ATOM     31  H   UNL     1       4.334   3.678  -1.060  1.00  0.00     0.163 HD
ATOM     32  O   UNL     1       6.031   5.296  -1.373  1.00  0.00    -0.269 OA
BRANCH  30  33
ATOM     33  C   UNL     1       5.938   4.980  -3.692  1.00  0.00     0.039 A 
ATOM     34  C   UNL     1       7.289   5.265  -3.930  1.00  0.00     0.014 A 
ATOM     35  C   UNL     1       5.052   4.968  -4.763  1.00  0.00     0.014 A 
ATOM     36  C   UNL     1       7.757   5.411  -5.241  1.00  0.00     0.010 A 
ATOM     37  C   UNL     1       5.537   4.970  -6.065  1.00  0.00     0.010 A 
ATOM     38  C   UNL     1       6.896   5.192  -6.326  1.00  0.00    -0.014 A 
BRANCH  38  39
ATOM     39  C   UNL     1       7.366   5.179  -7.739  1.00  0.00     0.031 A 
ATOM     40  C   UNL     1       6.696   6.063  -8.763  1.00  0.00     0.074 A 
ATOM     41  C   UNL     1       8.285   4.273  -8.134  1.00  0.00     0.049 A 
ATOM     42  N   UNL     1       6.810   6.054 -10.066  1.00  0.00    -0.248 NA
ATOM     43  C   UNL     1       5.725   7.049  -8.257  1.00  0.00     0.031 C 
ATOM     44  C   UNL     1       8.946   3.296  -7.265  1.00  0.00     0.029 A 
ATOM     45  N   UNL     1       8.798   4.001  -9.379  1.00  0.00    -0.354 N 
ATOM     46  C   UNL     1       5.878   6.973 -10.534  1.00  0.00     0.074 A 
ATOM     47  C   UNL     1       5.179   7.493  -9.380  1.00  0.00     0.031 C 
ATOM     48  C   UNL     1       9.782   2.543  -7.998  1.00  0.00     0.029 A 
ATOM     49  C   UNL     1       9.690   2.953  -9.394  1.00  0.00     0.049 A 
ATOM     50  H   UNL     1       8.550   4.509 -10.186  1.00  0.00     0.167 HD
ATOM     51  C   UNL     1       5.647   7.380 -11.806  1.00  0.00     0.034 A 
ATOM     52  C   UNL     1      10.352   2.378 -10.418  1.00  0.00     0.034 A 
ATOM     53  C   UNL     1       6.413   6.937 -12.937  1.00  0.00     0.049 A 
ATOM     54  C   UNL     1      10.154   2.920 -11.807  1.00  0.00     0.074 A 
ATOM     55  C   UNL     1       6.341   7.369 -14.249  1.00  0.00     0.029 A 
ATOM     56  N   UNL     1       7.407   5.972 -12.887  1.00  0.00    -0.354 N 
ATOM     57  N   UNL     1       9.368   3.890 -12.210  1.00  0.00    -0.248 NA
ATOM     58  C   UNL     1      10.957   2.314 -12.879  1.00  0.00     0.031 C 
ATOM     59  C   UNL     1       7.292   6.664 -14.994  1.00  0.00     0.029 A 
ATOM     60  C   UNL     1       7.964   5.800 -14.142  1.00  0.00     0.049 A 
ATOM     61  H   UNL     1       7.678   5.481 -12.078  1.00  0.00     0.167 HD
ATOM     62  C   UNL     1       9.608   4.035 -13.571  1.00  0.00     0.074 A 
ATOM     63  C   UNL     1      10.629   3.067 -13.920  1.00  0.00     0.031 C 
ATOM     64  C   UNL     1       9.025   4.879 -14.456  1.00  0.00     0.034 A 
BRANCH  51  65
ATOM     65  C   UNL     1       4.573   8.415 -12.026  1.00  0.00     0.023 A 
ATOM     66  C   UNL     1       4.783   9.738 -11.585  1.00  0.00     0.012 A 
ATOM     67  C   UNL     1       3.380   8.096 -12.704  1.00  0.00     0.148 A 
ATOM     68  C   UNL     1       3.806  10.715 -11.771  1.00  0.00     0.002 A 
ATOM     69  C   UNL     1       2.430   9.087 -12.928  1.00  0.00     0.091 A 
ATOM     70  F   UNL     1       3.186   6.830 -13.100  1.00  0.00    -0.205 F 
ATOM     71  C   UNL     1       2.636  10.392 -12.451  1.00  0.00     0.022 A 
BRANCH  69  72
ATOM     72  S   UNL     1       0.925   8.794 -13.865  1.00  0.00     0.127 S 
ATOM     73  O   UNL     1      -0.087   8.811 -12.809  1.00  0.00    -0.237 OA
ATOM     74  O   UNL     1       0.889   9.950 -14.762  1.00  0.00    -0.237 OA
ATOM     75  O   UNL     1       1.112   7.514 -14.533  1.00  0.00    -0.744 OA
ENDBRANCH  69  72
ENDBRANCH  51  65
BRANCH  52  76
ATOM     76  C   UNL     1      11.333   1.286 -10.153  1.00  0.00     0.023 A 
ATOM     77  C   UNL     1      12.709   1.556 -10.291  1.00  0.00     0.012 A 
ATOM     78  C   UNL     1      10.925   0.005  -9.736  1.00  0.00     0.148 A 
ATOM     79  C   UNL     1      13.659   0.562 -10.051  1.00  0.00     0.002 A 
ATOM     80  C   UNL     1      11.879  -0.965  -9.446  1.00  0.00     0.091 A 
ATOM     81  F   UNL     1       9.611  -0.238  -9.620  1.00  0.00    -0.205 F 
ATOM     82  C   UNL     1      13.245  -0.694  -9.619  1.00  0.00     0.022 A 
BRANCH  80  83
ATOM     83  S   UNL     1      11.442  -2.565  -8.753  1.00  0.00     0.127 S 
ATOM     84  O   UNL     1      11.639  -3.451  -9.898  1.00  0.00    -0.237 OA
ATOM     85  O   UNL     1      12.428  -2.713  -7.682  1.00  0.00    -0.237 OA
ATOM     86  O   UNL     1      10.070  -2.424  -8.285  1.00  0.00    -0.744 OA
ENDBRANCH  80  83
ENDBRANCH  52  76
BRANCH  64  87
ATOM     87  C   UNL     1       9.498   4.831 -15.884  1.00  0.00     0.023 A 
ATOM     88  C   UNL     1       9.117   3.755 -16.709  1.00  0.00     0.012 A 
ATOM     89  C   UNL     1      10.247   5.892 -16.428  1.00  0.00     0.148 A 
ATOM     90  C   UNL     1       9.496   3.724 -18.050  1.00  0.00     0.002 A 
ATOM     91  C   UNL     1      10.582   5.877 -17.777  1.00  0.00     0.091 A 
ATOM     92  F   UNL     1      10.617   6.896 -15.619  1.00  0.00    -0.205 F 
ATOM     93  C   UNL     1      10.216   4.790 -18.586  1.00  0.00     0.022 A 
BRANCH  91  94
ATOM     94  S   UNL     1      11.423   7.251 -18.571  1.00  0.00     0.127 S 
ATOM     95  O   UNL     1      12.774   6.718 -18.735  1.00  0.00    -0.237 OA
ATOM     96  O   UNL     1      10.670   7.400 -19.817  1.00  0.00    -0.237 OA
ATOM     97  O   UNL     1      11.300   8.377 -17.655  1.00  0.00    -0.744 OA
ENDBRANCH  91  94
ENDBRANCH  64  87
ENDBRANCH  38  39
ENDBRANCH  30  33
ENDBRANCH   1  29
TORSDOF 15
