REMARK SMILES CC(C)[NH2+][C@@]1(C(=O)NCCCNC(=O)c2ccc(-c3c4nc(c(-c5cccc(S(=O)(=O)[O-])c5F)c5ccc([nH]5)c(-c5cccc(S(=O)(=O)[O-])c5F)c5nc(c(-c6cccc(S(=O)(=O)[O-])c6F)c6ccc3[nH]6)C=C5)C=C4)cc2)CCC[C@@H]([NH+]2CCS(=O)CC2)C1
REMARK SMILES IDX 10 1 9 2 8 3 6 4 7 5 5 7 78 8 89 9 79 10 81 11 80 12 4 13
REMARK SMILES IDX 2 16 1 17 3 18 82 19 83 20 88 21 84 23 87 24 85 25 86 26
REMARK SMILES IDX 11 27 12 28 13 29 14 31 15 32 16 33 77 34 17 35 76 36 18 37
REMARK SMILES IDX 19 38 20 39 70 40 21 41 75 42 69 43 71 44 22 45 74 46 68 47
REMARK SMILES IDX 67 48 23 50 55 51 35 52 54 53 36 54 39 55 53 56 72 57 37 58
REMARK SMILES IDX 38 59 52 61 73 62 40 63 24 64 25 65 33 66 26 67 28 68 34 69
REMARK SMILES IDX 27 70 29 71 30 72 31 73 32 74 56 75 57 76 65 77 58 78 60 79
REMARK SMILES IDX 66 80 59 81 61 82 62 83 63 84 64 85 41 86 42 87 50 88 43 89
REMARK SMILES IDX 45 90 51 91 44 92 46 93 47 94 48 95 49 96
REMARK H PARENT 8 6 4 14 4 15 82 22 12 30 71 49 39 60
REMARK Flexibility Score: inf
ROOT
ATOM      1  C   UNL     1      -4.181   5.825   0.011  1.00  0.00     0.042 C 
ENDROOT
BRANCH   1   2
ATOM      2  C   UNL     1      -4.077   4.712   1.051  1.00  0.00     0.118 C 
BRANCH   2   3
ATOM      3  N   UNL     1      -3.900   3.405   0.452  1.00  0.00    -0.351 N 
ATOM      4  C   UNL     1      -2.873   2.545   0.269  1.00  0.00     0.281 C 
ATOM      5  O   UNL     1      -3.208   1.536  -0.384  1.00  0.00    -0.268 OA
ATOM      6  H   UNL     1      -4.742   3.054   0.083  1.00  0.00     0.163 HD
BRANCH   4   7
ATOM      7  C   UNL     1      -1.334   2.693   0.712  1.00  0.00     0.181 C 
ATOM      8  C   UNL     1      -1.110   2.981   2.207  1.00  0.00     0.079 C 
ATOM      9  C   UNL     1      -0.609   3.690  -0.186  1.00  0.00     0.144 C 
ATOM     10  C   UNL     1      -0.964   4.444   2.640  1.00  0.00     0.013 C 
ATOM     11  C   UNL     1      -0.787   5.160   0.146  1.00  0.00     0.190 C 
ATOM     12  C   UNL     1      -0.372   5.413   1.609  1.00  0.00     0.065 C 
BRANCH   7  13
ATOM     13  N   UNL     1      -0.800   1.297   0.449  1.00  0.00    -0.331 N 
ATOM     14  H   UNL     1      -1.089   0.730   1.246  1.00  0.00     0.347 HD
ATOM     15  H   UNL     1      -1.182   1.101  -0.476  1.00  0.00     0.347 HD
BRANCH  13  16
ATOM     16  C   UNL     1       0.624   1.018   0.248  1.00  0.00     0.176 C 
ATOM     17  C   UNL     1       0.801  -0.489   0.493  1.00  0.00     0.075 C 
ATOM     18  C   UNL     1       1.178   1.288  -1.162  1.00  0.00     0.075 C 
ENDBRANCH  13  16
ENDBRANCH   7  13
BRANCH  11  19
ATOM     19  N   UNL     1      -0.213   6.099  -0.835  1.00  0.00    -0.331 N 
ATOM     20  C   UNL     1       1.176   6.540  -0.714  1.00  0.00     0.276 C 
ATOM     21  C   UNL     1      -0.571   5.908  -2.253  1.00  0.00     0.276 C 
ATOM     22  H   UNL     1      -0.751   6.887  -0.474  1.00  0.00     0.348 HD
ATOM     23  C   UNL     1       2.205   5.537  -1.207  1.00  0.00     0.166 C 
ATOM     24  C   UNL     1       0.284   4.943  -3.081  1.00  0.00     0.166 C 
ATOM     25  S   UNL     1       2.070   5.202  -2.979  1.00  0.00     0.032 S 
ATOM     26  O   UNL     1       2.420   6.449  -3.727  1.00  0.00    -0.259 OA
ENDBRANCH  11  19
ENDBRANCH   4   7
ENDBRANCH   2   3
ENDBRANCH   1   2
BRANCH   1  27
ATOM     27  C   UNL     1      -5.601   6.232  -0.327  1.00  0.00     0.118 C 
BRANCH  27  28
ATOM     28  N   UNL     1      -6.256   6.918   0.779  1.00  0.00    -0.352 N 
ATOM     29  C   UNL     1      -6.638   8.232   0.923  1.00  0.00     0.251 C 
ATOM     30  H   UNL     1      -6.460   6.346   1.554  1.00  0.00     0.163 HD
ATOM     31  O   UNL     1      -6.977   8.632   2.034  1.00  0.00    -0.269 OA
BRANCH  29  32
ATOM     32  C   UNL     1      -6.635   9.164  -0.230  1.00  0.00     0.039 A 
ATOM     33  C   UNL     1      -6.324  10.511  -0.016  1.00  0.00     0.014 A 
ATOM     34  C   UNL     1      -6.973   8.734  -1.513  1.00  0.00     0.014 A 
ATOM     35  C   UNL     1      -6.301  11.402  -1.094  1.00  0.00     0.010 A 
ATOM     36  C   UNL     1      -6.825   9.588  -2.599  1.00  0.00     0.010 A 
ATOM     37  C   UNL     1      -6.519  10.941  -2.401  1.00  0.00    -0.014 A 
BRANCH  37  38
ATOM     38  C   UNL     1      -6.472  11.853  -3.574  1.00  0.00     0.031 A 
ATOM     39  C   UNL     1      -7.682  11.999  -4.464  1.00  0.00     0.074 A 
ATOM     40  C   UNL     1      -5.321  12.479  -3.889  1.00  0.00     0.049 A 
ATOM     41  N   UNL     1      -7.814  12.679  -5.572  1.00  0.00    -0.248 NA
ATOM     42  C   UNL     1      -8.892  11.250  -4.079  1.00  0.00     0.031 C 
ATOM     43  C   UNL     1      -4.058  12.351  -3.158  1.00  0.00     0.029 A 
ATOM     44  N   UNL     1      -5.019  13.329  -4.923  1.00  0.00    -0.354 N 
ATOM     45  C   UNL     1      -9.095  12.403  -6.038  1.00  0.00     0.074 A 
ATOM     46  C   UNL     1      -9.686  11.458  -5.118  1.00  0.00     0.031 C 
ATOM     47  C   UNL     1      -3.124  13.106  -3.757  1.00  0.00     0.029 A 
ATOM     48  C   UNL     1      -3.707  13.742  -4.933  1.00  0.00     0.049 A 
ATOM     49  H   UNL     1      -5.679  13.617  -5.595  1.00  0.00     0.167 HD
ATOM     50  C   UNL     1      -9.738  12.915  -7.114  1.00  0.00     0.034 A 
ATOM     51  C   UNL     1      -3.046  14.537  -5.797  1.00  0.00     0.034 A 
ATOM     52  C   UNL     1      -9.167  13.899  -7.991  1.00  0.00     0.049 A 
ATOM     53  C   UNL     1      -3.798  15.133  -6.956  1.00  0.00     0.074 A 
ATOM     54  C   UNL     1      -9.765  14.559  -9.049  1.00  0.00     0.029 A 
ATOM     55  N   UNL     1      -7.862  14.361  -7.915  1.00  0.00    -0.354 N 
ATOM     56  N   UNL     1      -5.057  14.982  -7.289  1.00  0.00    -0.248 NA
ATOM     57  C   UNL     1      -3.048  16.038  -7.839  1.00  0.00     0.031 C 
ATOM     58  C   UNL     1      -8.811  15.399  -9.632  1.00  0.00     0.029 A 
ATOM     59  C   UNL     1      -7.631  15.290  -8.914  1.00  0.00     0.049 A 
ATOM     60  H   UNL     1      -7.198  14.072  -7.248  1.00  0.00     0.167 HD
ATOM     61  C   UNL     1      -5.260  15.798  -8.395  1.00  0.00     0.074 A 
ATOM     62  C   UNL     1      -3.998  16.459  -8.662  1.00  0.00     0.031 C 
ATOM     63  C   UNL     1      -6.383  15.975  -9.133  1.00  0.00     0.034 A 
BRANCH  50  64
ATOM     64  C   UNL     1     -11.153  12.460  -7.370  1.00  0.00     0.023 A 
ATOM     65  C   UNL     1     -12.184  12.854  -6.492  1.00  0.00     0.012 A 
ATOM     66  C   UNL     1     -11.472  11.688  -8.504  1.00  0.00     0.148 A 
ATOM     67  C   UNL     1     -13.501  12.452  -6.714  1.00  0.00     0.002 A 
ATOM     68  C   UNL     1     -12.794  11.334  -8.746  1.00  0.00     0.091 A 
ATOM     69  F   UNL     1     -10.477  11.306  -9.318  1.00  0.00    -0.205 F 
ATOM     70  C   UNL     1     -13.807  11.703  -7.846  1.00  0.00     0.022 A 
BRANCH  68  71
ATOM     71  S   UNL     1     -13.306  10.440 -10.218  1.00  0.00     0.127 S 
ATOM     72  O   UNL     1     -13.693   9.146  -9.657  1.00  0.00    -0.237 OA
ATOM     73  O   UNL     1     -14.422  11.255 -10.698  1.00  0.00    -0.237 OA
ATOM     74  O   UNL     1     -12.147  10.417 -11.099  1.00  0.00    -0.744 OA
ENDBRANCH  68  71
ENDBRANCH  50  64
BRANCH  51  75
ATOM     75  C   UNL     1      -1.611  14.865  -5.565  1.00  0.00     0.023 A 
ATOM     76  C   UNL     1      -1.250  16.174  -5.188  1.00  0.00     0.012 A 
ATOM     77  C   UNL     1      -0.607  13.887  -5.690  1.00  0.00     0.148 A 
ATOM     78  C   UNL     1       0.087  16.511  -4.974  1.00  0.00     0.002 A 
ATOM     79  C   UNL     1       0.717  14.215  -5.421  1.00  0.00     0.091 A 
ATOM     80  F   UNL     1      -0.969  12.650  -6.059  1.00  0.00    -0.205 F 
ATOM     81  C   UNL     1       1.069  15.531  -5.081  1.00  0.00     0.022 A 
BRANCH  79  82
ATOM     82  S   UNL     1       2.031  12.992  -5.405  1.00  0.00     0.127 S 
ATOM     83  O   UNL     1       2.813  13.381  -6.574  1.00  0.00    -0.237 OA
ATOM     84  O   UNL     1       2.671  13.258  -4.116  1.00  0.00    -0.237 OA
ATOM     85  O   UNL     1       1.360  11.701  -5.491  1.00  0.00    -0.744 OA
ENDBRANCH  79  82
ENDBRANCH  51  75
BRANCH  63  86
ATOM     86  C   UNL     1      -6.320  16.953 -10.277  1.00  0.00     0.023 A 
ATOM     87  C   UNL     1      -5.598  16.628 -11.442  1.00  0.00     0.012 A 
ATOM     88  C   UNL     1      -7.040  18.162 -10.222  1.00  0.00     0.148 A 
ATOM     89  C   UNL     1      -5.566  17.508 -12.522  1.00  0.00     0.002 A 
ATOM     90  C   UNL     1      -7.048  19.009 -11.323  1.00  0.00     0.091 A 
ATOM     91  F   UNL     1      -7.707  18.460  -9.097  1.00  0.00    -0.205 F 
ATOM     92  C   UNL     1      -6.300  18.691 -12.468  1.00  0.00     0.022 A 
BRANCH  90  93
ATOM     93  S   UNL     1      -8.044  20.502 -11.382  1.00  0.00     0.127 S 
ATOM     94  O   UNL     1      -7.023  21.545 -11.302  1.00  0.00    -0.237 OA
ATOM     95  O   UNL     1      -8.698  20.386 -12.686  1.00  0.00    -0.237 OA
ATOM     96  O   UNL     1      -8.950  20.427 -10.244  1.00  0.00    -0.744 OA
ENDBRANCH  90  93
ENDBRANCH  63  86
ENDBRANCH  37  38
ENDBRANCH  29  32
ENDBRANCH  27  28
ENDBRANCH   1  27
TORSDOF 16
