REMARK SMILES C[C@@H](C(=O)NCCCNC(=O)c1ccc(-c2c3nc(c(-c4cccc(S(=O)(=O)[O-])c4F)c4ccc([nH]4)c(-c4cccc(S(=O)(=O)[O-])c4F)c4nc(c(-c5cccc(S(=O)(=O)[O-])c5F)c5ccc2[nH]5)C=C4)C=C3)cc1)[C@@H](C)C(=O)c1cc(Cl)c2c(c1)OCCCO2
REMARK SMILES IDX 3 1 4 2 5 3 2 5 1 6 75 7 76 8 77 9 78 10 79 11 80 12 85 13
REMARK SMILES IDX 81 14 84 15 82 16 83 17 86 18 87 19 88 20 90 22 89 23 6 25
REMARK SMILES IDX 7 26 8 27 9 28 10 29 11 31 12 32 13 33 74 34 14 35 73 36
REMARK SMILES IDX 15 37 16 38 17 39 67 40 18 41 72 42 66 43 68 44 19 45 71 46
REMARK SMILES IDX 65 47 64 48 20 50 52 51 32 52 51 53 33 54 36 55 50 56 69 57
REMARK SMILES IDX 34 58 35 59 49 61 70 62 37 63 21 64 22 65 30 66 23 67 25 68
REMARK SMILES IDX 31 69 24 70 26 71 27 72 28 73 29 74 53 75 54 76 62 77 55 78
REMARK SMILES IDX 57 79 63 80 56 81 58 82 59 83 60 84 61 85 38 86 39 87 47 88
REMARK SMILES IDX 40 89 42 90 48 91 41 92 43 93 44 94 45 95 46 96
REMARK H PARENT 5 4 9 30 68 49 36 60
REMARK Flexibility Score: 80.00
ROOT
ATOM      1  C   UNL     1       1.070  -2.268  -0.708  1.00  0.00     0.223 C 
ATOM      2  O   UNL     1       0.425  -3.283  -0.454  1.00  0.00    -0.275 OA
ATOM      3  N   UNL     1       2.414  -2.405  -0.867  1.00  0.00    -0.356 N 
ATOM      4  H   UNL     1       2.739  -3.332  -0.810  1.00  0.00     0.163 HD
ENDROOT
BRANCH   1   5
ATOM      5  C   UNL     1       0.405  -0.912  -0.919  1.00  0.00     0.086 C 
ATOM      6  C   UNL     1       0.728   0.007   0.269  1.00  0.00     0.019 C 
BRANCH   5   7
ATOM      7  C   UNL     1      -1.130  -1.077  -1.107  1.00  0.00     0.070 C 
ATOM      8  C   UNL     1      -1.809   0.276  -1.373  1.00  0.00     0.017 C 
BRANCH   7   9
ATOM      9  C   UNL     1      -1.601  -2.090  -2.187  1.00  0.00     0.166 C 
ATOM     10  O   UNL     1      -2.532  -2.869  -2.002  1.00  0.00    -0.294 OA
BRANCH   9  11
ATOM     11  C   UNL     1      -1.137  -1.902  -3.580  1.00  0.00     0.023 A 
ATOM     12  C   UNL     1      -2.025  -1.239  -4.440  1.00  0.00     0.036 A 
ATOM     13  C   UNL     1       0.190  -2.135  -3.944  1.00  0.00     0.062 A 
ATOM     14  C   UNL     1      -1.512  -0.541  -5.523  1.00  0.00     0.087 A 
ATOM     15  C   UNL     1       0.692  -1.424  -5.021  1.00  0.00     0.163 A 
ATOM     16  Cl  UNL     1      -2.555   0.448  -6.468  1.00  0.00    -0.080 Cl
ATOM     17  C   UNL     1      -0.131  -0.517  -5.692  1.00  0.00     0.179 A 
BRANCH  15  18
ATOM     18  O   UNL     1       2.017  -1.446  -5.355  1.00  0.00    -0.489 OA
BRANCH  18  19
ATOM     19  C   UNL     1       2.768  -0.537  -4.557  1.00  0.00     0.233 C 
BRANCH  19  20
ATOM     20  C   UNL     1       2.426   0.954  -4.675  1.00  0.00     0.083 CG0
ATOM     21  G   UNL     1       0.978   1.323  -4.986  1.00  0.00     0.000 G0
ENDBRANCH  19  20
ENDBRANCH  18  19
ENDBRANCH  15  18
BRANCH  17  22
ATOM     22  O   UNL     1       0.475   0.637  -6.159  1.00  0.00    -0.488 OA
BRANCH  22  23
ATOM     23  C   UNL     1       0.978   1.323  -4.986  1.00  0.00     0.233 CG0
ATOM     24  G   UNL     1       2.426   0.954  -4.675  1.00  0.00     0.000 G0
ENDBRANCH  22  23
ENDBRANCH  17  22
ENDBRANCH   9  11
ENDBRANCH   7   9
ENDBRANCH   5   7
ENDBRANCH   1   5
BRANCH   3  25
ATOM     25  C   UNL     1       3.450  -1.417  -1.107  1.00  0.00     0.117 C 
BRANCH  25  26
ATOM     26  C   UNL     1       4.375  -1.254   0.088  1.00  0.00     0.042 C 
BRANCH  26  27
ATOM     27  C   UNL     1       5.155  -2.517   0.427  1.00  0.00     0.118 C 
BRANCH  27  28
ATOM     28  N   UNL     1       6.064  -2.923  -0.638  1.00  0.00    -0.352 N 
ATOM     29  C   UNL     1       7.424  -3.100  -0.603  1.00  0.00     0.251 C 
ATOM     30  H   UNL     1       5.640  -3.095  -1.510  1.00  0.00     0.163 HD
ATOM     31  O   UNL     1       8.041  -3.262  -1.657  1.00  0.00    -0.269 OA
BRANCH  29  32
ATOM     32  C   UNL     1       8.145  -3.074   0.686  1.00  0.00     0.039 A 
ATOM     33  C   UNL     1       9.362  -2.395   0.770  1.00  0.00     0.014 A 
ATOM     34  C   UNL     1       7.620  -3.714   1.813  1.00  0.00     0.014 A 
ATOM     35  C   UNL     1      10.017  -2.301   1.999  1.00  0.00     0.010 A 
ATOM     36  C   UNL     1       8.224  -3.537   3.053  1.00  0.00     0.010 A 
ATOM     37  C   UNL     1       9.434  -2.838   3.159  1.00  0.00    -0.014 A 
BRANCH  37  38
ATOM     38  C   UNL     1      10.070  -2.672   4.491  1.00  0.00     0.031 A 
ATOM     39  C   UNL     1      10.493  -3.877   5.287  1.00  0.00     0.074 A 
ATOM     40  C   UNL     1      10.189  -1.438   5.021  1.00  0.00     0.049 A 
ATOM     41  N   UNL     1      11.012  -3.931   6.486  1.00  0.00    -0.248 NA
ATOM     42  C   UNL     1      10.282  -5.197   4.668  1.00  0.00     0.031 C 
ATOM     43  C   UNL     1       9.739  -0.197   4.386  1.00  0.00     0.029 A 
ATOM     44  N   UNL     1      10.697  -1.026   6.228  1.00  0.00    -0.354 N 
ATOM     45  C   UNL     1      11.154  -5.282   6.780  1.00  0.00     0.074 A 
ATOM     46  C   UNL     1      10.634  -6.017   5.648  1.00  0.00     0.031 C 
ATOM     47  C   UNL     1       9.997   0.835   5.204  1.00  0.00     0.029 A 
ATOM     48  C   UNL     1      10.595   0.330   6.435  1.00  0.00     0.049 A 
ATOM     49  H   UNL     1      11.098  -1.642   6.883  1.00  0.00     0.167 HD
ATOM     50  C   UNL     1      11.694  -5.860   7.879  1.00  0.00     0.034 A 
ATOM     51  C   UNL     1      10.930   1.082   7.502  1.00  0.00     0.034 A 
ATOM     52  C   UNL     1      12.244  -5.125   8.986  1.00  0.00     0.049 A 
ATOM     53  C   UNL     1      11.562   0.418   8.694  1.00  0.00     0.074 A 
ATOM     54  C   UNL     1      12.894  -5.617  10.104  1.00  0.00     0.029 A 
ATOM     55  N   UNL     1      12.198  -3.747   9.123  1.00  0.00    -0.354 N 
ATOM     56  N   UNL     1      11.832  -0.850   8.886  1.00  0.00    -0.248 NA
ATOM     57  C   UNL     1      11.972   1.293   9.803  1.00  0.00     0.031 C 
ATOM     58  C   UNL     1      13.210  -4.538  10.935  1.00  0.00     0.029 A 
ATOM     59  C   UNL     1      12.796  -3.371  10.314  1.00  0.00     0.049 A 
ATOM     60  H   UNL     1      11.799  -3.127   8.471  1.00  0.00     0.167 HD
ATOM     61  C   UNL     1      12.473  -0.922  10.117  1.00  0.00     0.074 A 
ATOM     62  C   UNL     1      12.571   0.433  10.616  1.00  0.00     0.031 C 
ATOM     63  C   UNL     1      12.929  -2.014  10.779  1.00  0.00     0.034 A 
BRANCH  50  64
ATOM     64  C   UNL     1      11.758  -7.365   7.922  1.00  0.00     0.023 A 
ATOM     65  C   UNL     1      12.648  -8.052   7.072  1.00  0.00     0.012 A 
ATOM     66  C   UNL     1      10.988  -8.094   8.850  1.00  0.00     0.148 A 
ATOM     67  C   UNL     1      12.747  -9.442   7.120  1.00  0.00     0.002 A 
ATOM     68  C   UNL     1      11.129  -9.474   8.927  1.00  0.00     0.091 A 
ATOM     69  F   UNL     1      10.133  -7.425   9.637  1.00  0.00    -0.205 F 
ATOM     70  C   UNL     1      11.998 -10.151   8.054  1.00  0.00     0.022 A 
BRANCH  68  71
ATOM     71  S   UNL     1      10.273 -10.471  10.151  1.00  0.00     0.127 S 
ATOM     72  O   UNL     1       9.348 -11.235   9.314  1.00  0.00    -0.237 OA
ATOM     73  O   UNL     1      11.366 -11.255  10.725  1.00  0.00    -0.237 OA
ATOM     74  O   UNL     1       9.647  -9.531  11.071  1.00  0.00    -0.744 OA
ENDBRANCH  68  71
ENDBRANCH  50  64
BRANCH  51  75
ATOM     75  C   UNL     1      10.718   2.557   7.468  1.00  0.00     0.023 A 
ATOM     76  C   UNL     1      11.830   3.420   7.410  1.00  0.00     0.012 A 
ATOM     77  C   UNL     1       9.422   3.107   7.465  1.00  0.00     0.148 A 
ATOM     78  C   UNL     1      11.656   4.804   7.386  1.00  0.00     0.002 A 
ATOM     79  C   UNL     1       9.254   4.484   7.380  1.00  0.00     0.091 A 
ATOM     80  F   UNL     1       8.377   2.269   7.527  1.00  0.00    -0.205 F 
ATOM     81  C   UNL     1      10.369   5.335   7.360  1.00  0.00     0.022 A 
BRANCH  79  82
ATOM     82  S   UNL     1       7.638   5.247   7.201  1.00  0.00     0.127 S 
ATOM     83  O   UNL     1       7.488   5.934   8.481  1.00  0.00    -0.237 OA
ATOM     84  O   UNL     1       7.847   6.126   6.050  1.00  0.00    -0.237 OA
ATOM     85  O   UNL     1       6.708   4.152   6.957  1.00  0.00    -0.744 OA
ENDBRANCH  79  82
ENDBRANCH  51  75
BRANCH  63  86
ATOM     86  C   UNL     1      13.620  -1.794  12.100  1.00  0.00     0.023 A 
ATOM     87  C   UNL     1      12.874  -1.405  13.230  1.00  0.00     0.012 A 
ATOM     88  C   UNL     1      14.999  -2.046  12.234  1.00  0.00     0.148 A 
ATOM     89  C   UNL     1      13.498  -1.234  14.466  1.00  0.00     0.002 A 
ATOM     90  C   UNL     1      15.604  -1.926  13.479  1.00  0.00     0.091 A 
ATOM     91  F   UNL     1      15.694  -2.399  11.143  1.00  0.00    -0.205 F 
ATOM     92  C   UNL     1      14.859  -1.506  14.593  1.00  0.00     0.022 A 
BRANCH  90  93
ATOM     93  S   UNL     1      17.327  -2.351  13.759  1.00  0.00     0.127 S 
ATOM     94  O   UNL     1      17.925  -1.036  13.980  1.00  0.00    -0.237 OA
ATOM     95  O   UNL     1      17.247  -3.194  14.952  1.00  0.00    -0.237 OA
ATOM     96  O   UNL     1      17.771  -3.044  12.557  1.00  0.00    -0.744 OA
ENDBRANCH  90  93
ENDBRANCH  63  86
ENDBRANCH  37  38
ENDBRANCH  29  32
ENDBRANCH  27  28
ENDBRANCH  26  27
ENDBRANCH  25  26
ENDBRANCH   3  25
TORSDOF 16
