REMARK SMILES C[C@]1(C(=O)N2CCC(CC(=O)NCCCNC(=O)c3ccc(-c4c5nc(c(-c6cccc(S(=O)(=O)[O-])c6F)c6ccc([nH]6)c(-c6cccc(S(=O)(=O)[O-])c6F)c6nc(c(-c7cccc(S(=O)(=O)[O-])c7F)c7ccc4[nH]7)C=C6)C=C5)cc3)CC2)CCC[NH2+]1
REMARK SMILES IDX 14 1 13 2 12 3 10 4 11 5 9 7 8 8 3 9 4 10 5 11 6 12 83 13
REMARK SMILES IDX 7 14 82 15 2 16 1 17 84 18 87 19 85 20 86 21 15 24 16 25
REMARK SMILES IDX 17 26 18 28 19 29 20 30 81 31 21 32 80 33 22 34 23 35 24 36
REMARK SMILES IDX 74 37 25 38 79 39 73 40 75 41 26 42 78 43 72 44 71 45 27 47
REMARK SMILES IDX 59 48 39 49 58 50 40 51 43 52 57 53 76 54 41 55 42 56 56 58
REMARK SMILES IDX 77 59 44 60 28 61 29 62 37 63 30 64 32 65 38 66 31 67 33 68
REMARK SMILES IDX 34 69 35 70 36 71 60 72 61 73 69 74 62 75 64 76 70 77 63 78
REMARK SMILES IDX 65 79 66 80 67 81 68 82 45 83 46 84 54 85 47 86 49 87 55 88
REMARK SMILES IDX 48 89 50 90 51 91 52 92 53 93
REMARK H PARENT 12 6 87 22 87 23 16 27 75 46 43 57
REMARK Flexibility Score: inf
ROOT
ATOM      1  C   UNL     1       2.169   3.446  -4.062  1.00  0.00     0.042 C 
ENDROOT
BRANCH   1   2
ATOM      2  C   UNL     1       3.163   2.510  -4.754  1.00  0.00     0.117 C 
BRANCH   2   3
ATOM      3  N   UNL     1       4.557   2.806  -4.439  1.00  0.00    -0.356 N 
ATOM      4  C   UNL     1       5.493   2.101  -3.740  1.00  0.00     0.220 C 
ATOM      5  O   UNL     1       6.635   2.562  -3.671  1.00  0.00    -0.275 OA
ATOM      6  H   UNL     1       4.878   3.667  -4.793  1.00  0.00     0.163 HD
BRANCH   4   7
ATOM      7  C   UNL     1       5.148   0.790  -3.056  1.00  0.00     0.103 C 
BRANCH   7   8
ATOM      8  C   UNL     1       4.762   0.955  -1.572  1.00  0.00     0.002 C 
ATOM      9  C   UNL     1       1.444  -0.128   0.266  1.00  0.00     0.283 C 
ATOM     10  O   UNL     1       0.954  -0.360  -0.841  1.00  0.00    -0.268 OA
ATOM     11  N   UNL     1       2.694   0.462   0.396  1.00  0.00    -0.337 N 
ATOM     12  C   UNL     1       2.865   1.816  -0.065  1.00  0.00     0.120 C 
ATOM     13  C   UNL     1       3.904  -0.329   0.462  1.00  0.00     0.120 C 
ATOM     14  C   UNL     1       3.508   1.826  -1.438  1.00  0.00     0.026 C 
ATOM     15  C   UNL     1       4.552  -0.427  -0.921  1.00  0.00     0.026 C 
BRANCH   9  16
ATOM     16  C   UNL     1       0.725  -0.477   1.601  1.00  0.00     0.173 C 
ATOM     17  C   UNL     1      -0.782  -0.218   1.452  1.00  0.00     0.090 C 
ATOM     18  C   UNL     1       1.003  -1.917   2.025  1.00  0.00     0.084 C 
ATOM     19  N   UNL     1       1.271   0.348   2.708  1.00  0.00    -0.334 N 
ATOM     20  C   UNL     1       0.932  -1.869   3.538  1.00  0.00     0.068 C 
ATOM     21  C   UNL     1       1.432  -0.482   3.894  1.00  0.00     0.261 C 
ATOM     22  H   UNL     1       0.628   1.113   2.912  1.00  0.00     0.347 HD
ATOM     23  H   UNL     1       2.176   0.731   2.434  1.00  0.00     0.347 HD
ENDBRANCH   9  16
ENDBRANCH   7   8
ENDBRANCH   4   7
ENDBRANCH   2   3
ENDBRANCH   1   2
BRANCH   1  24
ATOM     24  C   UNL     1       2.224   4.893  -4.532  1.00  0.00     0.118 C 
BRANCH  24  25
ATOM     25  N   UNL     1       1.324   5.124  -5.648  1.00  0.00    -0.352 N 
ATOM     26  C   UNL     1       0.131   5.807  -5.687  1.00  0.00     0.251 C 
ATOM     27  H   UNL     1       1.611   4.733  -6.505  1.00  0.00     0.163 HD
ATOM     28  O   UNL     1      -0.609   5.650  -6.656  1.00  0.00    -0.269 OA
BRANCH  26  29
ATOM     29  C   UNL     1      -0.278   6.721  -4.590  1.00  0.00     0.039 A 
ATOM     30  C   UNL     1      -1.633   6.796  -4.247  1.00  0.00     0.014 A 
ATOM     31  C   UNL     1       0.636   7.563  -3.950  1.00  0.00     0.014 A 
ATOM     32  C   UNL     1      -2.062   7.685  -3.253  1.00  0.00     0.010 A 
ATOM     33  C   UNL     1       0.220   8.389  -2.904  1.00  0.00     0.010 A 
ATOM     34  C   UNL     1      -1.137   8.480  -2.559  1.00  0.00    -0.014 A 
BRANCH  34  35
ATOM     35  C   UNL     1      -1.571   9.430  -1.497  1.00  0.00     0.031 A 
ATOM     36  C   UNL     1      -1.345  10.913  -1.661  1.00  0.00     0.074 A 
ATOM     37  C   UNL     1      -2.102   8.961  -0.350  1.00  0.00     0.049 A 
ATOM     38  N   UNL     1      -1.606  11.886  -0.826  1.00  0.00    -0.248 NA
ATOM     39  C   UNL     1      -0.719  11.359  -2.917  1.00  0.00     0.031 C 
ATOM     40  C   UNL     1      -2.305   7.547  -0.030  1.00  0.00     0.029 A 
ATOM     41  N   UNL     1      -2.543   9.621   0.771  1.00  0.00    -0.354 N 
ATOM     42  C   UNL     1      -1.139  13.047  -1.433  1.00  0.00     0.074 A 
ATOM     43  C   UNL     1      -0.551  12.654  -2.694  1.00  0.00     0.031 C 
ATOM     44  C   UNL     1      -2.829   7.446   1.202  1.00  0.00     0.029 A 
ATOM     45  C   UNL     1      -2.977   8.783   1.772  1.00  0.00     0.049 A 
ATOM     46  H   UNL     1      -2.547  10.602   0.851  1.00  0.00     0.167 HD
ATOM     47  C   UNL     1      -1.219  14.328  -0.998  1.00  0.00     0.034 A 
ATOM     48  C   UNL     1      -3.439   9.055   3.009  1.00  0.00     0.034 A 
ATOM     49  C   UNL     1      -1.858  14.726   0.227  1.00  0.00     0.049 A 
ATOM     50  C   UNL     1      -3.575  10.491   3.442  1.00  0.00     0.074 A 
ATOM     51  C   UNL     1      -2.079  16.006   0.705  1.00  0.00     0.029 A 
ATOM     52  N   UNL     1      -2.379  13.853   1.168  1.00  0.00    -0.354 N 
ATOM     53  N   UNL     1      -3.278  11.584   2.782  1.00  0.00    -0.248 NA
ATOM     54  C   UNL     1      -4.147  10.733   4.776  1.00  0.00     0.031 C 
ATOM     55  C   UNL     1      -2.719  15.905   1.945  1.00  0.00     0.029 A 
ATOM     56  C   UNL     1      -2.915  14.563   2.228  1.00  0.00     0.049 A 
ATOM     57  H   UNL     1      -2.370  12.871   1.093  1.00  0.00     0.167 HD
ATOM     58  C   UNL     1      -3.658  12.641   3.602  1.00  0.00     0.074 A 
ATOM     59  C   UNL     1      -4.226  12.057   4.799  1.00  0.00     0.031 C 
ATOM     60  C   UNL     1      -3.532  13.974   3.389  1.00  0.00     0.034 A 
BRANCH  47  61
ATOM     61  C   UNL     1      -0.652  15.407  -1.886  1.00  0.00     0.023 A 
ATOM     62  C   UNL     1      -1.322  15.746  -3.079  1.00  0.00     0.012 A 
ATOM     63  C   UNL     1       0.500  16.127  -1.513  1.00  0.00     0.148 A 
ATOM     64  C   UNL     1      -0.835  16.758  -3.906  1.00  0.00     0.002 A 
ATOM     65  C   UNL     1       0.955  17.164  -2.321  1.00  0.00     0.091 A 
ATOM     66  F   UNL     1       1.136  15.779  -0.385  1.00  0.00    -0.205 F 
ATOM     67  C   UNL     1       0.296  17.472  -3.522  1.00  0.00     0.022 A 
BRANCH  65  68
ATOM     68  S   UNL     1       2.356  18.196  -1.874  1.00  0.00     0.127 S 
ATOM     69  O   UNL     1       3.378  17.728  -2.810  1.00  0.00    -0.237 OA
ATOM     70  O   UNL     1       1.849  19.541  -2.149  1.00  0.00    -0.237 OA
ATOM     71  O   UNL     1       2.621  17.925  -0.469  1.00  0.00    -0.744 OA
ENDBRANCH  65  68
ENDBRANCH  47  61
BRANCH  48  72
ATOM     72  C   UNL     1      -3.880   7.941   3.897  1.00  0.00     0.023 A 
ATOM     73  C   UNL     1      -5.253   7.774   4.164  1.00  0.00     0.012 A 
ATOM     74  C   UNL     1      -2.959   7.026   4.443  1.00  0.00     0.148 A 
ATOM     75  C   UNL     1      -5.698   6.736   4.982  1.00  0.00     0.002 A 
ATOM     76  C   UNL     1      -3.414   5.960   5.211  1.00  0.00     0.091 A 
ATOM     77  F   UNL     1      -1.655   7.209   4.190  1.00  0.00    -0.205 F 
ATOM     78  C   UNL     1      -4.781   5.822   5.496  1.00  0.00     0.022 A 
BRANCH  76  79
ATOM     79  S   UNL     1      -2.319   4.659   5.795  1.00  0.00     0.127 S 
ATOM     80  O   UNL     1      -2.237   4.954   7.222  1.00  0.00    -0.237 OA
ATOM     81  O   UNL     1      -3.071   3.450   5.456  1.00  0.00    -0.237 OA
ATOM     82  O   UNL     1      -1.082   4.819   5.039  1.00  0.00    -0.744 OA
ENDBRANCH  76  79
ENDBRANCH  48  72
BRANCH  60  83
ATOM     83  C   UNL     1      -4.045  14.907   4.454  1.00  0.00     0.023 A 
ATOM     84  C   UNL     1      -3.332  15.052   5.660  1.00  0.00     0.012 A 
ATOM     85  C   UNL     1      -5.187  15.702   4.226  1.00  0.00     0.148 A 
ATOM     86  C   UNL     1      -3.761  15.952   6.634  1.00  0.00     0.002 A 
ATOM     87  C   UNL     1      -5.583  16.630   5.182  1.00  0.00     0.091 A 
ATOM     88  F   UNL     1      -5.864  15.536   3.080  1.00  0.00    -0.205 F 
ATOM     89  C   UNL     1      -4.878  16.748   6.391  1.00  0.00     0.022 A 
BRANCH  87  90
ATOM     90  S   UNL     1      -6.951  17.763   4.914  1.00  0.00     0.127 S 
ATOM     91  O   UNL     1      -7.985  17.191   5.775  1.00  0.00    -0.237 OA
ATOM     92  O   UNL     1      -6.401  19.035   5.384  1.00  0.00    -0.237 OA
ATOM     93  O   UNL     1      -7.231  17.720   3.485  1.00  0.00    -0.744 OA
ENDBRANCH  87  90
ENDBRANCH  60  83
ENDBRANCH  34  35
ENDBRANCH  26  29
ENDBRANCH  24  25
ENDBRANCH   1  24
TORSDOF 15
