REMARK SMILES Cc1cccc(N2CCN(c3ncc(NC(=O)c4ccccc4F)cc3C(=O)NCCCNC(=O)c3ccc(-c4c5nc(c(-c6cccc(S(=O)(=O)[O-])c6F)c6ccc([nH]6)c(-c6cccc(S(=O)(=O)[O-])c6F)c6nc(c(-c7cccc(S(=O)(=O)[O-])c7F)c7ccc4[nH]7)C=C6)C=C5)cc3)C[C@@H]2C)c1
REMARK SMILES IDX 31 1 30 2 29 3 27 4 28 5 26 7 11 8 12 9 13 10 25 11 14 12
REMARK SMILES IDX 10 13 7 14 8 15 100 16 9 17 99 18 101 19 6 20 1 21 2 22 3 23
REMARK SMILES IDX 102 24 4 25 5 26 15 27 16 28 17 30 18 31 19 32 23 33 20 34
REMARK SMILES IDX 22 35 24 36 21 37 32 38 33 39 34 40 35 42 36 43 37 44 98 45
REMARK SMILES IDX 38 46 97 47 39 48 40 49 41 50 91 51 42 52 96 53 90 54 92 55
REMARK SMILES IDX 43 56 95 57 89 58 88 59 44 61 76 62 56 63 75 64 57 65 60 66
REMARK SMILES IDX 74 67 93 68 58 69 59 70 73 72 94 73 61 74 45 75 46 76 54 77
REMARK SMILES IDX 47 78 49 79 55 80 48 81 50 82 51 83 52 84 53 85 77 86 78 87
REMARK SMILES IDX 86 88 79 89 81 90 87 91 80 92 82 93 83 94 84 95 85 96 62 97
REMARK SMILES IDX 63 98 71 99 64 100 66 101 72 102 65 103 67 104 68 105 69 106
REMARK SMILES IDX 70 107
REMARK H PARENT 29 6 15 29 33 41 92 60 60 71
REMARK Flexibility Score: inf
ROOT
ATOM      1  C   UNL     1      -7.432   7.449  -2.524  1.00  0.00     0.042 C 
ENDROOT
BRANCH   1   2
ATOM      2  C   UNL     1      -7.227   6.025  -1.995  1.00  0.00     0.118 C 
BRANCH   2   3
ATOM      3  N   UNL     1      -5.835   5.641  -2.110  1.00  0.00    -0.352 N 
ATOM      4  C   UNL     1      -4.748   5.991  -1.343  1.00  0.00     0.255 C 
ATOM      5  O   UNL     1      -3.661   6.026  -1.914  1.00  0.00    -0.269 OA
ATOM      6  H   UNL     1      -5.635   5.032  -2.857  1.00  0.00     0.163 HD
BRANCH   4   7
ATOM      7  C   UNL     1      -4.855   6.384   0.087  1.00  0.00     0.084 A 
ATOM      8  C   UNL     1      -4.061   5.813   1.098  1.00  0.00     0.141 A 
ATOM      9  N   UNL     1      -4.177   6.244   2.392  1.00  0.00    -0.236 NA
ATOM     10  C   UNL     1      -5.058   7.234   2.691  1.00  0.00     0.139 A 
ATOM     11  C   UNL     1      -5.767   7.377   0.453  1.00  0.00     0.045 A 
ATOM     12  C   UNL     1      -5.890   7.816   1.759  1.00  0.00     0.060 A 
BRANCH   8  13
ATOM     13  N   UNL     1      -3.261   4.707   0.895  1.00  0.00    -0.352 N 
ATOM     14  N   UNL     1      -1.744   2.327   0.480  1.00  0.00    -0.365 N 
ATOM     15  C   UNL     1      -2.928   2.317   1.358  1.00  0.00     0.138 C 
ATOM     16  C   UNL     1      -1.685   3.410  -0.546  1.00  0.00     0.098 C 
ATOM     17  C   UNL     1      -3.185   3.710   1.969  1.00  0.00     0.139 C 
ATOM     18  C   UNL     1      -2.007   4.788   0.116  1.00  0.00     0.142 C 
ATOM     19  C   UNL     1      -2.636   3.095  -1.708  1.00  0.00     0.033 C 
BRANCH  14  20
ATOM     20  C   UNL     1      -1.068   1.140   0.238  1.00  0.00     0.037 A 
ATOM     21  C   UNL     1       2.550  -0.027  -0.144  1.00  0.00     0.044 C 
ATOM     22  C   UNL     1       1.053  -0.048  -0.072  1.00  0.00    -0.049 A 
ATOM     23  C   UNL     1       0.364  -1.261  -0.144  1.00  0.00     0.003 A 
ATOM     24  C   UNL     1       0.327   1.140   0.105  1.00  0.00     0.029 A 
ATOM     25  C   UNL     1      -1.024  -1.282  -0.043  1.00  0.00     0.002 A 
ATOM     26  C   UNL     1      -1.729  -0.092   0.151  1.00  0.00     0.026 A 
ENDBRANCH  14  20
ENDBRANCH   8  13
BRANCH  12  27
ATOM     27  N   UNL     1      -6.875   8.785   2.006  1.00  0.00    -0.320 N 
ATOM     28  C   UNL     1      -6.923   9.800   2.926  1.00  0.00     0.258 C 
ATOM     29  H   UNL     1      -7.664   8.726   1.421  1.00  0.00     0.170 HD
ATOM     30  O   UNL     1      -7.998  10.336   3.189  1.00  0.00    -0.269 OA
BRANCH  28  31
ATOM     31  C   UNL     1      -5.693  10.340   3.533  1.00  0.00     0.075 A 
ATOM     32  C   UNL     1      -5.749  10.790   4.857  1.00  0.00     0.017 A 
ATOM     33  C   UNL     1      -4.521  10.519   2.796  1.00  0.00     0.135 A 
ATOM     34  C   UNL     1      -4.616  11.349   5.450  1.00  0.00     0.001 A 
ATOM     35  C   UNL     1      -3.383  11.054   3.392  1.00  0.00     0.040 A 
ATOM     36  F   UNL     1      -4.464  10.221   1.490  1.00  0.00    -0.206 F 
ATOM     37  C   UNL     1      -3.429  11.464   4.723  1.00  0.00     0.003 A 
ENDBRANCH  28  31
ENDBRANCH  12  27
ENDBRANCH   4   7
ENDBRANCH   2   3
ENDBRANCH   1   2
BRANCH   1  38
ATOM     38  C   UNL     1      -7.339   7.553  -4.037  1.00  0.00     0.118 C 
BRANCH  38  39
ATOM     39  N   UNL     1      -8.511   8.184  -4.625  1.00  0.00    -0.352 N 
ATOM     40  C   UNL     1      -8.758   8.450  -5.959  1.00  0.00     0.251 C 
ATOM     41  H   UNL     1      -9.216   8.455  -3.994  1.00  0.00     0.163 HD
ATOM     42  O   UNL     1      -9.788   9.028  -6.287  1.00  0.00    -0.269 OA
BRANCH  40  43
ATOM     43  C   UNL     1      -7.801   7.936  -6.961  1.00  0.00     0.039 A 
ATOM     44  C   UNL     1      -8.272   7.027  -7.913  1.00  0.00     0.014 A 
ATOM     45  C   UNL     1      -6.434   8.150  -6.789  1.00  0.00     0.014 A 
ATOM     46  C   UNL     1      -7.374   6.159  -8.526  1.00  0.00     0.010 A 
ATOM     47  C   UNL     1      -5.551   7.244  -7.338  1.00  0.00     0.010 A 
ATOM     48  C   UNL     1      -6.035   6.208  -8.146  1.00  0.00    -0.014 A 
BRANCH  48  49
ATOM     49  C   UNL     1      -5.069   5.166  -8.458  1.00  0.00     0.031 A 
ATOM     50  C   UNL     1      -4.247   5.247  -9.673  1.00  0.00     0.074 A 
ATOM     51  C   UNL     1      -4.863   4.189  -7.550  1.00  0.00     0.049 A 
ATOM     52  N   UNL     1      -3.626   4.247 -10.201  1.00  0.00    -0.248 NA
ATOM     53  C   UNL     1      -4.117   6.484 -10.427  1.00  0.00     0.031 C 
ATOM     54  C   UNL     1      -3.747   3.255  -7.479  1.00  0.00     0.029 A 
ATOM     55  N   UNL     1      -5.790   3.690  -6.628  1.00  0.00    -0.354 N 
ATOM     56  C   UNL     1      -2.775   4.761 -11.157  1.00  0.00     0.074 A 
ATOM     57  C   UNL     1      -3.223   6.118 -11.348  1.00  0.00     0.031 C 
ATOM     58  C   UNL     1      -4.145   2.165  -6.805  1.00  0.00     0.029 A 
ATOM     59  C   UNL     1      -5.577   2.302  -6.591  1.00  0.00     0.049 A 
ATOM     60  H   UNL     1      -6.454   4.205  -6.114  1.00  0.00     0.167 HD
ATOM     61  C   UNL     1      -1.687   4.024 -11.528  1.00  0.00     0.034 A 
ATOM     62  C   UNL     1      -6.524   1.388  -6.952  1.00  0.00     0.034 A 
ATOM     63  C   UNL     1      -1.774   2.654 -10.989  1.00  0.00     0.049 A 
ATOM     64  C   UNL     1      -6.061   0.444  -8.048  1.00  0.00     0.074 A 
ATOM     65  C   UNL     1      -1.169   2.013  -9.919  1.00  0.00     0.029 A 
ATOM     66  N   UNL     1      -2.800   1.813 -11.413  1.00  0.00    -0.354 N 
ATOM     67  N   UNL     1      -4.967   0.596  -8.742  1.00  0.00    -0.248 NA
ATOM     68  C   UNL     1      -6.819  -0.731  -8.467  1.00  0.00     0.031 C 
ATOM     69  C   UNL     1      -1.901   0.825  -9.645  1.00  0.00     0.029 A 
ATOM     70  C   UNL     1      -2.933   0.725 -10.563  1.00  0.00     0.049 A 
ATOM     71  H   UNL     1      -3.357   1.971 -12.210  1.00  0.00     0.167 HD
ATOM     72  C   UNL     1      -4.927  -0.325  -9.758  1.00  0.00     0.074 A 
ATOM     73  C   UNL     1      -6.065  -1.187  -9.482  1.00  0.00     0.031 C 
ATOM     74  C   UNL     1      -4.003  -0.251 -10.769  1.00  0.00     0.034 A 
BRANCH  61  75
ATOM     75  C   UNL     1      -0.387   4.610 -12.084  1.00  0.00     0.023 A 
ATOM     76  C   UNL     1       0.771   3.799 -12.012  1.00  0.00     0.012 A 
ATOM     77  C   UNL     1      -0.172   5.922 -12.569  1.00  0.00     0.148 A 
ATOM     78  C   UNL     1       2.057   4.284 -12.290  1.00  0.00     0.002 A 
ATOM     79  C   UNL     1       1.113   6.426 -12.801  1.00  0.00     0.091 A 
ATOM     80  F   UNL     1      -1.204   6.698 -12.887  1.00  0.00    -0.205 F 
ATOM     81  C   UNL     1       2.233   5.609 -12.653  1.00  0.00     0.022 A 
BRANCH  79  82
ATOM     82  S   UNL     1       1.411   8.153 -13.233  1.00  0.00     0.127 S 
ATOM     83  O   UNL     1       2.384   8.560 -12.218  1.00  0.00    -0.237 OA
ATOM     84  O   UNL     1       1.953   8.047 -14.586  1.00  0.00    -0.237 OA
ATOM     85  O   UNL     1       0.124   8.831 -13.130  1.00  0.00    -0.744 OA
ENDBRANCH  79  82
ENDBRANCH  61  75
BRANCH  62  86
ATOM     86  C   UNL     1      -7.929   1.864  -6.768  1.00  0.00     0.023 A 
ATOM     87  C   UNL     1      -8.322   2.224  -5.455  1.00  0.00     0.012 A 
ATOM     88  C   UNL     1      -8.711   2.305  -7.850  1.00  0.00     0.148 A 
ATOM     89  C   UNL     1      -9.376   3.112  -5.236  1.00  0.00     0.002 A 
ATOM     90  C   UNL     1      -9.773   3.181  -7.621  1.00  0.00     0.091 A 
ATOM     91  F   UNL     1      -8.372   1.925  -9.088  1.00  0.00    -0.205 F 
ATOM     92  C   UNL     1     -10.080   3.617  -6.323  1.00  0.00     0.022 A 
BRANCH  90  93
ATOM     93  S   UNL     1     -10.713   3.877  -8.988  1.00  0.00     0.127 S 
ATOM     94  O   UNL     1     -11.775   2.889  -9.144  1.00  0.00    -0.237 OA
ATOM     95  O   UNL     1     -11.147   5.166  -8.451  1.00  0.00    -0.237 OA
ATOM     96  O   UNL     1      -9.750   3.979 -10.075  1.00  0.00    -0.744 OA
ENDBRANCH  90  93
ENDBRANCH  62  86
BRANCH  74  97
ATOM     97  C   UNL     1      -4.023  -1.072 -12.053  1.00  0.00     0.023 A 
ATOM     98  C   UNL     1      -5.179  -1.733 -12.513  1.00  0.00     0.012 A 
ATOM     99  C   UNL     1      -2.900  -1.099 -12.924  1.00  0.00     0.148 A 
ATOM    100  C   UNL     1      -5.209  -2.438 -13.723  1.00  0.00     0.002 A 
ATOM    101  C   UNL     1      -2.970  -1.706 -14.178  1.00  0.00     0.091 A 
ATOM    102  F   UNL     1      -1.739  -0.551 -12.537  1.00  0.00    -0.205 F 
ATOM    103  C   UNL     1      -4.111  -2.407 -14.568  1.00  0.00     0.022 A 
BRANCH 101 104
ATOM    104  S   UNL     1      -1.661  -1.477 -15.392  1.00  0.00     0.127 S 
ATOM    105  O   UNL     1      -0.797  -2.626 -15.133  1.00  0.00    -0.237 OA
ATOM    106  O   UNL     1      -2.389  -1.540 -16.662  1.00  0.00    -0.237 OA
ATOM    107  O   UNL     1      -1.100  -0.166 -15.095  1.00  0.00    -0.744 OA
ENDBRANCH 101 104
ENDBRANCH  74  97
ENDBRANCH  48  49
ENDBRANCH  40  43
ENDBRANCH  38  39
ENDBRANCH   1  38
TORSDOF 17
