REMARK SMILES COc1cc(/C=N/c2cccc(F)c2)ccc1OCc1cccc(C(=O)NCCCNC(=O)c2ccc(-c3c4nc(c(-c5cccc(S(=O)(=O)[O-])c5F)c5ccc([nH]5)c(-c5cccc(S(=O)(=O)[O-])c5F)c5nc(c(-c6cccc(S(=O)(=O)[O-])c6F)c6ccc3[nH]6)C=C5)C=C4)cc2)c1
REMARK SMILES IDX 28 1 27 2 25 3 26 4 24 6 20 7 21 8 97 9 22 10 23 11 19 12
REMARK SMILES IDX 18 13 17 14 3 15 4 16 5 17 16 18 15 19 2 20 1 21 6 22 7 23
REMARK SMILES IDX 8 24 9 25 14 26 10 27 12 28 11 29 13 30 29 31 30 32 31 33
REMARK SMILES IDX 32 34 33 36 34 37 35 38 96 39 36 40 95 41 37 42 38 43 39 44
REMARK SMILES IDX 89 45 40 46 94 47 88 48 90 49 41 50 93 51 87 52 86 53 42 55
REMARK SMILES IDX 74 56 54 57 73 58 55 59 58 60 72 61 91 62 56 63 57 64 71 66
REMARK SMILES IDX 92 67 59 68 43 69 44 70 52 71 45 72 47 73 53 74 46 75 48 76
REMARK SMILES IDX 49 77 50 78 51 79 75 80 76 81 84 82 77 83 79 84 85 85 78 86
REMARK SMILES IDX 80 87 81 88 82 89 83 90 60 91 61 92 69 93 62 94 64 95 70 96
REMARK SMILES IDX 63 97 65 98 66 99 67 100 68 101
REMARK H PARENT 27 5 31 35 90 54 58 65
REMARK Flexibility Score: inf
ROOT
ATOM      1  C   UNL     1      -1.754  -1.344  -1.199  1.00  0.00     0.118 C 
ENDROOT
BRANCH   1   2
ATOM      2  N   UNL     1      -2.254  -0.054  -1.621  1.00  0.00    -0.352 N 
ATOM      3  C   UNL     1      -1.633   1.143  -1.880  1.00  0.00     0.251 C 
ATOM      4  O   UNL     1      -2.326   2.046  -2.356  1.00  0.00    -0.269 OA
ATOM      5  H   UNL     1      -3.230  -0.029  -1.746  1.00  0.00     0.163 HD
BRANCH   3   6
ATOM      6  C   UNL     1      -0.213   1.449  -1.527  1.00  0.00     0.040 A 
ATOM      7  C   UNL     1       2.149   0.904  -1.139  1.00  0.00    -0.010 A 
ATOM      8  C   UNL     1       2.333   2.203  -0.632  1.00  0.00     0.007 A 
ATOM      9  C   UNL     1       0.876   0.571  -1.651  1.00  0.00     0.021 A 
ATOM     10  C   UNL     1       1.289   3.125  -0.614  1.00  0.00     0.001 A 
ATOM     11  C   UNL     1       0.020   2.741  -1.038  1.00  0.00     0.014 A 
BRANCH   7  12
ATOM     12  C   UNL     1       3.297  -0.088  -0.941  1.00  0.00     0.265 C 
BRANCH  12  13
ATOM     13  O   UNL     1       3.502  -1.116  -1.907  1.00  0.00    -0.485 OA
BRANCH  13  14
ATOM     14  C   UNL     1       2.621  -2.154  -1.997  1.00  0.00     0.161 A 
ATOM     15  C   UNL     1       1.827  -2.707  -0.982  1.00  0.00     0.161 A 
ATOM     16  C   UNL     1       0.835  -3.639  -1.326  1.00  0.00     0.060 A 
ATOM     17  C   UNL     1       0.668  -4.022  -2.671  1.00  0.00    -0.003 A 
ATOM     18  C   UNL     1       2.526  -2.653  -3.304  1.00  0.00     0.051 A 
ATOM     19  C   UNL     1       1.553  -3.584  -3.648  1.00  0.00     0.014 A 
BRANCH  15  20
ATOM     20  O   UNL     1       2.171  -2.497   0.327  1.00  0.00    -0.493 OA
ATOM     21  C   UNL     1       1.226  -1.791   1.125  1.00  0.00     0.278 C 
ENDBRANCH  15  20
BRANCH  17  22
ATOM     22  C   UNL     1      -0.363  -4.996  -3.075  1.00  0.00     0.120 C 
ATOM     23  N   UNL     1      -1.578  -4.632  -3.350  1.00  0.00    -0.256 NA
BRANCH  23  24
ATOM     24  C   UNL     1      -2.592  -5.613  -3.555  1.00  0.00     0.066 A 
ATOM     25  C   UNL     1      -3.926  -5.171  -3.491  1.00  0.00     0.028 A 
ATOM     26  C   UNL     1      -2.380  -6.992  -3.674  1.00  0.00     0.067 A 
ATOM     27  C   UNL     1      -5.004  -6.069  -3.484  1.00  0.00     0.005 A 
ATOM     28  C   UNL     1      -3.455  -7.882  -3.666  1.00  0.00     0.125 A 
ATOM     29  C   UNL     1      -4.764  -7.436  -3.561  1.00  0.00     0.039 A 
ATOM     30  F   UNL     1      -3.215  -9.199  -3.736  1.00  0.00    -0.207 F 
ENDBRANCH  23  24
ENDBRANCH  17  22
ENDBRANCH  13  14
ENDBRANCH  12  13
ENDBRANCH   7  12
ENDBRANCH   3   6
ENDBRANCH   1   2
BRANCH   1  31
ATOM     31  C   UNL     1      -2.274  -1.814   0.158  1.00  0.00     0.042 C 
BRANCH  31  32
ATOM     32  C   UNL     1      -3.224  -3.009   0.098  1.00  0.00     0.118 C 
BRANCH  32  33
ATOM     33  N   UNL     1      -2.611  -4.151  -0.564  1.00  0.00    -0.352 N 
ATOM     34  C   UNL     1      -2.402  -5.457  -0.217  1.00  0.00     0.251 C 
ATOM     35  H   UNL     1      -2.271  -3.935  -1.462  1.00  0.00     0.163 HD
ATOM     36  O   UNL     1      -1.479  -6.058  -0.770  1.00  0.00    -0.269 OA
BRANCH  34  37
ATOM     37  C   UNL     1      -3.196  -6.205   0.769  1.00  0.00     0.039 A 
ATOM     38  C   UNL     1      -2.826  -7.549   0.959  1.00  0.00     0.014 A 
ATOM     39  C   UNL     1      -4.252  -5.679   1.502  1.00  0.00     0.014 A 
ATOM     40  C   UNL     1      -3.425  -8.313   1.947  1.00  0.00     0.010 A 
ATOM     41  C   UNL     1      -4.763  -6.396   2.574  1.00  0.00     0.010 A 
ATOM     42  C   UNL     1      -4.336  -7.707   2.812  1.00  0.00    -0.014 A 
BRANCH  42  43
ATOM     43  C   UNL     1      -4.799  -8.417   4.015  1.00  0.00     0.031 A 
ATOM     44  C   UNL     1      -6.256  -8.702   4.197  1.00  0.00     0.074 A 
ATOM     45  C   UNL     1      -3.890  -8.706   4.966  1.00  0.00     0.049 A 
ATOM     46  N   UNL     1      -6.861  -9.252   5.212  1.00  0.00    -0.248 NA
ATOM     47  C   UNL     1      -7.161  -8.274   3.115  1.00  0.00     0.031 C 
ATOM     48  C   UNL     1      -2.462  -8.369   4.904  1.00  0.00     0.029 A 
ATOM     49  N   UNL     1      -4.027  -9.330   6.175  1.00  0.00    -0.354 N 
ATOM     50  C   UNL     1      -8.216  -9.194   4.917  1.00  0.00     0.074 A 
ATOM     51  C   UNL     1      -8.349  -8.519   3.646  1.00  0.00     0.031 C 
ATOM     52  C   UNL     1      -1.853  -8.815   6.012  1.00  0.00     0.029 A 
ATOM     53  C   UNL     1      -2.848  -9.433   6.876  1.00  0.00     0.049 A 
ATOM     54  H   UNL     1      -4.886  -9.673   6.511  1.00  0.00     0.167 HD
ATOM     55  C   UNL     1      -9.249  -9.690   5.635  1.00  0.00     0.034 A 
ATOM     56  C   UNL     1      -2.606  -9.973   8.083  1.00  0.00     0.034 A 
ATOM     57  C   UNL     1      -9.075 -10.400   6.872  1.00  0.00     0.049 A 
ATOM     58  C   UNL     1      -3.759 -10.606   8.807  1.00  0.00     0.074 A 
ATOM     59  C   UNL     1     -10.031 -11.014   7.658  1.00  0.00     0.029 A 
ATOM     60  N   UNL     1      -7.851 -10.597   7.498  1.00  0.00    -0.354 N 
ATOM     61  N   UNL     1      -5.022 -10.665   8.453  1.00  0.00    -0.248 NA
ATOM     62  C   UNL     1      -3.453 -11.287  10.070  1.00  0.00     0.031 C 
ATOM     63  C   UNL     1      -9.384 -11.573   8.766  1.00  0.00     0.029 A 
ATOM     64  C   UNL     1      -8.023 -11.330   8.657  1.00  0.00     0.049 A 
ATOM     65  H   UNL     1      -6.987 -10.262   7.165  1.00  0.00     0.167 HD
ATOM     66  C   UNL     1      -5.656 -11.420   9.428  1.00  0.00     0.074 A 
ATOM     67  C   UNL     1      -4.630 -11.817  10.374  1.00  0.00     0.031 C 
ATOM     68  C   UNL     1      -6.967 -11.747   9.545  1.00  0.00     0.034 A 
BRANCH  55  69
ATOM     69  C   UNL     1     -10.634  -9.518   5.069  1.00  0.00     0.023 A 
ATOM     70  C   UNL     1     -11.007 -10.226   3.908  1.00  0.00     0.012 A 
ATOM     71  C   UNL     1     -11.571  -8.671   5.690  1.00  0.00     0.148 A 
ATOM     72  C   UNL     1     -12.273 -10.062   3.349  1.00  0.00     0.002 A 
ATOM     73  C   UNL     1     -12.849  -8.550   5.155  1.00  0.00     0.091 A 
ATOM     74  F   UNL     1     -11.192  -7.983   6.777  1.00  0.00    -0.205 F 
ATOM     75  C   UNL     1     -13.197  -9.232   3.977  1.00  0.00     0.022 A 
BRANCH  73  76
ATOM     76  S   UNL     1     -14.136  -7.565   5.929  1.00  0.00     0.127 S 
ATOM     77  O   UNL     1     -14.272  -6.460   4.981  1.00  0.00    -0.237 OA
ATOM     78  O   UNL     1     -15.265  -8.495   5.947  1.00  0.00    -0.237 OA
ATOM     79  O   UNL     1     -13.627  -7.200   7.244  1.00  0.00    -0.744 OA
ENDBRANCH  73  76
ENDBRANCH  55  69
BRANCH  56  80
ATOM     80  C   UNL     1      -1.216 -10.022   8.616  1.00  0.00     0.023 A 
ATOM     81  C   UNL     1      -0.546 -11.259   8.683  1.00  0.00     0.012 A 
ATOM     82  C   UNL     1      -0.535  -8.852   9.006  1.00  0.00     0.148 A 
ATOM     83  C   UNL     1       0.761 -11.337   9.164  1.00  0.00     0.002 A 
ATOM     84  C   UNL     1       0.786  -8.930   9.434  1.00  0.00     0.091 A 
ATOM     85  F   UNL     1      -1.188  -7.684   8.937  1.00  0.00    -0.205 F 
ATOM     86  C   UNL     1       1.430 -10.173   9.531  1.00  0.00     0.022 A 
BRANCH  84  87
ATOM     87  S   UNL     1       1.763  -7.466   9.797  1.00  0.00     0.127 S 
ATOM     88  O   UNL     1       1.846  -7.520  11.258  1.00  0.00    -0.237 OA
ATOM     89  O   UNL     1       3.019  -7.759   9.102  1.00  0.00    -0.237 OA
ATOM     90  O   UNL     1       1.019  -6.350   9.244  1.00  0.00    -0.744 OA
ENDBRANCH  84  87
ENDBRANCH  56  80
BRANCH  68  91
ATOM     91  C   UNL     1      -7.351 -12.609  10.715  1.00  0.00     0.023 A 
ATOM     92  C   UNL     1      -7.354 -12.068  12.015  1.00  0.00     0.012 A 
ATOM     93  C   UNL     1      -7.758 -13.941  10.514  1.00  0.00     0.148 A 
ATOM     94  C   UNL     1      -7.717 -12.856  13.106  1.00  0.00     0.002 A 
ATOM     95  C   UNL     1      -8.170 -14.703  11.598  1.00  0.00     0.091 A 
ATOM     96  F   UNL     1      -7.725 -14.443   9.270  1.00  0.00    -0.205 F 
ATOM     97  C   UNL     1      -8.136 -14.168  12.896  1.00  0.00     0.022 A 
BRANCH  95  98
ATOM     98  S   UNL     1      -8.823 -16.364  11.397  1.00  0.00     0.127 S 
ATOM     99  O   UNL     1      -7.679 -17.184  11.790  1.00  0.00    -0.237 OA
ATOM    100  O   UNL     1      -9.938 -16.378  12.344  1.00  0.00    -0.237 OA
ATOM    101  O   UNL     1      -9.222 -16.465  10.000  1.00  0.00    -0.744 OA
ENDBRANCH  95  98
ENDBRANCH  68  91
ENDBRANCH  42  43
ENDBRANCH  34  37
ENDBRANCH  32  33
ENDBRANCH  31  32
ENDBRANCH   1  31
TORSDOF 19
