REMARK SMILES CC(C)CCn1cc(C(=O)NCCCNC(=O)c2ccc(-c3c4nc(c(-c5cccc(S(=O)(=O)[O-])c5F)c5ccc([nH]5)c(-c5cccc(S(=O)(=O)[O-])c5F)c5nc(c(-c6cccc(S(=O)(=O)[O-])c6F)c6ccc3[nH]6)C=C5)C=C4)cc2)c(-c2ccoc2)n1
REMARK SMILES IDX 13 1 12 2 11 3 9 4 10 5 8 7 6 8 7 9 87 10 81 11 5 12 4 13
REMARK SMILES IDX 2 14 1 15 3 16 82 17 83 18 86 19 84 20 85 21 14 22 15 23
REMARK SMILES IDX 16 24 17 26 18 27 19 28 80 29 20 30 79 31 21 32 22 33 23 34
REMARK SMILES IDX 73 35 24 36 78 37 72 38 74 39 25 40 77 41 71 42 70 43 26 45
REMARK SMILES IDX 58 46 38 47 57 48 39 49 42 50 56 51 75 52 40 53 41 54 55 56
REMARK SMILES IDX 76 57 43 58 27 59 28 60 36 61 29 62 31 63 37 64 30 65 32 66
REMARK SMILES IDX 33 67 34 68 35 69 59 70 60 71 68 72 61 73 63 74 69 75 62 76
REMARK SMILES IDX 64 77 65 78 66 79 67 80 44 81 45 82 53 83 46 84 48 85 54 86
REMARK SMILES IDX 47 87 49 88 50 89 51 90 52 91
REMARK H PARENT 11 6 15 25 74 44 42 55
REMARK Flexibility Score: inf
ROOT
ATOM      1  C   UNL     1      -0.876   3.776   4.758  1.00  0.00     0.042 C 
ENDROOT
BRANCH   1   2
ATOM      2  C   UNL     1       0.376   2.894   4.814  1.00  0.00     0.118 C 
BRANCH   2   3
ATOM      3  N   UNL     1       0.338   1.951   5.915  1.00  0.00    -0.352 N 
ATOM      4  C   UNL     1      -0.015   0.621   5.979  1.00  0.00     0.255 C 
ATOM      5  O   UNL     1       0.231   0.044   7.025  1.00  0.00    -0.269 OA
ATOM      6  H   UNL     1       0.618   2.333   6.779  1.00  0.00     0.163 HD
BRANCH   4   7
ATOM      7  C   UNL     1      -0.573  -0.059   4.817  1.00  0.00     0.085 A 
ATOM      8  N   UNL     1      -1.313  -0.508   2.792  1.00  0.00    -0.271 N 
ATOM      9  C   UNL     1      -1.208   0.484   3.718  1.00  0.00     0.123 A 
ATOM     10  N   UNL     1      -1.009  -1.719   3.282  1.00  0.00    -0.172 NA
ATOM     11  C   UNL     1      -0.635  -1.459   4.548  1.00  0.00     0.108 A 
BRANCH   8  12
ATOM     12  C   UNL     1      -1.679  -0.345   1.396  1.00  0.00     0.144 C 
BRANCH  12  13
ATOM     13  C   UNL     1      -1.119   0.926   0.730  1.00  0.00     0.027 C 
BRANCH  13  14
ATOM     14  C   UNL     1       0.420   1.043   0.729  1.00  0.00    -0.016 C 
ATOM     15  C   UNL     1       1.072  -0.015  -0.159  1.00  0.00     0.007 C 
ATOM     16  C   UNL     1       0.842   2.442   0.269  1.00  0.00     0.007 C 
ENDBRANCH  13  14
ENDBRANCH  12  13
ENDBRANCH   8  12
BRANCH  11  17
ATOM     17  C   UNL     1      -0.334  -2.526   5.496  1.00  0.00     0.041 A 
ATOM     18  C   UNL     1       0.517  -3.634   5.262  1.00  0.00     0.052 A 
ATOM     19  C   UNL     1      -0.834  -2.686   6.770  1.00  0.00     0.205 A 
ATOM     20  C   UNL     1       0.505  -4.372   6.424  1.00  0.00     0.195 A 
ATOM     21  O   UNL     1      -0.329  -3.813   7.338  1.00  0.00    -0.472 OA
ENDBRANCH  11  17
ENDBRANCH   4   7
ENDBRANCH   2   3
ENDBRANCH   1   2
BRANCH   1  22
ATOM     22  C   UNL     1      -0.828   4.904   5.777  1.00  0.00     0.118 C 
BRANCH  22  23
ATOM     23  N   UNL     1       0.206   5.890   5.451  1.00  0.00    -0.352 N 
ATOM     24  C   UNL     1       0.632   6.972   6.191  1.00  0.00     0.251 C 
ATOM     25  H   UNL     1       0.659   5.762   4.586  1.00  0.00     0.163 HD
ATOM     26  O   UNL     1       1.266   7.876   5.658  1.00  0.00    -0.269 OA
BRANCH  24  27
ATOM     27  C   UNL     1       0.300   7.033   7.623  1.00  0.00     0.039 A 
ATOM     28  C   UNL     1      -0.132   8.228   8.207  1.00  0.00     0.014 A 
ATOM     29  C   UNL     1       0.383   5.862   8.370  1.00  0.00     0.014 A 
ATOM     30  C   UNL     1      -0.569   8.212   9.529  1.00  0.00     0.010 A 
ATOM     31  C   UNL     1      -0.191   5.815   9.615  1.00  0.00     0.010 A 
ATOM     32  C   UNL     1      -0.620   6.993  10.221  1.00  0.00    -0.014 A 
BRANCH  32  33
ATOM     33  C   UNL     1      -1.255   6.907  11.535  1.00  0.00     0.031 A 
ATOM     34  C   UNL     1      -2.667   7.384  11.569  1.00  0.00     0.074 A 
ATOM     35  C   UNL     1      -0.705   6.212  12.556  1.00  0.00     0.049 A 
ATOM     36  N   UNL     1      -3.151   8.394  12.215  1.00  0.00    -0.248 NA
ATOM     37  C   UNL     1      -3.631   6.750  10.653  1.00  0.00     0.031 C 
ATOM     38  C   UNL     1       0.528   5.411  12.526  1.00  0.00     0.029 A 
ATOM     39  N   UNL     1      -1.217   5.924  13.785  1.00  0.00    -0.354 N 
ATOM     40  C   UNL     1      -4.528   8.357  11.987  1.00  0.00     0.074 A 
ATOM     41  C   UNL     1      -4.721   7.492  10.855  1.00  0.00     0.031 C 
ATOM     42  C   UNL     1       0.515   4.528  13.546  1.00  0.00     0.029 A 
ATOM     43  C   UNL     1      -0.617   4.826  14.399  1.00  0.00     0.049 A 
ATOM     44  H   UNL     1      -1.942   6.444  14.201  1.00  0.00     0.167 HD
ATOM     45  C   UNL     1      -5.411   8.800  12.925  1.00  0.00     0.034 A 
ATOM     46  C   UNL     1      -1.045   4.175  15.506  1.00  0.00     0.034 A 
ATOM     47  C   UNL     1      -4.742   9.584  13.934  1.00  0.00     0.049 A 
ATOM     48  C   UNL     1      -1.967   5.084  16.214  1.00  0.00     0.074 A 
ATOM     49  C   UNL     1      -3.993  10.741  13.957  1.00  0.00     0.029 A 
ATOM     50  N   UNL     1      -4.500   8.940  15.122  1.00  0.00    -0.354 N 
ATOM     51  N   UNL     1      -1.594   6.197  16.778  1.00  0.00    -0.248 NA
ATOM     52  C   UNL     1      -3.394   4.946  15.978  1.00  0.00     0.031 C 
ATOM     53  C   UNL     1      -3.016  10.530  14.975  1.00  0.00     0.029 A 
ATOM     54  C   UNL     1      -3.254   9.284  15.560  1.00  0.00     0.049 A 
ATOM     55  H   UNL     1      -5.123   8.332  15.582  1.00  0.00     0.167 HD
ATOM     56  C   UNL     1      -2.645   7.069  16.534  1.00  0.00     0.074 A 
ATOM     57  C   UNL     1      -3.773   6.209  16.189  1.00  0.00     0.031 C 
ATOM     58  C   UNL     1      -2.412   8.400  16.338  1.00  0.00     0.034 A 
BRANCH  45  59
ATOM     59  C   UNL     1      -6.779   8.193  13.208  1.00  0.00     0.023 A 
ATOM     60  C   UNL     1      -7.565   8.828  14.201  1.00  0.00     0.012 A 
ATOM     61  C   UNL     1      -7.202   6.908  12.797  1.00  0.00     0.148 A 
ATOM     62  C   UNL     1      -8.651   8.187  14.809  1.00  0.00     0.002 A 
ATOM     63  C   UNL     1      -8.330   6.307  13.348  1.00  0.00     0.091 A 
ATOM     64  F   UNL     1      -6.454   6.184  11.964  1.00  0.00    -0.205 F 
ATOM     65  C   UNL     1      -9.035   6.924  14.381  1.00  0.00     0.022 A 
BRANCH  63  66
ATOM     66  S   UNL     1      -8.902   4.695  12.792  1.00  0.00     0.127 S 
ATOM     67  O   UNL     1      -8.508   3.845  13.911  1.00  0.00    -0.237 OA
ATOM     68  O   UNL     1     -10.342   4.920  12.658  1.00  0.00    -0.237 OA
ATOM     69  O   UNL     1      -8.219   4.453  11.527  1.00  0.00    -0.744 OA
ENDBRANCH  63  66
ENDBRANCH  45  59
BRANCH  46  70
ATOM     70  C   UNL     1      -0.883   2.764  15.919  1.00  0.00     0.023 A 
ATOM     71  C   UNL     1      -0.995   2.425  17.282  1.00  0.00     0.012 A 
ATOM     72  C   UNL     1      -0.913   1.723  14.966  1.00  0.00     0.148 A 
ATOM     73  C   UNL     1      -1.179   1.097  17.683  1.00  0.00     0.002 A 
ATOM     74  C   UNL     1      -1.096   0.403  15.369  1.00  0.00     0.091 A 
ATOM     75  F   UNL     1      -0.857   2.041  13.665  1.00  0.00    -0.205 F 
ATOM     76  C   UNL     1      -1.243   0.088  16.726  1.00  0.00     0.022 A 
BRANCH  74  77
ATOM     77  S   UNL     1      -1.227  -0.953  14.196  1.00  0.00     0.127 S 
ATOM     78  O   UNL     1      -0.287  -1.925  14.754  1.00  0.00    -0.237 OA
ATOM     79  O   UNL     1      -2.635  -1.321  14.320  1.00  0.00    -0.237 OA
ATOM     80  O   UNL     1      -0.828  -0.399  12.909  1.00  0.00    -0.744 OA
ENDBRANCH  74  77
ENDBRANCH  46  70
BRANCH  58  81
ATOM     81  C   UNL     1      -1.069   8.947  16.747  1.00  0.00     0.023 A 
ATOM     82  C   UNL     1       0.139   8.550  16.137  1.00  0.00     0.012 A 
ATOM     83  C   UNL     1      -1.048  10.008  17.668  1.00  0.00     0.148 A 
ATOM     84  C   UNL     1       1.343   9.182  16.458  1.00  0.00     0.002 A 
ATOM     85  C   UNL     1       0.141  10.667  17.945  1.00  0.00     0.091 A 
ATOM     86  F   UNL     1      -2.205  10.372  18.241  1.00  0.00    -0.205 F 
ATOM     87  C   UNL     1       1.343  10.251  17.351  1.00  0.00     0.022 A 
BRANCH  85  88
ATOM     88  S   UNL     1       0.171  12.130  18.983  1.00  0.00     0.127 S 
ATOM     89  O   UNL     1       0.684  11.601  20.244  1.00  0.00    -0.237 OA
ATOM     90  O   UNL     1       1.097  13.008  18.265  1.00  0.00    -0.237 OA
ATOM     91  O   UNL     1      -1.201  12.621  19.016  1.00  0.00    -0.744 OA
ENDBRANCH  85  88
ENDBRANCH  58  81
ENDBRANCH  32  33
ENDBRANCH  24  27
ENDBRANCH  22  23
ENDBRANCH   1  22
TORSDOF 17
