REMARK SMILES Cc1nn([C@H]2CCS(=O)(=O)C2)c(C)c1/C=C(\CC(=O)NCCCNC(=O)c1ccc(-c2c3nc(c(-c4cccc(S(=O)(=O)[O-])c4F)c4ccc([nH]4)c(-c4cccc(S(=O)(=O)[O-])c4F)c4nc(c(-c5cccc(S(=O)(=O)[O-])c5F)c5ccc2[nH]5)C=C4)C=C3)cc1)c1nc2ccccc2s1
REMARK SMILES IDX 22 1 21 2 20 3 18 4 19 5 17 7 16 8 15 9 14 10 1 11 2 12 3 13
REMARK SMILES IDX 4 14 12 15 13 16 5 17 6 18 11 19 7 20 8 21 9 22 10 23 90 24
REMARK SMILES IDX 91 25 98 26 92 27 97 28 93 29 96 30 94 31 95 32 23 33 24 34
REMARK SMILES IDX 25 35 26 37 27 38 28 39 89 40 29 41 88 42 30 43 31 44 32 45
REMARK SMILES IDX 82 46 33 47 87 48 81 49 83 50 34 51 86 52 80 53 79 54 35 56
REMARK SMILES IDX 67 57 47 58 66 59 48 60 51 61 65 62 84 63 49 64 50 65 64 67
REMARK SMILES IDX 85 68 52 69 36 70 37 71 45 72 38 73 40 74 46 75 39 76 41 77
REMARK SMILES IDX 42 78 43 79 44 80 68 81 69 82 77 83 70 84 72 85 78 86 71 87
REMARK SMILES IDX 73 88 74 89 75 90 76 91 53 92 54 93 62 94 55 95 57 96 63 97
REMARK SMILES IDX 56 98 58 99 59 100 60 101 61 102
REMARK H PARENT 20 6 24 36 83 55 51 66
REMARK Flexibility Score: inf
ROOT
ATOM      1  C   UNL     1       2.595  -6.610  -5.247  1.00  0.00     0.042 C 
ENDROOT
BRANCH   1   2
ATOM      2  C   UNL     1       3.077  -6.338  -3.821  1.00  0.00     0.117 C 
BRANCH   2   3
ATOM      3  N   UNL     1       4.336  -5.627  -3.772  1.00  0.00    -0.356 N 
ATOM      4  C   UNL     1       4.572  -4.291  -3.636  1.00  0.00     0.224 C 
ATOM      5  O   UNL     1       5.739  -3.915  -3.547  1.00  0.00    -0.275 OA
ATOM      6  H   UNL     1       5.139  -6.191  -3.847  1.00  0.00     0.163 HD
BRANCH   4   7
ATOM      7  C   UNL     1       3.419  -3.327  -3.415  1.00  0.00     0.138 C 
BRANCH   7   8
ATOM      8  C   UNL     1       2.473  -3.098  -4.571  1.00  0.00    -0.002 C 
ATOM      9  C   UNL     1       1.143  -3.357  -4.579  1.00  0.00     0.019 C 
BRANCH   9  10
ATOM     10  C   UNL     1       0.286  -4.013  -3.623  1.00  0.00     0.019 A 
ATOM     11  C   UNL     1      -1.458  -4.998  -5.341  1.00  0.00     0.069 C 
ATOM     12  C   UNL     1      -0.860  -4.774  -4.000  1.00  0.00     0.067 A 
ATOM     13  N   UNL     1      -1.418  -5.371  -2.950  1.00  0.00    -0.177 NA
ATOM     14  N   UNL     1      -0.612  -5.068  -1.917  1.00  0.00    -0.265 N 
ATOM     15  C   UNL     1       0.290  -4.075  -2.229  1.00  0.00     0.043 A 
ATOM     16  C   UNL     1       1.027  -3.309  -1.189  1.00  0.00     0.067 C 
BRANCH  14  17
ATOM     17  C   UNL     1      -0.861  -5.852  -0.724  1.00  0.00     0.123 C 
ATOM     18  C   UNL     1      -0.596  -7.356  -0.980  1.00  0.00     0.044 C 
ATOM     19  C   UNL     1      -0.112  -5.575   0.574  1.00  0.00     0.164 C 
ATOM     20  C   UNL     1      -1.029  -8.071   0.291  1.00  0.00     0.139 C 
ATOM     21  S   UNL     1      -0.603  -6.948   1.613  1.00  0.00     0.152 S 
ATOM     22  O   UNL     1      -1.833  -6.573   2.300  1.00  0.00    -0.229 OA
ATOM     23  O   UNL     1       0.545  -7.449   2.317  1.00  0.00    -0.229 OA
ENDBRANCH  14  17
ENDBRANCH   9  10
BRANCH   8  24
ATOM     24  C   UNL     1       3.059  -2.591  -5.787  1.00  0.00     0.121 A 
ATOM     25  N   UNL     1       3.993  -3.224  -6.464  1.00  0.00    -0.236 NA
ATOM     26  S   UNL     1       2.764  -0.978  -6.327  1.00  0.00    -0.114 S 
ATOM     27  C   UNL     1       4.775  -2.306  -7.147  1.00  0.00     0.082 A 
ATOM     28  C   UNL     1       4.264  -1.007  -7.181  1.00  0.00     0.055 A 
ATOM     29  C   UNL     1       6.032  -2.559  -7.729  1.00  0.00     0.030 A 
ATOM     30  C   UNL     1       4.961   0.051  -7.787  1.00  0.00     0.021 A 
ATOM     31  C   UNL     1       6.766  -1.499  -8.270  1.00  0.00     0.002 A 
ATOM     32  C   UNL     1       6.236  -0.213  -8.299  1.00  0.00     0.002 A 
ENDBRANCH   8  24
ENDBRANCH   7   8
ENDBRANCH   4   7
ENDBRANCH   2   3
ENDBRANCH   1   2
BRANCH   1  33
ATOM     33  C   UNL     1       3.390  -7.708  -5.938  1.00  0.00     0.118 C 
BRANCH  33  34
ATOM     34  N   UNL     1       3.165  -9.024  -5.325  1.00  0.00    -0.352 N 
ATOM     35  C   UNL     1       3.938 -10.164  -5.423  1.00  0.00     0.251 C 
ATOM     36  H   UNL     1       2.355  -9.104  -4.771  1.00  0.00     0.163 HD
ATOM     37  O   UNL     1       3.482 -11.262  -5.127  1.00  0.00    -0.269 OA
BRANCH  35  38
ATOM     38  C   UNL     1       5.322 -10.027  -5.901  1.00  0.00     0.039 A 
ATOM     39  C   UNL     1       5.827 -10.846  -6.915  1.00  0.00     0.014 A 
ATOM     40  C   UNL     1       6.069  -8.975  -5.388  1.00  0.00     0.014 A 
ATOM     41  C   UNL     1       7.062 -10.532  -7.481  1.00  0.00     0.010 A 
ATOM     42  C   UNL     1       7.189  -8.568  -6.066  1.00  0.00     0.010 A 
ATOM     43  C   UNL     1       7.732  -9.371  -7.070  1.00  0.00    -0.014 A 
BRANCH  43  44
ATOM     44  C   UNL     1       8.970  -8.938  -7.716  1.00  0.00     0.031 A 
ATOM     45  C   UNL     1       8.945  -8.783  -9.200  1.00  0.00     0.074 A 
ATOM     46  C   UNL     1      10.013  -8.457  -7.004  1.00  0.00     0.049 A 
ATOM     47  N   UNL     1       9.653  -9.422 -10.075  1.00  0.00    -0.248 NA
ATOM     48  C   UNL     1       7.972  -7.852  -9.790  1.00  0.00     0.031 C 
ATOM     49  C   UNL     1      10.091  -8.238  -5.551  1.00  0.00     0.029 A 
ATOM     50  N   UNL     1      11.168  -7.894  -7.453  1.00  0.00    -0.354 N 
ATOM     51  C   UNL     1       9.377  -8.823 -11.305  1.00  0.00     0.074 A 
ATOM     52  C   UNL     1       8.224  -7.987 -11.094  1.00  0.00     0.031 C 
ATOM     53  C   UNL     1      11.060  -7.339  -5.285  1.00  0.00     0.029 A 
ATOM     54  C   UNL     1      11.802  -7.103  -6.504  1.00  0.00     0.049 A 
ATOM     55  H   UNL     1      11.518  -8.033  -8.362  1.00  0.00     0.167 HD
ATOM     56  C   UNL     1      10.253  -8.884 -12.349  1.00  0.00     0.034 A 
ATOM     57  C   UNL     1      12.856  -6.282  -6.702  1.00  0.00     0.034 A 
ATOM     58  C   UNL     1      11.285  -9.863 -12.125  1.00  0.00     0.049 A 
ATOM     59  C   UNL     1      13.552  -6.755  -7.916  1.00  0.00     0.074 A 
ATOM     60  C   UNL     1      11.333 -11.224 -11.913  1.00  0.00     0.029 A 
ATOM     61  N   UNL     1      12.516  -9.379 -11.756  1.00  0.00    -0.354 N 
ATOM     62  N   UNL     1      14.133  -7.920  -8.004  1.00  0.00    -0.248 NA
ATOM     63  C   UNL     1      13.276  -6.098  -9.181  1.00  0.00     0.031 C 
ATOM     64  C   UNL     1      12.412 -11.416 -10.999  1.00  0.00     0.029 A 
ATOM     65  C   UNL     1      12.979 -10.165 -10.736  1.00  0.00     0.049 A 
ATOM     66  H   UNL     1      12.980  -8.607 -12.152  1.00  0.00     0.167 HD
ATOM     67  C   UNL     1      13.886  -8.335  -9.305  1.00  0.00     0.074 A 
ATOM     68  C   UNL     1      13.499  -7.118 -10.015  1.00  0.00     0.031 C 
ATOM     69  C   UNL     1      13.735  -9.660  -9.608  1.00  0.00     0.034 A 
BRANCH  56  70
ATOM     70  C   UNL     1      10.417  -7.834 -13.429  1.00  0.00     0.023 A 
ATOM     71  C   UNL     1      11.240  -8.159 -14.534  1.00  0.00     0.012 A 
ATOM     72  C   UNL     1      10.053  -6.477 -13.286  1.00  0.00     0.148 A 
ATOM     73  C   UNL     1      11.716  -7.181 -15.416  1.00  0.00     0.002 A 
ATOM     74  C   UNL     1      10.461  -5.521 -14.213  1.00  0.00     0.091 A 
ATOM     75  F   UNL     1       9.425  -6.065 -12.180  1.00  0.00    -0.205 F 
ATOM     76  C   UNL     1      11.319  -5.860 -15.261  1.00  0.00     0.022 A 
BRANCH  74  77
ATOM     77  S   UNL     1       9.920  -3.813 -14.083  1.00  0.00     0.127 S 
ATOM     78  O   UNL     1      11.071  -3.188 -13.440  1.00  0.00    -0.237 OA
ATOM     79  O   UNL     1       9.720  -3.448 -15.487  1.00  0.00    -0.237 OA
ATOM     80  O   UNL     1       8.688  -3.866 -13.305  1.00  0.00    -0.744 OA
ENDBRANCH  74  77
ENDBRANCH  56  70
BRANCH  57  81
ATOM     81  C   UNL     1      13.170  -5.014  -6.017  1.00  0.00     0.023 A 
ATOM     82  C   UNL     1      14.501  -4.577  -5.913  1.00  0.00     0.012 A 
ATOM     83  C   UNL     1      12.134  -4.114  -5.671  1.00  0.00     0.148 A 
ATOM     84  C   UNL     1      14.795  -3.273  -5.496  1.00  0.00     0.002 A 
ATOM     85  C   UNL     1      12.432  -2.820  -5.256  1.00  0.00     0.091 A 
ATOM     86  F   UNL     1      10.863  -4.508  -5.828  1.00  0.00    -0.205 F 
ATOM     87  C   UNL     1      13.763  -2.394  -5.176  1.00  0.00     0.022 A 
BRANCH  85  88
ATOM     88  S   UNL     1      11.159  -1.614  -4.857  1.00  0.00     0.127 S 
ATOM     89  O   UNL     1      11.583  -1.157  -3.533  1.00  0.00    -0.237 OA
ATOM     90  O   UNL     1      11.328  -0.632  -5.926  1.00  0.00    -0.237 OA
ATOM     91  O   UNL     1       9.902  -2.347  -4.871  1.00  0.00    -0.744 OA
ENDBRANCH  85  88
ENDBRANCH  57  81
BRANCH  69  92
ATOM     92  C   UNL     1      14.101 -10.678  -8.551  1.00  0.00     0.023 A 
ATOM     93  C   UNL     1      13.386 -10.774  -7.338  1.00  0.00     0.012 A 
ATOM     94  C   UNL     1      15.040 -11.677  -8.861  1.00  0.00     0.148 A 
ATOM     95  C   UNL     1      13.615 -11.824  -6.445  1.00  0.00     0.002 A 
ATOM     96  C   UNL     1      15.235 -12.744  -7.990  1.00  0.00     0.091 A 
ATOM     97  F   UNL     1      15.700 -11.586 -10.025  1.00  0.00    -0.205 F 
ATOM     98  C   UNL     1      14.531 -12.816  -6.777  1.00  0.00     0.022 A 
BRANCH  96  99
ATOM     99  S   UNL     1      16.303 -14.126  -8.406  1.00  0.00     0.127 S 
ATOM    100  O   UNL     1      17.439 -13.915  -7.512  1.00  0.00    -0.237 OA
ATOM    101  O   UNL     1      15.467 -15.280  -8.069  1.00  0.00    -0.237 OA
ATOM    102  O   UNL     1      16.593 -13.996  -9.828  1.00  0.00    -0.744 OA
ENDBRANCH  96  99
ENDBRANCH  69  92
ENDBRANCH  43  44
ENDBRANCH  35  38
ENDBRANCH  33  34
ENDBRANCH   1  33
TORSDOF 17
