REMARK SMILES C[NH+](C)CCNC(=O)NC1(CC(=O)NCCCNC(=O)c2ccc(-c3c4nc(c(-c5cccc(S(=O)(=O)[O-])c5F)c5ccc([nH]5)c(-c5cccc(S(=O)(=O)[O-])c5F)c5nc(c(-c6cccc(S(=O)(=O)[O-])c6F)c6ccc3[nH]6)C=C5)C=C4)cc2)CCC1
REMARK SMILES IDX 15 1 14 2 12 3 13 4 11 6 10 7 84 8 86 9 85 10 9 11 6 12 7 13
REMARK SMILES IDX 8 15 5 17 4 18 2 19 1 20 3 21 16 23 17 24 18 25 19 26 20 28
REMARK SMILES IDX 21 29 22 30 83 31 23 32 82 33 24 34 25 35 26 36 76 37 27 38
REMARK SMILES IDX 81 39 75 40 77 41 28 42 80 43 74 44 73 45 29 47 61 48 41 49
REMARK SMILES IDX 60 50 42 51 45 52 59 53 78 54 43 55 44 56 58 58 79 59 46 60
REMARK SMILES IDX 30 61 31 62 39 63 32 64 34 65 40 66 33 67 35 68 36 69 37 70
REMARK SMILES IDX 38 71 62 72 63 73 71 74 64 75 66 76 72 77 65 78 67 79 68 80
REMARK SMILES IDX 69 81 70 82 47 83 48 84 56 85 49 86 51 87 57 88 50 89 52 90
REMARK SMILES IDX 53 91 54 92 55 93
REMARK H PARENT 14 5 6 14 9 16 2 22 18 27 77 46 45 57
REMARK Flexibility Score: inf
ROOT
ATOM      1  C   UNL     1       3.901   7.457  -2.064  1.00  0.00     0.117 C 
ENDROOT
BRANCH   1   2
ATOM      2  N   UNL     1       4.364   6.223  -1.461  1.00  0.00    -0.356 N 
ATOM      3  C   UNL     1       3.658   5.122  -1.091  1.00  0.00     0.222 C 
ATOM      4  O   UNL     1       4.251   4.251  -0.452  1.00  0.00    -0.275 OA
ATOM      5  H   UNL     1       5.333   6.176  -1.295  1.00  0.00     0.163 HD
BRANCH   3   6
ATOM      6  C   UNL     1       2.220   4.942  -1.530  1.00  0.00     0.128 C 
BRANCH   6   7
ATOM      7  C   UNL     1       1.117   5.203  -0.485  1.00  0.00     0.051 C 
ATOM      8  C   UNL     1      -0.387   5.035  -0.933  1.00  0.00     0.029 C 
ATOM      9  C   UNL     1       0.723   6.718  -0.305  1.00  0.00     0.029 C 
ATOM     10  C   UNL     1      -0.399   6.513  -1.325  1.00  0.00     0.005 C 
BRANCH   7  11
ATOM     11  N   UNL     1       1.426   4.590   0.826  1.00  0.00    -0.332 N 
ATOM     12  N   UNL     1       1.208   2.235   0.608  1.00  0.00    -0.332 N 
ATOM     13  C   UNL     1       1.531   3.335   1.298  1.00  0.00     0.315 C 
ATOM     14  H   UNL     1       1.519   1.402   1.029  1.00  0.00     0.165 HD
ATOM     15  O   UNL     1       1.939   3.182   2.453  1.00  0.00    -0.249 OA
ATOM     16  H   UNL     1       1.596   5.266   1.522  1.00  0.00     0.165 HD
BRANCH  12  17
ATOM     17  C   UNL     1       0.495   2.024  -0.630  1.00  0.00     0.179 C 
BRANCH  17  18
ATOM     18  C   UNL     1       0.966   0.806  -1.442  1.00  0.00     0.283 C 
BRANCH  18  19
ATOM     19  N   UNL     1       0.337  -0.495  -1.179  1.00  0.00    -0.338 N 
ATOM     20  C   UNL     1       0.695  -1.040   0.124  1.00  0.00     0.332 C 
ATOM     21  C   UNL     1      -1.112  -0.467  -1.363  1.00  0.00     0.332 C 
ATOM     22  H   UNL     1       0.716  -1.129  -1.882  1.00  0.00     0.347 HD
ENDBRANCH  18  19
ENDBRANCH  17  18
ENDBRANCH  12  17
ENDBRANCH   7  11
ENDBRANCH   6   7
ENDBRANCH   3   6
ENDBRANCH   1   2
BRANCH   1  23
ATOM     23  C   UNL     1       3.716   8.532  -1.002  1.00  0.00     0.042 C 
BRANCH  23  24
ATOM     24  C   UNL     1       5.018   9.157  -0.538  1.00  0.00     0.118 C 
BRANCH  24  25
ATOM     25  N   UNL     1       5.591  10.021  -1.554  1.00  0.00    -0.352 N 
ATOM     26  C   UNL     1       5.539  11.384  -1.708  1.00  0.00     0.251 C 
ATOM     27  H   UNL     1       6.104   9.550  -2.251  1.00  0.00     0.163 HD
ATOM     28  O   UNL     1       5.849  11.857  -2.800  1.00  0.00    -0.269 OA
BRANCH  26  29
ATOM     29  C   UNL     1       5.124  12.286  -0.604  1.00  0.00     0.039 A 
ATOM     30  C   UNL     1       4.519  13.505  -0.930  1.00  0.00     0.014 A 
ATOM     31  C   UNL     1       5.404  12.004   0.735  1.00  0.00     0.014 A 
ATOM     32  C   UNL     1       4.192  14.419   0.076  1.00  0.00     0.010 A 
ATOM     33  C   UNL     1       4.968  12.859   1.745  1.00  0.00     0.010 A 
ATOM     34  C   UNL     1       4.404  14.100   1.427  1.00  0.00    -0.014 A 
BRANCH  34  35
ATOM     35  C   UNL     1       4.106  15.078   2.505  1.00  0.00     0.031 A 
ATOM     36  C   UNL     1       5.210  15.582   3.404  1.00  0.00     0.074 A 
ATOM     37  C   UNL     1       2.836  15.479   2.710  1.00  0.00     0.049 A 
ATOM     38  N   UNL     1       5.144  16.444   4.386  1.00  0.00    -0.248 NA
ATOM     39  C   UNL     1       6.557  15.025   3.195  1.00  0.00     0.031 C 
ATOM     40  C   UNL     1       1.666  14.992   1.976  1.00  0.00     0.029 A 
ATOM     41  N   UNL     1       2.315  16.380   3.604  1.00  0.00    -0.354 N 
ATOM     42  C   UNL     1       6.421  16.497   4.934  1.00  0.00     0.074 A 
ATOM     43  C   UNL     1       7.233  15.549   4.207  1.00  0.00     0.031 C 
ATOM     44  C   UNL     1       0.569  15.616   2.434  1.00  0.00     0.029 A 
ATOM     45  C   UNL     1       0.952  16.533   3.503  1.00  0.00     0.049 A 
ATOM     46  H   UNL     1       2.865  16.871   4.257  1.00  0.00     0.167 HD
ATOM     47  C   UNL     1       6.892  17.293   5.924  1.00  0.00     0.034 A 
ATOM     48  C   UNL     1       0.109  17.334   4.183  1.00  0.00     0.034 A 
ATOM     49  C   UNL     1       6.101  18.286   6.597  1.00  0.00     0.049 A 
ATOM     50  C   UNL     1       0.673  18.281   5.207  1.00  0.00     0.074 A 
ATOM     51  C   UNL     1       6.500  19.208   7.548  1.00  0.00     0.029 A 
ATOM     52  N   UNL     1       4.747  18.492   6.382  1.00  0.00    -0.354 N 
ATOM     53  N   UNL     1       1.917  18.433   5.592  1.00  0.00    -0.248 NA
ATOM     54  C   UNL     1      -0.273  19.201   5.854  1.00  0.00     0.031 C 
ATOM     55  C   UNL     1       5.383  19.968   7.913  1.00  0.00     0.029 A 
ATOM     56  C   UNL     1       4.294  19.529   7.177  1.00  0.00     0.049 A 
ATOM     57  H   UNL     1       4.189  17.975   5.756  1.00  0.00     0.167 HD
ATOM     58  C   UNL     1       1.910  19.490   6.496  1.00  0.00     0.074 A 
ATOM     59  C   UNL     1       0.540  19.954   6.582  1.00  0.00     0.031 C 
ATOM     60  C   UNL     1       2.939  20.018   7.203  1.00  0.00     0.034 A 
BRANCH  47  61
ATOM     61  C   UNL     1       8.351  17.174   6.286  1.00  0.00     0.023 A 
ATOM     62  C   UNL     1       9.330  17.647   5.386  1.00  0.00     0.012 A 
ATOM     63  C   UNL     1       8.756  16.645   7.527  1.00  0.00     0.148 A 
ATOM     64  C   UNL     1      10.686  17.562   5.699  1.00  0.00     0.002 A 
ATOM     65  C   UNL     1      10.108  16.606   7.851  1.00  0.00     0.091 A 
ATOM     66  F   UNL     1       7.816  16.179   8.362  1.00  0.00    -0.205 F 
ATOM     67  C   UNL     1      11.074  17.052   6.934  1.00  0.00     0.022 A 
BRANCH  65  68
ATOM     68  S   UNL     1      10.706  16.042   9.449  1.00  0.00     0.127 S 
ATOM     69  O   UNL     1      11.293  14.748   9.104  1.00  0.00    -0.237 OA
ATOM     70  O   UNL     1      11.678  17.078   9.799  1.00  0.00    -0.237 OA
ATOM     71  O   UNL     1       9.538  15.990  10.317  1.00  0.00    -0.744 OA
ENDBRANCH  65  68
ENDBRANCH  47  61
BRANCH  48  72
ATOM     72  C   UNL     1      -1.340  17.351   3.833  1.00  0.00     0.023 A 
ATOM     73  C   UNL     1      -1.875  18.471   3.166  1.00  0.00     0.012 A 
ATOM     74  C   UNL     1      -2.178  16.255   4.114  1.00  0.00     0.148 A 
ATOM     75  C   UNL     1      -3.224  18.512   2.814  1.00  0.00     0.002 A 
ATOM     76  C   UNL     1      -3.508  16.279   3.711  1.00  0.00     0.091 A 
ATOM     77  F   UNL     1      -1.654  15.204   4.760  1.00  0.00    -0.205 F 
ATOM     78  C   UNL     1      -4.038  17.413   3.076  1.00  0.00     0.022 A 
BRANCH  76  79
ATOM     79  S   UNL     1      -4.588  14.854   3.882  1.00  0.00     0.127 S 
ATOM     80  O   UNL     1      -5.442  15.256   4.994  1.00  0.00    -0.237 OA
ATOM     81  O   UNL     1      -5.250  14.813   2.578  1.00  0.00    -0.237 OA
ATOM     82  O   UNL     1      -3.701  13.724   4.134  1.00  0.00    -0.744 OA
ENDBRANCH  76  79
ENDBRANCH  48  72
BRANCH  60  83
ATOM     83  C   UNL     1       2.637  21.184   8.106  1.00  0.00     0.023 A 
ATOM     84  C   UNL     1       1.927  20.975   9.304  1.00  0.00     0.012 A 
ATOM     85  C   UNL     1       3.112  22.473   7.798  1.00  0.00     0.148 A 
ATOM     86  C   UNL     1       1.662  22.040  10.165  1.00  0.00     0.002 A 
ATOM     87  C   UNL     1       2.885  23.520   8.683  1.00  0.00     0.091 A 
ATOM     88  F   UNL     1       3.768  22.658   6.643  1.00  0.00    -0.205 F 
ATOM     89  C   UNL     1       2.150  23.308   9.860  1.00  0.00     0.022 A 
BRANCH  87  90
ATOM     90  S   UNL     1       3.564  25.161   8.409  1.00  0.00     0.127 S 
ATOM     91  O   UNL     1       2.407  25.878   7.877  1.00  0.00    -0.237 OA
ATOM     92  O   UNL     1       3.965  25.567   9.757  1.00  0.00    -0.237 OA
ATOM     93  O   UNL     1       4.675  24.978   7.484  1.00  0.00    -0.744 OA
ENDBRANCH  87  90
ENDBRANCH  60  83
ENDBRANCH  34  35
ENDBRANCH  26  29
ENDBRANCH  24  25
ENDBRANCH  23  24
ENDBRANCH   1  23
TORSDOF 18
