REMARK SMILES Cc1cc(C)c2c(c1)C=C(C(=O)NCCCNC(=O)c1ccc(-c3c4nc(c(-c5cccc(S(=O)(=O)[O-])c5F)c5ccc([nH]5)c(-c5cccc(S(=O)(=O)[O-])c5F)c5nc(c(-c6cccc(S(=O)(=O)[O-])c6F)c6ccc3[nH]6)C=C5)C=C4)cc1)[C@@H](C(F)(F)F)O2
REMARK SMILES IDX 16 1 15 2 14 3 13 4 11 5 12 6 10 8 1 9 2 10 3 11 8 12 4 13
REMARK SMILES IDX 7 14 5 15 6 16 9 17 88 18 83 19 84 20 85 21 86 22 87 23
REMARK SMILES IDX 17 24 18 25 19 27 20 28 21 29 82 30 22 31 81 32 23 33 24 34
REMARK SMILES IDX 25 35 75 36 26 37 80 38 74 39 76 40 27 41 79 42 73 43 72 44
REMARK SMILES IDX 28 46 60 47 40 48 59 49 41 50 44 51 58 52 77 53 42 54 43 55
REMARK SMILES IDX 57 57 78 58 45 59 29 60 30 61 38 62 31 63 33 64 39 65 32 66
REMARK SMILES IDX 34 67 35 68 36 69 37 70 61 71 62 72 70 73 63 74 65 75 71 76
REMARK SMILES IDX 64 77 66 78 67 79 68 80 69 81 46 82 47 83 55 84 48 85 50 86
REMARK SMILES IDX 56 87 49 88 51 89 52 90 53 91 54 92
REMARK H PARENT 13 7 17 26 76 45 44 56
REMARK Flexibility Score: inf
ROOT
ATOM      1  C   UNL     1      -1.566   1.600  10.883  1.00  0.00     0.118 C 
ENDROOT
BRANCH   1   2
ATOM      2  C   UNL     1      -1.304   0.619   9.749  1.00  0.00     0.042 C 
BRANCH   2   3
ATOM      3  C   UNL     1      -2.320   0.757   8.626  1.00  0.00     0.118 C 
BRANCH   3   4
ATOM      4  N   UNL     1      -2.035   1.894   7.762  1.00  0.00    -0.352 N 
ATOM      5  C   UNL     1      -1.589   2.092   6.500  1.00  0.00     0.251 C 
ATOM      6  O   UNL     1      -1.523   3.273   6.141  1.00  0.00    -0.270 OA
ATOM      7  H   UNL     1      -2.214   2.748   8.219  1.00  0.00     0.163 HD
BRANCH   5   8
ATOM      8  C   UNL     1      -1.198   1.009   5.552  1.00  0.00     0.067 C 
ATOM      9  C   UNL     1       0.934   0.131  -0.192  1.00  0.00     0.044 C 
ATOM     10  C   UNL     1       0.485  -0.242   1.189  1.00  0.00    -0.050 A 
ATOM     11  C   UNL     1       0.520  -1.583   1.595  1.00  0.00     0.010 A 
ATOM     12  C   UNL     1       0.093   0.745   2.105  1.00  0.00     0.015 A 
ATOM     13  C   UNL     1       0.152  -1.949   2.894  1.00  0.00    -0.008 A 
ATOM     14  C   UNL     1      -0.283   0.394   3.404  1.00  0.00     0.018 A 
ATOM     15  C   UNL     1       0.191  -3.385   3.332  1.00  0.00     0.048 C 
ATOM     16  C   UNL     1      -0.253  -0.949   3.786  1.00  0.00     0.130 A 
ATOM     17  C   UNL     1      -0.666   1.408   4.381  1.00  0.00     0.025 C 
ATOM     18  O   UNL     1      -0.563  -1.348   5.055  1.00  0.00    -0.475 OA
ATOM     19  C   UNL     1      -1.395  -0.452   5.829  1.00  0.00     0.314 C 
BRANCH  19  20
ATOM     20  C   UNL     1      -2.867  -0.886   5.690  1.00  0.00     0.429 C 
ATOM     21  F   UNL     1      -3.075  -2.078   6.304  1.00  0.00    -0.167 F 
ATOM     22  F   UNL     1      -3.729  -0.009   6.260  1.00  0.00    -0.167 F 
ATOM     23  F   UNL     1      -3.255  -1.024   4.401  1.00  0.00    -0.167 F 
ENDBRANCH  19  20
ENDBRANCH   5   8
ENDBRANCH   3   4
ENDBRANCH   2   3
ENDBRANCH   1   2
BRANCH   1  24
ATOM     24  N   UNL     1      -2.861   1.360  11.518  1.00  0.00    -0.352 N 
ATOM     25  C   UNL     1      -3.159   0.796  12.731  1.00  0.00     0.251 C 
ATOM     26  H   UNL     1      -3.641   1.649  10.991  1.00  0.00     0.163 HD
ATOM     27  O   UNL     1      -4.308   0.417  12.960  1.00  0.00    -0.269 OA
BRANCH  25  28
ATOM     28  C   UNL     1      -2.110   0.651  13.756  1.00  0.00     0.039 A 
ATOM     29  C   UNL     1      -2.070  -0.502  14.544  1.00  0.00     0.014 A 
ATOM     30  C   UNL     1      -1.179   1.672  13.956  1.00  0.00     0.014 A 
ATOM     31  C   UNL     1      -1.057  -0.651  15.493  1.00  0.00     0.010 A 
ATOM     32  C   UNL     1      -0.114   1.478  14.824  1.00  0.00     0.010 A 
ATOM     33  C   UNL     1      -0.054   0.325  15.617  1.00  0.00    -0.014 A 
BRANCH  33  34
ATOM     34  C   UNL     1       1.056   0.178  16.588  1.00  0.00     0.031 A 
ATOM     35  C   UNL     1       1.225   1.191  17.689  1.00  0.00     0.074 A 
ATOM     36  C   UNL     1       1.956  -0.813  16.426  1.00  0.00     0.049 A 
ATOM     37  N   UNL     1       2.168   1.274  18.590  1.00  0.00    -0.248 NA
ATOM     38  C   UNL     1       0.224   2.270  17.774  1.00  0.00     0.031 C 
ATOM     39  C   UNL     1       1.939  -1.801  15.344  1.00  0.00     0.029 A 
ATOM     40  N   UNL     1       3.074  -1.136  17.152  1.00  0.00    -0.354 N 
ATOM     41  C   UNL     1       1.897   2.426  19.317  1.00  0.00     0.074 A 
ATOM     42  C   UNL     1       0.724   3.034  18.735  1.00  0.00     0.031 C 
ATOM     43  C   UNL     1       2.991  -2.623  15.483  1.00  0.00     0.029 A 
ATOM     44  C   UNL     1       3.776  -2.204  16.640  1.00  0.00     0.049 A 
ATOM     45  H   UNL     1       3.349  -0.651  17.963  1.00  0.00     0.167 HD
ATOM     46  C   UNL     1       2.547   2.912  20.399  1.00  0.00     0.034 A 
ATOM     47  C   UNL     1       4.925  -2.774  17.053  1.00  0.00     0.034 A 
ATOM     48  C   UNL     1       3.671   2.263  21.013  1.00  0.00     0.049 A 
ATOM     49  C   UNL     1       5.595  -2.241  18.292  1.00  0.00     0.074 A 
ATOM     50  C   UNL     1       4.333   2.620  22.174  1.00  0.00     0.029 A 
ATOM     51  N   UNL     1       4.299   1.131  20.521  1.00  0.00    -0.354 N 
ATOM     52  N   UNL     1       5.225  -1.249  19.066  1.00  0.00    -0.248 NA
ATOM     53  C   UNL     1       6.818  -2.924  18.737  1.00  0.00     0.031 C 
ATOM     54  C   UNL     1       5.382   1.719  22.368  1.00  0.00     0.029 A 
ATOM     55  C   UNL     1       5.352   0.782  21.346  1.00  0.00     0.049 A 
ATOM     56  H   UNL     1       4.035   0.647  19.706  1.00  0.00     0.167 HD
ATOM     57  C   UNL     1       6.151  -1.206  20.101  1.00  0.00     0.074 A 
ATOM     58  C   UNL     1       7.083  -2.291  19.873  1.00  0.00     0.031 C 
ATOM     59  C   UNL     1       6.236  -0.334  21.135  1.00  0.00     0.034 A 
BRANCH  46  60
ATOM     60  C   UNL     1       2.026   4.167  21.046  1.00  0.00     0.023 A 
ATOM     61  C   UNL     1       0.834   4.118  21.795  1.00  0.00     0.012 A 
ATOM     62  C   UNL     1       2.785   5.354  21.027  1.00  0.00     0.148 A 
ATOM     63  C   UNL     1       0.397   5.233  22.508  1.00  0.00     0.002 A 
ATOM     64  C   UNL     1       2.369   6.446  21.780  1.00  0.00     0.091 A 
ATOM     65  F   UNL     1       3.906   5.384  20.292  1.00  0.00    -0.205 F 
ATOM     66  C   UNL     1       1.172   6.389  22.514  1.00  0.00     0.022 A 
BRANCH  64  67
ATOM     67  S   UNL     1       3.340   7.950  21.932  1.00  0.00     0.127 S 
ATOM     68  O   UNL     1       2.446   8.940  21.331  1.00  0.00    -0.237 OA
ATOM     69  O   UNL     1       3.492   8.067  23.382  1.00  0.00    -0.237 OA
ATOM     70  O   UNL     1       4.576   7.710  21.201  1.00  0.00    -0.744 OA
ENDBRANCH  64  67
ENDBRANCH  46  60
BRANCH  47  71
ATOM     71  C   UNL     1       5.477  -3.952  16.323  1.00  0.00     0.023 A 
ATOM     72  C   UNL     1       5.478  -5.216  16.944  1.00  0.00     0.012 A 
ATOM     73  C   UNL     1       5.967  -3.836  15.007  1.00  0.00     0.148 A 
ATOM     74  C   UNL     1       5.985  -6.335  16.283  1.00  0.00     0.002 A 
ATOM     75  C   UNL     1       6.412  -4.967  14.331  1.00  0.00     0.091 A 
ATOM     76  F   UNL     1       5.972  -2.624  14.435  1.00  0.00    -0.205 F 
ATOM     77  C   UNL     1       6.441  -6.214  14.973  1.00  0.00     0.022 A 
BRANCH  75  78
ATOM     78  S   UNL     1       6.875  -4.928  12.595  1.00  0.00     0.127 S 
ATOM     79  O   UNL     1       8.325  -5.088  12.668  1.00  0.00    -0.237 OA
ATOM     80  O   UNL     1       6.153  -6.084  12.063  1.00  0.00    -0.237 OA
ATOM     81  O   UNL     1       6.402  -3.645  12.092  1.00  0.00    -0.744 OA
ENDBRANCH  75  78
ENDBRANCH  47  71
BRANCH  59  82
ATOM     82  C   UNL     1       7.361  -0.509  22.121  1.00  0.00     0.023 A 
ATOM     83  C   UNL     1       8.675  -0.176  21.742  1.00  0.00     0.012 A 
ATOM     84  C   UNL     1       7.096  -0.876  23.456  1.00  0.00     0.148 A 
ATOM     85  C   UNL     1       9.713  -0.225  22.671  1.00  0.00     0.002 A 
ATOM     86  C   UNL     1       8.125  -0.870  24.389  1.00  0.00     0.091 A 
ATOM     87  F   UNL     1       5.839  -1.202  23.792  1.00  0.00    -0.205 F 
ATOM     88  C   UNL     1       9.436  -0.556  23.995  1.00  0.00     0.022 A 
BRANCH  86  89
ATOM     89  S   UNL     1       7.846  -1.169  26.138  1.00  0.00     0.127 S 
ATOM     90  O   UNL     1       8.498  -2.465  26.325  1.00  0.00    -0.237 OA
ATOM     91  O   UNL     1       8.540  -0.042  26.759  1.00  0.00    -0.237 OA
ATOM     92  O   UNL     1       6.401  -1.168  26.322  1.00  0.00    -0.744 OA
ENDBRANCH  86  89
ENDBRANCH  59  82
ENDBRANCH  33  34
ENDBRANCH  25  28
ENDBRANCH   1  24
TORSDOF 14
