REMARK SMILES C[C@H]1[C@H](C(=O)NCCCNC(=O)c2ccc(-c3c4nc(c(-c5cccc(S(=O)(=O)[O-])c5F)c5ccc([nH]5)c(-c5cccc(S(=O)(=O)[O-])c5F)c5nc(c(-c6cccc(S(=O)(=O)[O-])c6F)c6ccc3[nH]6)C=C5)C=C4)cc2)CCN1C(=O)Nc1ccc(F)c(Cl)c1
REMARK SMILES IDX 8 1 7 2 6 3 4 4 5 5 3 7 1 8 2 9 78 10 76 11 77 12 79 13
REMARK SMILES IDX 80 14 81 15 82 17 83 18 89 19 84 20 87 21 85 22 88 23 86 24
REMARK SMILES IDX 9 25 10 26 11 27 12 29 13 30 14 31 75 32 15 33 74 34 16 35
REMARK SMILES IDX 17 36 18 37 68 38 19 39 73 40 67 41 69 42 20 43 72 44 66 45
REMARK SMILES IDX 65 46 21 48 53 49 33 50 52 51 34 52 37 53 51 54 70 55 35 56
REMARK SMILES IDX 36 57 50 59 71 60 38 61 22 62 23 63 31 64 24 65 26 66 32 67
REMARK SMILES IDX 25 68 27 69 28 70 29 71 30 72 54 73 55 74 63 75 56 76 58 77
REMARK SMILES IDX 64 78 57 79 59 80 60 81 61 82 62 83 39 84 40 85 48 86 41 87
REMARK SMILES IDX 43 88 49 89 42 90 44 91 45 92 46 93 47 94
REMARK H PARENT 6 6 81 16 10 28 69 47 37 58
REMARK Flexibility Score: inf
ROOT
ATOM      1  C   UNL     1      -0.561   0.242   4.171  1.00  0.00     0.042 C 
ENDROOT
BRANCH   1   2
ATOM      2  C   UNL     1      -1.285   0.735   2.922  1.00  0.00     0.117 C 
BRANCH   2   3
ATOM      3  N   UNL     1      -0.688   1.927   2.335  1.00  0.00    -0.356 N 
ATOM      4  C   UNL     1      -0.323   2.246   1.066  1.00  0.00     0.225 C 
ATOM      5  O   UNL     1       0.048   3.409   0.874  1.00  0.00    -0.275 OA
ATOM      6  H   UNL     1      -0.514   2.644   2.987  1.00  0.00     0.163 HD
BRANCH   4   7
ATOM      7  C   UNL     1      -0.301   1.260  -0.098  1.00  0.00     0.102 C 
ATOM      8  C   UNL     1       1.776   0.255  -1.140  1.00  0.00     0.032 C 
ATOM      9  C   UNL     1       0.818   0.219   0.052  1.00  0.00     0.096 C 
ATOM     10  N   UNL     1       0.141  -1.074   0.173  1.00  0.00    -0.321 N 
ATOM     11  C   UNL     1      -1.596   0.497  -0.338  1.00  0.00     0.037 C 
ATOM     12  C   UNL     1      -1.207  -0.972  -0.365  1.00  0.00     0.122 C 
BRANCH  10  13
ATOM     13  C   UNL     1       0.616  -2.336   0.440  1.00  0.00     0.322 C 
ATOM     14  O   UNL     1      -0.107  -3.321   0.248  1.00  0.00    -0.248 OA
ATOM     15  N   UNL     1       1.907  -2.593   0.773  1.00  0.00    -0.308 N 
ATOM     16  H   UNL     1       2.189  -3.502   0.521  1.00  0.00     0.171 HD
BRANCH  15  17
ATOM     17  C   UNL     1       2.929  -1.864   1.392  1.00  0.00     0.044 A 
ATOM     18  C   UNL     1       4.256  -2.178   1.091  1.00  0.00     0.029 A 
ATOM     19  C   UNL     1       2.672  -0.868   2.322  1.00  0.00     0.049 A 
ATOM     20  C   UNL     1       5.294  -1.383   1.588  1.00  0.00     0.043 A 
ATOM     21  C   UNL     1       3.695  -0.054   2.805  1.00  0.00     0.078 A 
ATOM     22  C   UNL     1       5.004  -0.301   2.414  1.00  0.00     0.141 A 
ATOM     23  Cl  UNL     1       3.303   1.281   3.820  1.00  0.00    -0.081 Cl
ATOM     24  F   UNL     1       6.002   0.502   2.809  1.00  0.00    -0.205 F 
ENDBRANCH  15  17
ENDBRANCH  10  13
ENDBRANCH   4   7
ENDBRANCH   2   3
ENDBRANCH   1   2
BRANCH   1  25
ATOM     25  C   UNL     1      -0.551   1.194   5.355  1.00  0.00     0.118 C 
BRANCH  25  26
ATOM     26  N   UNL     1      -1.768   1.120   6.141  1.00  0.00    -0.352 N 
ATOM     27  C   UNL     1      -2.019   0.524   7.354  1.00  0.00     0.251 C 
ATOM     28  H   UNL     1      -2.544   1.572   5.738  1.00  0.00     0.163 HD
ATOM     29  O   UNL     1      -3.189   0.431   7.725  1.00  0.00    -0.269 OA
BRANCH  27  30
ATOM     30  C   UNL     1      -0.935  -0.025   8.212  1.00  0.00     0.039 A 
ATOM     31  C   UNL     1      -1.206  -1.172   8.967  1.00  0.00     0.014 A 
ATOM     32  C   UNL     1       0.309   0.596   8.350  1.00  0.00     0.014 A 
ATOM     33  C   UNL     1      -0.228  -1.711   9.812  1.00  0.00     0.010 A 
ATOM     34  C   UNL     1       1.317   0.001   9.114  1.00  0.00     0.010 A 
ATOM     35  C   UNL     1       1.056  -1.146   9.875  1.00  0.00    -0.014 A 
BRANCH  35  36
ATOM     36  C   UNL     1       2.115  -1.738  10.742  1.00  0.00     0.031 A 
ATOM     37  C   UNL     1       2.734  -0.938  11.862  1.00  0.00     0.074 A 
ATOM     38  C   UNL     1       2.565  -2.985  10.493  1.00  0.00     0.049 A 
ATOM     39  N   UNL     1       3.666  -1.291  12.712  1.00  0.00    -0.248 NA
ATOM     40  C   UNL     1       2.266   0.447  12.037  1.00  0.00     0.031 C 
ATOM     41  C   UNL     1       2.122  -3.837   9.388  1.00  0.00     0.029 A 
ATOM     42  N   UNL     1       3.509  -3.745  11.139  1.00  0.00    -0.354 N 
ATOM     43  C   UNL     1       3.916  -0.171  13.496  1.00  0.00     0.074 A 
ATOM     44  C   UNL     1       3.069   0.889  12.994  1.00  0.00     0.031 C 
ATOM     45  C   UNL     1       2.784  -5.004   9.439  1.00  0.00     0.029 A 
ATOM     46  C   UNL     1       3.718  -4.976  10.561  1.00  0.00     0.049 A 
ATOM     47  H   UNL     1       3.991  -3.438  11.941  1.00  0.00     0.167 HD
ATOM     48  C   UNL     1       4.746  -0.038  14.560  1.00  0.00     0.034 A 
ATOM     49  C   UNL     1       4.564  -5.971  10.891  1.00  0.00     0.034 A 
ATOM     50  C   UNL     1       5.558  -1.101  15.090  1.00  0.00     0.049 A 
ATOM     51  C   UNL     1       5.435  -5.823  12.109  1.00  0.00     0.074 A 
ATOM     52  C   UNL     1       6.365  -1.090  16.214  1.00  0.00     0.029 A 
ATOM     53  N   UNL     1       5.672  -2.365  14.530  1.00  0.00    -0.354 N 
ATOM     54  N   UNL     1       5.531  -4.810  12.936  1.00  0.00    -0.248 NA
ATOM     55  C   UNL     1       6.281  -6.971  12.466  1.00  0.00     0.031 C 
ATOM     56  C   UNL     1       6.984  -2.341  16.323  1.00  0.00     0.029 A 
ATOM     57  C   UNL     1       6.541  -3.139  15.281  1.00  0.00     0.049 A 
ATOM     58  H   UNL     1       5.205  -2.667  13.719  1.00  0.00     0.167 HD
ATOM     59  C   UNL     1       6.426  -5.207  13.924  1.00  0.00     0.074 A 
ATOM     60  C   UNL     1       6.819  -6.565  13.608  1.00  0.00     0.031 C 
ATOM     61  C   UNL     1       6.893  -4.505  14.985  1.00  0.00     0.034 A 
BRANCH  48  62
ATOM     62  C   UNL     1       4.769   1.295  15.267  1.00  0.00     0.023 A 
ATOM     63  C   UNL     1       3.651   1.696  16.027  1.00  0.00     0.012 A 
ATOM     64  C   UNL     1       5.908   2.124  15.228  1.00  0.00     0.148 A 
ATOM     65  C   UNL     1       3.648   2.916  16.702  1.00  0.00     0.002 A 
ATOM     66  C   UNL     1       5.916   3.317  15.942  1.00  0.00     0.091 A 
ATOM     67  F   UNL     1       6.957   1.737  14.487  1.00  0.00    -0.205 F 
ATOM     68  C   UNL     1       4.783   3.720  16.668  1.00  0.00     0.022 A 
BRANCH  66  69
ATOM     69  S   UNL     1       7.356   4.388  16.030  1.00  0.00     0.127 S 
ATOM     70  O   UNL     1       6.931   5.523  15.213  1.00  0.00    -0.237 OA
ATOM     71  O   UNL     1       7.446   4.667  17.463  1.00  0.00    -0.237 OA
ATOM     72  O   UNL     1       8.466   3.611  15.493  1.00  0.00    -0.744 OA
ENDBRANCH  66  69
ENDBRANCH  48  62
BRANCH  49  73
ATOM     73  C   UNL     1       4.577  -7.228  10.088  1.00  0.00     0.023 A 
ATOM     74  C   UNL     1       4.063  -8.415  10.645  1.00  0.00     0.012 A 
ATOM     75  C   UNL     1       5.061  -7.244   8.765  1.00  0.00     0.148 A 
ATOM     76  C   UNL     1       4.058  -9.601   9.911  1.00  0.00     0.002 A 
ATOM     77  C   UNL     1       5.000  -8.415   8.020  1.00  0.00     0.091 A 
ATOM     78  F   UNL     1       5.559  -6.107   8.257  1.00  0.00    -0.205 F 
ATOM     79  C   UNL     1       4.516  -9.599   8.596  1.00  0.00     0.022 A 
BRANCH  77  80
ATOM     80  S   UNL     1       5.438  -8.469   6.278  1.00  0.00     0.127 S 
ATOM     81  O   UNL     1       6.686  -9.226   6.306  1.00  0.00    -0.237 OA
ATOM     82  O   UNL     1       4.297  -9.181   5.701  1.00  0.00    -0.237 OA
ATOM     83  O   UNL     1       5.549  -7.079   5.856  1.00  0.00    -0.744 OA
ENDBRANCH  77  80
ENDBRANCH  49  73
BRANCH  61  84
ATOM     84  C   UNL     1       7.868  -5.196  15.904  1.00  0.00     0.023 A 
ATOM     85  C   UNL     1       9.184  -5.448  15.467  1.00  0.00     0.012 A 
ATOM     86  C   UNL     1       7.500  -5.544  17.219  1.00  0.00     0.148 A 
ATOM     87  C   UNL     1      10.105  -6.070  16.308  1.00  0.00     0.002 A 
ATOM     88  C   UNL     1       8.437  -6.119  18.069  1.00  0.00     0.091 A 
ATOM     89  F   UNL     1       6.238  -5.315  17.613  1.00  0.00    -0.205 F 
ATOM     90  C   UNL     1       9.736  -6.396  17.611  1.00  0.00     0.022 A 
BRANCH  88  91
ATOM     91  S   UNL     1       8.077  -6.485  19.790  1.00  0.00     0.127 S 
ATOM     92  O   UNL     1       7.939  -7.940  19.763  1.00  0.00    -0.237 OA
ATOM     93  O   UNL     1       9.278  -5.999  20.471  1.00  0.00    -0.237 OA
ATOM     94  O   UNL     1       6.863  -5.746  20.110  1.00  0.00    -0.744 OA
ENDBRANCH  88  91
ENDBRANCH  61  84
ENDBRANCH  35  36
ENDBRANCH  27  30
ENDBRANCH  25  26
ENDBRANCH   1  25
TORSDOF 15
