REMARK SMILES Cc1nn(C(C)C)cc1-c1cnccc1C(=O)NCCCNC(=O)c1ccc(-c2c3nc(c(-c4cccc(S(=O)(=O)[O-])c4F)c4ccc([nH]4)c(-c4cccc(S(=O)(=O)[O-])c4F)c4nc(c(-c5cccc(S(=O)(=O)[O-])c5F)c5ccc2[nH]5)C=C4)C=C3)cc1
REMARK SMILES IDX 20 1 19 2 18 3 16 4 17 5 15 7 10 8 11 9 12 10 14 11 13 12
REMARK SMILES IDX 9 13 1 14 2 15 3 16 4 17 8 18 5 19 6 20 7 21 21 22 22 23
REMARK SMILES IDX 23 24 24 26 25 27 26 28 87 29 27 30 86 31 28 32 29 33 30 34
REMARK SMILES IDX 80 35 31 36 85 37 79 38 81 39 32 40 84 41 78 42 77 43 33 45
REMARK SMILES IDX 65 46 45 47 64 48 46 49 49 50 63 51 82 52 47 53 48 54 62 56
REMARK SMILES IDX 83 57 50 58 34 59 35 60 43 61 36 62 38 63 44 64 37 65 39 66
REMARK SMILES IDX 40 67 41 68 42 69 66 70 67 71 75 72 68 73 70 74 76 75 69 76
REMARK SMILES IDX 71 77 72 78 73 79 74 80 51 81 52 82 60 83 53 84 55 85 61 86
REMARK SMILES IDX 54 87 56 88 57 89 58 90 59 91
REMARK H PARENT 18 6 22 25 81 44 49 55
REMARK Flexibility Score: inf
ROOT
ATOM      1  C   UNL     1      -0.179   1.712   2.551  1.00  0.00     0.042 C 
ENDROOT
BRANCH   1   2
ATOM      2  C   UNL     1       0.658   2.752   1.850  1.00  0.00     0.118 C 
BRANCH   2   3
ATOM      3  N   UNL     1       1.677   3.522   2.482  1.00  0.00    -0.352 N 
ATOM      4  C   UNL     1       2.784   4.002   1.802  1.00  0.00     0.252 C 
ATOM      5  O   UNL     1       3.373   4.988   2.248  1.00  0.00    -0.269 OA
ATOM      6  H   UNL     1       1.590   3.722   3.442  1.00  0.00     0.163 HD
BRANCH   4   7
ATOM      7  C   UNL     1       3.409   3.290   0.628  1.00  0.00     0.050 A 
ATOM      8  C   UNL     1       2.845   2.798  -0.572  1.00  0.00     0.016 A 
ATOM      9  C   UNL     1       3.721   2.138  -1.445  1.00  0.00     0.120 A 
ATOM     10  N   UNL     1       5.047   1.943  -1.247  1.00  0.00    -0.264 NA
ATOM     11  C   UNL     1       4.793   3.101   0.838  1.00  0.00     0.034 A 
ATOM     12  C   UNL     1       5.553   2.433  -0.104  1.00  0.00     0.112 A 
BRANCH   8  13
ATOM     13  C   UNL     1       1.444   2.781  -0.988  1.00  0.00     0.025 A 
ATOM     14  C   UNL     1       0.827   0.216  -0.804  1.00  0.00     0.069 C 
ATOM     15  C   UNL     1       0.563   1.653  -1.113  1.00  0.00     0.067 A 
ATOM     16  N   UNL     1      -0.684   2.036  -1.405  1.00  0.00    -0.177 NA
ATOM     17  N   UNL     1      -0.623   3.380  -1.484  1.00  0.00    -0.269 N 
ATOM     18  C   UNL     1       0.639   3.873  -1.241  1.00  0.00     0.118 A 
BRANCH  17  19
ATOM     19  C   UNL     1      -1.843   4.152  -1.727  1.00  0.00     0.101 C 
ATOM     20  C   UNL     1      -2.788   3.482  -2.728  1.00  0.00     0.033 C 
ATOM     21  C   UNL     1      -2.625   4.392  -0.449  1.00  0.00     0.033 C 
ENDBRANCH  17  19
ENDBRANCH   8  13
ENDBRANCH   4   7
ENDBRANCH   2   3
ENDBRANCH   1   2
BRANCH   1  22
ATOM     22  C   UNL     1      -1.375   2.253   3.283  1.00  0.00     0.118 C 
BRANCH  22  23
ATOM     23  N   UNL     1      -2.303   3.047   2.448  1.00  0.00    -0.352 N 
ATOM     24  C   UNL     1      -3.604   3.487   2.711  1.00  0.00     0.251 C 
ATOM     25  H   UNL     1      -1.948   3.307   1.568  1.00  0.00     0.163 HD
ATOM     26  O   UNL     1      -4.352   3.956   1.876  1.00  0.00    -0.269 OA
BRANCH  24  27
ATOM     27  C   UNL     1      -4.008   3.480   4.109  1.00  0.00     0.039 A 
ATOM     28  C   UNL     1      -5.269   3.257   4.664  1.00  0.00     0.014 A 
ATOM     29  C   UNL     1      -2.985   3.788   4.956  1.00  0.00     0.014 A 
ATOM     30  C   UNL     1      -5.344   3.261   6.062  1.00  0.00     0.010 A 
ATOM     31  C   UNL     1      -2.985   3.025   6.048  1.00  0.00     0.010 A 
ATOM     32  C   UNL     1      -4.131   3.266   6.748  1.00  0.00    -0.014 A 
BRANCH  32  33
ATOM     33  C   UNL     1      -3.842   3.160   8.152  1.00  0.00     0.031 A 
ATOM     34  C   UNL     1      -4.038   1.765   8.612  1.00  0.00     0.074 A 
ATOM     35  C   UNL     1      -2.964   4.016   8.722  1.00  0.00     0.049 A 
ATOM     36  N   UNL     1      -5.191   1.222   8.864  1.00  0.00    -0.248 NA
ATOM     37  C   UNL     1      -2.964   0.774   8.344  1.00  0.00     0.031 C 
ATOM     38  C   UNL     1      -2.217   5.144   8.142  1.00  0.00     0.029 A 
ATOM     39  N   UNL     1      -2.446   3.937   9.964  1.00  0.00    -0.354 N 
ATOM     40  C   UNL     1      -4.867  -0.092   9.161  1.00  0.00     0.074 A 
ATOM     41  C   UNL     1      -3.699  -0.341   8.369  1.00  0.00     0.031 C 
ATOM     42  C   UNL     1      -1.223   5.512   8.988  1.00  0.00     0.029 A 
ATOM     43  C   UNL     1      -1.346   4.743  10.213  1.00  0.00     0.049 A 
ATOM     44  H   UNL     1      -2.826   3.345  10.652  1.00  0.00     0.167 HD
ATOM     45  C   UNL     1      -5.175  -0.622  10.385  1.00  0.00     0.034 A 
ATOM     46  C   UNL     1      -0.590   4.696  11.339  1.00  0.00     0.034 A 
ATOM     47  C   UNL     1      -5.946   0.357  11.153  1.00  0.00     0.049 A 
ATOM     48  C   UNL     1      -1.397   3.964  12.359  1.00  0.00     0.074 A 
ATOM     49  C   UNL     1      -7.096   1.094  10.937  1.00  0.00     0.029 A 
ATOM     50  N   UNL     1      -5.250   1.034  12.136  1.00  0.00    -0.354 N 
ATOM     51  N   UNL     1      -2.529   4.406  12.837  1.00  0.00    -0.248 NA
ATOM     52  C   UNL     1      -1.202   2.524  12.463  1.00  0.00     0.031 C 
ATOM     53  C   UNL     1      -6.824   2.389  11.481  1.00  0.00     0.029 A 
ATOM     54  C   UNL     1      -5.575   2.362  12.103  1.00  0.00     0.049 A 
ATOM     55  H   UNL     1      -4.614   0.622  12.765  1.00  0.00     0.167 HD
ATOM     56  C   UNL     1      -3.364   3.290  12.843  1.00  0.00     0.074 A 
ATOM     57  C   UNL     1      -2.458   2.145  12.726  1.00  0.00     0.031 C 
ATOM     58  C   UNL     1      -4.704   3.417  12.594  1.00  0.00     0.034 A 
BRANCH  45  59
ATOM     59  C   UNL     1      -4.370  -1.701  11.117  1.00  0.00     0.023 A 
ATOM     60  C   UNL     1      -4.775  -1.974  12.443  1.00  0.00     0.012 A 
ATOM     61  C   UNL     1      -3.140  -2.269  10.717  1.00  0.00     0.148 A 
ATOM     62  C   UNL     1      -3.920  -2.575  13.369  1.00  0.00     0.002 A 
ATOM     63  C   UNL     1      -2.272  -2.835  11.644  1.00  0.00     0.091 A 
ATOM     64  F   UNL     1      -2.801  -2.331   9.433  1.00  0.00    -0.205 F 
ATOM     65  C   UNL     1      -2.646  -2.961  12.980  1.00  0.00     0.022 A 
BRANCH  63  66
ATOM     66  S   UNL     1      -0.601  -3.337  11.197  1.00  0.00     0.127 S 
ATOM     67  O   UNL     1       0.198  -2.512  12.101  1.00  0.00    -0.237 OA
ATOM     68  O   UNL     1      -0.629  -4.763  11.516  1.00  0.00    -0.237 OA
ATOM     69  O   UNL     1      -0.450  -3.024   9.782  1.00  0.00    -0.744 OA
ENDBRANCH  63  66
ENDBRANCH  45  59
BRANCH  46  70
ATOM     70  C   UNL     1       0.847   4.991  11.558  1.00  0.00     0.023 A 
ATOM     71  C   UNL     1       1.315   5.202  12.871  1.00  0.00     0.012 A 
ATOM     72  C   UNL     1       1.802   4.782  10.539  1.00  0.00     0.148 A 
ATOM     73  C   UNL     1       2.683   5.158  13.170  1.00  0.00     0.002 A 
ATOM     74  C   UNL     1       3.162   4.742  10.840  1.00  0.00     0.091 A 
ATOM     75  F   UNL     1       1.373   4.530   9.296  1.00  0.00    -0.205 F 
ATOM     76  C   UNL     1       3.605   4.916  12.157  1.00  0.00     0.022 A 
BRANCH  74  77
ATOM     77  S   UNL     1       4.414   4.404   9.592  1.00  0.00     0.127 S 
ATOM     78  O   UNL     1       5.367   5.490   9.819  1.00  0.00    -0.237 OA
ATOM     79  O   UNL     1       4.887   3.081   9.990  1.00  0.00    -0.237 OA
ATOM     80  O   UNL     1       3.723   4.467   8.311  1.00  0.00    -0.744 OA
ENDBRANCH  74  77
ENDBRANCH  46  70
BRANCH  58  81
ATOM     81  C   UNL     1      -5.301   4.805  12.633  1.00  0.00     0.023 A 
ATOM     82  C   UNL     1      -4.959   5.824  11.718  1.00  0.00     0.012 A 
ATOM     83  C   UNL     1      -6.357   5.033  13.530  1.00  0.00     0.148 A 
ATOM     84  C   UNL     1      -5.640   7.046  11.713  1.00  0.00     0.002 A 
ATOM     85  C   UNL     1      -7.060   6.231  13.494  1.00  0.00     0.091 A 
ATOM     86  F   UNL     1      -6.673   4.056  14.394  1.00  0.00    -0.205 F 
ATOM     87  C   UNL     1      -6.700   7.245  12.594  1.00  0.00     0.022 A 
BRANCH  85  88
ATOM     88  S   UNL     1      -8.504   6.493  14.525  1.00  0.00     0.127 S 
ATOM     89  O   UNL     1      -7.985   7.393  15.552  1.00  0.00    -0.237 OA
ATOM     90  O   UNL     1      -9.449   7.108  13.591  1.00  0.00    -0.237 OA
ATOM     91  O   UNL     1      -8.906   5.172  14.992  1.00  0.00    -0.744 OA
ENDBRANCH  85  88
ENDBRANCH  58  81
ENDBRANCH  32  33
ENDBRANCH  24  27
ENDBRANCH  22  23
ENDBRANCH   1  22
TORSDOF 15
