REMARK SMILES O=C(CCN1C(=O)S/C(=C\c2ccc(F)cc2)C1=O)Nc1ccc(O)cc1C(=O)NCCCNC(=O)c1ccc(-c2c3nc(c(-c4cccc(S(=O)(=O)[O-])c4F)c4ccc([nH]4)c(-c4cccc(S(=O)(=O)[O-])c4F)c4nc(c(-c5cccc(S(=O)(=O)[O-])c5F)c5ccc2[nH]5)C=C4)C=C3)cc1
REMARK SMILES IDX 31 1 30 2 28 3 29 4 27 6 21 7 22 8 23 9 26 10 24 11 20 12
REMARK SMILES IDX 1 13 2 14 3 16 4 17 5 18 6 19 18 20 7 21 8 22 9 23 19 24
REMARK SMILES IDX 10 25 11 26 12 27 17 28 13 29 16 30 14 31 15 32 25 33 32 35
REMARK SMILES IDX 33 36 34 37 35 38 36 40 37 41 38 42 99 43 39 44 98 45 40 46
REMARK SMILES IDX 41 47 42 48 92 49 43 50 97 51 91 52 93 53 44 54 96 55 90 56
REMARK SMILES IDX 89 57 45 59 77 60 57 61 76 62 58 63 61 64 75 65 94 66 59 67
REMARK SMILES IDX 60 68 74 70 95 71 62 72 46 73 47 74 55 75 48 76 50 77 56 78
REMARK SMILES IDX 49 79 51 80 52 81 53 82 54 83 78 84 79 85 87 86 80 87 82 88
REMARK SMILES IDX 88 89 81 90 83 91 84 92 85 93 86 94 63 95 64 96 72 97 65 98
REMARK SMILES IDX 67 99 73 100 66 101 68 102 69 103 70 104 71 105
REMARK H PARENT 30 5 20 15 25 34 34 39 93 58 61 69
REMARK Flexibility Score: inf
ROOT
ATOM      1  C   UNL     1       3.013   2.070   1.564  1.00  0.00     0.118 C 
ENDROOT
BRANCH   1   2
ATOM      2  N   UNL     1       3.701   1.703   2.788  1.00  0.00    -0.352 N 
ATOM      3  C   UNL     1       3.489   0.641   3.644  1.00  0.00     0.253 C 
ATOM      4  O   UNL     1       4.229   0.513   4.620  1.00  0.00    -0.269 OA
ATOM      5  H   UNL     1       4.435   2.305   3.049  1.00  0.00     0.163 HD
BRANCH   3   6
ATOM      6  C   UNL     1       2.388  -0.352   3.466  1.00  0.00     0.067 A 
ATOM      7  C   UNL     1       2.042  -0.984   2.256  1.00  0.00     0.054 A 
ATOM      8  C   UNL     1       0.937  -1.855   2.235  1.00  0.00     0.031 A 
ATOM      9  C   UNL     1       0.228  -2.159   3.397  1.00  0.00     0.048 A 
ATOM     10  C   UNL     1       1.685  -0.693   4.640  1.00  0.00     0.062 A 
ATOM     11  C   UNL     1       0.626  -1.595   4.597  1.00  0.00     0.116 A 
BRANCH   7  12
ATOM     12  N   UNL     1       2.849  -0.850   1.101  1.00  0.00    -0.325 N 
ATOM     13  O   UNL     1       1.209  -1.079  -0.504  1.00  0.00    -0.275 OA
ATOM     14  C   UNL     1       2.396  -0.967  -0.197  1.00  0.00     0.226 C 
ATOM     15  H   UNL     1       3.806  -0.659   1.234  1.00  0.00     0.169 HD
BRANCH  14  16
ATOM     16  C   UNL     1       3.440  -0.988  -1.296  1.00  0.00     0.122 C 
BRANCH  16  17
ATOM     17  C   UNL     1       4.782  -0.313  -1.061  1.00  0.00     0.140 C 
BRANCH  17  18
ATOM     18  N   UNL     1       5.687  -0.879  -0.064  1.00  0.00    -0.268 N 
ATOM     19  C   UNL     1       6.467  -0.066   0.722  1.00  0.00     0.293 C 
ATOM     20  C   UNL     1       5.816  -2.217   0.238  1.00  0.00     0.268 C 
ATOM     21  O   UNL     1       6.151   0.998   1.222  1.00  0.00    -0.261 OA
ATOM     22  S   UNL     1       7.837  -0.968   1.305  1.00  0.00    -0.022 SA
ATOM     23  C   UNL     1       6.799  -2.340   1.351  1.00  0.00     0.083 C 
ATOM     24  O   UNL     1       5.180  -3.154  -0.217  1.00  0.00    -0.268 OA
ATOM     25  C   UNL     1       6.591  -3.128   2.415  1.00  0.00     0.029 C 
BRANCH  25  26
ATOM     26  C   UNL     1       7.307  -2.881   3.673  1.00  0.00    -0.024 A 
ATOM     27  C   UNL     1       6.757  -1.998   4.618  1.00  0.00     0.011 A 
ATOM     28  C   UNL     1       8.605  -3.367   3.853  1.00  0.00     0.011 A 
ATOM     29  C   UNL     1       7.504  -1.602   5.728  1.00  0.00     0.040 A 
ATOM     30  C   UNL     1       9.348  -2.972   4.967  1.00  0.00     0.040 A 
ATOM     31  C   UNL     1       8.793  -2.093   5.892  1.00  0.00     0.123 A 
ATOM     32  F   UNL     1       9.521  -1.702   6.946  1.00  0.00    -0.207 F 
ENDBRANCH  25  26
ENDBRANCH  17  18
ENDBRANCH  16  17
ENDBRANCH  14  16
ENDBRANCH   7  12
BRANCH  11  33
ATOM     33  O   UNL     1      -0.001  -1.914   5.765  1.00  0.00    -0.508 OA
ATOM     34  H   UNL     1      -0.717  -2.519   5.762  1.00  0.00     0.293 HD
ENDBRANCH  11  33
ENDBRANCH   3   6
ENDBRANCH   1   2
BRANCH   1  35
ATOM     35  C   UNL     1       3.117   3.519   1.110  1.00  0.00     0.042 C 
BRANCH  35  36
ATOM     36  C   UNL     1       4.478   4.095   0.687  1.00  0.00     0.118 C 
BRANCH  36  37
ATOM     37  N   UNL     1       5.459   3.164   0.138  1.00  0.00    -0.352 N 
ATOM     38  C   UNL     1       6.204   3.110  -1.019  1.00  0.00     0.251 C 
ATOM     39  H   UNL     1       5.627   2.398   0.733  1.00  0.00     0.163 HD
ATOM     40  O   UNL     1       6.941   2.148  -1.242  1.00  0.00    -0.269 OA
BRANCH  38  41
ATOM     41  C   UNL     1       6.073   4.143  -2.053  1.00  0.00     0.039 A 
ATOM     42  C   UNL     1       6.043   3.753  -3.399  1.00  0.00     0.014 A 
ATOM     43  C   UNL     1       5.914   5.474  -1.698  1.00  0.00     0.014 A 
ATOM     44  C   UNL     1       5.670   4.676  -4.372  1.00  0.00     0.010 A 
ATOM     45  C   UNL     1       5.433   6.359  -2.642  1.00  0.00     0.010 A 
ATOM     46  C   UNL     1       5.265   5.956  -3.977  1.00  0.00    -0.014 A 
BRANCH  46  47
ATOM     47  C   UNL     1       4.561   6.894  -4.879  1.00  0.00     0.031 A 
ATOM     48  C   UNL     1       5.103   8.283  -5.039  1.00  0.00     0.074 A 
ATOM     49  C   UNL     1       3.333   6.562  -5.327  1.00  0.00     0.049 A 
ATOM     50  N   UNL     1       4.499   9.358  -5.460  1.00  0.00    -0.248 NA
ATOM     51  C   UNL     1       6.490   8.502  -4.592  1.00  0.00     0.031 C 
ATOM     52  C   UNL     1       2.682   5.260  -5.143  1.00  0.00     0.029 A 
ATOM     53  N   UNL     1       2.386   7.311  -5.976  1.00  0.00    -0.354 N 
ATOM     54  C   UNL     1       5.401  10.395  -5.257  1.00  0.00     0.074 A 
ATOM     55  C   UNL     1       6.585   9.822  -4.656  1.00  0.00     0.031 C 
ATOM     56  C   UNL     1       1.446   5.304  -5.661  1.00  0.00     0.029 A 
ATOM     57  C   UNL     1       1.195   6.646  -6.167  1.00  0.00     0.049 A 
ATOM     58  H   UNL     1       2.542   8.236  -6.276  1.00  0.00     0.167 HD
ATOM     59  C   UNL     1       5.253  11.705  -5.564  1.00  0.00     0.034 A 
ATOM     60  C   UNL     1       0.026   7.079  -6.677  1.00  0.00     0.034 A 
ATOM     61  C   UNL     1       4.093  12.228  -6.231  1.00  0.00     0.049 A 
ATOM     62  C   UNL     1      -0.062   8.508  -7.133  1.00  0.00     0.074 A 
ATOM     63  C   UNL     1       3.859  13.518  -6.669  1.00  0.00     0.029 A 
ATOM     64  N   UNL     1       2.980  11.475  -6.579  1.00  0.00    -0.354 N 
ATOM     65  N   UNL     1       0.835   9.459  -7.024  1.00  0.00    -0.248 NA
ATOM     66  C   UNL     1      -1.296   8.918  -7.814  1.00  0.00     0.031 C 
ATOM     67  C   UNL     1       2.608  13.541  -7.294  1.00  0.00     0.029 A 
ATOM     68  C   UNL     1       2.069  12.264  -7.255  1.00  0.00     0.049 A 
ATOM     69  H   UNL     1       2.857  10.520  -6.374  1.00  0.00     0.167 HD
ATOM     70  C   UNL     1       0.293  10.568  -7.659  1.00  0.00     0.074 A 
ATOM     71  C   UNL     1      -1.007  10.167  -8.159  1.00  0.00     0.031 C 
ATOM     72  C   UNL     1       0.817  11.810  -7.804  1.00  0.00     0.034 A 
BRANCH  59  73
ATOM     73  C   UNL     1       6.396  12.635  -5.254  1.00  0.00     0.023 A 
ATOM     74  C   UNL     1       7.592  12.531  -5.995  1.00  0.00     0.012 A 
ATOM     75  C   UNL     1       6.278  13.641  -4.275  1.00  0.00     0.148 A 
ATOM     76  C   UNL     1       8.663  13.385  -5.743  1.00  0.00     0.002 A 
ATOM     77  C   UNL     1       7.334  14.521  -4.062  1.00  0.00     0.091 A 
ATOM     78  F   UNL     1       5.143  13.714  -3.565  1.00  0.00    -0.205 F 
ATOM     79  C   UNL     1       8.530  14.386  -4.785  1.00  0.00     0.022 A 
BRANCH  77  80
ATOM     80  S   UNL     1       7.238  15.898  -2.911  1.00  0.00     0.127 S 
ATOM     81  O   UNL     1       8.180  15.480  -1.873  1.00  0.00    -0.237 OA
ATOM     82  O   UNL     1       7.695  17.018  -3.734  1.00  0.00    -0.237 OA
ATOM     83  O   UNL     1       5.846  15.977  -2.493  1.00  0.00    -0.744 OA
ENDBRANCH  77  80
ENDBRANCH  59  73
BRANCH  60  84
ATOM     84  C   UNL     1      -1.091   6.114  -6.883  1.00  0.00     0.023 A 
ATOM     85  C   UNL     1      -1.373   5.679  -8.193  1.00  0.00     0.012 A 
ATOM     86  C   UNL     1      -1.808   5.554  -5.807  1.00  0.00     0.148 A 
ATOM     87  C   UNL     1      -2.358   4.721  -8.432  1.00  0.00     0.002 A 
ATOM     88  C   UNL     1      -2.754   4.562  -6.047  1.00  0.00     0.091 A 
ATOM     89  F   UNL     1      -1.529   5.981  -4.567  1.00  0.00    -0.205 F 
ATOM     90  C   UNL     1      -3.040   4.154  -7.359  1.00  0.00     0.022 A 
BRANCH  88  91
ATOM     91  S   UNL     1      -3.580   3.671  -4.721  1.00  0.00     0.127 S 
ATOM     92  O   UNL     1      -4.939   4.199  -4.808  1.00  0.00    -0.237 OA
ATOM     93  O   UNL     1      -3.430   2.280  -5.152  1.00  0.00    -0.237 OA
ATOM     94  O   UNL     1      -2.844   4.006  -3.510  1.00  0.00    -0.744 OA
ENDBRANCH  88  91
ENDBRANCH  60  84
BRANCH  72  95
ATOM     95  C   UNL     1       0.018  12.819  -8.579  1.00  0.00     0.023 A 
ATOM     96  C   UNL     1      -1.089  13.446  -7.977  1.00  0.00     0.012 A 
ATOM     97  C   UNL     1       0.447  13.234  -9.855  1.00  0.00     0.148 A 
ATOM     98  C   UNL     1      -1.767  14.466  -8.641  1.00  0.00     0.002 A 
ATOM     99  C   UNL     1      -0.205  14.281 -10.490  1.00  0.00     0.091 A 
ATOM    100  F   UNL     1       1.489  12.603 -10.416  1.00  0.00    -0.205 F 
ATOM    101  C   UNL     1      -1.316  14.894  -9.889  1.00  0.00     0.022 A 
BRANCH  99 102
ATOM    102  S   UNL     1       0.377  14.961 -12.048  1.00  0.00     0.127 S 
ATOM    103  O   UNL     1      -0.584  14.399 -12.995  1.00  0.00    -0.237 OA
ATOM    104  O   UNL     1       0.247  16.402 -11.829  1.00  0.00    -0.237 OA
ATOM    105  O   UNL     1       1.750  14.498 -12.195  1.00  0.00    -0.744 OA
ENDBRANCH  99 102
ENDBRANCH  72  95
ENDBRANCH  46  47
ENDBRANCH  38  41
ENDBRANCH  36  37
ENDBRANCH  35  36
ENDBRANCH   1  35
TORSDOF 19
