REMARK SMILES O=C(CNC(=O)CNC(=O)OCc1ccccc1)NCCCNC(=O)c1ccc(-c2c3nc(c(-c4cccc(S(=O)(=O)[O-])c4F)c4ccc([nH]4)c(-c4cccc(S(=O)(=O)[O-])c4F)c4nc(c(-c5cccc(S(=O)(=O)[O-])c5F)c5ccc2[nH]5)C=C4)C=C3)cc1
REMARK SMILES IDX 1 1 2 2 19 3 3 5 4 6 5 7 6 9 7 10 8 11 9 12 10 14 11 15
REMARK SMILES IDX 12 16 13 17 14 18 18 19 15 20 17 21 16 22 20 23 21 24 22 25
REMARK SMILES IDX 23 26 24 27 25 29 26 30 27 31 88 32 28 33 87 34 29 35 30 36
REMARK SMILES IDX 31 37 81 38 32 39 86 40 80 41 82 42 33 43 85 44 79 45 78 46
REMARK SMILES IDX 34 48 66 49 46 50 65 51 47 52 50 53 64 54 83 55 48 56 49 57
REMARK SMILES IDX 63 59 84 60 51 61 35 62 36 63 44 64 37 65 39 66 45 67 38 68
REMARK SMILES IDX 40 69 41 70 42 71 43 72 67 73 68 74 76 75 69 76 71 77 77 78
REMARK SMILES IDX 70 79 72 80 73 81 74 82 75 83 52 84 53 85 61 86 54 87 56 88
REMARK SMILES IDX 62 89 55 90 57 91 58 92 59 93 60 94
REMARK H PARENT 19 4 4 8 8 13 23 28 82 47 50 58
REMARK Flexibility Score: inf
ROOT
ATOM      1  O   UNL     1       0.944  -0.169   0.220  1.00  0.00    -0.273 OA
ATOM      2  C   UNL     1       2.088  -0.002  -0.195  1.00  0.00     0.239 C 
ATOM      3  N   UNL     1       2.785   1.177  -0.047  1.00  0.00    -0.355 N 
ATOM      4  H   UNL     1       3.734   1.202  -0.309  1.00  0.00     0.163 HD
ENDROOT
BRANCH   2   5
ATOM      5  C   UNL     1       2.878  -1.158  -0.825  1.00  0.00     0.216 C 
BRANCH   5   6
ATOM      6  N   UNL     1       3.972  -0.726  -1.687  1.00  0.00    -0.346 N 
ATOM      7  C   UNL     1       5.312  -0.954  -1.574  1.00  0.00     0.239 C 
ATOM      8  H   UNL     1       3.703  -0.189  -2.467  1.00  0.00     0.164 HD
ATOM      9  O   UNL     1       6.049  -0.532  -2.467  1.00  0.00    -0.273 OA
BRANCH   7  10
ATOM     10  C   UNL     1       5.872  -1.673  -0.347  1.00  0.00     0.219 C 
BRANCH  10  11
ATOM     11  N   UNL     1       5.722  -0.791   0.793  1.00  0.00    -0.312 N 
ATOM     12  C   UNL     1       5.033  -1.052   1.933  1.00  0.00     0.407 C 
ATOM     13  H   UNL     1       6.166   0.086   0.735  1.00  0.00     0.167 HD
ATOM     14  O   UNL     1       4.718  -0.133   2.683  1.00  0.00    -0.225 OA
BRANCH  12  15
ATOM     15  O   UNL     1       4.713  -2.355   2.090  1.00  0.00    -0.445 OA
BRANCH  15  16
ATOM     16  C   UNL     1       3.869  -2.655   3.215  1.00  0.00     0.270 C 
BRANCH  16  17
ATOM     17  C   UNL     1       4.630  -2.744   4.515  1.00  0.00    -0.011 A 
ATOM     18  C   UNL     1       5.221  -3.945   4.930  1.00  0.00     0.007 A 
ATOM     19  C   UNL     1       4.756  -1.613   5.335  1.00  0.00     0.007 A 
ATOM     20  C   UNL     1       5.913  -4.009   6.143  1.00  0.00     0.000 A 
ATOM     21  C   UNL     1       5.462  -1.673   6.535  1.00  0.00     0.000 A 
ATOM     22  C   UNL     1       6.037  -2.873   6.942  1.00  0.00     0.000 A 
ENDBRANCH  16  17
ENDBRANCH  15  16
ENDBRANCH  12  15
ENDBRANCH  10  11
ENDBRANCH   7  10
ENDBRANCH   5   6
ENDBRANCH   2   5
BRANCH   3  23
ATOM     23  C   UNL     1       2.176   2.384   0.481  1.00  0.00     0.117 C 
BRANCH  23  24
ATOM     24  C   UNL     1       2.466   2.635   1.958  1.00  0.00     0.042 C 
BRANCH  24  25
ATOM     25  C   UNL     1       3.922   2.953   2.293  1.00  0.00     0.118 C 
BRANCH  25  26
ATOM     26  N   UNL     1       4.419   4.171   1.668  1.00  0.00    -0.352 N 
ATOM     27  C   UNL     1       5.111   5.235   2.193  1.00  0.00     0.251 C 
ATOM     28  H   UNL     1       4.227   4.243   0.705  1.00  0.00     0.163 HD
ATOM     29  O   UNL     1       5.385   6.178   1.452  1.00  0.00    -0.269 OA
BRANCH  27  30
ATOM     30  C   UNL     1       5.499   5.294   3.623  1.00  0.00     0.039 A 
ATOM     31  C   UNL     1       5.386   6.524   4.283  1.00  0.00     0.014 A 
ATOM     32  C   UNL     1       6.002   4.189   4.315  1.00  0.00     0.014 A 
ATOM     33  C   UNL     1       5.705   6.630   5.641  1.00  0.00     0.010 A 
ATOM     34  C   UNL     1       6.261   4.280   5.685  1.00  0.00     0.010 A 
ATOM     35  C   UNL     1       6.111   5.498   6.365  1.00  0.00    -0.014 A 
BRANCH  35  36
ATOM     36  C   UNL     1       6.343   5.567   7.833  1.00  0.00     0.031 A 
ATOM     37  C   UNL     1       7.711   5.317   8.410  1.00  0.00     0.074 A 
ATOM     38  C   UNL     1       5.298   5.772   8.660  1.00  0.00     0.049 A 
ATOM     39  N   UNL     1       8.082   5.279   9.665  1.00  0.00    -0.248 NA
ATOM     40  C   UNL     1       8.800   5.054   7.456  1.00  0.00     0.031 C 
ATOM     41  C   UNL     1       3.909   5.955   8.236  1.00  0.00     0.029 A 
ATOM     42  N   UNL     1       5.236   5.832  10.031  1.00  0.00    -0.354 N 
ATOM     43  C   UNL     1       9.432   4.953   9.654  1.00  0.00     0.074 A 
ATOM     44  C   UNL     1       9.812   4.782   8.268  1.00  0.00     0.031 C 
ATOM     45  C   UNL     1       3.132   6.102   9.322  1.00  0.00     0.029 A 
ATOM     46  C   UNL     1       3.961   6.001  10.519  1.00  0.00     0.049 A 
ATOM     47  H   UNL     1       6.029   5.760  10.610  1.00  0.00     0.167 HD
ATOM     48  C   UNL     1      10.287   4.835  10.699  1.00  0.00     0.034 A 
ATOM     49  C   UNL     1       3.505   6.061  11.786  1.00  0.00     0.034 A 
ATOM     50  C   UNL     1       9.924   5.055  12.074  1.00  0.00     0.049 A 
ATOM     51  C   UNL     1       4.484   5.974  12.926  1.00  0.00     0.074 A 
ATOM     52  C   UNL     1      10.741   5.048  13.191  1.00  0.00     0.029 A 
ATOM     53  N   UNL     1       8.639   5.320  12.522  1.00  0.00    -0.354 N 
ATOM     54  N   UNL     1       5.786   5.830  12.885  1.00  0.00    -0.248 NA
ATOM     55  C   UNL     1       3.936   6.094  14.285  1.00  0.00     0.031 C 
ATOM     56  C   UNL     1       9.948   5.298  14.317  1.00  0.00     0.029 A 
ATOM     57  C   UNL     1       8.639   5.473  13.899  1.00  0.00     0.049 A 
ATOM     58  H   UNL     1       7.844   5.390  11.946  1.00  0.00     0.167 HD
ATOM     59  C   UNL     1       6.216   5.875  14.206  1.00  0.00     0.074 A 
ATOM     60  C   UNL     1       5.038   6.082  15.023  1.00  0.00     0.031 C 
ATOM     61  C   UNL     1       7.472   5.739  14.698  1.00  0.00     0.034 A 
BRANCH  48  62
ATOM     62  C   UNL     1      11.726   4.511  10.393  1.00  0.00     0.023 A 
ATOM     63  C   UNL     1      12.553   5.508   9.838  1.00  0.00     0.012 A 
ATOM     64  C   UNL     1      12.277   3.254  10.712  1.00  0.00     0.148 A 
ATOM     65  C   UNL     1      13.898   5.252   9.576  1.00  0.00     0.002 A 
ATOM     66  C   UNL     1      13.629   3.019  10.484  1.00  0.00     0.091 A 
ATOM     67  F   UNL     1      11.471   2.311  11.219  1.00  0.00    -0.205 F 
ATOM     68  C   UNL     1      14.438   4.013   9.909  1.00  0.00     0.022 A 
BRANCH  66  69
ATOM     69  S   UNL     1      14.432   1.479  10.947  1.00  0.00     0.127 S 
ATOM     70  O   UNL     1      14.601   0.832   9.647  1.00  0.00    -0.237 OA
ATOM     71  O   UNL     1      15.675   1.949  11.559  1.00  0.00    -0.237 OA
ATOM     72  O   UNL     1      13.519   0.815  11.867  1.00  0.00    -0.744 OA
ENDBRANCH  66  69
ENDBRANCH  48  62
BRANCH  49  73
ATOM     73  C   UNL     1       2.055   6.291  12.042  1.00  0.00     0.023 A 
ATOM     74  C   UNL     1       1.635   7.540  12.541  1.00  0.00     0.012 A 
ATOM     75  C   UNL     1       1.091   5.303  11.764  1.00  0.00     0.148 A 
ATOM     76  C   UNL     1       0.285   7.792  12.784  1.00  0.00     0.002 A 
ATOM     77  C   UNL     1      -0.258   5.579  11.960  1.00  0.00     0.091 A 
ATOM     78  F   UNL     1       1.511   4.115  11.307  1.00  0.00    -0.205 F 
ATOM     79  C   UNL     1      -0.662   6.816  12.484  1.00  0.00     0.022 A 
BRANCH  77  80
ATOM     80  S   UNL     1      -1.551   4.428  11.478  1.00  0.00     0.127 S 
ATOM     81  O   UNL     1      -1.980   3.902  12.771  1.00  0.00    -0.237 OA
ATOM     82  O   UNL     1      -2.516   5.310  10.820  1.00  0.00    -0.237 OA
ATOM     83  O   UNL     1      -0.908   3.474  10.584  1.00  0.00    -0.744 OA
ENDBRANCH  77  80
ENDBRANCH  49  73
BRANCH  61  84
ATOM     84  C   UNL     1       7.653   5.835  16.191  1.00  0.00     0.023 A 
ATOM     85  C   UNL     1       7.246   4.764  17.011  1.00  0.00     0.012 A 
ATOM     86  C   UNL     1       8.294   6.947  16.772  1.00  0.00     0.148 A 
ATOM     87  C   UNL     1       7.449   4.810  18.389  1.00  0.00     0.002 A 
ATOM     88  C   UNL     1       8.532   6.966  18.142  1.00  0.00     0.091 A 
ATOM     89  F   UNL     1       8.654   7.966  15.979  1.00  0.00    -0.205 F 
ATOM     90  C   UNL     1       8.102   5.904  18.953  1.00  0.00     0.022 A 
BRANCH  88  91
ATOM     91  S   UNL     1       9.446   8.294  18.937  1.00  0.00     0.127 S 
ATOM     92  O   UNL     1       8.374   9.053  19.577  1.00  0.00    -0.237 OA
ATOM     93  O   UNL     1      10.315   7.566  19.863  1.00  0.00    -0.237 OA
ATOM     94  O   UNL     1      10.154   8.985  17.867  1.00  0.00    -0.744 OA
ENDBRANCH  88  91
ENDBRANCH  61  84
ENDBRANCH  35  36
ENDBRANCH  27  30
ENDBRANCH  25  26
ENDBRANCH  24  25
ENDBRANCH  23  24
ENDBRANCH   3  23
TORSDOF 19
