REMARK SMILES Cc1ccc2c(c1)C=C(C(=O)NCCCNC(=O)c1ccc(-c3c4nc(c(-c5cccc(S(=O)(=O)[O-])c5F)c5ccc([nH]5)c(-c5cccc(S(=O)(=O)[O-])c5F)c5nc(c(-c6cccc(S(=O)(=O)[O-])c6F)c6ccc3[nH]6)C=C5)C=C4)cc1)[C@@H](C(F)(F)F)O2
REMARK SMILES IDX 15 1 14 2 13 3 12 4 10 5 11 6 9 8 1 9 2 10 3 11 7 12 4 13
REMARK SMILES IDX 6 14 5 15 8 16 87 17 82 18 83 19 84 20 85 21 86 22 16 23
REMARK SMILES IDX 17 24 18 26 19 27 20 28 81 29 21 30 80 31 22 32 23 33 24 34
REMARK SMILES IDX 74 35 25 36 79 37 73 38 75 39 26 40 78 41 72 42 71 43 27 45
REMARK SMILES IDX 59 46 39 47 58 48 40 49 43 50 57 51 76 52 41 53 42 54 56 56
REMARK SMILES IDX 77 57 44 58 28 59 29 60 37 61 30 62 32 63 38 64 31 65 33 66
REMARK SMILES IDX 34 67 35 68 36 69 60 70 61 71 69 72 62 73 64 74 70 75 63 76
REMARK SMILES IDX 65 77 66 78 67 79 68 80 45 81 46 82 54 83 47 84 49 85 55 86
REMARK SMILES IDX 48 87 50 88 51 89 52 90 53 91
REMARK H PARENT 12 7 16 25 75 44 43 55
REMARK Flexibility Score: inf
ROOT
ATOM      1  C   UNL     1      -1.812  -5.627   9.358  1.00  0.00     0.118 C 
ENDROOT
BRANCH   1   2
ATOM      2  C   UNL     1      -1.349  -5.723   7.909  1.00  0.00     0.042 C 
BRANCH   2   3
ATOM      3  C   UNL     1      -2.378  -5.177   6.931  1.00  0.00     0.118 C 
BRANCH   3   4
ATOM      4  N   UNL     1      -2.385  -3.722   6.899  1.00  0.00    -0.352 N 
ATOM      5  C   UNL     1      -1.967  -2.744   6.064  1.00  0.00     0.251 C 
ATOM      6  O   UNL     1      -2.196  -1.593   6.452  1.00  0.00    -0.270 OA
ATOM      7  H   UNL     1      -2.809  -3.348   7.705  1.00  0.00     0.163 HD
BRANCH   5   8
ATOM      8  C   UNL     1      -1.283  -2.958   4.755  1.00  0.00     0.067 C 
ATOM      9  C   UNL     1       1.009   0.222  -0.040  1.00  0.00     0.044 C 
ATOM     10  C   UNL     1       0.705  -0.977   0.809  1.00  0.00    -0.050 A 
ATOM     11  C   UNL     1       1.105  -2.250   0.383  1.00  0.00     0.007 A 
ATOM     12  C   UNL     1       0.052  -0.840   2.042  1.00  0.00     0.015 A 
ATOM     13  C   UNL     1       0.849  -3.370   1.173  1.00  0.00     0.047 A 
ATOM     14  C   UNL     1      -0.215  -1.964   2.832  1.00  0.00     0.017 A 
ATOM     15  C   UNL     1       0.181  -3.224   2.385  1.00  0.00     0.128 A 
ATOM     16  C   UNL     1      -0.865  -1.841   4.130  1.00  0.00     0.025 C 
ATOM     17  O   UNL     1      -0.018  -4.359   3.119  1.00  0.00    -0.475 OA
ATOM     18  C   UNL     1      -1.082  -4.301   4.109  1.00  0.00     0.314 C 
BRANCH  18  19
ATOM     19  C   UNL     1      -2.378  -4.857   3.487  1.00  0.00     0.429 C 
ATOM     20  F   UNL     1      -2.261  -6.189   3.256  1.00  0.00    -0.167 F 
ATOM     21  F   UNL     1      -3.454  -4.702   4.294  1.00  0.00    -0.167 F 
ATOM     22  F   UNL     1      -2.689  -4.269   2.309  1.00  0.00    -0.167 F 
ENDBRANCH  18  19
ENDBRANCH   5   8
ENDBRANCH   3   4
ENDBRANCH   2   3
ENDBRANCH   1   2
BRANCH   1  23
ATOM     23  N   UNL     1      -2.946  -6.506   9.634  1.00  0.00    -0.352 N 
ATOM     24  C   UNL     1      -3.021  -7.660  10.379  1.00  0.00     0.251 C 
ATOM     25  H   UNL     1      -3.795  -6.227   9.221  1.00  0.00     0.163 HD
ATOM     26  O   UNL     1      -4.018  -8.372  10.289  1.00  0.00    -0.269 OA
BRANCH  24  27
ATOM     27  C   UNL     1      -1.901  -8.049  11.260  1.00  0.00     0.039 A 
ATOM     28  C   UNL     1      -1.234  -7.085  12.015  1.00  0.00     0.014 A 
ATOM     29  C   UNL     1      -1.509  -9.389  11.334  1.00  0.00     0.014 A 
ATOM     30  C   UNL     1      -0.059  -7.419  12.673  1.00  0.00     0.010 A 
ATOM     31  C   UNL     1      -0.388  -9.743  12.092  1.00  0.00     0.010 A 
ATOM     32  C   UNL     1       0.380  -8.752  12.722  1.00  0.00    -0.014 A 
BRANCH  32  33
ATOM     33  C   UNL     1       1.635  -9.068  13.451  1.00  0.00     0.031 A 
ATOM     34  C   UNL     1       2.823  -9.655  12.739  1.00  0.00     0.074 A 
ATOM     35  C   UNL     1       1.719  -8.762  14.761  1.00  0.00     0.049 A 
ATOM     36  N   UNL     1       4.008  -9.933  13.219  1.00  0.00    -0.248 NA
ATOM     37  C   UNL     1       2.668  -9.981  11.312  1.00  0.00     0.031 C 
ATOM     38  C   UNL     1       0.625  -8.214  15.567  1.00  0.00     0.029 A 
ATOM     39  N   UNL     1       2.771  -8.839  15.638  1.00  0.00    -0.354 N 
ATOM     40  C   UNL     1       4.717 -10.514  12.176  1.00  0.00     0.074 A 
ATOM     41  C   UNL     1       3.834 -10.546  11.031  1.00  0.00     0.031 C 
ATOM     42  C   UNL     1       1.078  -7.944  16.798  1.00  0.00     0.029 A 
ATOM     43  C   UNL     1       2.475  -8.355  16.890  1.00  0.00     0.049 A 
ATOM     44  H   UNL     1       3.651  -9.205  15.394  1.00  0.00     0.167 HD
ATOM     45  C   UNL     1       5.994 -10.964  12.167  1.00  0.00     0.034 A 
ATOM     46  C   UNL     1       3.236  -8.255  17.997  1.00  0.00     0.034 A 
ATOM     47  C   UNL     1       6.893 -10.865  13.284  1.00  0.00     0.049 A 
ATOM     48  C   UNL     1       4.659  -8.721  17.951  1.00  0.00     0.074 A 
ATOM     49  C   UNL     1       8.228 -11.227  13.343  1.00  0.00     0.029 A 
ATOM     50  N   UNL     1       6.556 -10.366  14.531  1.00  0.00    -0.354 N 
ATOM     51  N   UNL     1       5.333  -9.190  16.929  1.00  0.00    -0.248 NA
ATOM     52  C   UNL     1       5.428  -8.643  19.200  1.00  0.00     0.031 C 
ATOM     53  C   UNL     1       8.696 -10.953  14.632  1.00  0.00     0.029 A 
ATOM     54  C   UNL     1       7.654 -10.416  15.372  1.00  0.00     0.049 A 
ATOM     55  H   UNL     1       5.667 -10.026  14.783  1.00  0.00     0.167 HD
ATOM     56  C   UNL     1       6.606  -9.464  17.409  1.00  0.00     0.074 A 
ATOM     57  C   UNL     1       6.618  -9.084  18.807  1.00  0.00     0.031 C 
ATOM     58  C   UNL     1       7.661 -10.002  16.751  1.00  0.00     0.034 A 
BRANCH  45  59
ATOM     59  C   UNL     1       6.520 -11.568  10.895  1.00  0.00     0.023 A 
ATOM     60  C   UNL     1       6.938 -10.722   9.849  1.00  0.00     0.012 A 
ATOM     61  C   UNL     1       6.678 -12.961  10.768  1.00  0.00     0.148 A 
ATOM     62  C   UNL     1       7.495 -11.256   8.687  1.00  0.00     0.002 A 
ATOM     63  C   UNL     1       7.259 -13.485   9.619  1.00  0.00     0.091 A 
ATOM     64  F   UNL     1       6.254 -13.746  11.769  1.00  0.00    -0.205 F 
ATOM     65  C   UNL     1       7.664 -12.634   8.577  1.00  0.00     0.022 A 
BRANCH  63  66
ATOM     66  S   UNL     1       7.571 -15.241   9.402  1.00  0.00     0.127 S 
ATOM     67  O   UNL     1       6.596 -15.586   8.368  1.00  0.00    -0.237 OA
ATOM     68  O   UNL     1       8.964 -15.254   8.954  1.00  0.00    -0.237 OA
ATOM     69  O   UNL     1       7.345 -15.853  10.703  1.00  0.00    -0.744 OA
ENDBRANCH  63  66
ENDBRANCH  45  59
BRANCH  46  70
ATOM     70  C   UNL     1       2.647  -7.637  19.214  1.00  0.00     0.023 A 
ATOM     71  C   UNL     1       2.992  -6.316  19.551  1.00  0.00     0.012 A 
ATOM     72  C   UNL     1       1.649  -8.303  19.953  1.00  0.00     0.148 A 
ATOM     73  C   UNL     1       2.346  -5.662  20.600  1.00  0.00     0.002 A 
ATOM     74  C   UNL     1       0.976  -7.630  20.964  1.00  0.00     0.091 A 
ATOM     75  F   UNL     1       1.340  -9.560  19.607  1.00  0.00    -0.205 F 
ATOM     76  C   UNL     1       1.329  -6.312  21.296  1.00  0.00     0.022 A 
BRANCH  74  77
ATOM     77  S   UNL     1      -0.435  -8.334  21.824  1.00  0.00     0.127 S 
ATOM     78  O   UNL     1       0.040  -8.358  23.206  1.00  0.00    -0.237 OA
ATOM     79  O   UNL     1      -1.474  -7.342  21.547  1.00  0.00    -0.237 OA
ATOM     80  O   UNL     1      -0.660  -9.639  21.220  1.00  0.00    -0.744 OA
ENDBRANCH  74  77
ENDBRANCH  46  70
BRANCH  58  81
ATOM     81  C   UNL     1       8.928 -10.232  17.525  1.00  0.00     0.023 A 
ATOM     82  C   UNL     1       9.032 -11.374  18.342  1.00  0.00     0.012 A 
ATOM     83  C   UNL     1      10.046  -9.397  17.344  1.00  0.00     0.148 A 
ATOM     84  C   UNL     1      10.235 -11.681  18.974  1.00  0.00     0.002 A 
ATOM     85  C   UNL     1      11.252  -9.726  17.952  1.00  0.00     0.091 A 
ATOM     86  F   UNL     1       9.914  -8.312  16.568  1.00  0.00    -0.205 F 
ATOM     87  C   UNL     1      11.347 -10.865  18.770  1.00  0.00     0.022 A 
BRANCH  85  88
ATOM     88  S   UNL     1      12.757  -8.783  17.691  1.00  0.00     0.127 S 
ATOM     89  O   UNL     1      12.982  -8.209  19.017  1.00  0.00    -0.237 OA
ATOM     90  O   UNL     1      13.711  -9.823  17.306  1.00  0.00    -0.237 OA
ATOM     91  O   UNL     1      12.453  -7.818  16.642  1.00  0.00    -0.744 OA
ENDBRANCH  85  88
ENDBRANCH  58  81
ENDBRANCH  32  33
ENDBRANCH  24  27
ENDBRANCH   1  23
TORSDOF 14
