REMARK SMILES O=C(NCCCNC(=O)c1ccn(-c2cc(-c3ccncc3)nc(-c3ccccc3F)n2)n1)c1ccc(-c2c3nc(c(-c4cccc(S(=O)(=O)[O-])c4F)c4ccc([nH]4)c(-c4cccc(S(=O)(=O)[O-])c4F)c4nc(c(-c5cccc(S(=O)(=O)[O-])c5F)c5ccc2[nH]5)C=C4)C=C3)cc1
REMARK SMILES IDX 4 1 3 2 1 3 2 4 34 6 35 7 96 8 36 9 95 10 37 11 38 12 39 13
REMARK SMILES IDX 89 14 40 15 94 16 88 17 90 18 41 19 93 20 87 21 86 22 42 24
REMARK SMILES IDX 74 25 54 26 73 27 55 28 58 29 72 30 91 31 56 32 57 33 71 35
REMARK SMILES IDX 92 36 59 37 43 38 44 39 52 40 45 41 47 42 53 43 46 44 48 45
REMARK SMILES IDX 49 46 50 47 51 48 75 49 76 50 84 51 77 52 79 53 85 54 78 55
REMARK SMILES IDX 80 56 81 57 82 58 83 59 60 60 61 61 69 62 62 63 64 64 70 65
REMARK SMILES IDX 63 66 65 67 66 68 67 69 68 70 5 71 6 72 7 73 8 74 9 76 10 77
REMARK SMILES IDX 11 78 33 79 12 80 13 81 14 82 15 83 32 84 16 85 24 86 23 87
REMARK SMILES IDX 17 88 18 89 22 90 19 91 21 92 20 93 25 94 26 95 30 96 27 97
REMARK SMILES IDX 29 98 31 99 28 100
REMARK H PARENT 3 5 90 23 58 34 7 75
REMARK Flexibility Score: inf
ROOT
ATOM      1  C   UNL     1       4.605   1.125  -0.407  1.00  0.00     0.118 C 
ENDROOT
BRANCH   1   2
ATOM      2  N   UNL     1       3.198   1.190  -0.071  1.00  0.00    -0.352 N 
ATOM      3  O   UNL     1       1.137   0.709   0.517  1.00  0.00    -0.269 OA
ATOM      4  C   UNL     1       2.177   0.284   0.006  1.00  0.00     0.251 C 
ATOM      5  H   UNL     1       2.908   2.103   0.157  1.00  0.00     0.163 HD
BRANCH   4   6
ATOM      6  C   UNL     1       2.203  -1.104  -0.533  1.00  0.00     0.039 A 
ATOM      7  C   UNL     1       3.315  -1.762  -1.061  1.00  0.00     0.014 A 
ATOM      8  C   UNL     1       0.962  -1.771  -0.547  1.00  0.00     0.014 A 
ATOM      9  C   UNL     1       3.173  -3.009  -1.669  1.00  0.00     0.010 A 
ATOM     10  C   UNL     1       0.816  -3.017  -1.145  1.00  0.00     0.010 A 
ATOM     11  C   UNL     1       1.917  -3.618  -1.744  1.00  0.00    -0.014 A 
BRANCH  11  12
ATOM     12  C   UNL     1       1.814  -4.952  -2.332  1.00  0.00     0.031 A 
ATOM     13  C   UNL     1       2.499  -6.029  -1.557  1.00  0.00     0.074 A 
ATOM     14  C   UNL     1       1.041  -5.237  -3.402  1.00  0.00     0.049 A 
ATOM     15  N   UNL     1       3.459  -6.804  -1.946  1.00  0.00    -0.248 NA
ATOM     16  C   UNL     1       2.140  -6.189  -0.139  1.00  0.00     0.031 C 
ATOM     17  C   UNL     1       0.085  -4.355  -4.077  1.00  0.00     0.029 A 
ATOM     18  N   UNL     1       0.848  -6.434  -4.030  1.00  0.00    -0.354 N 
ATOM     19  C   UNL     1       3.695  -7.683  -0.886  1.00  0.00     0.074 A 
ATOM     20  C   UNL     1       2.962  -7.168   0.240  1.00  0.00     0.031 C 
ATOM     21  C   UNL     1      -0.753  -5.102  -4.832  1.00  0.00     0.029 A 
ATOM     22  C   UNL     1      -0.311  -6.485  -4.803  1.00  0.00     0.049 A 
ATOM     23  H   UNL     1       1.470  -7.192  -3.945  1.00  0.00     0.167 HD
ATOM     24  C   UNL     1       4.325  -8.877  -1.060  1.00  0.00     0.034 A 
ATOM     25  C   UNL     1      -0.901  -7.599  -5.306  1.00  0.00     0.034 A 
ATOM     26  C   UNL     1       5.010  -8.942  -2.321  1.00  0.00     0.049 A 
ATOM     27  C   UNL     1       0.118  -8.669  -5.329  1.00  0.00     0.074 A 
ATOM     28  C   UNL     1       6.051  -8.253  -2.908  1.00  0.00     0.029 A 
ATOM     29  N   UNL     1       4.385  -9.621  -3.337  1.00  0.00    -0.354 N 
ATOM     30  N   UNL     1       1.165  -8.653  -6.103  1.00  0.00    -0.248 NA
ATOM     31  C   UNL     1       0.186  -9.572  -4.194  1.00  0.00     0.031 C 
ATOM     32  C   UNL     1       5.698  -8.165  -4.286  1.00  0.00     0.029 A 
ATOM     33  C   UNL     1       4.496  -8.852  -4.464  1.00  0.00     0.049 A 
ATOM     34  H   UNL     1       3.941 -10.496  -3.267  1.00  0.00     0.167 HD
ATOM     35  C   UNL     1       2.180  -9.169  -5.311  1.00  0.00     0.074 A 
ATOM     36  C   UNL     1       1.498  -9.818  -4.193  1.00  0.00     0.031 C 
ATOM     37  C   UNL     1       3.474  -8.773  -5.484  1.00  0.00     0.034 A 
BRANCH  24  38
ATOM     38  C   UNL     1       4.083 -10.120  -0.237  1.00  0.00     0.023 A 
ATOM     39  C   UNL     1       4.976 -11.204  -0.404  1.00  0.00     0.012 A 
ATOM     40  C   UNL     1       2.890 -10.376   0.477  1.00  0.00     0.148 A 
ATOM     41  C   UNL     1       4.680 -12.483   0.081  1.00  0.00     0.002 A 
ATOM     42  C   UNL     1       2.635 -11.630   1.022  1.00  0.00     0.091 A 
ATOM     43  F   UNL     1       1.933  -9.444   0.525  1.00  0.00    -0.205 F 
ATOM     44  C   UNL     1       3.512 -12.695   0.802  1.00  0.00     0.022 A 
BRANCH  42  45
ATOM     45  S   UNL     1       1.166 -11.955   2.005  1.00  0.00     0.127 S 
ATOM     46  O   UNL     1       0.385 -12.792   1.099  1.00  0.00    -0.237 OA
ATOM     47  O   UNL     1       1.730 -12.653   3.161  1.00  0.00    -0.237 OA
ATOM     48  O   UNL     1       0.606 -10.646   2.314  1.00  0.00    -0.744 OA
ENDBRANCH  42  45
ENDBRANCH  24  38
BRANCH  25  49
ATOM     49  C   UNL     1      -2.341  -7.922  -5.472  1.00  0.00     0.023 A 
ATOM     50  C   UNL     1      -2.720  -8.994  -6.309  1.00  0.00     0.012 A 
ATOM     51  C   UNL     1      -3.299  -7.411  -4.571  1.00  0.00     0.148 A 
ATOM     52  C   UNL     1      -3.994  -9.570  -6.214  1.00  0.00     0.002 A 
ATOM     53  C   UNL     1      -4.562  -7.989  -4.478  1.00  0.00     0.091 A 
ATOM     54  F   UNL     1      -2.939  -6.428  -3.737  1.00  0.00    -0.205 F 
ATOM     55  C   UNL     1      -4.909  -9.077  -5.289  1.00  0.00     0.022 A 
BRANCH  53  56
ATOM     56  S   UNL     1      -5.776  -7.444  -3.268  1.00  0.00     0.127 S 
ATOM     57  O   UNL     1      -6.971  -7.274  -4.096  1.00  0.00    -0.237 OA
ATOM     58  O   UNL     1      -5.820  -8.583  -2.355  1.00  0.00    -0.237 OA
ATOM     59  O   UNL     1      -5.252  -6.205  -2.709  1.00  0.00    -0.744 OA
ENDBRANCH  53  56
ENDBRANCH  25  49
BRANCH  37  60
ATOM     60  C   UNL     1       3.810  -7.954  -6.707  1.00  0.00     0.023 A 
ATOM     61  C   UNL     1       3.243  -6.684  -6.947  1.00  0.00     0.012 A 
ATOM     62  C   UNL     1       4.851  -8.398  -7.538  1.00  0.00     0.148 A 
ATOM     63  C   UNL     1       3.688  -5.887  -8.006  1.00  0.00     0.002 A 
ATOM     64  C   UNL     1       5.328  -7.581  -8.556  1.00  0.00     0.091 A 
ATOM     65  F   UNL     1       5.382  -9.607  -7.299  1.00  0.00    -0.205 F 
ATOM     66  C   UNL     1       4.742  -6.329  -8.801  1.00  0.00     0.022 A 
BRANCH  64  67
ATOM     67  S   UNL     1       6.773  -8.034  -9.518  1.00  0.00     0.127 S 
ATOM     68  O   UNL     1       6.179  -8.434 -10.791  1.00  0.00    -0.237 OA
ATOM     69  O   UNL     1       7.526  -6.779  -9.561  1.00  0.00    -0.237 OA
ATOM     70  O   UNL     1       7.435  -9.095  -8.769  1.00  0.00    -0.744 OA
ENDBRANCH  64  67
ENDBRANCH  37  60
ENDBRANCH  11  12
ENDBRANCH   4   6
ENDBRANCH   1   2
BRANCH   1  71
ATOM     71  C   UNL     1       4.911   1.292  -1.896  1.00  0.00     0.042 C 
BRANCH  71  72
ATOM     72  C   UNL     1       4.372   2.584  -2.513  1.00  0.00     0.118 C 
BRANCH  72  73
ATOM     73  N   UNL     1       4.948   3.766  -1.897  1.00  0.00    -0.351 N 
ATOM     74  C   UNL     1       5.845   4.669  -2.415  1.00  0.00     0.271 C 
ATOM     75  H   UNL     1       4.654   3.946  -0.975  1.00  0.00     0.163 HD
ATOM     76  O   UNL     1       6.345   5.498  -1.658  1.00  0.00    -0.267 OA
BRANCH  74  77
ATOM     77  C   UNL     1       6.122   4.652  -3.855  1.00  0.00     0.150 A 
ATOM     78  C   UNL     1       5.190   4.865  -4.904  1.00  0.00     0.056 A 
ATOM     79  N   UNL     1       7.369   4.500  -4.340  1.00  0.00    -0.161 NA
ATOM     80  C   UNL     1       5.951   4.978  -6.040  1.00  0.00     0.118 A 
ATOM     81  N   UNL     1       7.259   4.789  -5.662  1.00  0.00    -0.222 N 
BRANCH  81  82
ATOM     82  C   UNL     1       8.397   4.912  -6.504  1.00  0.00     0.158 A 
ATOM     83  C   UNL     1       9.538   4.209  -6.182  1.00  0.00     0.078 A 
ATOM     84  N   UNL     1       8.300   5.711  -7.591  1.00  0.00    -0.209 NA
ATOM     85  C   UNL     1      10.587   4.322  -7.071  1.00  0.00     0.077 A 
ATOM     86  C   UNL     1       9.406   5.823  -8.344  1.00  0.00     0.165 A 
ATOM     87  N   UNL     1      10.556   5.162  -8.128  1.00  0.00    -0.228 NA
BRANCH  85  88
ATOM     88  C   UNL     1      11.786   3.489  -6.952  1.00  0.00     0.003 A 
ATOM     89  C   UNL     1      11.697   2.092  -7.026  1.00  0.00     0.030 A 
ATOM     90  C   UNL     1      13.050   4.057  -6.775  1.00  0.00     0.030 A 
ATOM     91  C   UNL     1      12.853   1.338  -6.907  1.00  0.00     0.111 A 
ATOM     92  C   UNL     1      14.147   3.218  -6.657  1.00  0.00     0.111 A 
ATOM     93  N   UNL     1      14.077   1.872  -6.713  1.00  0.00    -0.265 NA
ENDBRANCH  85  88
BRANCH  86  94
ATOM     94  C   UNL     1       9.381   6.822  -9.405  1.00  0.00     0.055 A 
ATOM     95  C   UNL     1       9.207   8.187  -9.107  1.00  0.00     0.015 A 
ATOM     96  C   UNL     1       9.515   6.459 -10.747  1.00  0.00     0.134 A 
ATOM     97  C   UNL     1       9.175   9.149 -10.123  1.00  0.00     0.001 A 
ATOM     98  C   UNL     1       9.474   7.411 -11.766  1.00  0.00     0.040 A 
ATOM     99  F   UNL     1       9.658   5.170 -11.091  1.00  0.00    -0.206 F 
ATOM    100  C   UNL     1       9.306   8.759 -11.454  1.00  0.00     0.003 A 
ENDBRANCH  86  94
ENDBRANCH  81  82
ENDBRANCH  74  77
ENDBRANCH  72  73
ENDBRANCH  71  72
ENDBRANCH   1  71
TORSDOF 16
