REMARK SMILES O=C(C[C@H]([NH2+]Cc1ccccc1C1CC1)c1cccs1)NCCCNC(=O)c1ccc(-c2c3nc(c(-c4cccc(S(=O)(=O)[O-])c4F)c4ccc([nH]4)c(-c4cccc(S(=O)(=O)[O-])c4F)c4nc(c(-c5cccc(S(=O)(=O)[O-])c5F)c5ccc2[nH]5)C=C4)C=C3)cc1
REMARK SMILES IDX 22 1 21 2 1 3 2 4 3 6 4 7 16 8 17 9 20 10 18 11 19 12 5 13
REMARK SMILES IDX 6 16 7 17 8 18 12 19 9 20 11 21 10 22 13 23 14 24 15 25
REMARK SMILES IDX 23 26 24 27 25 28 26 29 27 31 28 32 29 33 90 34 30 35 89 36
REMARK SMILES IDX 31 37 32 38 33 39 83 40 34 41 88 42 82 43 84 44 35 45 87 46
REMARK SMILES IDX 81 47 80 48 36 50 68 51 48 52 67 53 49 54 52 55 66 56 85 57
REMARK SMILES IDX 50 58 51 59 65 61 86 62 53 63 37 64 38 65 46 66 39 67 41 68
REMARK SMILES IDX 47 69 40 70 42 71 43 72 44 73 45 74 69 75 70 76 78 77 71 78
REMARK SMILES IDX 73 79 79 80 72 81 74 82 75 83 76 84 77 85 54 86 55 87 63 88
REMARK SMILES IDX 56 89 58 90 64 91 57 92 59 93 60 94 61 95 62 96
REMARK H PARENT 21 5 5 14 5 15 25 30 84 49 52 60
REMARK Flexibility Score: inf
ROOT
ATOM      1  C   UNL     1       2.838   0.870   3.492  1.00  0.00     0.117 C 
ENDROOT
BRANCH   1   2
ATOM      2  N   UNL     1       3.739   1.385   2.469  1.00  0.00    -0.356 N 
ATOM      3  O   UNL     1       4.367  -0.671   1.662  1.00  0.00    -0.275 OA
ATOM      4  C   UNL     1       4.405   0.554   1.589  1.00  0.00     0.226 C 
ATOM      5  H   UNL     1       3.877   2.358   2.403  1.00  0.00     0.163 HD
BRANCH   4   6
ATOM      6  C   UNL     1       5.157   1.257   0.473  1.00  0.00     0.171 C 
BRANCH   6   7
ATOM      7  C   UNL     1       4.199   1.896  -0.548  1.00  0.00     0.233 C 
BRANCH   7   8
ATOM      8  C   UNL     1       4.913   2.891  -1.444  1.00  0.00     0.062 A 
ATOM      9  C   UNL     1       4.689   4.255  -1.532  1.00  0.00     0.021 A 
ATOM     10  S   UNL     1       6.103   2.387  -2.577  1.00  0.00    -0.143 S 
ATOM     11  C   UNL     1       5.443   4.866  -2.574  1.00  0.00     0.012 A 
ATOM     12  C   UNL     1       6.242   3.959  -3.232  1.00  0.00     0.065 A 
ENDBRANCH   7   8
BRANCH   7  13
ATOM     13  N   UNL     1       3.458   0.920  -1.379  1.00  0.00    -0.335 N 
ATOM     14  H   UNL     1       3.238   0.097  -0.817  1.00  0.00     0.347 HD
ATOM     15  H   UNL     1       4.037   0.653  -2.175  1.00  0.00     0.347 HD
BRANCH  13  16
ATOM     16  C   UNL     1       2.213   1.517  -1.871  1.00  0.00     0.298 C 
BRANCH  16  17
ATOM     17  C   UNL     1       1.276   0.551  -2.561  1.00  0.00     0.010 A 
ATOM     18  C   UNL     1       1.236   0.626  -3.975  1.00  0.00     0.010 A 
ATOM     19  C   UNL     1       0.392  -0.323  -1.881  1.00  0.00    -0.036 A 
ATOM     20  C   UNL     1       0.296  -0.078  -4.721  1.00  0.00     0.001 A 
ATOM     21  C   UNL     1      -0.576  -0.986  -2.679  1.00  0.00     0.004 A 
ATOM     22  C   UNL     1      -0.634  -0.865  -4.067  1.00  0.00     0.000 A 
BRANCH  19  23
ATOM     23  C   UNL     1       0.383  -0.713  -0.412  1.00  0.00     0.020 C 
ATOM     24  C   UNL     1       1.153  -0.101   0.714  1.00  0.00     0.009 C 
ATOM     25  C   UNL     1      -0.315   0.155   0.610  1.00  0.00     0.009 C 
ENDBRANCH  19  23
ENDBRANCH  16  17
ENDBRANCH  13  16
ENDBRANCH   7  13
ENDBRANCH   6   7
ENDBRANCH   4   6
ENDBRANCH   1   2
BRANCH   1  26
ATOM     26  C   UNL     1       3.159   1.362   4.896  1.00  0.00     0.042 C 
BRANCH  26  27
ATOM     27  C   UNL     1       2.984   2.863   5.106  1.00  0.00     0.118 C 
BRANCH  27  28
ATOM     28  N   UNL     1       1.603   3.316   4.985  1.00  0.00    -0.352 N 
ATOM     29  C   UNL     1       0.848   4.087   5.838  1.00  0.00     0.251 C 
ATOM     30  H   UNL     1       1.140   3.025   4.167  1.00  0.00     0.163 HD
ATOM     31  O   UNL     1      -0.343   4.269   5.587  1.00  0.00    -0.269 OA
BRANCH  29  32
ATOM     32  C   UNL     1       1.438   4.670   7.066  1.00  0.00     0.039 A 
ATOM     33  C   UNL     1       0.706   4.610   8.256  1.00  0.00     0.014 A 
ATOM     34  C   UNL     1       2.699   5.271   7.059  1.00  0.00     0.014 A 
ATOM     35  C   UNL     1       1.272   5.070   9.449  1.00  0.00     0.010 A 
ATOM     36  C   UNL     1       3.292   5.661   8.260  1.00  0.00     0.010 A 
ATOM     37  C   UNL     1       2.591   5.553   9.471  1.00  0.00    -0.014 A 
BRANCH  37  38
ATOM     38  C   UNL     1       3.270   5.890  10.752  1.00  0.00     0.031 A 
ATOM     39  C   UNL     1       3.760   7.287  11.023  1.00  0.00     0.074 A 
ATOM     40  C   UNL     1       3.534   4.907  11.637  1.00  0.00     0.049 A 
ATOM     41  N   UNL     1       4.433   7.740  12.050  1.00  0.00    -0.248 NA
ATOM     42  C   UNL     1       3.475   8.305   9.999  1.00  0.00     0.031 C 
ATOM     43  C   UNL     1       3.179   3.497  11.464  1.00  0.00     0.029 A 
ATOM     44  N   UNL     1       4.191   4.936  12.843  1.00  0.00    -0.354 N 
ATOM     45  C   UNL     1       4.682   9.081  11.784  1.00  0.00     0.074 A 
ATOM     46  C   UNL     1       4.109   9.363  10.484  1.00  0.00     0.031 C 
ATOM     47  C   UNL     1       3.620   2.798  12.521  1.00  0.00     0.029 A 
ATOM     48  C   UNL     1       4.325   3.697  13.428  1.00  0.00     0.049 A 
ATOM     49  H   UNL     1       4.534   5.764  13.251  1.00  0.00     0.167 HD
ATOM     50  C   UNL     1       5.310   9.999  12.557  1.00  0.00     0.034 A 
ATOM     51  C   UNL     1       4.961   3.320  14.555  1.00  0.00     0.034 A 
ATOM     52  C   UNL     1       5.857   9.724  13.860  1.00  0.00     0.049 A 
ATOM     53  C   UNL     1       5.643   4.362  15.399  1.00  0.00     0.074 A 
ATOM     54  C   UNL     1       6.433  10.610  14.754  1.00  0.00     0.029 A 
ATOM     55  N   UNL     1       5.915   8.471  14.449  1.00  0.00    -0.354 N 
ATOM     56  N   UNL     1       5.726   5.656  15.205  1.00  0.00    -0.248 NA
ATOM     57  C   UNL     1       6.292   3.897  16.634  1.00  0.00     0.031 C 
ATOM     58  C   UNL     1       6.874   9.886  15.867  1.00  0.00     0.029 A 
ATOM     59  C   UNL     1       6.538   8.555  15.684  1.00  0.00     0.049 A 
ATOM     60  H   UNL     1       5.566   7.642  14.048  1.00  0.00     0.167 HD
ATOM     61  C   UNL     1       6.409   6.162  16.305  1.00  0.00     0.074 A 
ATOM     62  C   UNL     1       6.691   5.039  17.175  1.00  0.00     0.031 C 
ATOM     63  C   UNL     1       6.781   7.440  16.564  1.00  0.00     0.034 A 
BRANCH  50  64
ATOM     64  C   UNL     1       5.410  11.409  12.032  1.00  0.00     0.023 A 
ATOM     65  C   UNL     1       4.252  12.210  11.957  1.00  0.00     0.012 A 
ATOM     66  C   UNL     1       6.656  11.964  11.678  1.00  0.00     0.148 A 
ATOM     67  C   UNL     1       4.325  13.527  11.505  1.00  0.00     0.002 A 
ATOM     68  C   UNL     1       6.728  13.292  11.274  1.00  0.00     0.091 A 
ATOM     69  F   UNL     1       7.744  11.184  11.740  1.00  0.00    -0.205 F 
ATOM     70  C   UNL     1       5.563  14.071  11.174  1.00  0.00     0.022 A 
BRANCH  68  71
ATOM     71  S   UNL     1       8.284  14.111  10.902  1.00  0.00     0.127 S 
ATOM     72  O   UNL     1       8.179  14.298   9.456  1.00  0.00    -0.237 OA
ATOM     73  O   UNL     1       8.177  15.342  11.685  1.00  0.00    -0.237 OA
ATOM     74  O   UNL     1       9.332  13.200  11.339  1.00  0.00    -0.744 OA
ENDBRANCH  68  71
ENDBRANCH  50  64
BRANCH  51  75
ATOM     75  C   UNL     1       4.950   1.889  14.973  1.00  0.00     0.023 A 
ATOM     76  C   UNL     1       4.224   1.506  16.118  1.00  0.00     0.012 A 
ATOM     77  C   UNL     1       5.636   0.906  14.235  1.00  0.00     0.148 A 
ATOM     78  C   UNL     1       4.211   0.176  16.540  1.00  0.00     0.002 A 
ATOM     79  C   UNL     1       5.570  -0.426  14.626  1.00  0.00     0.091 A 
ATOM     80  F   UNL     1       6.330   1.293  13.155  1.00  0.00    -0.205 F 
ATOM     81  C   UNL     1       4.874  -0.790  15.789  1.00  0.00     0.022 A 
BRANCH  79  82
ATOM     82  S   UNL     1       6.281  -1.754  13.649  1.00  0.00     0.127 S 
ATOM     83  O   UNL     1       7.376  -2.202  14.505  1.00  0.00    -0.237 OA
ATOM     84  O   UNL     1       5.157  -2.685  13.545  1.00  0.00    -0.237 OA
ATOM     85  O   UNL     1       6.676  -1.146  12.385  1.00  0.00    -0.744 OA
ENDBRANCH  79  82
ENDBRANCH  51  75
BRANCH  63  86
ATOM     86  C   UNL     1       7.512   7.708  17.855  1.00  0.00     0.023 A 
ATOM     87  C   UNL     1       8.840   7.264  18.016  1.00  0.00     0.012 A 
ATOM     88  C   UNL     1       6.905   8.454  18.884  1.00  0.00     0.148 A 
ATOM     89  C   UNL     1       9.538   7.526  19.195  1.00  0.00     0.002 A 
ATOM     90  C   UNL     1       7.624   8.757  20.034  1.00  0.00     0.091 A 
ATOM     91  F   UNL     1       5.636   8.854  18.720  1.00  0.00    -0.205 F 
ATOM     92  C   UNL     1       8.935   8.281  20.197  1.00  0.00     0.022 A 
BRANCH  90  93
ATOM     93  S   UNL     1       6.967   9.803  21.338  1.00  0.00     0.127 S 
ATOM     94  O   UNL     1       6.780   8.843  22.425  1.00  0.00    -0.237 OA
ATOM     95  O   UNL     1       8.057  10.757  21.547  1.00  0.00    -0.237 OA
ATOM     96  O   UNL     1       5.743  10.389  20.808  1.00  0.00    -0.744 OA
ENDBRANCH  90  93
ENDBRANCH  63  86
ENDBRANCH  37  38
ENDBRANCH  29  32
ENDBRANCH  27  28
ENDBRANCH  26  27
ENDBRANCH   1  26
TORSDOF 19
