REMARK SMILES Cc1ccc(C(=O)NC2CC2)cc1NC(=O)[C@@H]1[C@@H](C(=O)NCCCNC(=O)c2ccc(-c3c4nc(c(-c5cccc(S(=O)(=O)[O-])c5F)c5ccc([nH]5)c(-c5cccc(S(=O)(=O)[O-])c5F)c5nc(c(-c6cccc(S(=O)(=O)[O-])c6F)c6ccc3[nH]6)C=C5)C=C4)cc2)[C@H]2C=C[C@@H]1C2
REMARK SMILES IDX 22 1 21 2 19 3 20 4 18 6 17 7 94 8 91 9 93 10 95 11 92 12
REMARK SMILES IDX 15 13 14 14 16 16 13 17 1 18 2 19 3 20 4 21 12 22 5 23 6 24
REMARK SMILES IDX 7 25 8 26 9 28 10 29 11 30 23 31 24 32 25 33 26 34 27 36
REMARK SMILES IDX 28 37 29 38 90 39 30 40 89 41 31 42 32 43 33 44 83 45 34 46
REMARK SMILES IDX 88 47 82 48 84 49 35 50 87 51 81 52 80 53 36 55 68 56 48 57
REMARK SMILES IDX 67 58 49 59 52 60 66 61 85 62 50 63 51 64 65 66 86 67 53 68
REMARK SMILES IDX 37 69 38 70 46 71 39 72 41 73 47 74 40 75 42 76 43 77 44 78
REMARK SMILES IDX 45 79 69 80 70 81 78 82 71 83 73 84 79 85 72 86 74 87 75 88
REMARK SMILES IDX 76 89 77 90 54 91 55 92 63 93 56 94 58 95 64 96 57 97 59 98
REMARK SMILES IDX 60 99 61 100 62 101
REMARK H PARENT 21 5 14 15 8 27 25 35 84 54 52 65
REMARK Flexibility Score: inf
ROOT
ATOM      1  C   UNL     1      -4.021   7.153   0.857  1.00  0.00     0.117 C 
ENDROOT
BRANCH   1   2
ATOM      2  N   UNL     1      -3.348   6.484  -0.242  1.00  0.00    -0.356 N 
ATOM      3  C   UNL     1      -2.243   5.705  -0.305  1.00  0.00     0.224 C 
ATOM      4  O   UNL     1      -1.882   5.367  -1.440  1.00  0.00    -0.275 OA
ATOM      5  H   UNL     1      -3.782   6.626  -1.115  1.00  0.00     0.163 HD
BRANCH   3   6
ATOM      6  C   UNL     1      -1.390   5.291   0.893  1.00  0.00     0.098 C 
ATOM      7  C   UNL     1      -0.931   3.796   0.674  1.00  0.00     0.099 C 
ATOM      8  C   UNL     1      -1.175   3.147   2.061  1.00  0.00     0.025 C 
ATOM      9  C   UNL     1      -1.978   5.221   2.319  1.00  0.00     0.025 C 
ATOM     10  C   UNL     1      -2.664   3.018   2.261  1.00  0.00    -0.027 C 
ATOM     11  C   UNL     1      -0.931   4.329   3.002  1.00  0.00     0.017 C 
ATOM     12  C   UNL     1      -3.147   4.259   2.399  1.00  0.00    -0.027 C 
BRANCH   7  13
ATOM     13  C   UNL     1       0.501   3.582   0.217  1.00  0.00     0.228 C 
ATOM     14  N   UNL     1       0.948   2.332  -0.154  1.00  0.00    -0.326 N 
ATOM     15  H   UNL     1       1.901   2.309  -0.402  1.00  0.00     0.169 HD
ATOM     16  O   UNL     1       1.335   4.490   0.269  1.00  0.00    -0.274 OA
BRANCH  14  17
ATOM     17  C   UNL     1       0.305   1.074  -0.249  1.00  0.00     0.044 A 
ATOM     18  C   UNL     1       2.528  -0.160   0.197  1.00  0.00     0.046 C 
ATOM     19  C   UNL     1       1.034  -0.100   0.011  1.00  0.00    -0.027 A 
ATOM     20  C   UNL     1       0.344  -1.323   0.080  1.00  0.00     0.006 A 
ATOM     21  C   UNL     1      -1.039  -1.384  -0.110  1.00  0.00     0.014 A 
ATOM     22  C   UNL     1      -1.052   0.954  -0.597  1.00  0.00     0.040 A 
ATOM     23  C   UNL     1      -1.765  -0.243  -0.467  1.00  0.00     0.041 A 
BRANCH  23  24
ATOM     24  C   UNL     1      -3.243  -0.417  -0.685  1.00  0.00     0.251 C 
ATOM     25  O   UNL     1      -3.714  -1.556  -0.625  1.00  0.00    -0.269 OA
ATOM     26  N   UNL     1      -4.131   0.617  -0.909  1.00  0.00    -0.349 N 
ATOM     27  H   UNL     1      -5.064   0.332  -1.039  1.00  0.00     0.164 HD
BRANCH  26  28
ATOM     28  C   UNL     1      -3.929   2.017  -0.985  1.00  0.00     0.082 C 
ATOM     29  C   UNL     1      -3.844   2.689  -2.327  1.00  0.00     0.027 C 
ATOM     30  C   UNL     1      -4.993   2.986  -1.411  1.00  0.00     0.027 C 
ENDBRANCH  26  28
ENDBRANCH  23  24
ENDBRANCH  14  17
ENDBRANCH   7  13
ENDBRANCH   3   6
ENDBRANCH   1   2
BRANCH   1  31
ATOM     31  C   UNL     1      -3.336   8.456   1.226  1.00  0.00     0.042 C 
BRANCH  31  32
ATOM     32  C   UNL     1      -3.937   9.619   0.459  1.00  0.00     0.118 C 
BRANCH  32  33
ATOM     33  N   UNL     1      -5.019  10.279   1.174  1.00  0.00    -0.352 N 
ATOM     34  C   UNL     1      -5.765  11.386   0.812  1.00  0.00     0.251 C 
ATOM     35  H   UNL     1      -5.255   9.880   2.042  1.00  0.00     0.163 HD
ATOM     36  O   UNL     1      -6.432  11.954   1.675  1.00  0.00    -0.269 OA
BRANCH  34  37
ATOM     37  C   UNL     1      -5.859  11.777  -0.615  1.00  0.00     0.039 A 
ATOM     38  C   UNL     1      -7.131  12.059  -1.131  1.00  0.00     0.014 A 
ATOM     39  C   UNL     1      -4.780  11.610  -1.475  1.00  0.00     0.014 A 
ATOM     40  C   UNL     1      -7.371  11.901  -2.493  1.00  0.00     0.010 A 
ATOM     41  C   UNL     1      -5.028  11.348  -2.799  1.00  0.00     0.010 A 
ATOM     42  C   UNL     1      -6.334  11.430  -3.287  1.00  0.00    -0.014 A 
BRANCH  42  43
ATOM     43  C   UNL     1      -6.468  10.995  -4.661  1.00  0.00     0.031 A 
ATOM     44  C   UNL     1      -6.258  11.969  -5.742  1.00  0.00     0.074 A 
ATOM     45  C   UNL     1      -6.502   9.665  -4.892  1.00  0.00     0.049 A 
ATOM     46  N   UNL     1      -6.649  11.801  -6.955  1.00  0.00    -0.248 NA
ATOM     47  C   UNL     1      -5.570  13.236  -5.514  1.00  0.00     0.031 C 
ATOM     48  C   UNL     1      -6.190   8.971  -6.132  1.00  0.00     0.029 A 
ATOM     49  N   UNL     1      -6.998   8.660  -4.052  1.00  0.00    -0.354 N 
ATOM     50  C   UNL     1      -6.027  12.772  -7.714  1.00  0.00     0.074 A 
ATOM     51  C   UNL     1      -5.434  13.684  -6.764  1.00  0.00     0.031 C 
ATOM     52  C   UNL     1      -6.738   7.745  -6.087  1.00  0.00     0.029 A 
ATOM     53  C   UNL     1      -7.574   7.697  -4.897  1.00  0.00     0.049 A 
ATOM     54  H   UNL     1      -6.952   8.634  -3.069  1.00  0.00     0.167 HD
ATOM     55  C   UNL     1      -5.923  12.601  -9.061  1.00  0.00     0.034 A 
ATOM     56  C   UNL     1      -8.907   7.395  -4.878  1.00  0.00     0.034 A 
ATOM     57  C   UNL     1      -6.536  11.331  -9.468  1.00  0.00     0.049 A 
ATOM     58  C   UNL     1      -9.593   7.705  -6.200  1.00  0.00     0.074 A 
ATOM     59  C   UNL     1      -6.007  10.064  -9.660  1.00  0.00     0.029 A 
ATOM     60  N   UNL     1      -7.913  11.171  -9.381  1.00  0.00    -0.354 N 
ATOM     61  N   UNL     1      -9.016   8.322  -7.195  1.00  0.00    -0.248 NA
ATOM     62  C   UNL     1     -10.983   7.371  -6.500  1.00  0.00     0.031 C 
ATOM     63  C   UNL     1      -7.072   9.127  -9.581  1.00  0.00     0.029 A 
ATOM     64  C   UNL     1      -8.251   9.824  -9.376  1.00  0.00     0.049 A 
ATOM     65  H   UNL     1      -8.560  11.911  -9.330  1.00  0.00     0.167 HD
ATOM     66  C   UNL     1      -9.932   8.596  -8.174  1.00  0.00     0.074 A 
ATOM     67  C   UNL     1     -11.130   7.905  -7.727  1.00  0.00     0.031 C 
ATOM     68  C   UNL     1      -9.646   9.418  -9.231  1.00  0.00     0.034 A 
BRANCH  55  69
ATOM     69  C   UNL     1      -4.958  13.386  -9.928  1.00  0.00     0.023 A 
ATOM     70  C   UNL     1      -4.393  12.721 -11.039  1.00  0.00     0.012 A 
ATOM     71  C   UNL     1      -4.520  14.712  -9.705  1.00  0.00     0.148 A 
ATOM     72  C   UNL     1      -3.380  13.287 -11.819  1.00  0.00     0.002 A 
ATOM     73  C   UNL     1      -3.458  15.253 -10.439  1.00  0.00     0.091 A 
ATOM     74  F   UNL     1      -5.174  15.485  -8.828  1.00  0.00    -0.205 F 
ATOM     75  C   UNL     1      -2.884  14.539 -11.495  1.00  0.00     0.022 A 
BRANCH  73  76
ATOM     76  S   UNL     1      -2.687  16.825 -10.012  1.00  0.00     0.127 S 
ATOM     77  O   UNL     1      -1.259  16.507 -10.092  1.00  0.00    -0.237 OA
ATOM     78  O   UNL     1      -3.169  17.712 -11.067  1.00  0.00    -0.237 OA
ATOM     79  O   UNL     1      -3.145  17.134  -8.662  1.00  0.00    -0.744 OA
ENDBRANCH  73  76
ENDBRANCH  55  69
BRANCH  56  80
ATOM     80  C   UNL     1      -9.517   7.520  -3.519  1.00  0.00     0.023 A 
ATOM     81  C   UNL     1      -9.011   6.649  -2.522  1.00  0.00     0.012 A 
ATOM     82  C   UNL     1     -10.197   8.684  -3.119  1.00  0.00     0.148 A 
ATOM     83  C   UNL     1      -9.030   7.012  -1.174  1.00  0.00     0.002 A 
ATOM     84  C   UNL     1     -10.218   9.035  -1.768  1.00  0.00     0.091 A 
ATOM     85  F   UNL     1     -10.731   9.471  -4.060  1.00  0.00    -0.205 F 
ATOM     86  C   UNL     1      -9.595   8.226  -0.803  1.00  0.00     0.022 A 
BRANCH  84  87
ATOM     87  S   UNL     1     -10.918  10.595  -1.211  1.00  0.00     0.127 S 
ATOM     88  O   UNL     1     -12.271  10.193  -0.844  1.00  0.00    -0.237 OA
ATOM     89  O   UNL     1     -10.054  10.943  -0.084  1.00  0.00    -0.237 OA
ATOM     90  O   UNL     1     -10.795  11.486  -2.355  1.00  0.00    -0.744 OA
ENDBRANCH  84  87
ENDBRANCH  56  80
BRANCH  68  91
ATOM     91  C   UNL     1     -10.658   9.949 -10.227  1.00  0.00     0.023 A 
ATOM     92  C   UNL     1     -12.019  10.102  -9.906  1.00  0.00     0.012 A 
ATOM     93  C   UNL     1     -10.229  10.478 -11.473  1.00  0.00     0.148 A 
ATOM     94  C   UNL     1     -12.921  10.697 -10.795  1.00  0.00     0.002 A 
ATOM     95  C   UNL     1     -11.105  11.178 -12.296  1.00  0.00     0.091 A 
ATOM     96  F   UNL     1      -8.963  10.292 -11.877  1.00  0.00    -0.205 F 
ATOM     97  C   UNL     1     -12.460  11.261 -11.977  1.00  0.00     0.022 A 
BRANCH  95  98
ATOM     98  S   UNL     1     -10.489  12.139 -13.686  1.00  0.00     0.127 S 
ATOM     99  O   UNL     1     -10.595  11.185 -14.788  1.00  0.00    -0.237 OA
ATOM    100  O   UNL     1     -11.441  13.250 -13.750  1.00  0.00    -0.237 OA
ATOM    101  O   UNL     1      -9.140  12.533 -13.301  1.00  0.00    -0.744 OA
ENDBRANCH  95  98
ENDBRANCH  68  91
ENDBRANCH  42  43
ENDBRANCH  34  37
ENDBRANCH  32  33
ENDBRANCH  31  32
ENDBRANCH   1  31
TORSDOF 17
