REMARK SMILES C#CCNC(=O)N[C@@]1(C(=O)NCCCNC(=O)c2ccc(-c3c4nc(c(-c5cccc(S(=O)(=O)[O-])c5F)c5ccc([nH]5)c(-c5cccc(S(=O)(=O)[O-])c5F)c5nc(c(-c6cccc(S(=O)(=O)[O-])c6F)c6ccc3[nH]6)C=C5)C=C4)cc2)CCc2ccccc21
REMARK SMILES IDX 13 1 12 2 11 3 9 4 10 5 8 7 81 8 88 9 82 10 83 11 87 12
REMARK SMILES IDX 84 13 86 14 85 15 7 16 4 17 5 18 6 20 3 22 2 23 1 24 14 25
REMARK SMILES IDX 15 26 16 27 17 29 18 30 19 31 80 32 20 33 79 34 21 35 22 36
REMARK SMILES IDX 23 37 73 38 24 39 78 40 72 41 74 42 25 43 77 44 71 45 70 46
REMARK SMILES IDX 26 48 58 49 38 50 57 51 39 52 42 53 56 54 75 55 40 56 41 57
REMARK SMILES IDX 55 59 76 60 43 61 27 62 28 63 36 64 29 65 31 66 37 67 30 68
REMARK SMILES IDX 32 69 33 70 34 71 35 72 59 73 60 74 68 75 61 76 63 77 69 78
REMARK SMILES IDX 62 79 64 80 65 81 66 82 67 83 44 84 45 85 53 86 46 87 48 88
REMARK SMILES IDX 54 89 47 90 49 91 50 92 51 93 52 94
REMARK H PARENT 11 6 4 19 7 21 15 28 74 47 42 58
REMARK Flexibility Score: inf
ROOT
ATOM      1  C   UNL     1      -6.860  -1.104  -0.722  1.00  0.00     0.042 C 
ENDROOT
BRANCH   1   2
ATOM      2  C   UNL     1      -5.890  -2.262  -0.334  1.00  0.00     0.117 C 
BRANCH   2   3
ATOM      3  N   UNL     1      -4.484  -2.220  -0.818  1.00  0.00    -0.354 N 
ATOM      4  C   UNL     1      -3.194  -2.042  -0.340  1.00  0.00     0.250 C 
ATOM      5  O   UNL     1      -2.324  -2.267  -1.200  1.00  0.00    -0.272 OA
ATOM      6  H   UNL     1      -4.462  -2.366  -1.791  1.00  0.00     0.163 HD
BRANCH   4   7
ATOM      7  C   UNL     1      -2.730  -1.621   1.145  1.00  0.00     0.146 C 
ATOM      8  C   UNL     1      -1.841  -0.339   1.333  1.00  0.00     0.048 C 
ATOM      9  C   UNL     1      -1.621  -2.593   1.691  1.00  0.00    -0.010 A 
ATOM     10  C   UNL     1      -1.023  -0.477   2.605  1.00  0.00     0.039 C 
ATOM     11  C   UNL     1      -0.641  -1.889   2.432  1.00  0.00    -0.042 A 
ATOM     12  C   UNL     1      -1.317  -3.901   1.334  1.00  0.00     0.007 A 
ATOM     13  C   UNL     1       0.599  -2.400   2.788  1.00  0.00     0.004 A 
ATOM     14  C   UNL     1      -0.049  -4.432   1.671  1.00  0.00     0.000 A 
ATOM     15  C   UNL     1       0.906  -3.683   2.378  1.00  0.00     0.000 A 
BRANCH   7  16
ATOM     16  N   UNL     1      -3.893  -1.434   1.967  1.00  0.00    -0.320 N 
ATOM     17  N   UNL     1      -4.813   0.542   0.969  1.00  0.00    -0.327 N 
ATOM     18  C   UNL     1      -4.806  -0.447   1.887  1.00  0.00     0.316 C 
ATOM     19  H   UNL     1      -5.639   1.066   1.077  1.00  0.00     0.166 HD
ATOM     20  O   UNL     1      -5.742  -0.490   2.690  1.00  0.00    -0.249 OA
ATOM     21  H   UNL     1      -4.040  -2.106   2.671  1.00  0.00     0.166 HD
BRANCH  17  22
ATOM     22  C   UNL     1      -4.024   1.121  -0.143  1.00  0.00     0.207 C 
BRANCH  22  23
ATOM     23  C   UNL     1      -4.357   0.757  -1.521  1.00  0.00    -0.085 C 
ATOM     24  C   UNL     1      -4.379   0.458  -2.690  1.00  0.00     0.006 C 
ENDBRANCH  22  23
ENDBRANCH  17  22
ENDBRANCH   7  16
ENDBRANCH   4   7
ENDBRANCH   2   3
ENDBRANCH   1   2
BRANCH   1  25
ATOM     25  C   UNL     1      -7.226  -0.918  -2.203  1.00  0.00     0.118 C 
BRANCH  25  26
ATOM     26  N   UNL     1      -8.629  -1.224  -2.444  1.00  0.00    -0.352 N 
ATOM     27  C   UNL     1      -9.676  -0.407  -2.802  1.00  0.00     0.251 C 
ATOM     28  H   UNL     1      -8.867  -2.172  -2.333  1.00  0.00     0.163 HD
ATOM     29  O   UNL     1     -10.819  -0.811  -2.583  1.00  0.00    -0.269 OA
BRANCH  27  30
ATOM     30  C   UNL     1      -9.493   0.919  -3.458  1.00  0.00     0.039 A 
ATOM     31  C   UNL     1     -10.475   1.896  -3.247  1.00  0.00     0.014 A 
ATOM     32  C   UNL     1      -8.467   1.183  -4.372  1.00  0.00     0.014 A 
ATOM     33  C   UNL     1     -10.431   3.112  -3.937  1.00  0.00     0.010 A 
ATOM     34  C   UNL     1      -8.385   2.432  -5.010  1.00  0.00     0.010 A 
ATOM     35  C   UNL     1      -9.378   3.404  -4.820  1.00  0.00    -0.014 A 
BRANCH  35  36
ATOM     36  C   UNL     1      -9.341   4.722  -5.519  1.00  0.00     0.031 A 
ATOM     37  C   UNL     1      -9.438   4.822  -7.021  1.00  0.00     0.074 A 
ATOM     38  C   UNL     1      -9.232   5.851  -4.789  1.00  0.00     0.049 A 
ATOM     39  N   UNL     1      -9.527   5.892  -7.772  1.00  0.00    -0.248 NA
ATOM     40  C   UNL     1      -9.418   3.564  -7.782  1.00  0.00     0.031 C 
ATOM     41  C   UNL     1      -9.058   5.896  -3.335  1.00  0.00     0.029 A 
ATOM     42  N   UNL     1      -9.254   7.174  -5.159  1.00  0.00    -0.354 N 
ATOM     43  C   UNL     1      -9.547   5.441  -9.088  1.00  0.00     0.074 A 
ATOM     44  C   UNL     1      -9.429   4.000  -9.034  1.00  0.00     0.031 C 
ATOM     45  C   UNL     1      -9.022   7.176  -2.934  1.00  0.00     0.029 A 
ATOM     46  C   UNL     1      -9.129   8.045  -4.102  1.00  0.00     0.049 A 
ATOM     47  H   UNL     1      -9.350   7.470  -6.093  1.00  0.00     0.167 HD
ATOM     48  C   UNL     1      -9.674   6.155 -10.234  1.00  0.00     0.034 A 
ATOM     49  C   UNL     1      -9.099   9.392  -4.069  1.00  0.00     0.034 A 
ATOM     50  C   UNL     1      -9.802   7.589 -10.284  1.00  0.00     0.049 A 
ATOM     51  C   UNL     1      -9.266  10.159  -5.350  1.00  0.00     0.074 A 
ATOM     52  C   UNL     1     -10.013   8.396 -11.389  1.00  0.00     0.029 A 
ATOM     53  N   UNL     1      -9.704   8.434  -9.190  1.00  0.00    -0.354 N 
ATOM     54  N   UNL     1      -9.439   9.704  -6.567  1.00  0.00    -0.248 NA
ATOM     55  C   UNL     1      -9.272  11.624  -5.248  1.00  0.00     0.031 C 
ATOM     56  C   UNL     1      -9.985   9.731 -10.970  1.00  0.00     0.029 A 
ATOM     57  C   UNL     1      -9.823   9.754  -9.594  1.00  0.00     0.049 A 
ATOM     58  H   UNL     1      -9.569   8.139  -8.260  1.00  0.00     0.167 HD
ATOM     59  C   UNL     1      -9.605  10.826  -7.372  1.00  0.00     0.074 A 
ATOM     60  C   UNL     1      -9.544  11.978  -6.496  1.00  0.00     0.031 C 
ATOM     61  C   UNL     1      -9.781  10.895  -8.715  1.00  0.00     0.034 A 
BRANCH  48  62
ATOM     62  C   UNL     1      -9.693   5.394 -11.540  1.00  0.00     0.023 A 
ATOM     63  C   UNL     1     -10.789   4.566 -11.860  1.00  0.00     0.012 A 
ATOM     64  C   UNL     1      -8.651   5.546 -12.476  1.00  0.00     0.148 A 
ATOM     65  C   UNL     1     -10.827   3.869 -13.068  1.00  0.00     0.002 A 
ATOM     66  C   UNL     1      -8.720   4.889 -13.700  1.00  0.00     0.091 A 
ATOM     67  F   UNL     1      -7.609   6.325 -12.152  1.00  0.00    -0.205 F 
ATOM     68  C   UNL     1      -9.799   4.038 -13.991  1.00  0.00     0.022 A 
BRANCH  66  69
ATOM     69  S   UNL     1      -7.488   5.105 -14.989  1.00  0.00     0.127 S 
ATOM     70  O   UNL     1      -6.863   3.784 -15.024  1.00  0.00    -0.237 OA
ATOM     71  O   UNL     1      -8.317   5.418 -16.154  1.00  0.00    -0.237 OA
ATOM     72  O   UNL     1      -6.625   6.191 -14.546  1.00  0.00    -0.744 OA
ENDBRANCH  66  69
ENDBRANCH  48  62
BRANCH  49  73
ATOM     73  C   UNL     1      -8.933  10.099  -2.767  1.00  0.00     0.023 A 
ATOM     74  C   UNL     1      -9.994  10.858  -2.234  1.00  0.00     0.012 A 
ATOM     75  C   UNL     1      -7.729  10.001  -2.045  1.00  0.00     0.148 A 
ATOM     76  C   UNL     1      -9.844  11.533  -1.021  1.00  0.00     0.002 A 
ATOM     77  C   UNL     1      -7.608  10.622  -0.809  1.00  0.00     0.091 A 
ATOM     78  F   UNL     1      -6.729   9.282  -2.575  1.00  0.00    -0.205 F 
ATOM     79  C   UNL     1      -8.657  11.406  -0.304  1.00  0.00     0.022 A 
BRANCH  77  80
ATOM     80  S   UNL     1      -6.170  10.400   0.242  1.00  0.00     0.127 S 
ATOM     81  O   UNL     1      -5.591  11.741   0.245  1.00  0.00    -0.237 OA
ATOM     82  O   UNL     1      -6.783   9.988   1.505  1.00  0.00    -0.237 OA
ATOM     83  O   UNL     1      -5.365   9.368  -0.399  1.00  0.00    -0.744 OA
ENDBRANCH  77  80
ENDBRANCH  49  73
BRANCH  61  84
ATOM     84  C   UNL     1      -9.960  12.267  -9.318  1.00  0.00     0.023 A 
ATOM     85  C   UNL     1      -8.888  13.183  -9.332  1.00  0.00     0.012 A 
ATOM     86  C   UNL     1     -11.191  12.638  -9.895  1.00  0.00     0.148 A 
ATOM     87  C   UNL     1      -9.058  14.466  -9.853  1.00  0.00     0.002 A 
ATOM     88  C   UNL     1     -11.334  13.896 -10.467  1.00  0.00     0.091 A 
ATOM     89  F   UNL     1     -12.204  11.761  -9.861  1.00  0.00    -0.205 F 
ATOM     90  C   UNL     1     -10.276  14.819 -10.428  1.00  0.00     0.022 A 
BRANCH  88  91
ATOM     91  S   UNL     1     -12.832  14.402 -11.318  1.00  0.00     0.127 S 
ATOM     92  O   UNL     1     -13.386  15.383 -10.387  1.00  0.00    -0.237 OA
ATOM     93  O   UNL     1     -12.304  14.968 -12.560  1.00  0.00    -0.237 OA
ATOM     94  O   UNL     1     -13.623  13.192 -11.494  1.00  0.00    -0.744 OA
ENDBRANCH  88  91
ENDBRANCH  61  84
ENDBRANCH  35  36
ENDBRANCH  27  30
ENDBRANCH  25  26
ENDBRANCH   1  25
TORSDOF 16
