REMARK SMILES CC[C@H](C(=O)NCCCNC(=O)c1ccc(-c2c3nc(c(-c4cccc(S(=O)(=O)[O-])c4F)c4ccc([nH]4)c(-c4cccc(S(=O)(=O)[O-])c4F)c4nc(c(-c5cccc(S(=O)(=O)[O-])c5F)c5ccc2[nH]5)C=C4)C=C3)cc1)N1C(=O)c2ccc([N+](=O)[O-])cc2C1=O
REMARK SMILES IDX 8 1 7 2 6 3 4 4 5 5 3 7 2 8 1 9 76 10 77 11 88 12 78 13
REMARK SMILES IDX 79 14 87 15 89 16 80 17 86 18 81 19 82 20 83 21 84 22 85 23
REMARK SMILES IDX 9 24 10 25 11 26 12 28 13 29 14 30 75 31 15 32 74 33 16 34
REMARK SMILES IDX 17 35 18 36 68 37 19 38 73 39 67 40 69 41 20 42 72 43 66 44
REMARK SMILES IDX 65 45 21 47 53 48 33 49 52 50 34 51 37 52 51 53 70 54 35 55
REMARK SMILES IDX 36 56 50 58 71 59 38 60 22 61 23 62 31 63 24 64 26 65 32 66
REMARK SMILES IDX 25 67 27 68 28 69 29 70 30 71 54 72 55 73 63 74 56 75 58 76
REMARK SMILES IDX 64 77 57 78 59 79 60 80 61 81 62 82 39 83 40 84 48 85 41 86
REMARK SMILES IDX 43 87 49 88 42 89 44 90 45 91 46 92 47 93
REMARK H PARENT 6 6 10 27 69 46 37 57
REMARK Flexibility Score: inf
ROOT
ATOM      1  C   UNL     1      -0.919   1.163   1.788  1.00  0.00     0.042 C 
ENDROOT
BRANCH   1   2
ATOM      2  C   UNL     1      -1.218  -0.146   1.069  1.00  0.00     0.117 C 
BRANCH   2   3
ATOM      3  N   UNL     1      -0.269  -0.419   0.002  1.00  0.00    -0.354 N 
ATOM      4  C   UNL     1       0.575  -1.466  -0.208  1.00  0.00     0.243 C 
ATOM      5  O   UNL     1       1.067  -1.554  -1.341  1.00  0.00    -0.273 OA
ATOM      6  H   UNL     1      -0.229   0.278  -0.692  1.00  0.00     0.163 HD
BRANCH   4   7
ATOM      7  C   UNL     1       0.820  -2.599   0.816  1.00  0.00     0.183 C 
BRANCH   7   8
ATOM      8  C   UNL     1       0.896  -2.303   2.317  1.00  0.00     0.032 C 
ATOM      9  C   UNL     1       1.817  -1.141   2.666  1.00  0.00     0.006 C 
ENDBRANCH   7   8
BRANCH   7  10
ATOM     10  N   UNL     1      -0.035  -3.744   0.491  1.00  0.00    -0.262 N 
ATOM     11  C   UNL     1      -1.375  -3.690   0.224  1.00  0.00     0.262 C 
ATOM     12  C   UNL     1       0.395  -5.042   0.573  1.00  0.00     0.262 C 
ATOM     13  O   UNL     1      -2.152  -2.757   0.212  1.00  0.00    -0.269 OA
ATOM     14  C   UNL     1      -1.810  -5.056  -0.039  1.00  0.00     0.053 A 
ATOM     15  C   UNL     1      -0.741  -5.891   0.218  1.00  0.00     0.060 A 
ATOM     16  O   UNL     1       1.478  -5.483   0.907  1.00  0.00    -0.269 OA
ATOM     17  C   UNL     1      -3.042  -5.530  -0.448  1.00  0.00     0.022 A 
ATOM     18  C   UNL     1      -0.851  -7.266   0.136  1.00  0.00     0.100 A 
ATOM     19  C   UNL     1      -3.185  -6.916  -0.569  1.00  0.00     0.086 A 
ATOM     20  C   UNL     1      -2.100  -7.773  -0.259  1.00  0.00     0.270 A 
BRANCH  20  21
ATOM     21  N   UNL     1      -2.294  -9.226  -0.340  1.00  0.00     0.062 N 
ATOM     22  O   UNL     1      -3.290  -9.638  -0.950  1.00  0.00    -0.258 OA
ATOM     23  O   UNL     1      -1.455  -9.948   0.215  1.00  0.00    -0.258 OA
ENDBRANCH  20  21
ENDBRANCH   7  10
ENDBRANCH   4   7
ENDBRANCH   2   3
ENDBRANCH   1   2
BRANCH   1  24
ATOM     24  C   UNL     1      -1.373   2.384   0.997  1.00  0.00     0.118 C 
BRANCH  24  25
ATOM     25  N   UNL     1      -2.825   2.525   0.999  1.00  0.00    -0.352 N 
ATOM     26  C   UNL     1      -3.610   3.529   1.512  1.00  0.00     0.251 C 
ATOM     27  H   UNL     1      -3.316   1.789   0.568  1.00  0.00     0.163 HD
ATOM     28  O   UNL     1      -4.822   3.356   1.612  1.00  0.00    -0.269 OA
BRANCH  26  29
ATOM     29  C   UNL     1      -3.006   4.806   1.953  1.00  0.00     0.039 A 
ATOM     30  C   UNL     1      -3.473   5.405   3.127  1.00  0.00     0.014 A 
ATOM     31  C   UNL     1      -2.004   5.428   1.204  1.00  0.00     0.014 A 
ATOM     32  C   UNL     1      -2.893   6.594   3.579  1.00  0.00     0.010 A 
ATOM     33  C   UNL     1      -1.374   6.567   1.696  1.00  0.00     0.010 A 
ATOM     34  C   UNL     1      -1.816   7.168   2.884  1.00  0.00    -0.014 A 
BRANCH  34  35
ATOM     35  C   UNL     1      -1.129   8.386   3.387  1.00  0.00     0.031 A 
ATOM     36  C   UNL     1      -1.132   9.653   2.575  1.00  0.00     0.074 A 
ATOM     37  C   UNL     1      -0.421   8.322   4.532  1.00  0.00     0.049 A 
ATOM     38  N   UNL     1      -0.535  10.791   2.822  1.00  0.00    -0.248 NA
ATOM     39  C   UNL     1      -1.878   9.632   1.306  1.00  0.00     0.031 C 
ATOM     40  C   UNL     1      -0.269   7.128   5.367  1.00  0.00     0.029 A 
ATOM     41  N   UNL     1       0.329   9.274   5.177  1.00  0.00    -0.354 N 
ATOM     42  C   UNL     1      -0.799  11.604   1.727  1.00  0.00     0.074 A 
ATOM     43  C   UNL     1      -1.584  10.820   0.798  1.00  0.00     0.031 C 
ATOM     44  C   UNL     1       0.521   7.419   6.412  1.00  0.00     0.029 A 
ATOM     45  C   UNL     1       0.954   8.809   6.310  1.00  0.00     0.049 A 
ATOM     46  H   UNL     1       0.411  10.202   4.858  1.00  0.00     0.167 HD
ATOM     47  C   UNL     1      -0.450  12.897   1.525  1.00  0.00     0.034 A 
ATOM     48  C   UNL     1       1.788   9.429   7.168  1.00  0.00     0.034 A 
ATOM     49  C   UNL     1       0.282  13.692   2.474  1.00  0.00     0.049 A 
ATOM     50  C   UNL     1       2.122  10.879   6.946  1.00  0.00     0.074 A 
ATOM     51  C   UNL     1       0.591  15.039   2.412  1.00  0.00     0.029 A 
ATOM     52  N   UNL     1       0.826  13.211   3.655  1.00  0.00    -0.354 N 
ATOM     53  N   UNL     1       1.716  11.681   5.992  1.00  0.00    -0.248 NA
ATOM     54  C   UNL     1       3.000  11.518   7.936  1.00  0.00     0.031 C 
ATOM     55  C   UNL     1       1.337  15.369   3.548  1.00  0.00     0.029 A 
ATOM     56  C   UNL     1       1.480  14.231   4.325  1.00  0.00     0.049 A 
ATOM     57  H   UNL     1       0.757  12.281   3.971  1.00  0.00     0.167 HD
ATOM     58  C   UNL     1       2.268  12.924   6.279  1.00  0.00     0.074 A 
ATOM     59  C   UNL     1       3.014  12.775   7.512  1.00  0.00     0.031 C 
ATOM     60  C   UNL     1       2.181  14.080   5.575  1.00  0.00     0.034 A 
BRANCH  47  61
ATOM     61  C   UNL     1      -0.913  13.556   0.251  1.00  0.00     0.023 A 
ATOM     62  C   UNL     1      -2.277  13.878   0.096  1.00  0.00     0.012 A 
ATOM     63  C   UNL     1      -0.002  13.905  -0.764  1.00  0.00     0.148 A 
ATOM     64  C   UNL     1      -2.733  14.505  -1.062  1.00  0.00     0.002 A 
ATOM     65  C   UNL     1      -0.458  14.568  -1.899  1.00  0.00     0.091 A 
ATOM     66  F   UNL     1       1.287  13.571  -0.611  1.00  0.00    -0.205 F 
ATOM     67  C   UNL     1      -1.823  14.859  -2.054  1.00  0.00     0.022 A 
BRANCH  65  68
ATOM     68  S   UNL     1       0.648  15.132  -3.198  1.00  0.00     0.127 S 
ATOM     69  O   UNL     1       0.366  14.171  -4.263  1.00  0.00    -0.237 OA
ATOM     70  O   UNL     1       0.158  16.487  -3.455  1.00  0.00    -0.237 OA
ATOM     71  O   UNL     1       1.989  15.071  -2.635  1.00  0.00    -0.744 OA
ENDBRANCH  65  68
ENDBRANCH  47  61
BRANCH  48  72
ATOM     72  C   UNL     1       2.304   8.695   8.358  1.00  0.00     0.023 A 
ATOM     73  C   UNL     1       1.821   9.033   9.637  1.00  0.00     0.012 A 
ATOM     74  C   UNL     1       3.229   7.641   8.229  1.00  0.00     0.148 A 
ATOM     75  C   UNL     1       2.268   8.351  10.769  1.00  0.00     0.002 A 
ATOM     76  C   UNL     1       3.629   6.929   9.355  1.00  0.00     0.091 A 
ATOM     77  F   UNL     1       3.688   7.344   7.005  1.00  0.00    -0.205 F 
ATOM     78  C   UNL     1       3.161   7.292  10.627  1.00  0.00     0.022 A 
BRANCH  76  79
ATOM     79  S   UNL     1       4.667   5.467   9.248  1.00  0.00     0.127 S 
ATOM     80  O   UNL     1       5.936   5.961   9.775  1.00  0.00    -0.237 OA
ATOM     81  O   UNL     1       3.960   4.528  10.121  1.00  0.00    -0.237 OA
ATOM     82  O   UNL     1       4.666   5.089   7.841  1.00  0.00    -0.744 OA
ENDBRANCH  76  79
ENDBRANCH  48  72
BRANCH  60  83
ATOM     83  C   UNL     1       2.902  15.284   6.121  1.00  0.00     0.023 A 
ATOM     84  C   UNL     1       4.306  15.351   6.030  1.00  0.00     0.012 A 
ATOM     85  C   UNL     1       2.190  16.377   6.653  1.00  0.00     0.148 A 
ATOM     86  C   UNL     1       4.993  16.475   6.486  1.00  0.00     0.002 A 
ATOM     87  C   UNL     1       2.878  17.512   7.064  1.00  0.00     0.091 A 
ATOM     88  F   UNL     1       0.855  16.285   6.748  1.00  0.00    -0.205 F 
ATOM     89  C   UNL     1       4.279  17.559   6.992  1.00  0.00     0.022 A 
BRANCH  87  90
ATOM     90  S   UNL     1       2.035  18.990   7.643  1.00  0.00     0.127 S 
ATOM     91  O   UNL     1       2.294  18.936   9.081  1.00  0.00    -0.237 OA
ATOM     92  O   UNL     1       2.749  20.054   6.935  1.00  0.00    -0.237 OA
ATOM     93  O   UNL     1       0.641  18.835   7.251  1.00  0.00    -0.744 OA
ENDBRANCH  87  90
ENDBRANCH  60  83
ENDBRANCH  34  35
ENDBRANCH  26  29
ENDBRANCH  24  25
ENDBRANCH   1  24
TORSDOF 16
