REMARK SMILES CCn1nc(C(=O)NCCCNC(=O)c2ccc(-c3c4nc(c(-c5cccc(S(=O)(=O)[O-])c5F)c5ccc([nH]5)c(-c5cccc(S(=O)(=O)[O-])c5F)c5nc(c(-c6cccc(S(=O)(=O)[O-])c6F)c6ccc3[nH]6)C=C5)C=C4)cc2)c2c1CC[C@H]([NH2+]Cc1nn(CC)c3ccccc13)C2
REMARK SMILES IDX 9 1 8 2 6 3 7 4 5 6 3 7 4 8 79 9 78 10 80 11 96 12 81 13
REMARK SMILES IDX 82 14 2 15 1 16 83 17 84 20 85 21 86 22 95 23 87 24 90 25
REMARK SMILES IDX 94 26 91 27 93 28 92 29 88 30 89 31 10 32 11 33 12 34 13 35
REMARK SMILES IDX 14 37 15 38 16 39 77 40 17 41 76 42 18 43 19 44 20 45 70 46
REMARK SMILES IDX 21 47 75 48 69 49 71 50 22 51 74 52 68 53 67 54 23 56 55 57
REMARK SMILES IDX 35 58 54 59 36 60 39 61 53 62 72 63 37 64 38 65 52 67 73 68
REMARK SMILES IDX 40 69 24 70 25 71 33 72 26 73 28 74 34 75 27 76 29 77 30 78
REMARK SMILES IDX 31 79 32 80 56 81 57 82 65 83 58 84 60 85 66 86 59 87 61 88
REMARK SMILES IDX 62 89 63 90 64 91 41 92 42 93 50 94 43 95 45 96 51 97 44 98
REMARK SMILES IDX 46 99 47 100 48 101 49 102
REMARK H PARENT 8 5 83 18 83 19 12 36 71 55 39 66
REMARK Flexibility Score: inf
ROOT
ATOM      1  C   UNL     1       3.549  -7.113   0.035  1.00  0.00     0.118 C 
ENDROOT
BRANCH   1   2
ATOM      2  N   UNL     1       3.893  -5.702  -0.231  1.00  0.00    -0.351 N 
ATOM      3  C   UNL     1       3.339  -4.501   0.204  1.00  0.00     0.272 C 
ATOM      4  O   UNL     1       4.089  -3.764   0.851  1.00  0.00    -0.267 OA
ATOM      5  H   UNL     1       4.663  -5.589  -0.832  1.00  0.00     0.163 HD
BRANCH   3   6
ATOM      6  C   UNL     1       2.015  -4.015  -0.261  1.00  0.00     0.153 A 
ATOM      7  N   UNL     1       0.508  -2.575  -0.836  1.00  0.00    -0.269 N 
ATOM      8  N   UNL     1       1.770  -2.691  -0.370  1.00  0.00    -0.167 NA
ATOM      9  C   UNL     1      -0.081  -3.792  -1.036  1.00  0.00     0.043 A 
ATOM     10  C   UNL     1       0.858  -4.712  -0.655  1.00  0.00     0.012 A 
ATOM     11  C   UNL     1      -1.416  -4.177  -1.552  1.00  0.00     0.062 C 
ATOM     12  C   UNL     1       0.609  -6.141  -0.638  1.00  0.00     0.105 C 
ATOM     13  C   UNL     1      -1.900  -5.486  -0.850  1.00  0.00     0.072 C 
ATOM     14  C   UNL     1      -0.838  -6.615  -0.580  1.00  0.00     0.187 C 
BRANCH   7  15
ATOM     15  C   UNL     1      -0.001  -1.245  -1.127  1.00  0.00     0.141 C 
ATOM     16  C   UNL     1       0.530  -0.146  -0.205  1.00  0.00     0.029 C 
ENDBRANCH   7  15
BRANCH  14  17
ATOM     17  N   UNL     1      -1.126  -7.373   0.689  1.00  0.00    -0.338 N 
ATOM     18  H   UNL     1      -2.023  -7.846   0.574  1.00  0.00     0.346 HD
ATOM     19  H   UNL     1      -1.116  -6.677   1.434  1.00  0.00     0.346 HD
BRANCH  17  20
ATOM     20  C   UNL     1      -0.104  -8.408   1.082  1.00  0.00     0.320 C 
BRANCH  20  21
ATOM     21  C   UNL     1       0.750  -8.010   2.304  1.00  0.00     0.124 A 
ATOM     22  N   UNL     1       0.822  -6.720   2.710  1.00  0.00    -0.171 NA
ATOM     23  C   UNL     1       1.675  -8.821   3.066  1.00  0.00     0.029 A 
ATOM     24  N   UNL     1       1.807  -6.729   3.641  1.00  0.00    -0.265 N 
ATOM     25  C   UNL     1       2.145  -7.985   4.070  1.00  0.00     0.069 A 
ATOM     26  C   UNL     1       2.211 -10.120   3.036  1.00  0.00     0.012 A 
ATOM     27  C   UNL     1       3.001  -8.381   5.109  1.00  0.00     0.028 A 
ATOM     28  C   UNL     1       3.273 -10.444   3.912  1.00  0.00     0.001 A 
ATOM     29  C   UNL     1       3.661  -9.586   4.932  1.00  0.00     0.002 A 
BRANCH  24  30
ATOM     30  C   UNL     1       2.632  -5.559   3.921  1.00  0.00     0.141 C 
ATOM     31  C   UNL     1       4.125  -5.749   3.597  1.00  0.00     0.029 C 
ENDBRANCH  24  30
ENDBRANCH  20  21
ENDBRANCH  17  20
ENDBRANCH  14  17
ENDBRANCH   3   6
ENDBRANCH   1   2
BRANCH   1  32
ATOM     32  C   UNL     1       3.516  -7.984  -1.236  1.00  0.00     0.042 C 
BRANCH  32  33
ATOM     33  C   UNL     1       3.819  -9.472  -1.023  1.00  0.00     0.118 C 
BRANCH  33  34
ATOM     34  N   UNL     1       2.706 -10.303  -0.546  1.00  0.00    -0.352 N 
ATOM     35  C   UNL     1       2.756 -11.597  -0.023  1.00  0.00     0.251 C 
ATOM     36  H   UNL     1       1.811  -9.896  -0.601  1.00  0.00     0.163 HD
ATOM     37  O   UNL     1       1.766 -12.301  -0.032  1.00  0.00    -0.269 OA
BRANCH  35  38
ATOM     38  C   UNL     1       4.015 -12.087   0.592  1.00  0.00     0.039 A 
ATOM     39  C   UNL     1       4.409 -13.425   0.504  1.00  0.00     0.014 A 
ATOM     40  C   UNL     1       4.818 -11.170   1.262  1.00  0.00     0.014 A 
ATOM     41  C   UNL     1       5.696 -13.774   0.919  1.00  0.00     0.010 A 
ATOM     42  C   UNL     1       6.103 -11.485   1.618  1.00  0.00     0.010 A 
ATOM     43  C   UNL     1       6.563 -12.774   1.398  1.00  0.00    -0.014 A 
BRANCH  43  44
ATOM     44  C   UNL     1       8.009 -12.909   1.221  1.00  0.00     0.031 A 
ATOM     45  C   UNL     1       8.353 -13.161  -0.208  1.00  0.00     0.074 A 
ATOM     46  C   UNL     1       8.944 -12.469   2.088  1.00  0.00     0.049 A 
ATOM     47  N   UNL     1       8.656 -14.294  -0.749  1.00  0.00    -0.248 NA
ATOM     48  C   UNL     1       8.075 -12.096  -1.190  1.00  0.00     0.031 C 
ATOM     49  C   UNL     1       8.730 -11.784   3.366  1.00  0.00     0.029 A 
ATOM     50  N   UNL     1      10.295 -12.399   1.927  1.00  0.00    -0.354 N 
ATOM     51  C   UNL     1       8.915 -13.994  -2.084  1.00  0.00     0.074 A 
ATOM     52  C   UNL     1       8.236 -12.755  -2.340  1.00  0.00     0.031 C 
ATOM     53  C   UNL     1       9.877 -11.174   3.745  1.00  0.00     0.029 A 
ATOM     54  C   UNL     1      10.937 -11.558   2.832  1.00  0.00     0.049 A 
ATOM     55  H   UNL     1      10.776 -12.901   1.230  1.00  0.00     0.167 HD
ATOM     56  C   UNL     1       9.957 -14.582  -2.738  1.00  0.00     0.034 A 
ATOM     57  C   UNL     1      12.240 -11.182   2.803  1.00  0.00     0.034 A 
ATOM     58  C   UNL     1      10.499 -15.663  -1.942  1.00  0.00     0.049 A 
ATOM     59  C   UNL     1      12.953 -12.177   1.970  1.00  0.00     0.074 A 
ATOM     60  C   UNL     1      10.003 -16.815  -1.367  1.00  0.00     0.029 A 
ATOM     61  N   UNL     1      11.671 -15.371  -1.285  1.00  0.00    -0.354 N 
ATOM     62  N   UNL     1      13.101 -13.426   2.309  1.00  0.00    -0.248 NA
ATOM     63  C   UNL     1      13.184 -11.879   0.566  1.00  0.00     0.031 C 
ATOM     64  C   UNL     1      10.685 -16.930  -0.119  1.00  0.00     0.029 A 
ATOM     65  C   UNL     1      11.625 -15.900  -0.027  1.00  0.00     0.049 A 
ATOM     66  H   UNL     1      12.424 -14.861  -1.662  1.00  0.00     0.167 HD
ATOM     67  C   UNL     1      12.950 -14.118   1.117  1.00  0.00     0.074 A 
ATOM     68  C   UNL     1      13.178 -13.121   0.075  1.00  0.00     0.031 C 
ATOM     69  C   UNL     1      12.345 -15.342   1.100  1.00  0.00     0.034 A 
BRANCH  56  70
ATOM     70  C   UNL     1      10.807 -13.940  -3.828  1.00  0.00     0.023 A 
ATOM     71  C   UNL     1      11.824 -14.752  -4.388  1.00  0.00     0.012 A 
ATOM     72  C   UNL     1      10.872 -12.560  -4.127  1.00  0.00     0.148 A 
ATOM     73  C   UNL     1      12.890 -14.211  -5.114  1.00  0.00     0.002 A 
ATOM     74  C   UNL     1      11.894 -12.035  -4.912  1.00  0.00     0.091 A 
ATOM     75  F   UNL     1      10.024 -11.701  -3.564  1.00  0.00    -0.205 F 
ATOM     76  C   UNL     1      12.927 -12.849  -5.376  1.00  0.00     0.022 A 
BRANCH  74  77
ATOM     77  S   UNL     1      11.966 -10.283  -5.319  1.00  0.00     0.127 S 
ATOM     78  O   UNL     1      13.114  -9.850  -4.529  1.00  0.00    -0.237 OA
ATOM     79  O   UNL     1      12.184 -10.325  -6.765  1.00  0.00    -0.237 OA
ATOM     80  O   UNL     1      10.676  -9.730  -4.924  1.00  0.00    -0.744 OA
ENDBRANCH  74  77
ENDBRANCH  56  70
BRANCH  57  81
ATOM     81  C   UNL     1      12.924  -9.962   3.288  1.00  0.00     0.023 A 
ATOM     82  C   UNL     1      14.321  -9.984   3.491  1.00  0.00     0.012 A 
ATOM     83  C   UNL     1      12.276  -8.709   3.262  1.00  0.00     0.148 A 
ATOM     84  C   UNL     1      15.056  -8.798   3.604  1.00  0.00     0.002 A 
ATOM     85  C   UNL     1      13.012  -7.532   3.376  1.00  0.00     0.091 A 
ATOM     86  F   UNL     1      10.958  -8.671   3.029  1.00  0.00    -0.205 F 
ATOM     87  C   UNL     1      14.403  -7.572   3.531  1.00  0.00     0.022 A 
BRANCH  85  88
ATOM     88  S   UNL     1      12.246  -5.909   3.256  1.00  0.00     0.127 S 
ATOM     89  O   UNL     1      12.819  -5.218   4.412  1.00  0.00    -0.237 OA
ATOM     90  O   UNL     1      12.732  -5.443   1.960  1.00  0.00    -0.237 OA
ATOM     91  O   UNL     1      10.810  -6.143   3.348  1.00  0.00    -0.744 OA
ENDBRANCH  85  88
ENDBRANCH  57  81
BRANCH  69  92
ATOM     92  C   UNL     1      12.217 -16.084   2.406  1.00  0.00     0.023 A 
ATOM     93  C   UNL     1      11.458 -15.610   3.496  1.00  0.00     0.012 A 
ATOM     94  C   UNL     1      12.764 -17.376   2.471  1.00  0.00     0.148 A 
ATOM     95  C   UNL     1      11.269 -16.402   4.633  1.00  0.00     0.002 A 
ATOM     96  C   UNL     1      12.529 -18.180   3.578  1.00  0.00     0.091 A 
ATOM     97  F   UNL     1      13.492 -17.809   1.430  1.00  0.00    -0.205 F 
ATOM     98  C   UNL     1      11.791 -17.693   4.667  1.00  0.00     0.022 A 
BRANCH  96  99
ATOM     99  S   UNL     1      13.065 -19.891   3.612  1.00  0.00     0.127 S 
ATOM    100  O   UNL     1      14.240 -19.825   4.477  1.00  0.00    -0.237 OA
ATOM    101  O   UNL     1      11.909 -20.571   4.198  1.00  0.00    -0.237 OA
ATOM    102  O   UNL     1      13.323 -20.254   2.224  1.00  0.00    -0.744 OA
ENDBRANCH  96  99
ENDBRANCH  69  92
ENDBRANCH  43  44
ENDBRANCH  35  38
ENDBRANCH  33  34
ENDBRANCH  32  33
ENDBRANCH   1  32
TORSDOF 18
