REMARK SMILES O=C(NCCCNC(=O)[C@@H]1CCCN(C(=O)Cc2ccc3c(c2)CCO3)C1)c1ccc(-c2c3nc(c(-c4cccc(S(=O)(=O)[O-])c4F)c4ccc([nH]4)c(-c4cccc(S(=O)(=O)[O-])c4F)c4nc(c(-c5cccc(S(=O)(=O)[O-])c5F)c5ccc2[nH]5)C=C4)C=C3)cc1
REMARK SMILES IDX 5 1 4 2 3 3 1 4 2 5 28 7 29 8 90 9 30 10 89 11 31 12 32 13
REMARK SMILES IDX 33 14 83 15 34 16 88 17 82 18 84 19 35 20 87 21 81 22 80 23
REMARK SMILES IDX 36 25 68 26 48 27 67 28 49 29 52 30 66 31 85 32 50 33 51 34
REMARK SMILES IDX 65 36 86 37 53 38 37 39 38 40 46 41 39 42 41 43 47 44 40 45
REMARK SMILES IDX 42 46 43 47 44 48 45 49 69 50 70 51 78 52 71 53 73 54 79 55
REMARK SMILES IDX 72 56 74 57 75 58 76 59 77 60 54 61 55 62 63 63 56 64 58 65
REMARK SMILES IDX 64 66 57 67 59 68 60 69 61 70 62 71 6 72 7 73 8 74 9 76
REMARK SMILES IDX 10 77 11 78 27 79 12 80 14 81 13 82 15 83 16 84 17 85 18 86
REMARK SMILES IDX 19 87 23 88 20 89 22 90 21 91 24 92 26 93 25 94
REMARK H PARENT 3 6 84 24 52 35 7 75
REMARK Flexibility Score: inf
ROOT
ATOM      1  C   UNL     1       4.227  -0.616  -2.273  1.00  0.00     0.042 C 
ENDROOT
BRANCH   1   2
ATOM      2  C   UNL     1       3.785   0.565  -1.406  1.00  0.00     0.118 C 
BRANCH   2   3
ATOM      3  N   UNL     1       2.382   0.488  -1.025  1.00  0.00    -0.352 N 
ATOM      4  O   UNL     1       0.583  -0.082   0.188  1.00  0.00    -0.269 OA
ATOM      5  C   UNL     1       1.796   0.120   0.168  1.00  0.00     0.251 C 
ATOM      6  H   UNL     1       1.748   0.739  -1.735  1.00  0.00     0.163 HD
BRANCH   5   7
ATOM      7  C   UNL     1       2.591  -0.060   1.410  1.00  0.00     0.039 A 
ATOM      8  C   UNL     1       3.585   0.840   1.774  1.00  0.00     0.014 A 
ATOM      9  C   UNL     1       2.296  -1.123   2.273  1.00  0.00     0.014 A 
ATOM     10  C   UNL     1       4.384   0.581   2.893  1.00  0.00     0.010 A 
ATOM     11  C   UNL     1       3.042  -1.321   3.451  1.00  0.00     0.010 A 
ATOM     12  C   UNL     1       4.136  -0.500   3.760  1.00  0.00    -0.014 A 
BRANCH  12  13
ATOM     13  C   UNL     1       4.998  -0.705   4.975  1.00  0.00     0.031 A 
ATOM     14  C   UNL     1       5.671  -2.030   5.290  1.00  0.00     0.074 A 
ATOM     15  C   UNL     1       5.206   0.332   5.818  1.00  0.00     0.049 A 
ATOM     16  N   UNL     1       6.451  -2.343   6.300  1.00  0.00    -0.248 NA
ATOM     17  C   UNL     1       5.448  -3.150   4.362  1.00  0.00     0.031 C 
ATOM     18  C   UNL     1       4.609   1.662   5.682  1.00  0.00     0.029 A 
ATOM     19  N   UNL     1       5.973   0.438   6.956  1.00  0.00    -0.354 N 
ATOM     20  C   UNL     1       6.785  -3.686   6.144  1.00  0.00     0.074 A 
ATOM     21  C   UNL     1       6.125  -4.135   4.937  1.00  0.00     0.031 C 
ATOM     22  C   UNL     1       5.064   2.459   6.656  1.00  0.00     0.029 A 
ATOM     23  C   UNL     1       5.902   1.676   7.554  1.00  0.00     0.049 A 
ATOM     24  H   UNL     1       6.520  -0.301   7.309  1.00  0.00     0.167 HD
ATOM     25  C   UNL     1       7.564  -4.479   6.923  1.00  0.00     0.034 A 
ATOM     26  C   UNL     1       6.402   2.137   8.717  1.00  0.00     0.034 A 
ATOM     27  C   UNL     1       8.221  -4.051   8.133  1.00  0.00     0.049 A 
ATOM     28  C   UNL     1       7.223   1.227   9.580  1.00  0.00     0.074 A 
ATOM     29  C   UNL     1       9.043  -4.787   8.971  1.00  0.00     0.029 A 
ATOM     30  N   UNL     1       8.120  -2.787   8.691  1.00  0.00    -0.354 N 
ATOM     31  N   UNL     1       7.592  -0.010   9.357  1.00  0.00    -0.248 NA
ATOM     32  C   UNL     1       7.710   1.782  10.851  1.00  0.00     0.031 C 
ATOM     33  C   UNL     1       9.407  -3.981  10.054  1.00  0.00     0.029 A 
ATOM     34  C   UNL     1       8.849  -2.728   9.869  1.00  0.00     0.049 A 
ATOM     35  H   UNL     1       7.605  -2.040   8.307  1.00  0.00     0.167 HD
ATOM     36  C   UNL     1       8.375  -0.373  10.446  1.00  0.00     0.074 A 
ATOM     37  C   UNL     1       8.452   0.785  11.312  1.00  0.00     0.031 C 
ATOM     38  C   UNL     1       8.961  -1.565  10.711  1.00  0.00     0.034 A 
BRANCH  25  39
ATOM     39  C   UNL     1       7.778  -5.913   6.491  1.00  0.00     0.023 A 
ATOM     40  C   UNL     1       8.626  -6.193   5.400  1.00  0.00     0.012 A 
ATOM     41  C   UNL     1       7.222  -6.983   7.223  1.00  0.00     0.148 A 
ATOM     42  C   UNL     1       8.896  -7.511   5.028  1.00  0.00     0.002 A 
ATOM     43  C   UNL     1       7.528  -8.294   6.871  1.00  0.00     0.091 A 
ATOM     44  F   UNL     1       6.410  -6.700   8.251  1.00  0.00    -0.205 F 
ATOM     45  C   UNL     1       8.356  -8.560   5.769  1.00  0.00     0.022 A 
BRANCH  43  46
ATOM     46  S   UNL     1       6.949  -9.716   7.806  1.00  0.00     0.127 S 
ATOM     47  O   UNL     1       5.992 -10.309   6.875  1.00  0.00    -0.237 OA
ATOM     48  O   UNL     1       8.178 -10.486   7.990  1.00  0.00    -0.237 OA
ATOM     49  O   UNL     1       6.375  -9.181   9.035  1.00  0.00    -0.744 OA
ENDBRANCH  43  46
ENDBRANCH  25  39
BRANCH  26  50
ATOM     50  C   UNL     1       6.117   3.539   9.139  1.00  0.00     0.023 A 
ATOM     51  C   UNL     1       7.164   4.477   9.212  1.00  0.00     0.012 A 
ATOM     52  C   UNL     1       4.804   3.951   9.439  1.00  0.00     0.148 A 
ATOM     53  C   UNL     1       6.911   5.793   9.601  1.00  0.00     0.002 A 
ATOM     54  C   UNL     1       4.548   5.279   9.754  1.00  0.00     0.091 A 
ATOM     55  F   UNL     1       3.823   3.038   9.390  1.00  0.00    -0.205 F 
ATOM     56  C   UNL     1       5.603   6.198   9.857  1.00  0.00     0.022 A 
BRANCH  54  57
ATOM     57  S   UNL     1       2.877   5.911   9.936  1.00  0.00     0.127 S 
ATOM     58  O   UNL     1       2.788   6.107  11.380  1.00  0.00    -0.237 OA
ATOM     59  O   UNL     1       2.931   7.142   9.148  1.00  0.00    -0.237 OA
ATOM     60  O   UNL     1       2.008   4.883   9.379  1.00  0.00    -0.744 OA
ENDBRANCH  54  57
ENDBRANCH  26  50
BRANCH  38  61
ATOM     61  C   UNL     1       9.778  -1.672  11.972  1.00  0.00     0.023 A 
ATOM     62  C   UNL     1       9.140  -1.675  13.229  1.00  0.00     0.012 A 
ATOM     63  C   UNL     1      11.179  -1.807  11.909  1.00  0.00     0.148 A 
ATOM     64  C   UNL     1       9.887  -1.766  14.403  1.00  0.00     0.002 A 
ATOM     65  C   UNL     1      11.912  -1.950  13.081  1.00  0.00     0.091 A 
ATOM     66  F   UNL     1      11.770  -1.783  10.706  1.00  0.00    -0.205 F 
ATOM     67  C   UNL     1      11.270  -1.913  14.329  1.00  0.00     0.022 A 
BRANCH  65  68
ATOM     68  S   UNL     1      13.685  -2.236  13.080  1.00  0.00     0.127 S 
ATOM     69  O   UNL     1      14.193  -0.965  13.593  1.00  0.00    -0.237 OA
ATOM     70  O   UNL     1      13.816  -3.363  14.005  1.00  0.00    -0.237 OA
ATOM     71  O   UNL     1      14.043  -2.540  11.701  1.00  0.00    -0.744 OA
ENDBRANCH  65  68
ENDBRANCH  38  61
ENDBRANCH  12  13
ENDBRANCH   5   7
ENDBRANCH   2   3
ENDBRANCH   1   2
BRANCH   1  72
ATOM     72  C   UNL     1       3.835  -0.483  -3.743  1.00  0.00     0.117 C 
BRANCH  72  73
ATOM     73  N   UNL     1       4.571   0.567  -4.423  1.00  0.00    -0.356 N 
ATOM     74  C   UNL     1       5.524   0.638  -5.374  1.00  0.00     0.224 C 
ATOM     75  H   UNL     1       4.304   1.461  -4.108  1.00  0.00     0.163 HD
ATOM     76  O   UNL     1       5.703   1.788  -5.803  1.00  0.00    -0.275 OA
BRANCH  74  77
ATOM     77  C   UNL     1       6.272  -0.526  -6.039  1.00  0.00     0.098 C 
ATOM     78  C   UNL     1       6.344  -1.925  -5.411  1.00  0.00     0.017 C 
ATOM     79  C   UNL     1       7.718  -0.050  -6.351  1.00  0.00     0.133 C 
ATOM     80  C   UNL     1       7.311  -2.008  -4.231  1.00  0.00     0.022 C 
ATOM     81  N   UNL     1       8.576  -0.158  -5.164  1.00  0.00    -0.342 N 
ATOM     82  C   UNL     1       8.691  -1.514  -4.650  1.00  0.00     0.119 C 
BRANCH  81  83
ATOM     83  C   UNL     1       9.061   0.998  -4.557  1.00  0.00     0.227 C 
ATOM     84  O   UNL     1       8.919   2.110  -5.076  1.00  0.00    -0.275 OA
BRANCH  83  85
ATOM     85  C   UNL     1       9.820   0.897  -3.235  1.00  0.00     0.135 C 
BRANCH  85  86
ATOM     86  C   UNL     1       8.933   0.660  -2.034  1.00  0.00    -0.038 A 
ATOM     87  C   UNL     1       8.133   1.704  -1.516  1.00  0.00     0.008 A 
ATOM     88  C   UNL     1       8.879  -0.613  -1.444  1.00  0.00     0.012 A 
ATOM     89  C   UNL     1       7.275   1.475  -0.440  1.00  0.00     0.047 A 
ATOM     90  C   UNL     1       7.949  -0.848  -0.459  1.00  0.00    -0.002 A 
ATOM     91  C   UNL     1       7.187   0.187   0.042  1.00  0.00     0.122 A 
ATOM     92  C   UNL     1       7.593  -2.110   0.225  1.00  0.00     0.081 C 
ATOM     93  O   UNL     1       6.337  -0.216   1.026  1.00  0.00    -0.493 OA
ATOM     94  C   UNL     1       6.303  -1.652   0.893  1.00  0.00     0.234 C 
ENDBRANCH  85  86
ENDBRANCH  83  85
ENDBRANCH  81  83
ENDBRANCH  74  77
ENDBRANCH  72  73
ENDBRANCH   1  72
TORSDOF 16
