REMARK SMILES Cc1ccc(S(=O)(=O)Nc2ccc(N3CCNC3=O)cc2)cc1C(=O)NCCCNC(=O)c1ccc(-c2c3nc(c(-c4cccc(S(=O)(=O)[O-])c4F)c4ccc([nH]4)c(-c4cccc(S(=O)(=O)[O-])c4F)c4nc(c(-c5cccc(S(=O)(=O)[O-])c5F)c5ccc2[nH]5)C=C4)C=C3)cc1
REMARK SMILES IDX 27 1 26 2 24 3 25 4 23 6 1 7 2 8 3 9 4 10 22 11 5 12 6 13
REMARK SMILES IDX 7 14 8 15 9 16 10 18 11 19 21 20 12 21 20 22 13 23 14 24
REMARK SMILES IDX 15 25 18 26 16 27 17 28 19 29 28 31 29 32 30 33 31 34 32 36
REMARK SMILES IDX 33 37 34 38 95 39 35 40 94 41 36 42 37 43 38 44 88 45 39 46
REMARK SMILES IDX 93 47 87 48 89 49 40 50 92 51 86 52 85 53 41 55 73 56 53 57
REMARK SMILES IDX 72 58 54 59 57 60 71 61 90 62 55 63 56 64 70 66 91 67 58 68
REMARK SMILES IDX 42 69 43 70 51 71 44 72 46 73 52 74 45 75 47 76 48 77 49 78
REMARK SMILES IDX 50 79 74 80 75 81 83 82 76 83 78 84 84 85 77 86 79 87 80 88
REMARK SMILES IDX 81 89 82 90 59 91 60 92 68 93 61 94 63 95 69 96 62 97 64 98
REMARK SMILES IDX 65 99 66 100 67 101
REMARK H PARENT 26 5 9 17 17 30 30 35 89 54 57 65
REMARK Flexibility Score: inf
ROOT
ATOM      1  C   UNL     1       3.522   1.136   0.635  1.00  0.00     0.118 C 
ENDROOT
BRANCH   1   2
ATOM      2  N   UNL     1       2.399   2.026   0.482  1.00  0.00    -0.352 N 
ATOM      3  C   UNL     1       1.046   1.876   0.389  1.00  0.00     0.251 C 
ATOM      4  O   UNL     1       0.448   2.959   0.375  1.00  0.00    -0.269 OA
ATOM      5  H   UNL     1       2.674   2.970   0.432  1.00  0.00     0.163 HD
BRANCH   3   6
ATOM      6  C   UNL     1       0.215   0.606   0.345  1.00  0.00     0.044 A 
ATOM      7  C   UNL     1       1.820  -1.223  -0.606  1.00  0.00     0.045 C 
ATOM      8  C   UNL     1       0.541  -0.720  -0.023  1.00  0.00    -0.038 A 
ATOM      9  C   UNL     1      -0.456  -1.721   0.008  1.00  0.00     0.005 A 
ATOM     10  C   UNL     1      -1.790  -1.402   0.168  1.00  0.00     0.022 A 
ATOM     11  C   UNL     1      -1.165   0.876   0.582  1.00  0.00     0.036 A 
ATOM     12  C   UNL     1      -2.157  -0.077   0.367  1.00  0.00     0.088 A 
BRANCH  12  13
ATOM     13  S   UNL     1      -3.880   0.253   0.110  1.00  0.00     0.261 S 
ATOM     14  O   UNL     1      -4.131  -0.048  -1.288  1.00  0.00    -0.201 OA
ATOM     15  O   UNL     1      -4.593  -0.482   1.136  1.00  0.00    -0.201 OA
BRANCH  13  16
ATOM     16  N   UNL     1      -4.335   1.863   0.295  1.00  0.00    -0.280 N 
ATOM     17  H   UNL     1      -5.238   2.055   0.638  1.00  0.00     0.180 HD
BRANCH  16  18
ATOM     18  C   UNL     1      -3.484   2.961  -0.017  1.00  0.00     0.049 A 
ATOM     19  C   UNL     1      -3.466   3.972   0.941  1.00  0.00     0.029 A 
ATOM     20  C   UNL     1      -2.780   3.116  -1.208  1.00  0.00     0.029 A 
ATOM     21  C   UNL     1      -2.603   5.054   0.800  1.00  0.00     0.028 A 
ATOM     22  C   UNL     1      -1.933   4.226  -1.362  1.00  0.00     0.028 A 
ATOM     23  C   UNL     1      -1.793   5.169  -0.333  1.00  0.00     0.046 A 
BRANCH  23  24
ATOM     24  N   UNL     1      -0.790   6.156  -0.369  1.00  0.00    -0.293 N 
ATOM     25  C   UNL     1      -0.122   6.629   0.827  1.00  0.00     0.149 C 
ATOM     26  C   UNL     1      -0.213   6.729  -1.515  1.00  0.00     0.321 C 
ATOM     27  C   UNL     1       1.155   7.266   0.300  1.00  0.00     0.139 C 
ATOM     28  N   UNL     1       0.870   7.497  -1.084  1.00  0.00    -0.336 N 
ATOM     29  O   UNL     1      -0.562   6.632  -2.668  1.00  0.00    -0.248 OA
ATOM     30  H   UNL     1       1.373   8.118  -1.659  1.00  0.00     0.165 HD
ENDBRANCH  23  24
ENDBRANCH  16  18
ENDBRANCH  13  16
ENDBRANCH  12  13
ENDBRANCH   3   6
ENDBRANCH   1   2
BRANCH   1  31
ATOM     31  C   UNL     1       4.065   0.728  -0.722  1.00  0.00     0.042 C 
BRANCH  31  32
ATOM     32  C   UNL     1       5.271   1.496  -1.210  1.00  0.00     0.118 C 
BRANCH  32  33
ATOM     33  N   UNL     1       6.484   0.688  -1.137  1.00  0.00    -0.352 N 
ATOM     34  C   UNL     1       7.620   0.718  -1.931  1.00  0.00     0.251 C 
ATOM     35  H   UNL     1       6.497   0.021  -0.413  1.00  0.00     0.163 HD
ATOM     36  O   UNL     1       8.462  -0.166  -1.824  1.00  0.00    -0.269 OA
BRANCH  34  37
ATOM     37  C   UNL     1       7.860   1.915  -2.773  1.00  0.00     0.039 A 
ATOM     38  C   UNL     1       8.896   2.727  -2.312  1.00  0.00     0.014 A 
ATOM     39  C   UNL     1       6.798   2.459  -3.485  1.00  0.00     0.014 A 
ATOM     40  C   UNL     1       8.660   4.084  -2.185  1.00  0.00     0.010 A 
ATOM     41  C   UNL     1       6.505   3.785  -3.251  1.00  0.00     0.010 A 
ATOM     42  C   UNL     1       7.395   4.561  -2.505  1.00  0.00    -0.014 A 
BRANCH  42  43
ATOM     43  C   UNL     1       6.987   5.930  -2.292  1.00  0.00     0.031 A 
ATOM     44  C   UNL     1       7.462   6.889  -3.300  1.00  0.00     0.074 A 
ATOM     45  C   UNL     1       6.173   6.291  -1.278  1.00  0.00     0.049 A 
ATOM     46  N   UNL     1       7.502   8.159  -3.126  1.00  0.00    -0.248 NA
ATOM     47  C   UNL     1       8.020   6.455  -4.579  1.00  0.00     0.031 C 
ATOM     48  C   UNL     1       5.398   7.521  -1.163  1.00  0.00     0.029 A 
ATOM     49  N   UNL     1       5.902   5.666  -0.076  1.00  0.00    -0.354 N 
ATOM     50  C   UNL     1       7.788   8.719  -4.351  1.00  0.00     0.074 A 
ATOM     51  C   UNL     1       8.261   7.629  -5.161  1.00  0.00     0.031 C 
ATOM     52  C   UNL     1       4.963   7.657   0.103  1.00  0.00     0.029 A 
ATOM     53  C   UNL     1       5.608   6.628   0.895  1.00  0.00     0.049 A 
ATOM     54  H   UNL     1       5.914   4.693   0.074  1.00  0.00     0.167 HD
ATOM     55  C   UNL     1       7.399  10.004  -4.565  1.00  0.00     0.034 A 
ATOM     56  C   UNL     1       6.406   6.869   1.989  1.00  0.00     0.034 A 
ATOM     57  C   UNL     1       6.916  10.596  -3.297  1.00  0.00     0.049 A 
ATOM     58  C   UNL     1       7.047   8.258   1.960  1.00  0.00     0.074 A 
ATOM     59  C   UNL     1       5.655  10.796  -2.755  1.00  0.00     0.029 A 
ATOM     60  N   UNL     1       7.806  10.723  -2.235  1.00  0.00    -0.354 N 
ATOM     61  N   UNL     1       6.853   9.151   1.028  1.00  0.00    -0.248 NA
ATOM     62  C   UNL     1       8.056   8.683   2.927  1.00  0.00     0.031 C 
ATOM     63  C   UNL     1       5.801  11.002  -1.348  1.00  0.00     0.029 A 
ATOM     64  C   UNL     1       7.149  10.976  -1.035  1.00  0.00     0.049 A 
ATOM     65  H   UNL     1       8.783  10.644  -2.322  1.00  0.00     0.167 HD
ATOM     66  C   UNL     1       7.795  10.145   1.132  1.00  0.00     0.074 A 
ATOM     67  C   UNL     1       8.524   9.797   2.344  1.00  0.00     0.031 C 
ATOM     68  C   UNL     1       7.943  11.132   0.187  1.00  0.00     0.034 A 
BRANCH  55  69
ATOM     69  C   UNL     1       7.163  10.628  -5.938  1.00  0.00     0.023 A 
ATOM     70  C   UNL     1       6.389  11.809  -5.966  1.00  0.00     0.012 A 
ATOM     71  C   UNL     1       7.558  10.130  -7.208  1.00  0.00     0.148 A 
ATOM     72  C   UNL     1       5.971  12.413  -7.159  1.00  0.00     0.002 A 
ATOM     73  C   UNL     1       7.125  10.718  -8.402  1.00  0.00     0.091 A 
ATOM     74  F   UNL     1       8.393   9.099  -7.300  1.00  0.00    -0.205 F 
ATOM     75  C   UNL     1       6.323  11.858  -8.379  1.00  0.00     0.022 A 
BRANCH  73  76
ATOM     76  S   UNL     1       7.532  10.049 -10.031  1.00  0.00     0.127 S 
ATOM     77  O   UNL     1       6.206   9.827 -10.611  1.00  0.00    -0.237 OA
ATOM     78  O   UNL     1       8.284  11.145 -10.640  1.00  0.00    -0.237 OA
ATOM     79  O   UNL     1       8.297   8.829  -9.802  1.00  0.00    -0.744 OA
ENDBRANCH  73  76
ENDBRANCH  55  69
BRANCH  56  80
ATOM     80  C   UNL     1       7.115   5.637   2.473  1.00  0.00     0.023 A 
ATOM     81  C   UNL     1       6.299   4.514   2.738  1.00  0.00     0.012 A 
ATOM     82  C   UNL     1       8.457   5.425   2.126  1.00  0.00     0.148 A 
ATOM     83  C   UNL     1       6.703   3.254   2.296  1.00  0.00     0.002 A 
ATOM     84  C   UNL     1       8.859   4.164   1.717  1.00  0.00     0.091 A 
ATOM     85  F   UNL     1       9.318   6.449   2.137  1.00  0.00    -0.205 F 
ATOM     86  C   UNL     1       7.952   3.098   1.702  1.00  0.00     0.022 A 
BRANCH  84  87
ATOM     87  S   UNL     1      10.532   3.942   1.120  1.00  0.00     0.127 S 
ATOM     88  O   UNL     1      11.293   3.939   2.365  1.00  0.00    -0.237 OA
ATOM     89  O   UNL     1      10.467   2.648   0.445  1.00  0.00    -0.237 OA
ATOM     90  O   UNL     1      10.741   5.078   0.233  1.00  0.00    -0.744 OA
ENDBRANCH  84  87
ENDBRANCH  56  80
BRANCH  68  91
ATOM     91  C   UNL     1       8.903  12.316   0.304  1.00  0.00     0.023 A 
ATOM     92  C   UNL     1       9.512  12.678   1.520  1.00  0.00     0.012 A 
ATOM     93  C   UNL     1       9.169  13.181  -0.792  1.00  0.00     0.148 A 
ATOM     94  C   UNL     1      10.461  13.703   1.611  1.00  0.00     0.002 A 
ATOM     95  C   UNL     1      10.095  14.214  -0.701  1.00  0.00     0.091 A 
ATOM     96  F   UNL     1       8.467  13.067  -1.923  1.00  0.00    -0.205 F 
ATOM     97  C   UNL     1      10.774  14.454   0.492  1.00  0.00     0.022 A 
BRANCH  95  98
ATOM     98  S   UNL     1      10.436  15.320  -2.078  1.00  0.00     0.127 S 
ATOM     99  O   UNL     1       9.860  16.573  -1.591  1.00  0.00    -0.237 OA
ATOM    100  O   UNL     1      11.898  15.297  -2.125  1.00  0.00    -0.237 OA
ATOM    101  O   UNL     1       9.780  14.742  -3.241  1.00  0.00    -0.744 OA
ENDBRANCH  95  98
ENDBRANCH  68  91
ENDBRANCH  42  43
ENDBRANCH  34  37
ENDBRANCH  32  33
ENDBRANCH  31  32
ENDBRANCH   1  31
TORSDOF 17
