REMARK SMILES C[NH2+][C@]1(C(=O)NCCCNC(=O)c2ccc(-c3c4nc(c(-c5cccc(S(=O)(=O)[O-])c5F)c5ccc([nH]5)c(-c5cccc(S(=O)(=O)[O-])c5F)c5nc(c(-c6cccc(S(=O)(=O)[O-])c6F)c6ccc3[nH]6)C=C5)C=C4)cc2)CCC[C@@H]1CC[N@H+]1CCC[C@H]([NH+](C)C)C1
REMARK SMILES IDX 7 1 6 2 4 3 5 4 3 6 76 7 79 8 77 9 78 10 2 11 1 12 80 15
REMARK SMILES IDX 81 16 82 17 83 18 90 19 84 21 86 22 85 23 87 24 88 25 89 26
REMARK SMILES IDX 8 28 9 29 10 30 11 31 12 33 13 34 14 35 75 36 15 37 74 38
REMARK SMILES IDX 16 39 17 40 18 41 68 42 19 43 73 44 67 45 69 46 20 47 72 48
REMARK SMILES IDX 66 49 65 50 21 52 53 53 33 54 52 55 34 56 37 57 51 58 70 59
REMARK SMILES IDX 35 60 36 61 50 63 71 64 38 65 22 66 23 67 31 68 24 69 26 70
REMARK SMILES IDX 32 71 25 72 27 73 28 74 29 75 30 76 54 77 55 78 63 79 56 80
REMARK SMILES IDX 58 81 64 82 57 83 59 84 60 85 61 86 62 87 39 88 40 89 48 90
REMARK SMILES IDX 41 91 43 92 49 93 42 94 44 95 45 96 46 97 47 98
REMARK H PARENT 6 5 2 13 2 14 82 20 87 27 10 32 69 51 37 62
REMARK Flexibility Score: inf
ROOT
ATOM      1  C   UNL     1       0.374  -0.641  -1.462  1.00  0.00     0.118 C 
ENDROOT
BRANCH   1   2
ATOM      2  N   UNL     1       0.873  -0.585  -0.096  1.00  0.00    -0.351 N 
ATOM      3  C   UNL     1       0.261  -0.589   1.120  1.00  0.00     0.281 C 
ATOM      4  O   UNL     1       1.031  -0.507   2.087  1.00  0.00    -0.268 OA
ATOM      5  H   UNL     1       1.855  -0.533  -0.040  1.00  0.00     0.163 HD
BRANCH   3   6
ATOM      6  C   UNL     1      -1.302  -0.705   1.311  1.00  0.00     0.178 C 
ATOM      7  C   UNL     1      -2.005   0.461   0.590  1.00  0.00     0.079 C 
ATOM      8  C   UNL     1      -1.845  -1.985   0.609  1.00  0.00     0.066 C 
ATOM      9  C   UNL     1      -3.328  -0.083   0.068  1.00  0.00     0.008 C 
ATOM     10  C   UNL     1      -3.242  -1.610   0.091  1.00  0.00     0.011 C 
BRANCH   6  11
ATOM     11  N   UNL     1      -1.549  -0.599   2.773  1.00  0.00    -0.336 N 
ATOM     12  C   UNL     1      -2.843  -0.902   3.333  1.00  0.00     0.331 C 
ATOM     13  H   UNL     1      -0.883  -1.226   3.226  1.00  0.00     0.346 HD
ATOM     14  H   UNL     1      -1.460   0.403   2.943  1.00  0.00     0.346 HD
ENDBRANCH   6  11
BRANCH   8  15
ATOM     15  C   UNL     1      -1.803  -3.266   1.464  1.00  0.00     0.072 C 
BRANCH  15  16
ATOM     16  C   UNL     1      -1.572  -4.581   0.704  1.00  0.00     0.262 C 
BRANCH  16  17
ATOM     17  N   UNL     1      -0.356  -4.704  -0.110  1.00  0.00    -0.330 N 
ATOM     18  C   UNL     1       0.871  -4.175   0.491  1.00  0.00     0.262 C 
ATOM     19  C   UNL     1      -0.132  -6.122  -0.458  1.00  0.00     0.327 C 
ATOM     20  H   UNL     1      -0.537  -4.125  -0.930  1.00  0.00     0.348 HD
ATOM     21  C   UNL     1       2.001  -4.176  -0.542  1.00  0.00     0.068 C 
ATOM     22  C   UNL     1       0.957  -6.318  -1.547  1.00  0.00     0.239 C 
ATOM     23  C   UNL     1       2.243  -5.553  -1.155  1.00  0.00     0.077 C 
BRANCH  22  24
ATOM     24  N   UNL     1       0.529  -6.115  -2.955  1.00  0.00    -0.333 N 
ATOM     25  C   UNL     1      -0.531  -7.049  -3.342  1.00  0.00     0.332 C 
ATOM     26  C   UNL     1       0.123  -4.752  -3.290  1.00  0.00     0.332 C 
ATOM     27  H   UNL     1       1.375  -6.303  -3.494  1.00  0.00     0.348 HD
ENDBRANCH  22  24
ENDBRANCH  16  17
ENDBRANCH  15  16
ENDBRANCH   8  15
ENDBRANCH   3   6
ENDBRANCH   1   2
BRANCH   1  28
ATOM     28  C   UNL     1       0.819   0.564  -2.274  1.00  0.00     0.042 C 
BRANCH  28  29
ATOM     29  C   UNL     1       2.326   0.650  -2.469  1.00  0.00     0.118 C 
BRANCH  29  30
ATOM     30  N   UNL     1       2.856  -0.438  -3.283  1.00  0.00    -0.352 N 
ATOM     31  C   UNL     1       3.473  -0.396  -4.511  1.00  0.00     0.251 C 
ATOM     32  H   UNL     1       2.757  -1.337  -2.894  1.00  0.00     0.163 HD
ATOM     33  O   UNL     1       3.688  -1.436  -5.121  1.00  0.00    -0.269 OA
BRANCH  31  34
ATOM     34  C   UNL     1       3.854   0.905  -5.104  1.00  0.00     0.039 A 
ATOM     35  C   UNL     1       3.613   1.129  -6.462  1.00  0.00     0.014 A 
ATOM     36  C   UNL     1       4.442   1.904  -4.325  1.00  0.00     0.014 A 
ATOM     37  C   UNL     1       3.895   2.380  -7.018  1.00  0.00     0.010 A 
ATOM     38  C   UNL     1       4.625   3.177  -4.853  1.00  0.00     0.010 A 
ATOM     39  C   UNL     1       4.366   3.427  -6.209  1.00  0.00    -0.014 A 
BRANCH  39  40
ATOM     40  C   UNL     1       4.597   4.789  -6.757  1.00  0.00     0.031 A 
ATOM     41  C   UNL     1       5.972   5.402  -6.703  1.00  0.00     0.074 A 
ATOM     42  C   UNL     1       3.556   5.509  -7.220  1.00  0.00     0.049 A 
ATOM     43  N   UNL     1       6.357   6.596  -7.071  1.00  0.00    -0.248 NA
ATOM     44  C   UNL     1       7.051   4.576  -6.133  1.00  0.00     0.031 C 
ATOM     45  C   UNL     1       2.162   5.059  -7.252  1.00  0.00     0.029 A 
ATOM     46  N   UNL     1       3.503   6.783  -7.729  1.00  0.00    -0.354 N 
ATOM     47  C   UNL     1       7.704   6.680  -6.739  1.00  0.00     0.074 A 
ATOM     48  C   UNL     1       8.062   5.431  -6.106  1.00  0.00     0.031 C 
ATOM     49  C   UNL     1       1.395   6.036  -7.763  1.00  0.00     0.029 A 
ATOM     50  C   UNL     1       2.232   7.194  -8.059  1.00  0.00     0.049 A 
ATOM     51  H   UNL     1       4.300   7.350  -7.846  1.00  0.00     0.167 HD
ATOM     52  C   UNL     1       8.574   7.693  -6.966  1.00  0.00     0.034 A 
ATOM     53  C   UNL     1       1.789   8.373  -8.538  1.00  0.00     0.034 A 
ATOM     54  C   UNL     1       8.225   8.917  -7.634  1.00  0.00     0.049 A 
ATOM     55  C   UNL     1       2.782   9.470  -8.813  1.00  0.00     0.074 A 
ATOM     56  C   UNL     1       9.052   9.964  -7.998  1.00  0.00     0.029 A 
ATOM     57  N   UNL     1       6.942   9.265  -8.027  1.00  0.00    -0.354 N 
ATOM     58  N   UNL     1       4.082   9.469  -8.640  1.00  0.00    -0.248 NA
ATOM     59  C   UNL     1       2.253  10.717  -9.383  1.00  0.00     0.031 C 
ATOM     60  C   UNL     1       8.263  10.962  -8.578  1.00  0.00     0.029 A 
ATOM     61  C   UNL     1       6.951  10.518  -8.615  1.00  0.00     0.049 A 
ATOM     62  H   UNL     1       6.142   8.704  -7.906  1.00  0.00     0.167 HD
ATOM     63  C   UNL     1       4.530  10.696  -9.116  1.00  0.00     0.074 A 
ATOM     64  C   UNL     1       3.365  11.406  -9.601  1.00  0.00     0.031 C 
ATOM     65  C   UNL     1       5.791  11.194  -9.139  1.00  0.00     0.034 A 
BRANCH  52  66
ATOM     66  C   UNL     1      10.003   7.503  -6.524  1.00  0.00     0.023 A 
ATOM     67  C   UNL     1      10.825   6.569  -7.189  1.00  0.00     0.012 A 
ATOM     68  C   UNL     1      10.547   8.283  -5.485  1.00  0.00     0.148 A 
ATOM     69  C   UNL     1      12.151   6.385  -6.801  1.00  0.00     0.002 A 
ATOM     70  C   UNL     1      11.884   8.130  -5.137  1.00  0.00     0.091 A 
ATOM     71  F   UNL     1       9.747   9.150  -4.850  1.00  0.00    -0.205 F 
ATOM     72  C   UNL     1      12.683   7.172  -5.784  1.00  0.00     0.022 A 
BRANCH  70  73
ATOM     73  S   UNL     1      12.687   9.153  -3.899  1.00  0.00     0.127 S 
ATOM     74  O   UNL     1      12.908   8.192  -2.820  1.00  0.00    -0.237 OA
ATOM     75  O   UNL     1      13.902   9.579  -4.595  1.00  0.00    -0.237 OA
ATOM     76  O   UNL     1      11.752  10.228  -3.597  1.00  0.00    -0.744 OA
ENDBRANCH  70  73
ENDBRANCH  52  66
BRANCH  53  77
ATOM     77  C   UNL     1       0.342   8.557  -8.845  1.00  0.00     0.023 A 
ATOM     78  C   UNL     1      -0.072   8.671 -10.187  1.00  0.00     0.012 A 
ATOM     79  C   UNL     1      -0.625   8.601  -7.823  1.00  0.00     0.148 A 
ATOM     80  C   UNL     1      -1.418   8.860 -10.503  1.00  0.00     0.002 A 
ATOM     81  C   UNL     1      -1.971   8.732  -8.148  1.00  0.00     0.091 A 
ATOM     82  F   UNL     1      -0.211   8.499  -6.552  1.00  0.00    -0.205 F 
ATOM     83  C   UNL     1      -2.367   8.882  -9.486  1.00  0.00     0.022 A 
BRANCH  81  84
ATOM     84  S   UNL     1      -3.275   8.639  -6.916  1.00  0.00     0.127 S 
ATOM     85  O   UNL     1      -3.785  10.008  -6.917  1.00  0.00    -0.237 OA
ATOM     86  O   UNL     1      -4.173   7.645  -7.504  1.00  0.00    -0.237 OA
ATOM     87  O   UNL     1      -2.625   8.209  -5.685  1.00  0.00    -0.744 OA
ENDBRANCH  81  84
ENDBRANCH  53  77
BRANCH  65  88
ATOM     88  C   UNL     1       5.996  12.555  -9.752  1.00  0.00     0.023 A 
ATOM     89  C   UNL     1       5.542  13.708  -9.081  1.00  0.00     0.012 A 
ATOM     90  C   UNL     1       6.708  12.693 -10.961  1.00  0.00     0.148 A 
ATOM     91  C   UNL     1       5.761  14.974  -9.622  1.00  0.00     0.002 A 
ATOM     92  C   UNL     1       6.970  13.960 -11.465  1.00  0.00     0.091 A 
ATOM     93  F   UNL     1       7.117  11.583 -11.592  1.00  0.00    -0.205 F 
ATOM     94  C   UNL     1       6.485  15.101 -10.806  1.00  0.00     0.022 A 
BRANCH  92  95
ATOM     95  S   UNL     1       7.980  14.226 -12.927  1.00  0.00     0.127 S 
ATOM     96  O   UNL     1       6.984  14.675 -13.899  1.00  0.00    -0.237 OA
ATOM     97  O   UNL     1       8.907  15.265 -12.478  1.00  0.00    -0.237 OA
ATOM     98  O   UNL     1       8.605  12.944 -13.223  1.00  0.00    -0.744 OA
ENDBRANCH  92  95
ENDBRANCH  65  88
ENDBRANCH  39  40
ENDBRANCH  31  34
ENDBRANCH  29  30
ENDBRANCH  28  29
ENDBRANCH   1  28
TORSDOF 18
