REMARK SMILES O=C(CCCN1C(=O)C(=O)/C(=C(/[O-])c2ccccc2)[C@@H]1/C=C/c1ccccc1)NCCCNC(=O)c1ccc(-c2c3nc(c(-c4cccc(S(=O)(=O)[O-])c4F)c4ccc([nH]4)c(-c4cccc(S(=O)(=O)[O-])c4F)c4nc(c(-c5cccc(S(=O)(=O)[O-])c5F)c5ccc2[nH]5)C=C4)C=C3)cc1
REMARK SMILES IDX 30 1 29 2 1 3 2 4 3 6 4 7 5 8 6 9 7 10 20 11 8 12 9 13 11 14
REMARK SMILES IDX 10 15 12 16 13 17 21 18 22 19 23 20 24 21 28 22 25 23 27 24
REMARK SMILES IDX 26 25 14 26 15 27 19 28 16 29 18 30 17 31 31 32 32 33 33 34
REMARK SMILES IDX 34 35 35 37 36 38 37 39 98 40 38 41 97 42 39 43 40 44 41 45
REMARK SMILES IDX 91 46 42 47 96 48 90 49 92 50 43 51 95 52 89 53 88 54 44 56
REMARK SMILES IDX 76 57 56 58 75 59 57 60 60 61 74 62 93 63 58 64 59 65 73 67
REMARK SMILES IDX 94 68 61 69 45 70 46 71 54 72 47 73 49 74 55 75 48 76 50 77
REMARK SMILES IDX 51 78 52 79 53 80 77 81 78 82 86 83 79 84 81 85 87 86 80 87
REMARK SMILES IDX 82 88 83 89 84 90 85 91 62 92 63 93 71 94 64 95 66 96 72 97
REMARK SMILES IDX 65 98 67 99 68 100 69 101 70 102
REMARK H PARENT 29 5 33 36 92 55 60 66
REMARK Flexibility Score: inf
ROOT
ATOM      1  C   UNL     1       1.902   2.164  -1.417  1.00  0.00     0.117 C 
ENDROOT
BRANCH   1   2
ATOM      2  N   UNL     1       2.454   1.281  -0.411  1.00  0.00    -0.356 N 
ATOM      3  O   UNL     1       1.151  -0.548  -0.898  1.00  0.00    -0.275 OA
ATOM      4  C   UNL     1       2.045  -0.020  -0.244  1.00  0.00     0.220 C 
ATOM      5  H   UNL     1       3.156   1.631   0.184  1.00  0.00     0.163 HD
BRANCH   4   6
ATOM      6  C   UNL     1       2.838  -0.793   0.797  1.00  0.00     0.102 C 
BRANCH   6   7
ATOM      7  C   UNL     1       3.858  -1.738   0.162  1.00  0.00     0.031 C 
BRANCH   7   8
ATOM      8  C   UNL     1       4.971  -1.056  -0.632  1.00  0.00     0.121 C 
BRANCH   8   9
ATOM      9  N   UNL     1       5.986  -0.364   0.164  1.00  0.00    -0.325 N 
ATOM     10  C   UNL     1       5.892   0.968   0.470  1.00  0.00     0.295 C 
ATOM     11  C   UNL     1       7.139  -0.989   0.799  1.00  0.00     0.143 C 
ATOM     12  O   UNL     1       4.939   1.703   0.324  1.00  0.00    -0.265 OA
ATOM     13  C   UNL     1       7.205   1.389   1.088  1.00  0.00     0.248 C 
ATOM     14  C   UNL     1       7.940   0.140   1.423  1.00  0.00     0.024 C 
ATOM     15  O   UNL     1       7.537   2.549   1.189  1.00  0.00    -0.283 OA
ATOM     16  C   UNL     1       9.058   0.105   2.176  1.00  0.00    -0.092 C 
ATOM     17  O   UNL     1       9.722  -1.063   2.502  1.00  0.00    -0.872 OA
BRANCH  11  18
ATOM     18  C   UNL     1       7.914  -1.863  -0.154  1.00  0.00     0.003 C 
ATOM     19  C   UNL     1       8.093  -1.676  -1.475  1.00  0.00     0.006 C 
BRANCH  19  20
ATOM     20  C   UNL     1       8.688  -2.651  -2.414  1.00  0.00    -0.026 A 
ATOM     21  C   UNL     1       8.794  -2.295  -3.767  1.00  0.00     0.008 A 
ATOM     22  C   UNL     1       9.088  -3.942  -2.040  1.00  0.00     0.008 A 
ATOM     23  C   UNL     1       9.283  -3.201  -4.715  1.00  0.00     0.001 A 
ATOM     24  C   UNL     1       9.579  -4.848  -2.986  1.00  0.00     0.001 A 
ATOM     25  C   UNL     1       9.674  -4.478  -4.324  1.00  0.00     0.000 A 
ENDBRANCH  19  20
ENDBRANCH  11  18
BRANCH  16  26
ATOM     26  C   UNL     1       9.726   1.292   2.754  1.00  0.00    -0.033 A 
ATOM     27  C   UNL     1      11.056   1.574   2.409  1.00  0.00     0.007 A 
ATOM     28  C   UNL     1       9.074   2.141   3.662  1.00  0.00     0.007 A 
ATOM     29  C   UNL     1      11.706   2.697   2.929  1.00  0.00     0.001 A 
ATOM     30  C   UNL     1       9.721   3.271   4.171  1.00  0.00     0.001 A 
ATOM     31  C   UNL     1      11.035   3.550   3.803  1.00  0.00     0.000 A 
ENDBRANCH  16  26
ENDBRANCH   8   9
ENDBRANCH   7   8
ENDBRANCH   6   7
ENDBRANCH   4   6
ENDBRANCH   1   2
BRANCH   1  32
ATOM     32  C   UNL     1       2.073   3.646  -1.082  1.00  0.00     0.042 C 
BRANCH  32  33
ATOM     33  C   UNL     1       3.497   4.202  -1.129  1.00  0.00     0.118 C 
BRANCH  33  34
ATOM     34  N   UNL     1       4.131   4.128  -2.434  1.00  0.00    -0.352 N 
ATOM     35  C   UNL     1       5.051   4.986  -2.992  1.00  0.00     0.251 C 
ATOM     36  H   UNL     1       3.867   3.362  -2.994  1.00  0.00     0.163 HD
ATOM     37  O   UNL     1       5.436   4.792  -4.143  1.00  0.00    -0.269 OA
BRANCH  35  38
ATOM     38  C   UNL     1       5.545   6.164  -2.237  1.00  0.00     0.039 A 
ATOM     39  C   UNL     1       5.595   7.399  -2.894  1.00  0.00     0.014 A 
ATOM     40  C   UNL     1       5.980   6.068  -0.912  1.00  0.00     0.014 A 
ATOM     41  C   UNL     1       6.034   8.539  -2.212  1.00  0.00     0.010 A 
ATOM     42  C   UNL     1       6.364   7.219  -0.216  1.00  0.00     0.010 A 
ATOM     43  C   UNL     1       6.404   8.466  -0.859  1.00  0.00    -0.014 A 
BRANCH  43  44
ATOM     44  C   UNL     1       6.835   9.690  -0.127  1.00  0.00     0.031 A 
ATOM     45  C   UNL     1       8.248   9.829   0.379  1.00  0.00     0.074 A 
ATOM     46  C   UNL     1       5.945  10.673   0.120  1.00  0.00     0.049 A 
ATOM     47  N   UNL     1       8.809  10.844   0.988  1.00  0.00    -0.248 NA
ATOM     48  C   UNL     1       9.142   8.675   0.195  1.00  0.00     0.031 C 
ATOM     49  C   UNL     1       4.524  10.635  -0.234  1.00  0.00     0.029 A 
ATOM     50  N   UNL     1       6.098  11.890   0.740  1.00  0.00    -0.354 N 
ATOM     51  C   UNL     1      10.107  10.444   1.282  1.00  0.00     0.074 A 
ATOM     52  C   UNL     1      10.241   9.081   0.815  1.00  0.00     0.031 C 
ATOM     53  C   UNL     1       3.941  11.777   0.164  1.00  0.00     0.029 A 
ATOM     54  C   UNL     1       4.938  12.626   0.809  1.00  0.00     0.049 A 
ATOM     55  H   UNL     1       6.958  12.205   1.100  1.00  0.00     0.167 HD
ATOM     56  C   UNL     1      11.110  11.153   1.856  1.00  0.00     0.034 A 
ATOM     57  C   UNL     1       4.705  13.852   1.321  1.00  0.00     0.034 A 
ATOM     58  C   UNL     1      10.995  12.522   2.281  1.00  0.00     0.049 A 
ATOM     59  C   UNL     1       5.852  14.645   1.889  1.00  0.00     0.074 A 
ATOM     60  C   UNL     1      11.978  13.348   2.801  1.00  0.00     0.029 A 
ATOM     61  N   UNL     1       9.829  13.270   2.239  1.00  0.00    -0.354 N 
ATOM     62  N   UNL     1       7.115  14.312   1.992  1.00  0.00    -0.248 NA
ATOM     63  C   UNL     1       5.551  16.005   2.364  1.00  0.00     0.031 C 
ATOM     64  C   UNL     1      11.403  14.593   3.081  1.00  0.00     0.029 A 
ATOM     65  C   UNL     1      10.066  14.547   2.720  1.00  0.00     0.049 A 
ATOM     66  H   UNL     1       8.960  12.941   1.914  1.00  0.00     0.167 HD
ATOM     67  C   UNL     1       7.765  15.431   2.502  1.00  0.00     0.074 A 
ATOM     68  C   UNL     1       6.759  16.459   2.668  1.00  0.00     0.031 C 
ATOM     69  C   UNL     1       9.075  15.587   2.817  1.00  0.00     0.034 A 
BRANCH  56  70
ATOM     70  C   UNL     1      12.450  10.477   1.994  1.00  0.00     0.023 A 
ATOM     71  C   UNL     1      13.236  10.266   0.842  1.00  0.00     0.012 A 
ATOM     72  C   UNL     1      12.957  10.105   3.254  1.00  0.00     0.148 A 
ATOM     73  C   UNL     1      14.489   9.664   0.936  1.00  0.00     0.002 A 
ATOM     74  C   UNL     1      14.226   9.542   3.345  1.00  0.00     0.091 A 
ATOM     75  F   UNL     1      12.190  10.295   4.336  1.00  0.00    -0.205 F 
ATOM     76  C   UNL     1      14.988   9.312   2.187  1.00  0.00     0.022 A 
BRANCH  74  77
ATOM     77  S   UNL     1      14.986   9.121   4.917  1.00  0.00     0.127 S 
ATOM     78  O   UNL     1      14.878   7.663   4.916  1.00  0.00    -0.237 OA
ATOM     79  O   UNL     1      16.348   9.631   4.752  1.00  0.00    -0.237 OA
ATOM     80  O   UNL     1      14.203   9.808   5.935  1.00  0.00    -0.744 OA
ENDBRANCH  74  77
ENDBRANCH  56  70
BRANCH  57  81
ATOM     81  C   UNL     1       3.342  14.449   1.228  1.00  0.00     0.023 A 
ATOM     82  C   UNL     1       3.117  15.517   0.337  1.00  0.00     0.012 A 
ATOM     83  C   UNL     1       2.268  13.958   1.995  1.00  0.00     0.148 A 
ATOM     84  C   UNL     1       1.857  16.108   0.235  1.00  0.00     0.002 A 
ATOM     85  C   UNL     1       1.003  14.517   1.851  1.00  0.00     0.091 A 
ATOM     86  F   UNL     1       2.504  12.952   2.848  1.00  0.00    -0.205 F 
ATOM     87  C   UNL     1       0.799  15.602   0.984  1.00  0.00     0.022 A 
BRANCH  85  88
ATOM     88  S   UNL     1      -0.443  13.848   2.682  1.00  0.00     0.127 S 
ATOM     89  O   UNL     1      -0.686  14.853   3.713  1.00  0.00    -0.237 OA
ATOM     90  O   UNL     1      -1.431  13.822   1.602  1.00  0.00    -0.237 OA
ATOM     91  O   UNL     1      -0.044  12.531   3.159  1.00  0.00    -0.744 OA
ENDBRANCH  85  88
ENDBRANCH  57  81
BRANCH  69  92
ATOM     92  C   UNL     1       9.518  16.931   3.335  1.00  0.00     0.023 A 
ATOM     93  C   UNL     1       9.165  17.332   4.638  1.00  0.00     0.012 A 
ATOM     94  C   UNL     1      10.341  17.768   2.555  1.00  0.00     0.148 A 
ATOM     95  C   UNL     1       9.595  18.558   5.146  1.00  0.00     0.002 A 
ATOM     96  C   UNL     1      10.804  18.968   3.084  1.00  0.00     0.091 A 
ATOM     97  F   UNL     1      10.650  17.384   1.308  1.00  0.00    -0.205 F 
ATOM     98  C   UNL     1      10.424  19.369   4.374  1.00  0.00     0.022 A 
BRANCH  96  99
ATOM     99  S   UNL     1      11.951  20.024   2.189  1.00  0.00     0.127 S 
ATOM    100  O   UNL     1      11.059  21.055   1.661  1.00  0.00    -0.237 OA
ATOM    101  O   UNL     1      12.851  20.482   3.248  1.00  0.00    -0.237 OA
ATOM    102  O   UNL     1      12.583  19.166   1.196  1.00  0.00    -0.744 OA
ENDBRANCH  96  99
ENDBRANCH  69  92
ENDBRANCH  43  44
ENDBRANCH  35  38
ENDBRANCH  33  34
ENDBRANCH  32  33
ENDBRANCH   1  32
TORSDOF 19
