REMARK SMILES CN1C(=O)C[C@@H](C(=O)NCCCNC(=O)c2ccc(-c3c4nc(c(-c5cccc(S(=O)(=O)[O-])c5F)c5ccc([nH]5)c(-c5cccc(S(=O)(=O)[O-])c5F)c5nc(c(-c6cccc(S(=O)(=O)[O-])c6F)c6ccc3[nH]6)C=C5)C=C4)cc2)C12CCN(C(=O)c1ccccc1-n1cccn1)CC2
REMARK SMILES IDX 11 1 10 2 9 3 7 4 8 5 6 7 1 8 2 9 3 10 79 11 4 12 5 13 80 14
REMARK SMILES IDX 97 15 81 16 96 17 82 18 83 19 84 20 85 21 86 22 90 23 87 24
REMARK SMILES IDX 89 25 88 26 91 27 92 28 95 29 93 30 94 31 12 32 13 33 14 34
REMARK SMILES IDX 15 36 16 37 17 38 78 39 18 40 77 41 19 42 20 43 21 44 71 45
REMARK SMILES IDX 22 46 76 47 70 48 72 49 23 50 75 51 69 52 68 53 24 55 56 56
REMARK SMILES IDX 36 57 55 58 37 59 40 60 54 61 73 62 38 63 39 64 53 66 74 67
REMARK SMILES IDX 41 68 25 69 26 70 34 71 27 72 29 73 35 74 28 75 30 76 31 77
REMARK SMILES IDX 32 78 33 79 57 80 58 81 66 82 59 83 61 84 67 85 60 86 62 87
REMARK SMILES IDX 63 88 64 89 65 90 42 91 43 92 51 93 44 94 46 95 52 96 45 97
REMARK SMILES IDX 47 98 48 99 49 100 50 101
REMARK H PARENT 9 6 13 35 72 54 40 65
REMARK Flexibility Score: inf
ROOT
ATOM      1  C   UNL     1       1.369  -0.034  -3.835  1.00  0.00     0.042 C 
ENDROOT
BRANCH   1   2
ATOM      2  C   UNL     1       1.155   1.477  -3.728  1.00  0.00     0.117 C 
BRANCH   2   3
ATOM      3  N   UNL     1      -0.202   1.923  -4.023  1.00  0.00    -0.356 N 
ATOM      4  C   UNL     1      -1.207   2.456  -3.285  1.00  0.00     0.226 C 
ATOM      5  O   UNL     1      -2.217   2.798  -3.914  1.00  0.00    -0.275 OA
ATOM      6  H   UNL     1      -0.443   1.811  -4.971  1.00  0.00     0.163 HD
BRANCH   4   7
ATOM      7  C   UNL     1      -1.206   2.630  -1.764  1.00  0.00     0.113 C 
ATOM      8  C   UNL     1       1.001   0.244   0.091  1.00  0.00     0.147 C 
ATOM      9  N   UNL     1       0.307   1.363  -0.524  1.00  0.00    -0.339 N 
ATOM     10  C   UNL     1       0.879   2.625  -0.600  1.00  0.00     0.223 C 
ATOM     11  C   UNL     1      -1.117   1.351  -0.901  1.00  0.00     0.058 C 
ATOM     12  O   UNL     1       1.992   2.955  -0.217  1.00  0.00    -0.275 OA
ATOM     13  C   UNL     1      -0.089   3.550  -1.280  1.00  0.00     0.116 C 
ATOM     14  C   UNL     1      -1.573   0.088  -1.657  1.00  0.00     0.051 C 
ATOM     15  C   UNL     1      -1.961   1.470   0.409  1.00  0.00     0.051 C 
ATOM     16  C   UNL     1      -3.082   0.024  -1.855  1.00  0.00     0.122 C 
ATOM     17  C   UNL     1      -3.466   1.251   0.222  1.00  0.00     0.122 C 
ATOM     18  N   UNL     1      -3.732   0.046  -0.555  1.00  0.00    -0.338 N 
ATOM     19  C   UNL     1      -4.573  -0.947  -0.048  1.00  0.00     0.256 C 
ATOM     20  O   UNL     1      -5.176  -0.842   1.018  1.00  0.00    -0.269 OA
BRANCH  19  21
ATOM     21  C   UNL     1      -4.811  -2.177  -0.846  1.00  0.00     0.065 A 
ATOM     22  C   UNL     1      -6.106  -2.318  -1.375  1.00  0.00     0.016 A 
ATOM     23  C   UNL     1      -3.823  -3.115  -1.181  1.00  0.00     0.077 A 
ATOM     24  C   UNL     1      -6.401  -3.357  -2.261  1.00  0.00     0.001 A 
ATOM     25  C   UNL     1      -4.117  -4.123  -2.119  1.00  0.00     0.029 A 
ATOM     26  C   UNL     1      -5.403  -4.247  -2.646  1.00  0.00     0.002 A 
BRANCH  23  27
ATOM     27  N   UNL     1      -2.528  -3.116  -0.608  1.00  0.00    -0.240 N 
ATOM     28  C   UNL     1      -2.143  -2.715   0.652  1.00  0.00     0.115 A 
ATOM     29  N   UNL     1      -1.466  -3.549  -1.337  1.00  0.00    -0.177 NA
ATOM     30  C   UNL     1      -0.791  -2.951   0.750  1.00  0.00     0.042 A 
ATOM     31  C   UNL     1      -0.429  -3.474  -0.501  1.00  0.00     0.135 A 
ENDBRANCH  23  27
ENDBRANCH  19  21
ENDBRANCH   4   7
ENDBRANCH   2   3
ENDBRANCH   1   2
BRANCH   1  32
ATOM     32  C   UNL     1       1.120  -0.594  -5.229  1.00  0.00     0.118 C 
BRANCH  32  33
ATOM     33  N   UNL     1       2.150  -0.164  -6.166  1.00  0.00    -0.352 N 
ATOM     34  C   UNL     1       3.198  -0.876  -6.698  1.00  0.00     0.251 C 
ATOM     35  H   UNL     1       2.086   0.773  -6.460  1.00  0.00     0.163 HD
ATOM     36  O   UNL     1       4.131  -0.276  -7.224  1.00  0.00    -0.269 OA
BRANCH  34  37
ATOM     37  C   UNL     1       3.204  -2.355  -6.636  1.00  0.00     0.039 A 
ATOM     38  C   UNL     1       4.400  -3.022  -6.357  1.00  0.00     0.014 A 
ATOM     39  C   UNL     1       2.040  -3.085  -6.886  1.00  0.00     0.014 A 
ATOM     40  C   UNL     1       4.411  -4.417  -6.271  1.00  0.00     0.010 A 
ATOM     41  C   UNL     1       2.033  -4.465  -6.708  1.00  0.00     0.010 A 
ATOM     42  C   UNL     1       3.220  -5.150  -6.413  1.00  0.00    -0.014 A 
BRANCH  42  43
ATOM     43  C   UNL     1       3.197  -6.629  -6.259  1.00  0.00     0.031 A 
ATOM     44  C   UNL     1       2.759  -7.507  -7.402  1.00  0.00     0.074 A 
ATOM     45  C   UNL     1       3.490  -7.178  -5.063  1.00  0.00     0.049 A 
ATOM     46  N   UNL     1       2.628  -8.808  -7.439  1.00  0.00    -0.248 NA
ATOM     47  C   UNL     1       2.393  -6.836  -8.661  1.00  0.00     0.031 C 
ATOM     48  C   UNL     1       3.848  -6.432  -3.854  1.00  0.00     0.029 A 
ATOM     49  N   UNL     1       3.510  -8.490  -4.659  1.00  0.00    -0.354 N 
ATOM     50  C   UNL     1       2.131  -9.106  -8.702  1.00  0.00     0.074 A 
ATOM     51  C   UNL     1       1.947  -7.848  -9.390  1.00  0.00     0.031 C 
ATOM     52  C   UNL     1       4.061  -7.296  -2.849  1.00  0.00     0.029 A 
ATOM     53  C   UNL     1       3.822  -8.654  -3.329  1.00  0.00     0.049 A 
ATOM     54  H   UNL     1       3.320  -9.243  -5.264  1.00  0.00     0.167 HD
ATOM     55  C   UNL     1       1.879 -10.317  -9.254  1.00  0.00     0.034 A 
ATOM     56  C   UNL     1       3.897  -9.769  -2.576  1.00  0.00     0.034 A 
ATOM     57  C   UNL     1       2.101 -11.568  -8.581  1.00  0.00     0.049 A 
ATOM     58  C   UNL     1       3.647 -11.105  -3.224  1.00  0.00     0.074 A 
ATOM     59  C   UNL     1       1.963 -12.850  -9.082  1.00  0.00     0.029 A 
ATOM     60  N   UNL     1       2.497 -11.696  -7.259  1.00  0.00    -0.354 N 
ATOM     61  N   UNL     1       3.333 -11.373  -4.468  1.00  0.00    -0.248 NA
ATOM     62  C   UNL     1       3.799 -12.295  -2.373  1.00  0.00     0.031 C 
ATOM     63  C   UNL     1       2.242 -13.754  -8.053  1.00  0.00     0.029 A 
ATOM     64  C   UNL     1       2.595 -13.035  -6.922  1.00  0.00     0.049 A 
ATOM     65  H   UNL     1       2.681 -10.945  -6.649  1.00  0.00     0.167 HD
ATOM     66  C   UNL     1       3.289 -12.760  -4.560  1.00  0.00     0.074 A 
ATOM     67  C   UNL     1       3.628 -13.275  -3.249  1.00  0.00     0.031 C 
ATOM     68  C   UNL     1       2.985 -13.536  -5.629  1.00  0.00     0.034 A 
BRANCH  55  69
ATOM     69  C   UNL     1       1.375 -10.352 -10.674  1.00  0.00     0.023 A 
ATOM     70  C   UNL     1       2.237  -9.994 -11.731  1.00  0.00     0.012 A 
ATOM     71  C   UNL     1       0.071 -10.798 -10.969  1.00  0.00     0.148 A 
ATOM     72  C   UNL     1       1.800 -10.041 -13.054  1.00  0.00     0.002 A 
ATOM     73  C   UNL     1      -0.342 -10.889 -12.293  1.00  0.00     0.091 A 
ATOM     74  F   UNL     1      -0.741 -11.117  -9.951  1.00  0.00    -0.205 F 
ATOM     75  C   UNL     1       0.515 -10.498 -13.335  1.00  0.00     0.022 A 
BRANCH  73  76
ATOM     76  S   UNL     1      -1.946 -11.544 -12.767  1.00  0.00     0.127 S 
ATOM     77  O   UNL     1      -2.612 -10.349 -13.281  1.00  0.00    -0.237 OA
ATOM     78  O   UNL     1      -1.585 -12.528 -13.788  1.00  0.00    -0.237 OA
ATOM     79  O   UNL     1      -2.525 -12.107 -11.556  1.00  0.00    -0.744 OA
ENDBRANCH  73  76
ENDBRANCH  55  69
BRANCH  56  80
ATOM     80  C   UNL     1       4.282  -9.676  -1.139  1.00  0.00     0.023 A 
ATOM     81  C   UNL     1       5.528 -10.181  -0.719  1.00  0.00     0.012 A 
ATOM     82  C   UNL     1       3.431  -9.076  -0.191  1.00  0.00     0.148 A 
ATOM     83  C   UNL     1       5.902 -10.126   0.624  1.00  0.00     0.002 A 
ATOM     84  C   UNL     1       3.835  -8.969   1.134  1.00  0.00     0.091 A 
ATOM     85  F   UNL     1       2.245  -8.608  -0.607  1.00  0.00    -0.205 F 
ATOM     86  C   UNL     1       5.061  -9.512   1.549  1.00  0.00     0.022 A 
BRANCH  84  87
ATOM     87  S   UNL     1       2.880  -8.071   2.362  1.00  0.00     0.127 S 
ATOM     88  O   UNL     1       2.395  -9.153   3.215  1.00  0.00    -0.237 OA
ATOM     89  O   UNL     1       3.899  -7.215   2.971  1.00  0.00    -0.237 OA
ATOM     90  O   UNL     1       1.861  -7.345   1.616  1.00  0.00    -0.744 OA
ENDBRANCH  84  87
ENDBRANCH  56  80
BRANCH  68  91
ATOM     91  C   UNL     1       3.050 -15.030  -5.452  1.00  0.00     0.023 A 
ATOM     92  C   UNL     1       2.075 -15.695  -4.683  1.00  0.00     0.012 A 
ATOM     93  C   UNL     1       4.038 -15.783  -6.118  1.00  0.00     0.148 A 
ATOM     94  C   UNL     1       2.103 -17.083  -4.550  1.00  0.00     0.002 A 
ATOM     95  C   UNL     1       4.028 -17.169  -6.025  1.00  0.00     0.091 A 
ATOM     96  F   UNL     1       4.967 -15.130  -6.832  1.00  0.00    -0.205 F 
ATOM     97  C   UNL     1       3.070 -17.820  -5.230  1.00  0.00     0.022 A 
BRANCH  95  98
ATOM     98  S   UNL     1       5.169 -18.206  -6.947  1.00  0.00     0.127 S 
ATOM     99  O   UNL     1       6.025 -18.725  -5.881  1.00  0.00    -0.237 OA
ATOM    100  O   UNL     1       4.273 -19.195  -7.546  1.00  0.00    -0.237 OA
ATOM    101  O   UNL     1       5.829 -17.328  -7.903  1.00  0.00    -0.744 OA
ENDBRANCH  95  98
ENDBRANCH  68  91
ENDBRANCH  42  43
ENDBRANCH  34  37
ENDBRANCH  32  33
ENDBRANCH   1  32
TORSDOF 15
