REMARK SMILES O=C(Cc1c(C(=O)c2cc3c(cn2)CCCC3)[nH]c2cc(Cl)ccc12)NCCCNC(=O)c1ccc(-c2c3nc(c(-c4cccc(S(=O)(=O)[O-])c4F)c4ccc([nH]4)c(-c4cccc(S(=O)(=O)[O-])c4F)c4nc(c(-c5cccc(S(=O)(=O)[O-])c5F)c5ccc2[nH]5)C=C4)C=C3)cc1
REMARK SMILES IDX 28 1 27 2 26 3 1 4 2 5 3 7 4 8 5 9 25 10 18 11 19 12 24 13
REMARK SMILES IDX 20 15 23 16 21 17 22 18 6 19 7 20 8 21 9 22 13 23 10 24
REMARK SMILES IDX 12 25 11 26 17 27 14 28 16 29 15 30 29 31 30 32 31 33 32 35
REMARK SMILES IDX 33 36 34 37 95 38 35 39 94 40 36 41 37 42 38 43 88 44 39 45
REMARK SMILES IDX 93 46 87 47 89 48 40 49 92 50 86 51 85 52 41 54 73 55 53 56
REMARK SMILES IDX 72 57 54 58 57 59 71 60 90 61 55 62 56 63 70 65 91 66 58 67
REMARK SMILES IDX 42 68 43 69 51 70 44 71 46 72 52 73 45 74 47 75 48 76 49 77
REMARK SMILES IDX 50 78 74 79 75 80 83 81 76 82 78 83 84 84 77 85 79 86 80 87
REMARK SMILES IDX 81 88 82 89 59 90 60 91 68 92 61 93 63 94 69 95 62 96 64 97
REMARK SMILES IDX 65 98 66 99 67 100
REMARK H PARENT 26 6 18 14 30 34 89 53 57 64
REMARK Flexibility Score: inf
ROOT
ATOM      1  C   UNL     1       2.390   1.905   2.974  1.00  0.00     0.042 C 
ENDROOT
BRANCH   1   2
ATOM      2  C   UNL     1       2.129   1.846   1.480  1.00  0.00     0.117 C 
BRANCH   2   3
ATOM      3  N   UNL     1       2.858   0.794   0.800  1.00  0.00    -0.356 N 
ATOM      4  O   UNL     1       1.098  -0.670   0.681  1.00  0.00    -0.275 OA
ATOM      5  C   UNL     1       2.209  -0.312   0.290  1.00  0.00     0.224 C 
ATOM      6  H   UNL     1       3.834   0.870   0.700  1.00  0.00     0.163 HD
BRANCH   5   7
ATOM      7  C   UNL     1       2.986  -1.133  -0.727  1.00  0.00     0.138 C 
BRANCH   7   8
ATOM      8  C   UNL     1       3.792  -0.390  -1.770  1.00  0.00    -0.002 A 
ATOM      9  C   UNL     1       3.649   0.909  -2.263  1.00  0.00     0.093 A 
ATOM     10  C   UNL     1       4.811  -1.013  -2.574  1.00  0.00     0.004 A 
ATOM     11  N   UNL     1       4.738   1.145  -3.077  1.00  0.00    -0.351 N 
ATOM     12  C   UNL     1       5.355  -0.036  -3.402  1.00  0.00     0.048 A 
ATOM     13  C   UNL     1       5.284  -2.337  -2.702  1.00  0.00     0.012 A 
ATOM     14  H   UNL     1       5.029   2.034  -3.382  1.00  0.00     0.167 HD
ATOM     15  C   UNL     1       6.335  -0.306  -4.365  1.00  0.00     0.047 A 
ATOM     16  C   UNL     1       6.241  -2.637  -3.681  1.00  0.00     0.021 A 
ATOM     17  C   UNL     1       6.750  -1.633  -4.500  1.00  0.00     0.043 A 
ATOM     18  Cl  UNL     1       7.898  -2.033  -5.721  1.00  0.00    -0.084 Cl
BRANCH   9  19
ATOM     19  C   UNL     1       2.570   1.868  -2.075  1.00  0.00     0.227 C 
ATOM     20  O   UNL     1       1.411   1.550  -1.823  1.00  0.00    -0.285 OA
BRANCH  19  21
ATOM     21  C   UNL     1       2.842   3.295  -2.354  1.00  0.00     0.113 A 
ATOM     22  C   UNL     1       2.428   3.807  -3.575  1.00  0.00     0.036 A 
ATOM     23  N   UNL     1       3.505   4.001  -1.407  1.00  0.00    -0.252 NA
ATOM     24  C   UNL     1       2.677   5.151  -3.846  1.00  0.00    -0.041 A 
ATOM     25  C   UNL     1       3.689   5.315  -1.674  1.00  0.00     0.115 A 
ATOM     26  C   UNL     1       3.309   5.934  -2.867  1.00  0.00    -0.026 A 
ATOM     27  C   UNL     1       2.320   5.710  -5.198  1.00  0.00     0.036 C 
ATOM     28  C   UNL     1       3.492   7.418  -3.046  1.00  0.00     0.037 C 
ATOM     29  C   UNL     1       2.212   7.231  -5.204  1.00  0.00     0.005 C 
ATOM     30  C   UNL     1       3.417   7.858  -4.509  1.00  0.00     0.005 C 
ENDBRANCH  19  21
ENDBRANCH   9  19
ENDBRANCH   7   8
ENDBRANCH   5   7
ENDBRANCH   2   3
ENDBRANCH   1   2
BRANCH   1  31
ATOM     31  C   UNL     1       3.848   2.127   3.355  1.00  0.00     0.118 C 
BRANCH  31  32
ATOM     32  N   UNL     1       4.402   3.393   2.890  1.00  0.00    -0.352 N 
ATOM     33  C   UNL     1       5.147   4.334   3.573  1.00  0.00     0.251 C 
ATOM     34  H   UNL     1       4.219   3.609   1.947  1.00  0.00     0.163 HD
ATOM     35  O   UNL     1       5.463   5.376   3.020  1.00  0.00    -0.269 OA
BRANCH  33  36
ATOM     36  C   UNL     1       5.512   4.095   4.993  1.00  0.00     0.039 A 
ATOM     37  C   UNL     1       5.986   2.854   5.417  1.00  0.00     0.014 A 
ATOM     38  C   UNL     1       5.334   5.126   5.921  1.00  0.00     0.014 A 
ATOM     39  C   UNL     1       6.088   2.583   6.779  1.00  0.00     0.010 A 
ATOM     40  C   UNL     1       5.523   4.876   7.286  1.00  0.00     0.010 A 
ATOM     41  C   UNL     1       5.838   3.584   7.732  1.00  0.00    -0.014 A 
BRANCH  41  42
ATOM     42  C   UNL     1       5.891   3.244   9.181  1.00  0.00     0.031 A 
ATOM     43  C   UNL     1       4.656   3.329  10.043  1.00  0.00     0.074 A 
ATOM     44  C   UNL     1       7.045   2.798   9.715  1.00  0.00     0.049 A 
ATOM     45  N   UNL     1       4.516   3.018  11.308  1.00  0.00    -0.248 NA
ATOM     46  C   UNL     1       3.421   3.828   9.415  1.00  0.00     0.031 C 
ATOM     47  C   UNL     1       8.316   2.688   8.998  1.00  0.00     0.029 A 
ATOM     48  N   UNL     1       7.332   2.333  10.974  1.00  0.00    -0.354 N 
ATOM     49  C   UNL     1       3.200   3.322  11.635  1.00  0.00     0.074 A 
ATOM     50  C   UNL     1       2.578   3.846  10.439  1.00  0.00     0.031 C 
ATOM     51  C   UNL     1       9.232   2.139   9.809  1.00  0.00     0.029 A 
ATOM     52  C   UNL     1       8.628   1.898  11.117  1.00  0.00     0.049 A 
ATOM     53  H   UNL     1       6.673   2.313  11.705  1.00  0.00     0.167 HD
ATOM     54  C   UNL     1       2.558   3.156  12.816  1.00  0.00     0.034 A 
ATOM     55  C   UNL     1       9.265   1.360  12.175  1.00  0.00     0.034 A 
ATOM     56  C   UNL     1       3.146   2.567  13.988  1.00  0.00     0.049 A 
ATOM     57  C   UNL     1       8.520   1.155  13.462  1.00  0.00     0.074 A 
ATOM     58  C   UNL     1       2.547   2.312  15.210  1.00  0.00     0.029 A 
ATOM     59  N   UNL     1       4.456   2.131  14.084  1.00  0.00    -0.354 N 
ATOM     60  N   UNL     1       7.255   1.377  13.722  1.00  0.00    -0.248 NA
ATOM     61  C   UNL     1       9.284   0.617  14.597  1.00  0.00     0.031 C 
ATOM     62  C   UNL     1       3.497   1.716  16.045  1.00  0.00     0.029 A 
ATOM     63  C   UNL     1       4.686   1.606  15.343  1.00  0.00     0.049 A 
ATOM     64  H   UNL     1       5.125   2.186  13.363  1.00  0.00     0.167 HD
ATOM     65  C   UNL     1       7.069   1.002  15.047  1.00  0.00     0.074 A 
ATOM     66  C   UNL     1       8.344   0.514  15.530  1.00  0.00     0.031 C 
ATOM     67  C   UNL     1       5.946   1.081  15.800  1.00  0.00     0.034 A 
BRANCH  54  68
ATOM     68  C   UNL     1       1.111   3.556  12.895  1.00  0.00     0.023 A 
ATOM     69  C   UNL     1       0.128   2.667  12.416  1.00  0.00     0.012 A 
ATOM     70  C   UNL     1       0.719   4.749  13.533  1.00  0.00     0.148 A 
ATOM     71  C   UNL     1      -1.226   2.963  12.563  1.00  0.00     0.002 A 
ATOM     72  C   UNL     1      -0.633   5.026  13.698  1.00  0.00     0.091 A 
ATOM     73  F   UNL     1       1.674   5.584  13.967  1.00  0.00    -0.205 F 
ATOM     74  C   UNL     1      -1.606   4.136  13.212  1.00  0.00     0.022 A 
BRANCH  72  75
ATOM     75  S   UNL     1      -1.230   6.482  14.564  1.00  0.00     0.127 S 
ATOM     76  O   UNL     1      -1.847   7.240  13.476  1.00  0.00    -0.237 OA
ATOM     77  O   UNL     1      -2.178   5.906  15.519  1.00  0.00    -0.237 OA
ATOM     78  O   UNL     1      -0.059   7.102  15.166  1.00  0.00    -0.744 OA
ENDBRANCH  72  75
ENDBRANCH  54  68
BRANCH  55  79
ATOM     79  C   UNL     1      10.677   0.918  12.023  1.00  0.00     0.023 A 
ATOM     80  C   UNL     1      10.956  -0.458  11.918  1.00  0.00     0.012 A 
ATOM     81  C   UNL     1      11.724   1.850  11.894  1.00  0.00     0.148 A 
ATOM     82  C   UNL     1      12.259  -0.899  11.687  1.00  0.00     0.002 A 
ATOM     83  C   UNL     1      13.011   1.405  11.619  1.00  0.00     0.091 A 
ATOM     84  F   UNL     1      11.431   3.152  12.009  1.00  0.00    -0.205 F 
ATOM     85  C   UNL     1      13.283   0.031  11.525  1.00  0.00     0.022 A 
BRANCH  83  86
ATOM     86  S   UNL     1      14.368   2.530  11.273  1.00  0.00     0.127 S 
ATOM     87  O   UNL     1      15.234   2.318  12.430  1.00  0.00    -0.237 OA
ATOM     88  O   UNL     1      14.884   1.998  10.011  1.00  0.00    -0.237 OA
ATOM     89  O   UNL     1      13.768   3.853  11.169  1.00  0.00    -0.744 OA
ENDBRANCH  83  86
ENDBRANCH  55  79
BRANCH  67  90
ATOM     90  C   UNL     1       6.028   0.645  17.235  1.00  0.00     0.023 A 
ATOM     91  C   UNL     1       6.554   1.538  18.188  1.00  0.00     0.012 A 
ATOM     92  C   UNL     1       5.482  -0.583  17.655  1.00  0.00     0.148 A 
ATOM     93  C   UNL     1       6.541   1.212  19.543  1.00  0.00     0.002 A 
ATOM     94  C   UNL     1       5.447  -0.889  19.011  1.00  0.00     0.091 A 
ATOM     95  F   UNL     1       4.998  -1.418  16.724  1.00  0.00    -0.205 F 
ATOM     96  C   UNL     1       5.979   0.006  19.955  1.00  0.00     0.022 A 
BRANCH  94  97
ATOM     97  S   UNL     1       4.684  -2.386  19.646  1.00  0.00     0.127 S 
ATOM     98  O   UNL     1       5.846  -3.132  20.126  1.00  0.00    -0.237 OA
ATOM     99  O   UNL     1       3.814  -1.866  20.702  1.00  0.00    -0.237 OA
ATOM    100  O   UNL     1       3.980  -2.988  18.522  1.00  0.00    -0.744 OA
ENDBRANCH  94  97
ENDBRANCH  67  90
ENDBRANCH  41  42
ENDBRANCH  33  36
ENDBRANCH  31  32
ENDBRANCH   1  31
TORSDOF 16
