REMARK SMILES C[C@H](C(=O)NCCCNC(=O)c1ccc(-c2c3nc(c(-c4cccc(S(=O)(=O)[O-])c4F)c4ccc([nH]4)c(-c4cccc(S(=O)(=O)[O-])c4F)c4nc(c(-c5cccc(S(=O)(=O)[O-])c5F)c5ccc2[nH]5)C=C4)C=C3)cc1)[C@@H](C)[N@@H+](C)CCC[NH+](C)C
REMARK SMILES IDX 3 1 4 2 5 3 2 5 1 6 75 7 76 8 77 9 78 10 79 12 80 13 81 14
REMARK SMILES IDX 82 15 83 16 84 17 6 19 7 20 8 21 9 22 10 23 11 25 12 26
REMARK SMILES IDX 13 27 74 28 14 29 73 30 15 31 16 32 17 33 67 34 18 35 72 36
REMARK SMILES IDX 66 37 68 38 19 39 71 40 65 41 64 42 20 44 52 45 32 46 51 47
REMARK SMILES IDX 33 48 36 49 50 50 69 51 34 52 35 53 49 55 70 56 37 57 21 58
REMARK SMILES IDX 22 59 30 60 23 61 25 62 31 63 24 64 26 65 27 66 28 67 29 68
REMARK SMILES IDX 53 69 54 70 62 71 55 72 57 73 63 74 56 75 58 76 59 77 60 78
REMARK SMILES IDX 61 79 38 80 39 81 47 82 40 83 42 84 48 85 41 86 43 87 44 88
REMARK SMILES IDX 45 89 46 90
REMARK H PARENT 5 4 77 11 82 18 9 24 68 43 36 54
REMARK Flexibility Score: inf
ROOT
ATOM      1  C   UNL     1       1.042  -0.075  -0.688  1.00  0.00     0.228 C 
ATOM      2  O   UNL     1       1.794  -0.074   0.293  1.00  0.00    -0.275 OA
ATOM      3  N   UNL     1       0.800  -1.278  -1.255  1.00  0.00    -0.356 N 
ATOM      4  H   UNL     1       1.071  -2.051  -0.710  1.00  0.00     0.163 HD
ENDROOT
BRANCH   1   5
ATOM      5  C   UNL     1       0.376   1.215  -1.151  1.00  0.00     0.133 C 
ATOM      6  C   UNL     1       0.772   1.659  -2.560  1.00  0.00     0.024 C 
BRANCH   5   7
ATOM      7  C   UNL     1      -1.160   1.289  -0.908  1.00  0.00     0.192 C 
ATOM      8  C   UNL     1      -1.717   0.285   0.117  1.00  0.00     0.076 C 
BRANCH   7   9
ATOM      9  N   UNL     1      -1.665   2.672  -0.755  1.00  0.00    -0.334 N 
ATOM     10  C   UNL     1      -3.112   2.807  -0.858  1.00  0.00     0.332 C 
ATOM     11  H   UNL     1      -1.247   3.039  -1.610  1.00  0.00     0.348 HD
BRANCH   9  12
ATOM     12  C   UNL     1      -1.038   3.619   0.178  1.00  0.00     0.268 C 
BRANCH  12  13
ATOM     13  C   UNL     1      -1.365   3.606   1.685  1.00  0.00     0.123 C 
BRANCH  13  14
ATOM     14  C   UNL     1      -0.789   2.487   2.566  1.00  0.00     0.267 C 
BRANCH  14  15
ATOM     15  N   UNL     1       0.594   2.547   3.071  1.00  0.00    -0.340 N 
ATOM     16  C   UNL     1       0.994   1.204   3.527  1.00  0.00     0.332 C 
ATOM     17  C   UNL     1       1.594   3.044   2.136  1.00  0.00     0.332 C 
ATOM     18  H   UNL     1       0.573   3.231   3.827  1.00  0.00     0.347 HD
ENDBRANCH  14  15
ENDBRANCH  13  14
ENDBRANCH  12  13
ENDBRANCH   9  12
ENDBRANCH   7   9
ENDBRANCH   5   7
ENDBRANCH   1   5
BRANCH   3  19
ATOM     19  C   UNL     1       0.208  -1.614  -2.530  1.00  0.00     0.117 C 
BRANCH  19  20
ATOM     20  C   UNL     1       1.260  -1.645  -3.633  1.00  0.00     0.042 C 
BRANCH  20  21
ATOM     21  C   UNL     1       2.439  -2.566  -3.332  1.00  0.00     0.118 C 
BRANCH  21  22
ATOM     22  N   UNL     1       2.051  -3.969  -3.314  1.00  0.00    -0.352 N 
ATOM     23  C   UNL     1       2.327  -4.959  -4.225  1.00  0.00     0.251 C 
ATOM     24  H   UNL     1       1.513  -4.248  -2.538  1.00  0.00     0.163 HD
ATOM     25  O   UNL     1       1.716  -6.022  -4.171  1.00  0.00    -0.269 OA
BRANCH  23  26
ATOM     26  C   UNL     1       3.346  -4.737  -5.275  1.00  0.00     0.039 A 
ATOM     27  C   UNL     1       3.063  -5.128  -6.585  1.00  0.00     0.014 A 
ATOM     28  C   UNL     1       4.580  -4.158  -4.966  1.00  0.00     0.014 A 
ATOM     29  C   UNL     1       3.996  -4.881  -7.597  1.00  0.00     0.010 A 
ATOM     30  C   UNL     1       5.472  -3.840  -5.987  1.00  0.00     0.010 A 
ATOM     31  C   UNL     1       5.194  -4.206  -7.312  1.00  0.00    -0.014 A 
BRANCH  31  32
ATOM     32  C   UNL     1       6.161  -3.862  -8.387  1.00  0.00     0.031 A 
ATOM     33  C   UNL     1       7.555  -4.433  -8.369  1.00  0.00     0.074 A 
ATOM     34  C   UNL     1       5.811  -2.967  -9.333  1.00  0.00     0.049 A 
ATOM     35  N   UNL     1       8.547  -4.207  -9.190  1.00  0.00    -0.248 NA
ATOM     36  C   UNL     1       7.887  -5.357  -7.272  1.00  0.00     0.031 C 
ATOM     37  C   UNL     1       4.521  -2.278  -9.411  1.00  0.00     0.029 A 
ATOM     38  N   UNL     1       6.520  -2.460 -10.394  1.00  0.00    -0.354 N 
ATOM     39  C   UNL     1       9.627  -4.926  -8.691  1.00  0.00     0.074 A 
ATOM     40  C   UNL     1       9.178  -5.574  -7.479  1.00  0.00     0.031 C 
ATOM     41  C   UNL     1       4.529  -1.442 -10.462  1.00  0.00     0.029 A 
ATOM     42  C   UNL     1       5.832  -1.512 -11.116  1.00  0.00     0.049 A 
ATOM     43  H   UNL     1       7.435  -2.747 -10.617  1.00  0.00     0.167 HD
ATOM     44  C   UNL     1      10.871  -5.059  -9.210  1.00  0.00     0.034 A 
ATOM     45  C   UNL     1       6.209  -0.777 -12.181  1.00  0.00     0.034 A 
ATOM     46  C   UNL     1      11.298  -4.457 -10.444  1.00  0.00     0.049 A 
ATOM     47  C   UNL     1       7.581  -0.985 -12.764  1.00  0.00     0.074 A 
ATOM     48  C   UNL     1      12.504  -4.615 -11.104  1.00  0.00     0.029 A 
ATOM     49  N   UNL     1      10.540  -3.578 -11.200  1.00  0.00    -0.354 N 
ATOM     50  N   UNL     1       8.527  -1.805 -12.375  1.00  0.00    -0.248 NA
ATOM     51  C   UNL     1       7.924  -0.195 -13.955  1.00  0.00     0.031 C 
ATOM     52  C   UNL     1      12.482  -3.814 -12.250  1.00  0.00     0.029 A 
ATOM     53  C   UNL     1      11.254  -3.177 -12.316  1.00  0.00     0.049 A 
ATOM     54  H   UNL     1       9.627  -3.283 -10.977  1.00  0.00     0.167 HD
ATOM     55  C   UNL     1       9.561  -1.656 -13.292  1.00  0.00     0.074 A 
ATOM     56  C   UNL     1       9.115  -0.685 -14.270  1.00  0.00     0.031 C 
ATOM     57  C   UNL     1      10.777  -2.255 -13.313  1.00  0.00     0.034 A 
BRANCH  44  58
ATOM     58  C   UNL     1      11.850  -5.941  -8.480  1.00  0.00     0.023 A 
ATOM     59  C   UNL     1      11.681  -7.340  -8.513  1.00  0.00     0.012 A 
ATOM     60  C   UNL     1      12.979  -5.396  -7.837  1.00  0.00     0.148 A 
ATOM     61  C   UNL     1      12.604  -8.182  -7.896  1.00  0.00     0.002 A 
ATOM     62  C   UNL     1      13.918  -6.244  -7.262  1.00  0.00     0.091 A 
ATOM     63  F   UNL     1      13.112  -4.062  -7.801  1.00  0.00    -0.205 F 
ATOM     64  C   UNL     1      13.728  -7.636  -7.282  1.00  0.00     0.022 A 
BRANCH  62  65
ATOM     65  S   UNL     1      15.440  -5.646  -6.516  1.00  0.00     0.127 S 
ATOM     66  O   UNL     1      15.208  -5.936  -5.102  1.00  0.00    -0.237 OA
ATOM     67  O   UNL     1      16.448  -6.493  -7.154  1.00  0.00    -0.237 OA
ATOM     68  O   UNL     1      15.527  -4.233  -6.856  1.00  0.00    -0.744 OA
ENDBRANCH  62  65
ENDBRANCH  44  58
BRANCH  45  69
ATOM     69  C   UNL     1       5.252   0.179 -12.807  1.00  0.00     0.023 A 
ATOM     70  C   UNL     1       4.731  -0.102 -14.085  1.00  0.00     0.012 A 
ATOM     71  C   UNL     1       4.844   1.352 -12.143  1.00  0.00     0.148 A 
ATOM     72  C   UNL     1       3.851   0.785 -14.707  1.00  0.00     0.002 A 
ATOM     73  C   UNL     1       3.923   2.203 -12.744  1.00  0.00     0.091 A 
ATOM     74  F   UNL     1       5.361   1.612 -10.934  1.00  0.00    -0.205 F 
ATOM     75  C   UNL     1       3.440   1.932 -14.033  1.00  0.00     0.022 A 
BRANCH  73  76
ATOM     76  S   UNL     1       3.237   3.627 -11.889  1.00  0.00     0.127 S 
ATOM     77  O   UNL     1       3.942   4.731 -12.533  1.00  0.00    -0.237 OA
ATOM     78  O   UNL     1       1.815   3.526 -12.219  1.00  0.00    -0.237 OA
ATOM     79  O   UNL     1       3.538   3.413 -10.479  1.00  0.00    -0.744 OA
ENDBRANCH  73  76
ENDBRANCH  45  69
BRANCH  57  80
ATOM     80  C   UNL     1      11.707  -1.910 -14.446  1.00  0.00     0.023 A 
ATOM     81  C   UNL     1      12.334  -0.649 -14.477  1.00  0.00     0.012 A 
ATOM     82  C   UNL     1      12.017  -2.862 -15.438  1.00  0.00     0.148 A 
ATOM     83  C   UNL     1      13.230  -0.328 -15.496  1.00  0.00     0.002 A 
ATOM     84  C   UNL     1      12.947  -2.553 -16.422  1.00  0.00     0.091 A 
ATOM     85  F   UNL     1      11.396  -4.050 -15.401  1.00  0.00    -0.205 F 
ATOM     86  C   UNL     1      13.546  -1.283 -16.460  1.00  0.00     0.022 A 
BRANCH  84  87
ATOM     87  S   UNL     1      13.486  -3.752 -17.646  1.00  0.00     0.127 S 
ATOM     88  O   UNL     1      12.822  -3.265 -18.854  1.00  0.00    -0.237 OA
ATOM     89  O   UNL     1      14.939  -3.576 -17.636  1.00  0.00    -0.237 OA
ATOM     90  O   UNL     1      13.033  -5.049 -17.162  1.00  0.00    -0.744 OA
ENDBRANCH  84  87
ENDBRANCH  57  80
ENDBRANCH  31  32
ENDBRANCH  23  26
ENDBRANCH  21  22
ENDBRANCH  20  21
ENDBRANCH  19  20
ENDBRANCH   3  19
TORSDOF 19
