REMARK SMILES Cc1n[nH]c(CN(C)C(=O)N[C@](C)(C(=O)NCCCNC(=O)c2ccc(-c3c4nc(c(-c5cccc(S(=O)(=O)[O-])c5F)c5ccc([nH]5)c(-c5cccc(S(=O)(=O)[O-])c5F)c5nc(c(-c6cccc(S(=O)(=O)[O-])c6F)c6ccc3[nH]6)C=C5)C=C4)cc2)C(F)(F)F)n1
REMARK SMILES IDX 17 1 16 2 14 3 15 4 12 6 13 7 11 8 9 9 10 10 7 12 8 13 6 14
REMARK SMILES IDX 5 15 1 16 2 17 3 18 90 19 4 20 86 22 87 23 88 24 89 25 18 26
REMARK SMILES IDX 19 27 20 28 21 29 22 31 23 32 24 33 85 34 25 35 84 36 26 37
REMARK SMILES IDX 27 38 28 39 78 40 29 41 83 42 77 43 79 44 30 45 82 46 76 47
REMARK SMILES IDX 75 48 31 50 63 51 43 52 62 53 44 54 47 55 61 56 80 57 45 58
REMARK SMILES IDX 46 59 60 61 81 62 48 63 32 64 33 65 41 66 34 67 36 68 42 69
REMARK SMILES IDX 35 70 37 71 38 72 39 73 40 74 64 75 65 76 73 77 66 78 68 79
REMARK SMILES IDX 74 80 67 81 69 82 70 83 71 84 72 85 49 86 50 87 58 88 51 89
REMARK SMILES IDX 53 90 59 91 52 92 54 93 55 94 56 95 57 96
REMARK H PARENT 16 5 11 11 4 21 20 30 79 49 47 60
REMARK Flexibility Score: inf
ROOT
ATOM      1  C   UNL     1       4.857   3.293   7.342  1.00  0.00     0.117 C 
ENDROOT
BRANCH   1   2
ATOM      2  N   UNL     1       4.060   4.126   6.442  1.00  0.00    -0.354 N 
ATOM      3  C   UNL     1       2.739   4.078   6.066  1.00  0.00     0.255 C 
ATOM      4  O   UNL     1       2.320   5.045   5.429  1.00  0.00    -0.272 OA
ATOM      5  H   UNL     1       4.566   4.861   6.027  1.00  0.00     0.163 HD
BRANCH   3   6
ATOM      6  C   UNL     1       1.876   2.820   6.323  1.00  0.00     0.213 C 
ATOM      7  C   UNL     1       2.437   1.748   5.387  1.00  0.00     0.056 C 
BRANCH   6   8
ATOM      8  N   UNL     1       1.926   2.594   7.810  1.00  0.00    -0.316 N 
ATOM      9  C   UNL     1       1.951   1.671   8.770  1.00  0.00     0.318 C 
ATOM     10  O   UNL     1       1.938   2.131   9.920  1.00  0.00    -0.249 OA
ATOM     11  H   UNL     1       1.950   3.477   8.245  1.00  0.00     0.166 HD
BRANCH   9  12
ATOM     12  N   UNL     1       2.065   0.336   8.567  1.00  0.00    -0.320 N 
ATOM     13  C   UNL     1       1.752  -0.405   7.368  1.00  0.00     0.149 C 
BRANCH  12  14
ATOM     14  C   UNL     1       2.422  -0.479   9.729  1.00  0.00     0.197 C 
BRANCH  14  15
ATOM     15  C   UNL     1       3.795  -0.178  10.230  1.00  0.00     0.144 A 
ATOM     16  C   UNL     1       7.308   0.223  10.335  1.00  0.00     0.092 C 
ATOM     17  C   UNL     1       5.857   0.107  10.583  1.00  0.00     0.147 A 
ATOM     18  N   UNL     1       5.322   0.327  11.790  1.00  0.00    -0.159 NA
ATOM     19  N   UNL     1       4.955  -0.224   9.602  1.00  0.00    -0.215 NA
ATOM     20  N   UNL     1       4.014   0.183  11.529  1.00  0.00    -0.262 N 
ATOM     21  H   UNL     1       3.299   0.321  12.193  1.00  0.00     0.192 HD
ENDBRANCH  14  15
ENDBRANCH  12  14
ENDBRANCH   9  12
ENDBRANCH   6   8
BRANCH   6  22
ATOM     22  C   UNL     1       0.426   3.143   5.904  1.00  0.00     0.420 C 
ATOM     23  F   UNL     1       0.277   3.394   4.590  1.00  0.00    -0.168 F 
ATOM     24  F   UNL     1      -0.378   2.075   6.182  1.00  0.00    -0.168 F 
ATOM     25  F   UNL     1      -0.087   4.182   6.607  1.00  0.00    -0.168 F 
ENDBRANCH   6  22
ENDBRANCH   3   6
ENDBRANCH   1   2
BRANCH   1  26
ATOM     26  C   UNL     1       5.756   2.262   6.660  1.00  0.00     0.042 C 
BRANCH  26  27
ATOM     27  C   UNL     1       6.936   2.889   5.949  1.00  0.00     0.118 C 
BRANCH  27  28
ATOM     28  N   UNL     1       7.898   3.496   6.866  1.00  0.00    -0.352 N 
ATOM     29  C   UNL     1       9.131   4.046   6.564  1.00  0.00     0.251 C 
ATOM     30  H   UNL     1       7.637   3.516   7.815  1.00  0.00     0.163 HD
ATOM     31  O   UNL     1       9.943   4.271   7.442  1.00  0.00    -0.269 OA
BRANCH  29  32
ATOM     32  C   UNL     1       9.447   4.323   5.148  1.00  0.00     0.039 A 
ATOM     33  C   UNL     1      10.705   4.006   4.630  1.00  0.00     0.014 A 
ATOM     34  C   UNL     1       8.453   4.847   4.327  1.00  0.00     0.014 A 
ATOM     35  C   UNL     1      10.922   4.141   3.261  1.00  0.00     0.010 A 
ATOM     36  C   UNL     1       8.615   4.827   2.965  1.00  0.00     0.010 A 
ATOM     37  C   UNL     1       9.862   4.527   2.426  1.00  0.00    -0.014 A 
BRANCH  37  38
ATOM     38  C   UNL     1      10.021   4.515   0.975  1.00  0.00     0.031 A 
ATOM     39  C   UNL     1      10.504   3.228   0.400  1.00  0.00     0.074 A 
ATOM     40  C   UNL     1       9.561   5.503   0.176  1.00  0.00     0.049 A 
ATOM     41  N   UNL     1      11.616   3.008  -0.222  1.00  0.00    -0.248 NA
ATOM     42  C   UNL     1       9.708   2.015   0.645  1.00  0.00     0.031 C 
ATOM     43  C   UNL     1       8.769   6.681   0.559  1.00  0.00     0.029 A 
ATOM     44  N   UNL     1       9.569   5.579  -1.183  1.00  0.00    -0.354 N 
ATOM     45  C   UNL     1      11.555   1.682  -0.648  1.00  0.00     0.074 A 
ATOM     46  C   UNL     1      10.460   1.077   0.066  1.00  0.00     0.031 C 
ATOM     47  C   UNL     1       8.150   7.179  -0.532  1.00  0.00     0.029 A 
ATOM     48  C   UNL     1       8.649   6.485  -1.701  1.00  0.00     0.049 A 
ATOM     49  H   UNL     1      10.171   5.042  -1.747  1.00  0.00     0.167 HD
ATOM     50  C   UNL     1      12.253   1.246  -1.734  1.00  0.00     0.034 A 
ATOM     51  C   UNL     1       8.289   6.624  -2.998  1.00  0.00     0.034 A 
ATOM     52  C   UNL     1      13.274   2.183  -2.123  1.00  0.00     0.049 A 
ATOM     53  C   UNL     1       9.364   6.025  -3.817  1.00  0.00     0.074 A 
ATOM     54  C   UNL     1      14.367   2.754  -1.504  1.00  0.00     0.029 A 
ATOM     55  N   UNL     1      13.013   2.964  -3.222  1.00  0.00    -0.354 N 
ATOM     56  N   UNL     1      10.571   6.510  -3.889  1.00  0.00    -0.248 NA
ATOM     57  C   UNL     1       9.215   4.645  -4.244  1.00  0.00     0.031 C 
ATOM     58  C   UNL     1      14.392   4.099  -1.976  1.00  0.00     0.029 A 
ATOM     59  C   UNL     1      13.354   4.250  -2.899  1.00  0.00     0.049 A 
ATOM     60  H   UNL     1      12.649   2.656  -4.083  1.00  0.00     0.167 HD
ATOM     61  C   UNL     1      11.390   5.390  -3.920  1.00  0.00     0.074 A 
ATOM     62  C   UNL     1      10.501   4.284  -4.269  1.00  0.00     0.031 C 
ATOM     63  C   UNL     1      12.643   5.417  -3.376  1.00  0.00     0.034 A 
BRANCH  50  64
ATOM     64  C   UNL     1      11.801   0.147  -2.667  1.00  0.00     0.023 A 
ATOM     65  C   UNL     1      12.730  -0.332  -3.618  1.00  0.00     0.012 A 
ATOM     66  C   UNL     1      10.455  -0.249  -2.834  1.00  0.00     0.148 A 
ATOM     67  C   UNL     1      12.333  -1.132  -4.696  1.00  0.00     0.002 A 
ATOM     68  C   UNL     1      10.081  -1.118  -3.853  1.00  0.00     0.091 A 
ATOM     69  F   UNL     1       9.495   0.319  -2.098  1.00  0.00    -0.205 F 
ATOM     70  C   UNL     1      11.010  -1.537  -4.807  1.00  0.00     0.022 A 
BRANCH  68  71
ATOM     71  S   UNL     1       8.396  -1.728  -3.990  1.00  0.00     0.127 S 
ATOM     72  O   UNL     1       7.886  -0.932  -5.101  1.00  0.00    -0.237 OA
ATOM     73  O   UNL     1       8.612  -3.144  -4.287  1.00  0.00    -0.237 OA
ATOM     74  O   UNL     1       7.792  -1.481  -2.686  1.00  0.00    -0.744 OA
ENDBRANCH  68  71
ENDBRANCH  50  64
BRANCH  51  75
ATOM     75  C   UNL     1       6.993   7.035  -3.579  1.00  0.00     0.023 A 
ATOM     76  C   UNL     1       6.948   7.533  -4.896  1.00  0.00     0.012 A 
ATOM     77  C   UNL     1       5.776   6.679  -2.956  1.00  0.00     0.148 A 
ATOM     78  C   UNL     1       5.734   7.635  -5.585  1.00  0.00     0.002 A 
ATOM     79  C   UNL     1       4.571   6.786  -3.644  1.00  0.00     0.091 A 
ATOM     80  F   UNL     1       5.812   6.148  -1.726  1.00  0.00    -0.205 F 
ATOM     81  C   UNL     1       4.548   7.252  -4.965  1.00  0.00     0.022 A 
BRANCH  79  82
ATOM     82  S   UNL     1       3.004   6.281  -2.921  1.00  0.00     0.127 S 
ATOM     83  O   UNL     1       2.148   7.428  -3.224  1.00  0.00    -0.237 OA
ATOM     84  O   UNL     1       2.698   5.071  -3.679  1.00  0.00    -0.237 OA
ATOM     85  O   UNL     1       3.268   6.088  -1.500  1.00  0.00    -0.744 OA
ENDBRANCH  79  82
ENDBRANCH  51  75
BRANCH  63  86
ATOM     86  C   UNL     1      13.222   6.756  -2.983  1.00  0.00     0.023 A 
ATOM     87  C   UNL     1      12.632   7.574  -1.996  1.00  0.00     0.012 A 
ATOM     88  C   UNL     1      14.480   7.116  -3.494  1.00  0.00     0.148 A 
ATOM     89  C   UNL     1      13.271   8.735  -1.548  1.00  0.00     0.002 A 
ATOM     90  C   UNL     1      15.134   8.243  -3.012  1.00  0.00     0.091 A 
ATOM     91  F   UNL     1      15.033   6.328  -4.429  1.00  0.00    -0.205 F 
ATOM     92  C   UNL     1      14.529   9.062  -2.046  1.00  0.00     0.022 A 
BRANCH  90  93
ATOM     93  S   UNL     1      16.809   8.642  -3.518  1.00  0.00     0.127 S 
ATOM     94  O   UNL     1      16.593   9.745  -4.451  1.00  0.00    -0.237 OA
ATOM     95  O   UNL     1      17.440   9.025  -2.254  1.00  0.00    -0.237 OA
ATOM     96  O   UNL     1      17.350   7.420  -4.103  1.00  0.00    -0.744 OA
ENDBRANCH  90  93
ENDBRANCH  63  86
ENDBRANCH  37  38
ENDBRANCH  29  32
ENDBRANCH  27  28
ENDBRANCH  26  27
ENDBRANCH   1  26
TORSDOF 18
