REMARK SMILES O=C(C[C@]12CSc3[nH]c(=O)sc3[C@H]1c1cc(Cl)ccc1OC2=O)NCCCNC(=O)c1ccc(-c2c3nc(c(-c4cccc(S(=O)(=O)[O-])c4F)c4ccc([nH]4)c(-c4cccc(S(=O)(=O)[O-])c4F)c4nc(c(-c5cccc(S(=O)(=O)[O-])c5F)c5ccc2[nH]5)C=C4)C=C3)cc1
REMARK SMILES IDX 27 1 26 2 25 3 24 4 1 5 2 6 3 8 4 9 5 10 13 11 22 12 6 13
REMARK SMILES IDX 12 14 14 15 21 16 23 17 7 18 11 19 15 20 20 21 8 22 9 23
REMARK SMILES IDX 16 24 19 25 10 27 17 28 18 29 28 30 29 31 30 33 31 34 32 35
REMARK SMILES IDX 93 36 33 37 92 38 34 39 35 40 36 41 86 42 37 43 91 44 85 45
REMARK SMILES IDX 87 46 38 47 90 48 84 49 83 50 39 52 71 53 51 54 70 55 52 56
REMARK SMILES IDX 55 57 69 58 88 59 53 60 54 61 68 63 89 64 56 65 40 66 41 67
REMARK SMILES IDX 49 68 42 69 44 70 50 71 43 72 45 73 46 74 47 75 48 76 72 77
REMARK SMILES IDX 73 78 81 79 74 80 76 81 82 82 75 83 77 84 78 85 79 86 80 87
REMARK SMILES IDX 57 88 58 89 66 90 59 91 61 92 67 93 60 94 62 95 63 96 64 97
REMARK SMILES IDX 65 98
REMARK H PARENT 24 7 8 26 28 32 87 51 55 62
REMARK Flexibility Score: inf
ROOT
ATOM      1  C   UNL     1       4.594   3.284   2.100  1.00  0.00     0.118 C 
ENDROOT
BRANCH   1   2
ATOM      2  C   UNL     1       3.081   3.206   1.923  1.00  0.00     0.042 C 
BRANCH   2   3
ATOM      3  C   UNL     1       2.664   2.332   0.754  1.00  0.00     0.117 C 
BRANCH   3   4
ATOM      4  N   UNL     1       3.418   1.079   0.652  1.00  0.00    -0.356 N 
ATOM      5  O   UNL     1       2.226  -0.192   2.108  1.00  0.00    -0.275 OA
ATOM      6  C   UNL     1       3.019  -0.133   1.172  1.00  0.00     0.221 C 
ATOM      7  H   UNL     1       4.278   1.105   0.174  1.00  0.00     0.163 HD
BRANCH   6   8
ATOM      8  C   UNL     1       3.611  -1.452   0.549  1.00  0.00     0.120 C 
BRANCH   8   9
ATOM      9  C   UNL     1       3.313  -2.136  -0.921  1.00  0.00     0.098 C 
ATOM     10  C   UNL     1       4.443  -3.212  -0.769  1.00  0.00     0.097 C 
ATOM     11  C   UNL     1       3.224  -0.766  -1.579  1.00  0.00     0.085 C 
ATOM     12  C   UNL     1       3.330  -2.559  -2.597  1.00  0.00     0.319 C 
ATOM     13  S   UNL     1       6.123  -2.584  -1.018  1.00  0.00    -0.106 SA
ATOM     14  C   UNL     1       4.683  -0.300  -1.890  1.00  0.00     0.049 A 
ATOM     15  C   UNL     1       1.614  -0.927  -1.735  1.00  0.00     0.006 A 
ATOM     16  O   UNL     1       2.097  -2.724  -3.191  1.00  0.00    -0.426 OA
ATOM     17  O   UNL     1       4.309  -2.711  -3.326  1.00  0.00    -0.251 OA
ATOM     18  C   UNL     1       5.831  -0.972  -1.557  1.00  0.00     0.090 A 
ATOM     19  S   UNL     1       5.142   1.404  -2.154  1.00  0.00    -0.077 S 
ATOM     20  C   UNL     1       0.717  -0.575  -0.671  1.00  0.00     0.028 A 
ATOM     21  C   UNL     1       1.171  -2.038  -2.453  1.00  0.00     0.134 A 
ATOM     22  N   UNL     1       6.970  -0.231  -1.521  1.00  0.00    -0.307 N 
ATOM     23  C   UNL     1       6.865   1.102  -1.803  1.00  0.00     0.305 A 
ATOM     24  C   UNL     1      -0.435  -1.339  -0.353  1.00  0.00     0.041 A 
ATOM     25  C   UNL     1      -0.048  -2.709  -2.258  1.00  0.00     0.049 A 
ATOM     26  H   UNL     1       7.838  -0.639  -1.300  1.00  0.00     0.171 HD
ATOM     27  O   UNL     1       7.753   1.907  -1.777  1.00  0.00    -0.257 OA
ATOM     28  Cl  UNL     1      -1.287  -1.078   1.126  1.00  0.00    -0.084 Cl
ATOM     29  C   UNL     1      -0.833  -2.389  -1.164  1.00  0.00     0.024 A 
ENDBRANCH   8   9
ENDBRANCH   6   8
ENDBRANCH   3   4
ENDBRANCH   2   3
ENDBRANCH   1   2
BRANCH   1  30
ATOM     30  N   UNL     1       5.299   3.896   0.990  1.00  0.00    -0.352 N 
ATOM     31  C   UNL     1       5.595   5.185   0.641  1.00  0.00     0.251 C 
ATOM     32  H   UNL     1       5.641   3.237   0.344  1.00  0.00     0.163 HD
ATOM     33  O   UNL     1       6.344   5.325  -0.328  1.00  0.00    -0.269 OA
BRANCH  31  34
ATOM     34  C   UNL     1       5.017   6.387   1.288  1.00  0.00     0.039 A 
ATOM     35  C   UNL     1       4.283   6.383   2.475  1.00  0.00     0.014 A 
ATOM     36  C   UNL     1       5.187   7.600   0.598  1.00  0.00     0.014 A 
ATOM     37  C   UNL     1       3.612   7.519   2.890  1.00  0.00     0.010 A 
ATOM     38  C   UNL     1       4.551   8.753   1.029  1.00  0.00     0.010 A 
ATOM     39  C   UNL     1       3.714   8.685   2.140  1.00  0.00    -0.014 A 
BRANCH  39  40
ATOM     40  C   UNL     1       2.984   9.848   2.616  1.00  0.00     0.031 A 
ATOM     41  C   UNL     1       3.403  10.351   3.957  1.00  0.00     0.074 A 
ATOM     42  C   UNL     1       2.084  10.473   1.834  1.00  0.00     0.049 A 
ATOM     43  N   UNL     1       2.673  10.531   5.011  1.00  0.00    -0.248 NA
ATOM     44  C   UNL     1       4.843  10.562   4.182  1.00  0.00     0.031 C 
ATOM     45  C   UNL     1       1.777  10.209   0.426  1.00  0.00     0.029 A 
ATOM     46  N   UNL     1       1.376  11.602   2.098  1.00  0.00    -0.354 N 
ATOM     47  C   UNL     1       3.530  11.054   5.978  1.00  0.00     0.074 A 
ATOM     48  C   UNL     1       4.869  10.921   5.464  1.00  0.00     0.031 C 
ATOM     49  C   UNL     1       1.189  11.302  -0.104  1.00  0.00     0.029 A 
ATOM     50  C   UNL     1       0.981  12.279   0.948  1.00  0.00     0.049 A 
ATOM     51  H   UNL     1       1.163  11.909   3.009  1.00  0.00     0.167 HD
ATOM     52  C   UNL     1       3.090  11.741   7.067  1.00  0.00     0.034 A 
ATOM     53  C   UNL     1       0.633  13.587   0.875  1.00  0.00     0.034 A 
ATOM     54  C   UNL     1       1.689  11.573   7.302  1.00  0.00     0.049 A 
ATOM     55  C   UNL     1       0.272  14.012   2.252  1.00  0.00     0.074 A 
ATOM     56  C   UNL     1       0.882  10.498   7.614  1.00  0.00     0.029 A 
ATOM     57  N   UNL     1       0.851  12.563   6.849  1.00  0.00    -0.354 N 
ATOM     58  N   UNL     1      -0.765  13.555   2.898  1.00  0.00    -0.248 NA
ATOM     59  C   UNL     1       1.306  14.618   3.078  1.00  0.00     0.031 C 
ATOM     60  C   UNL     1      -0.317  10.720   6.880  1.00  0.00     0.029 A 
ATOM     61  C   UNL     1      -0.186  11.937   6.207  1.00  0.00     0.049 A 
ATOM     62  H   UNL     1       0.971  13.533   6.963  1.00  0.00     0.167 HD
ATOM     63  C   UNL     1      -0.329  13.419   4.209  1.00  0.00     0.074 A 
ATOM     64  C   UNL     1       0.913  14.187   4.281  1.00  0.00     0.031 C 
ATOM     65  C   UNL     1      -0.846  12.462   5.033  1.00  0.00     0.034 A 
BRANCH  52  66
ATOM     66  C   UNL     1       3.887  12.813   7.749  1.00  0.00     0.023 A 
ATOM     67  C   UNL     1       3.572  13.162   9.077  1.00  0.00     0.012 A 
ATOM     68  C   UNL     1       4.775  13.656   7.043  1.00  0.00     0.148 A 
ATOM     69  C   UNL     1       4.127  14.298   9.678  1.00  0.00     0.002 A 
ATOM     70  C   UNL     1       5.378  14.740   7.665  1.00  0.00     0.091 A 
ATOM     71  F   UNL     1       4.941  13.477   5.727  1.00  0.00    -0.205 F 
ATOM     72  C   UNL     1       5.043  15.078   8.979  1.00  0.00     0.022 A 
BRANCH  70  73
ATOM     73  S   UNL     1       6.594  15.748   6.813  1.00  0.00     0.127 S 
ATOM     74  O   UNL     1       5.821  16.950   6.513  1.00  0.00    -0.237 OA
ATOM     75  O   UNL     1       7.623  15.912   7.841  1.00  0.00    -0.237 OA
ATOM     76  O   UNL     1       7.018  14.953   5.668  1.00  0.00    -0.744 OA
ENDBRANCH  70  73
ENDBRANCH  52  66
BRANCH  53  77
ATOM     77  C   UNL     1       0.837  14.556  -0.233  1.00  0.00     0.023 A 
ATOM     78  C   UNL     1       0.160  15.792  -0.199  1.00  0.00     0.012 A 
ATOM     79  C   UNL     1       1.864  14.397  -1.193  1.00  0.00     0.148 A 
ATOM     80  C   UNL     1       0.514  16.838  -1.061  1.00  0.00     0.002 A 
ATOM     81  C   UNL     1       2.195  15.431  -2.065  1.00  0.00     0.091 A 
ATOM     82  F   UNL     1       2.590  13.272  -1.195  1.00  0.00    -0.205 F 
ATOM     83  C   UNL     1       1.532  16.660  -1.992  1.00  0.00     0.022 A 
BRANCH  81  84
ATOM     84  S   UNL     1       3.498  15.255  -3.294  1.00  0.00     0.127 S 
ATOM     85  O   UNL     1       2.907  15.902  -4.466  1.00  0.00    -0.237 OA
ATOM     86  O   UNL     1       4.598  15.990  -2.678  1.00  0.00    -0.237 OA
ATOM     87  O   UNL     1       3.698  13.819  -3.448  1.00  0.00    -0.744 OA
ENDBRANCH  81  84
ENDBRANCH  53  77
BRANCH  65  88
ATOM     88  C   UNL     1      -2.030  11.665   4.545  1.00  0.00     0.023 A 
ATOM     89  C   UNL     1      -1.909  10.749   3.478  1.00  0.00     0.012 A 
ATOM     90  C   UNL     1      -3.199  11.655   5.321  1.00  0.00     0.148 A 
ATOM     91  C   UNL     1      -2.933   9.846   3.188  1.00  0.00     0.002 A 
ATOM     92  C   UNL     1      -4.199  10.727   5.056  1.00  0.00     0.091 A 
ATOM     93  F   UNL     1      -3.286  12.519   6.344  1.00  0.00    -0.205 F 
ATOM     94  C   UNL     1      -4.072   9.824   3.987  1.00  0.00     0.022 A 
BRANCH  92  95
ATOM     95  S   UNL     1      -5.634  10.550   6.119  1.00  0.00     0.127 S 
ATOM     96  O   UNL     1      -6.713  11.028   5.258  1.00  0.00    -0.237 OA
ATOM     97  O   UNL     1      -5.651   9.110   6.380  1.00  0.00    -0.237 OA
ATOM     98  O   UNL     1      -5.369  11.367   7.297  1.00  0.00    -0.744 OA
ENDBRANCH  92  95
ENDBRANCH  65  88
ENDBRANCH  39  40
ENDBRANCH  31  34
ENDBRANCH   1  30
TORSDOF 14
