REMARK SMILES CCN1C(=O)C[C@@H](C(=O)NCCCNC(=O)c2ccc(-c3c4nc(c(-c5cccc(S(=O)(=O)[O-])c5F)c5ccc([nH]5)c(-c5cccc(S(=O)(=O)[O-])c5F)c5nc(c(-c6cccc(S(=O)(=O)[O-])c6F)c6ccc3[nH]6)C=C5)C=C4)cc2)[C@H]1c1ccccc1C1CC1
REMARK SMILES IDX 12 1 11 2 10 3 8 4 9 5 7 7 3 8 4 9 80 10 5 11 6 12 2 13 1 14
REMARK SMILES IDX 81 15 82 16 86 17 83 18 85 19 84 20 87 21 88 22 89 23 13 24
REMARK SMILES IDX 14 25 15 26 16 28 17 29 18 30 79 31 19 32 78 33 20 34 21 35
REMARK SMILES IDX 22 36 72 37 23 38 77 39 71 40 73 41 24 42 76 43 70 44 69 45
REMARK SMILES IDX 25 47 57 48 37 49 56 50 38 51 41 52 55 53 74 54 39 55 40 56
REMARK SMILES IDX 54 58 75 59 42 60 26 61 27 62 35 63 28 64 30 65 36 66 29 67
REMARK SMILES IDX 31 68 32 69 33 70 34 71 58 72 59 73 67 74 60 75 62 76 68 77
REMARK SMILES IDX 61 78 63 79 64 80 65 81 66 82 43 83 44 84 52 85 45 86 47 87
REMARK SMILES IDX 53 88 46 89 48 90 49 91 50 92 51 93
REMARK H PARENT 10 6 14 27 73 46 41 57
REMARK Flexibility Score: inf
ROOT
ATOM      1  C   UNL     1      -1.327   6.894  -4.298  1.00  0.00     0.042 C 
ENDROOT
BRANCH   1   2
ATOM      2  C   UNL     1      -0.788   5.622  -3.685  1.00  0.00     0.117 C 
BRANCH   2   3
ATOM      3  N   UNL     1      -1.038   4.408  -4.439  1.00  0.00    -0.356 N 
ATOM      4  C   UNL     1      -0.454   3.185  -4.258  1.00  0.00     0.226 C 
ATOM      5  O   UNL     1      -0.988   2.207  -4.784  1.00  0.00    -0.275 OA
ATOM      6  H   UNL     1      -1.704   4.472  -5.161  1.00  0.00     0.163 HD
BRANCH   4   7
ATOM      7  C   UNL     1       0.843   3.084  -3.465  1.00  0.00     0.115 C 
ATOM      8  N   UNL     1       0.833   1.538  -1.656  1.00  0.00    -0.335 N 
ATOM      9  C   UNL     1       1.319   0.835  -2.748  1.00  0.00     0.223 C 
ATOM     10  C   UNL     1       0.749   2.966  -1.934  1.00  0.00     0.128 C 
ATOM     11  O   UNL     1       1.570  -0.357  -2.809  1.00  0.00    -0.275 OA
ATOM     12  C   UNL     1       1.612   1.815  -3.858  1.00  0.00     0.116 C 
BRANCH   8  13
ATOM     13  C   UNL     1       0.549   1.008  -0.323  1.00  0.00     0.117 C 
ATOM     14  C   UNL     1       1.170  -0.330   0.031  1.00  0.00     0.027 C 
ENDBRANCH   8  13
BRANCH  10  15
ATOM     15  C   UNL     1      -0.373   3.681  -1.198  1.00  0.00    -0.021 A 
ATOM     16  C   UNL     1      -1.685   3.155  -1.385  1.00  0.00     0.006 A 
ATOM     17  C   UNL     1      -0.196   4.845  -0.394  1.00  0.00    -0.040 A 
ATOM     18  C   UNL     1      -2.815   3.768  -0.855  1.00  0.00     0.000 A 
ATOM     19  C   UNL     1      -1.388   5.433   0.117  1.00  0.00     0.004 A 
ATOM     20  C   UNL     1      -2.667   4.922  -0.113  1.00  0.00     0.000 A 
BRANCH  17  21
ATOM     21  C   UNL     1       1.085   5.602  -0.030  1.00  0.00     0.019 C 
ATOM     22  C   UNL     1       2.442   4.994   0.187  1.00  0.00     0.009 C 
ATOM     23  C   UNL     1       2.192   5.875  -1.011  1.00  0.00     0.009 C 
ENDBRANCH  17  21
ENDBRANCH  10  15
ENDBRANCH   4   7
ENDBRANCH   2   3
ENDBRANCH   1   2
BRANCH   1  24
ATOM     24  C   UNL     1      -2.834   6.897  -4.511  1.00  0.00     0.118 C 
BRANCH  24  25
ATOM     25  N   UNL     1      -3.629   6.705  -3.297  1.00  0.00    -0.352 N 
ATOM     26  C   UNL     1      -4.572   7.519  -2.704  1.00  0.00     0.251 C 
ATOM     27  H   UNL     1      -3.463   5.856  -2.826  1.00  0.00     0.163 HD
ATOM     28  O   UNL     1      -5.083   7.193  -1.636  1.00  0.00    -0.269 OA
BRANCH  26  29
ATOM     29  C   UNL     1      -4.921   8.813  -3.330  1.00  0.00     0.039 A 
ATOM     30  C   UNL     1      -4.971   9.963  -2.538  1.00  0.00     0.014 A 
ATOM     31  C   UNL     1      -5.108   8.908  -4.707  1.00  0.00     0.014 A 
ATOM     32  C   UNL     1      -5.064  11.217  -3.148  1.00  0.00     0.010 A 
ATOM     33  C   UNL     1      -5.064  10.154  -5.317  1.00  0.00     0.010 A 
ATOM     34  C   UNL     1      -5.031  11.327  -4.547  1.00  0.00    -0.014 A 
BRANCH  34  35
ATOM     35  C   UNL     1      -4.915  12.642  -5.235  1.00  0.00     0.031 A 
ATOM     36  C   UNL     1      -5.931  13.042  -6.274  1.00  0.00     0.074 A 
ATOM     37  C   UNL     1      -3.823  13.409  -5.030  1.00  0.00     0.049 A 
ATOM     38  N   UNL     1      -5.932  14.083  -7.066  1.00  0.00    -0.248 NA
ATOM     39  C   UNL     1      -7.075  12.136  -6.481  1.00  0.00     0.031 C 
ATOM     40  C   UNL     1      -2.712  13.086  -4.128  1.00  0.00     0.029 A 
ATOM     41  N   UNL     1      -3.444  14.604  -5.595  1.00  0.00    -0.354 N 
ATOM     42  C   UNL     1      -7.032  13.925  -7.900  1.00  0.00     0.074 A 
ATOM     43  C   UNL     1      -7.664  12.677  -7.538  1.00  0.00     0.031 C 
ATOM     44  C   UNL     1      -1.785  14.055  -4.200  1.00  0.00     0.029 A 
ATOM     45  C   UNL     1      -2.207  15.047  -5.181  1.00  0.00     0.049 A 
ATOM     46  H   UNL     1      -4.005  15.097  -6.237  1.00  0.00     0.167 HD
ATOM     47  C   UNL     1      -7.490  14.755  -8.864  1.00  0.00     0.034 A 
ATOM     48  C   UNL     1      -1.483  16.118  -5.563  1.00  0.00     0.034 A 
ATOM     49  C   UNL     1      -6.903  16.029  -9.172  1.00  0.00     0.049 A 
ATOM     50  C   UNL     1      -2.056  17.057  -6.592  1.00  0.00     0.074 A 
ATOM     51  C   UNL     1      -7.377  17.006 -10.030  1.00  0.00     0.029 A 
ATOM     52  N   UNL     1      -5.709  16.497  -8.650  1.00  0.00    -0.354 N 
ATOM     53  N   UNL     1      -3.203  16.988  -7.222  1.00  0.00    -0.248 NA
ATOM     54  C   UNL     1      -1.251  18.237  -6.940  1.00  0.00     0.031 C 
ATOM     55  C   UNL     1      -6.447  18.049 -10.057  1.00  0.00     0.029 A 
ATOM     56  C   UNL     1      -5.415  17.738  -9.187  1.00  0.00     0.049 A 
ATOM     57  H   UNL     1      -5.152  16.019  -7.994  1.00  0.00     0.167 HD
ATOM     58  C   UNL     1      -3.271  18.129  -8.014  1.00  0.00     0.074 A 
ATOM     59  C   UNL     1      -2.063  18.886  -7.762  1.00  0.00     0.031 C 
ATOM     60  C   UNL     1      -4.237  18.506  -8.886  1.00  0.00     0.034 A 
BRANCH  47  61
ATOM     61  C   UNL     1      -8.717  14.346  -9.635  1.00  0.00     0.023 A 
ATOM     62  C   UNL     1      -9.980  14.371  -9.011  1.00  0.00     0.012 A 
ATOM     63  C   UNL     1      -8.627  14.035 -11.006  1.00  0.00     0.148 A 
ATOM     64  C   UNL     1     -11.133  14.070  -9.734  1.00  0.00     0.002 A 
ATOM     65  C   UNL     1      -9.785  13.783 -11.731  1.00  0.00     0.091 A 
ATOM     66  F   UNL     1      -7.413  13.997 -11.574  1.00  0.00    -0.205 F 
ATOM     67  C   UNL     1     -11.037  13.790 -11.095  1.00  0.00     0.022 A 
BRANCH  65  68
ATOM     68  S   UNL     1      -9.778  13.499 -13.504  1.00  0.00     0.127 S 
ATOM     69  O   UNL     1     -10.221  12.107 -13.580  1.00  0.00    -0.237 OA
ATOM     70  O   UNL     1     -10.759  14.477 -13.973  1.00  0.00    -0.237 OA
ATOM     71  O   UNL     1      -8.413  13.740 -13.948  1.00  0.00    -0.744 OA
ENDBRANCH  65  68
ENDBRANCH  47  61
BRANCH  48  72
ATOM     72  C   UNL     1      -0.148  16.389  -4.951  1.00  0.00     0.023 A 
ATOM     73  C   UNL     1       0.022  17.519  -4.127  1.00  0.00     0.012 A 
ATOM     74  C   UNL     1       0.953  15.544  -5.188  1.00  0.00     0.148 A 
ATOM     75  C   UNL     1       1.273  17.829  -3.591  1.00  0.00     0.002 A 
ATOM     76  C   UNL     1       2.182  15.824  -4.601  1.00  0.00     0.091 A 
ATOM     77  F   UNL     1       0.779  14.480  -5.985  1.00  0.00    -0.205 F 
ATOM     78  C   UNL     1       2.350  16.978  -3.821  1.00  0.00     0.022 A 
BRANCH  76  79
ATOM     79  S   UNL     1       3.581  14.705  -4.730  1.00  0.00     0.127 S 
ATOM     80  O   UNL     1       4.444  15.412  -5.672  1.00  0.00    -0.237 OA
ATOM     81  O   UNL     1       4.072  14.669  -3.352  1.00  0.00    -0.237 OA
ATOM     82  O   UNL     1       3.027  13.441  -5.198  1.00  0.00    -0.744 OA
ENDBRANCH  76  79
ENDBRANCH  48  72
BRANCH  60  83
ATOM     83  C   UNL     1      -4.056  19.814  -9.611  1.00  0.00     0.023 A 
ATOM     84  C   UNL     1      -3.088  19.924 -10.629  1.00  0.00     0.012 A 
ATOM     85  C   UNL     1      -4.903  20.905  -9.338  1.00  0.00     0.148 A 
ATOM     86  C   UNL     1      -2.945  21.113 -11.342  1.00  0.00     0.002 A 
ATOM     87  C   UNL     1      -4.791  22.068 -10.090  1.00  0.00     0.091 A 
ATOM     88  F   UNL     1      -5.807  20.783  -8.356  1.00  0.00    -0.205 F 
ATOM     89  C   UNL     1      -3.803  22.179 -11.082  1.00  0.00     0.022 A 
BRANCH  87  90
ATOM     90  S   UNL     1      -5.917  23.454  -9.896  1.00  0.00     0.127 S 
ATOM     91  O   UNL     1      -5.044  24.465  -9.300  1.00  0.00    -0.237 OA
ATOM     92  O   UNL     1      -6.312  23.726 -11.278  1.00  0.00    -0.237 OA
ATOM     93  O   UNL     1      -6.996  22.980  -9.040  1.00  0.00    -0.744 OA
ENDBRANCH  87  90
ENDBRANCH  60  83
ENDBRANCH  34  35
ENDBRANCH  26  29
ENDBRANCH  24  25
ENDBRANCH   1  24
TORSDOF 16
