REMARK SMILES O=C(CCN/C(=[NH+]\S(=O)(=O)c1ccccc1)c1ccccc1)NCCCNC(=O)c1ccc(-c2c3nc(c(-c4cccc(S(=O)(=O)[O-])c4F)c4ccc([nH]4)c(-c4cccc(S(=O)(=O)[O-])c4F)c4nc(c(-c5cccc(S(=O)(=O)[O-])c5F)c5ccc2[nH]5)C=C4)C=C3)cc1
REMARK SMILES IDX 24 1 23 2 1 3 2 4 3 6 4 7 5 8 6 9 7 11 17 13 18 14 22 15
REMARK SMILES IDX 19 16 21 17 20 18 8 19 9 20 10 21 11 22 12 23 16 24 13 25
REMARK SMILES IDX 15 26 14 27 25 28 26 29 27 30 28 31 29 33 30 34 31 35 92 36
REMARK SMILES IDX 32 37 91 38 33 39 34 40 35 41 85 42 36 43 90 44 84 45 86 46
REMARK SMILES IDX 37 47 89 48 83 49 82 50 38 52 70 53 50 54 69 55 51 56 54 57
REMARK SMILES IDX 68 58 87 59 52 60 53 61 67 63 88 64 55 65 39 66 40 67 48 68
REMARK SMILES IDX 41 69 43 70 49 71 42 72 44 73 45 74 46 75 47 76 71 77 72 78
REMARK SMILES IDX 80 79 73 80 75 81 81 82 74 83 76 84 77 85 78 86 79 87 56 88
REMARK SMILES IDX 57 89 65 90 58 91 60 92 66 93 59 94 61 95 62 96 63 97 64 98
REMARK H PARENT 23 5 5 10 7 12 27 32 86 51 54 62
REMARK Flexibility Score: inf
ROOT
ATOM      1  C   UNL     1       2.112  -0.165   2.423  1.00  0.00     0.117 C 
ENDROOT
BRANCH   1   2
ATOM      2  N   UNL     1       2.874  -0.296   1.198  1.00  0.00    -0.356 N 
ATOM      3  O   UNL     1       1.167   0.322  -0.217  1.00  0.00    -0.275 OA
ATOM      4  C   UNL     1       2.329  -0.028  -0.035  1.00  0.00     0.223 C 
ATOM      5  H   UNL     1       3.813  -0.588   1.251  1.00  0.00     0.163 HD
BRANCH   4   6
ATOM      6  C   UNL     1       3.307  -0.130  -1.177  1.00  0.00     0.145 C 
BRANCH   6   7
ATOM      7  C   UNL     1       3.912   1.237  -1.463  1.00  0.00     0.243 C 
BRANCH   7   8
ATOM      8  N   UNL     1       4.924   1.593  -0.477  1.00  0.00    -0.273 N 
ATOM      9  C   UNL     1       6.296   1.446  -0.573  1.00  0.00     0.290 C 
ATOM     10  H   UNL     1       4.590   1.988   0.360  1.00  0.00     0.305 HD
ATOM     11  N   UNL     1       7.108   1.245   0.421  1.00  0.00    -0.162 N 
ATOM     12  H   UNL     1       8.081   1.254   0.272  1.00  0.00     0.327 HD
BRANCH   9  13
ATOM     13  C   UNL     1       6.940   1.542  -1.922  1.00  0.00     0.064 A 
ATOM     14  C   UNL     1       7.926   0.621  -2.289  1.00  0.00     0.016 A 
ATOM     15  C   UNL     1       6.543   2.540  -2.821  1.00  0.00     0.016 A 
ATOM     16  C   UNL     1       8.482   0.675  -3.568  1.00  0.00     0.001 A 
ATOM     17  C   UNL     1       7.094   2.583  -4.102  1.00  0.00     0.001 A 
ATOM     18  C   UNL     1       8.059   1.647  -4.476  1.00  0.00     0.000 A 
ENDBRANCH   9  13
BRANCH  11  19
ATOM     19  S   UNL     1       6.519   0.982   1.905  1.00  0.00     0.328 S 
ATOM     20  O   UNL     1       5.679   2.103   2.292  1.00  0.00    -0.179 OA
ATOM     21  O   UNL     1       5.934  -0.350   1.907  1.00  0.00    -0.179 OA
BRANCH  19  22
ATOM     22  C   UNL     1       7.925   0.967   2.994  1.00  0.00     0.109 A 
ATOM     23  C   UNL     1       8.440  -0.251   3.450  1.00  0.00     0.024 A 
ATOM     24  C   UNL     1       8.427   2.177   3.487  1.00  0.00     0.024 A 
ATOM     25  C   UNL     1       9.457  -0.257   4.406  1.00  0.00     0.001 A 
ATOM     26  C   UNL     1       9.449   2.163   4.440  1.00  0.00     0.001 A 
ATOM     27  C   UNL     1       9.958   0.948   4.902  1.00  0.00     0.000 A 
ENDBRANCH  19  22
ENDBRANCH  11  19
ENDBRANCH   7   8
ENDBRANCH   6   7
ENDBRANCH   4   6
ENDBRANCH   1   2
BRANCH   1  28
ATOM     28  C   UNL     1       2.232  -1.379   3.337  1.00  0.00     0.042 C 
BRANCH  28  29
ATOM     29  C   UNL     1       3.643  -1.694   3.824  1.00  0.00     0.118 C 
BRANCH  29  30
ATOM     30  N   UNL     1       4.283  -0.588   4.523  1.00  0.00    -0.352 N 
ATOM     31  C   UNL     1       5.182  -0.620   5.560  1.00  0.00     0.251 C 
ATOM     32  H   UNL     1       4.036   0.311   4.206  1.00  0.00     0.163 HD
ATOM     33  O   UNL     1       5.572   0.431   6.061  1.00  0.00    -0.269 OA
BRANCH  31  34
ATOM     34  C   UNL     1       5.656  -1.913   6.099  1.00  0.00     0.039 A 
ATOM     35  C   UNL     1       5.671  -2.087   7.486  1.00  0.00     0.014 A 
ATOM     36  C   UNL     1       6.083  -2.946   5.260  1.00  0.00     0.014 A 
ATOM     37  C   UNL     1       6.052  -3.317   8.027  1.00  0.00     0.010 A 
ATOM     38  C   UNL     1       6.409  -4.191   5.799  1.00  0.00     0.010 A 
ATOM     39  C   UNL     1       6.391  -4.391   7.188  1.00  0.00    -0.014 A 
BRANCH  39  40
ATOM     40  C   UNL     1       6.668  -5.735   7.756  1.00  0.00     0.031 A 
ATOM     41  C   UNL     1       8.031  -6.360   7.645  1.00  0.00     0.074 A 
ATOM     42  C   UNL     1       5.657  -6.427   8.321  1.00  0.00     0.049 A 
ATOM     43  N   UNL     1       8.447  -7.512   8.105  1.00  0.00    -0.248 NA
ATOM     44  C   UNL     1       9.054  -5.607   6.903  1.00  0.00     0.031 C 
ATOM     45  C   UNL     1       4.267  -5.973   8.404  1.00  0.00     0.029 A 
ATOM     46  N   UNL     1       5.638  -7.665   8.913  1.00  0.00    -0.354 N 
ATOM     47  C   UNL     1       9.767  -7.636   7.691  1.00  0.00     0.074 A 
ATOM     48  C   UNL     1      10.074  -6.454   6.914  1.00  0.00     0.031 C 
ATOM     49  C   UNL     1       3.533  -6.913   9.019  1.00  0.00     0.029 A 
ATOM     50  C   UNL     1       4.393  -8.042   9.360  1.00  0.00     0.049 A 
ATOM     51  H   UNL     1       6.439  -8.229   9.010  1.00  0.00     0.167 HD
ATOM     52  C   UNL     1      10.652  -8.627   7.959  1.00  0.00     0.034 A 
ATOM     53  C   UNL     1       3.988  -9.167   9.982  1.00  0.00     0.034 A 
ATOM     54  C   UNL     1      10.354  -9.784   8.761  1.00  0.00     0.049 A 
ATOM     55  C   UNL     1       5.006 -10.220  10.324  1.00  0.00     0.074 A 
ATOM     56  C   UNL     1      11.207 -10.799   9.160  1.00  0.00     0.029 A 
ATOM     57  N   UNL     1       9.105 -10.087   9.282  1.00  0.00    -0.354 N 
ATOM     58  N   UNL     1       6.294 -10.233  10.079  1.00  0.00    -0.248 NA
ATOM     59  C   UNL     1       4.524 -11.391  11.070  1.00  0.00     0.031 C 
ATOM     60  C   UNL     1      10.470 -11.723   9.909  1.00  0.00     0.029 A 
ATOM     61  C   UNL     1       9.163 -11.273   9.995  1.00  0.00     0.049 A 
ATOM     62  H   UNL     1       8.296  -9.539   9.163  1.00  0.00     0.167 HD
ATOM     63  C   UNL     1       6.782 -11.393  10.669  1.00  0.00     0.074 A 
ATOM     64  C   UNL     1       5.655 -12.042  11.307  1.00  0.00     0.031 C 
ATOM     65  C   UNL     1       8.046 -11.885  10.669  1.00  0.00     0.034 A 
BRANCH  52  66
ATOM     66  C   UNL     1      12.055  -8.473   7.429  1.00  0.00     0.023 A 
ATOM     67  C   UNL     1      12.912  -7.515   8.011  1.00  0.00     0.012 A 
ATOM     68  C   UNL     1      12.549  -9.310   6.410  1.00  0.00     0.148 A 
ATOM     69  C   UNL     1      14.225  -7.371   7.566  1.00  0.00     0.002 A 
ATOM     70  C   UNL     1      13.872  -9.189   6.000  1.00  0.00     0.091 A 
ATOM     71  F   UNL     1      11.715 -10.201   5.853  1.00  0.00    -0.205 F 
ATOM     72  C   UNL     1      14.708  -8.214   6.569  1.00  0.00     0.022 A 
BRANCH  70  73
ATOM     73  S   UNL     1      14.612 -10.278   4.777  1.00  0.00     0.127 S 
ATOM     74  O   UNL     1      14.733  -9.388   3.624  1.00  0.00    -0.237 OA
ATOM     75  O   UNL     1      15.884 -10.634   5.409  1.00  0.00    -0.237 OA
ATOM     76  O   UNL     1      13.684 -11.389   4.617  1.00  0.00    -0.744 OA
ENDBRANCH  70  73
ENDBRANCH  52  66
BRANCH  53  77
ATOM     77  C   UNL     1       2.566  -9.312  10.402  1.00  0.00     0.023 A 
ATOM     78  C   UNL     1       2.241  -9.247  11.771  1.00  0.00     0.012 A 
ATOM     79  C   UNL     1       1.535  -9.478   9.458  1.00  0.00     0.148 A 
ATOM     80  C   UNL     1       0.918  -9.378  12.195  1.00  0.00     0.002 A 
ATOM     81  C   UNL     1       0.214  -9.552   9.883  1.00  0.00     0.091 A 
ATOM     82  F   UNL     1       1.866  -9.550   8.161  1.00  0.00    -0.205 F 
ATOM     83  C   UNL     1      -0.096  -9.519  11.252  1.00  0.00     0.022 A 
BRANCH  81  84
ATOM     84  S   UNL     1      -1.164  -9.600   8.731  1.00  0.00     0.127 S 
ATOM     85  O   UNL     1      -1.604 -10.988   8.850  1.00  0.00    -0.237 OA
ATOM     86  O   UNL     1      -2.076  -8.612   9.307  1.00  0.00    -0.237 OA
ATOM     87  O   UNL     1      -0.606  -9.218   7.440  1.00  0.00    -0.744 OA
ENDBRANCH  81  84
ENDBRANCH  53  77
BRANCH  65  88
ATOM     88  C   UNL     1       8.288 -13.177  11.406  1.00  0.00     0.023 A 
ATOM     89  C   UNL     1       7.795 -14.388  10.878  1.00  0.00     0.012 A 
ATOM     90  C   UNL     1       9.041 -13.200  12.596  1.00  0.00     0.148 A 
ATOM     91  C   UNL     1       8.013 -15.593  11.544  1.00  0.00     0.002 A 
ATOM     92  C   UNL     1       9.296 -14.412  13.229  1.00  0.00     0.091 A 
ATOM     93  F   UNL     1       9.485 -12.038  13.098  1.00  0.00    -0.205 F 
ATOM     94  C   UNL     1       8.771 -15.607  12.712  1.00  0.00     0.022 A 
BRANCH  92  95
ATOM     95  S   UNL     1      10.342 -14.526  14.685  1.00  0.00     0.127 S 
ATOM     96  O   UNL     1       9.354 -14.642  15.755  1.00  0.00    -0.237 OA
ATOM     97  O   UNL     1      11.108 -15.747  14.428  1.00  0.00    -0.237 OA
ATOM     98  O   UNL     1      11.142 -13.308  14.692  1.00  0.00    -0.744 OA
ENDBRANCH  92  95
ENDBRANCH  65  88
ENDBRANCH  39  40
ENDBRANCH  31  34
ENDBRANCH  29  30
ENDBRANCH  28  29
ENDBRANCH   1  28
TORSDOF 18
