REMARK SMILES C[NH+]1CCC(NC(=O)N[C@H]2C=C[C@H](C(=O)NCCCNC(=O)c3ccc(-c4c5nc(c(-c6cccc(S(=O)(=O)[O-])c6F)c6ccc([nH]6)c(-c6cccc(S(=O)(=O)[O-])c6F)c6nc(c(-c7cccc(S(=O)(=O)[O-])c7F)c7ccc4[nH]7)C=C6)C=C5)cc3)C2)CC1
REMARK SMILES IDX 18 1 17 2 16 3 14 4 15 5 13 7 10 8 11 9 86 10 12 11 9 12
REMARK SMILES IDX 6 13 7 14 8 16 5 18 1 19 2 20 3 21 88 22 4 24 87 25 19 26
REMARK SMILES IDX 20 27 21 28 22 30 23 31 24 32 85 33 25 34 84 35 26 36 27 37
REMARK SMILES IDX 28 38 78 39 29 40 83 41 77 42 79 43 30 44 82 45 76 46 75 47
REMARK SMILES IDX 31 49 63 50 43 51 62 52 44 53 47 54 61 55 80 56 45 57 46 58
REMARK SMILES IDX 60 60 81 61 48 62 32 63 33 64 41 65 34 66 36 67 42 68 35 69
REMARK SMILES IDX 37 70 38 71 39 72 40 73 64 74 65 75 73 76 66 77 68 78 74 79
REMARK SMILES IDX 67 80 69 81 70 82 71 83 72 84 49 85 50 86 58 87 51 88 53 89
REMARK SMILES IDX 59 90 52 91 54 92 55 93 56 94 57 95
REMARK H PARENT 16 6 6 15 9 17 2 23 20 29 79 48 47 59
REMARK Flexibility Score: inf
ROOT
ATOM      1  C   UNL     1      -2.653   2.294  -1.010  1.00  0.00     0.042 C 
ENDROOT
BRANCH   1   2
ATOM      2  C   UNL     1      -2.521   1.143  -2.010  1.00  0.00     0.117 C 
BRANCH   2   3
ATOM      3  N   UNL     1      -1.886   1.534  -3.260  1.00  0.00    -0.356 N 
ATOM      4  C   UNL     1      -0.595   1.317  -3.675  1.00  0.00     0.227 C 
ATOM      5  O   UNL     1      -0.291   1.577  -4.839  1.00  0.00    -0.274 OA
ATOM      6  H   UNL     1      -2.461   2.019  -3.895  1.00  0.00     0.163 HD
BRANCH   4   7
ATOM      7  C   UNL     1       0.399   0.732  -2.674  1.00  0.00     0.103 C 
ATOM      8  C   UNL     1       2.769   0.151  -2.971  1.00  0.00     0.107 C 
ATOM      9  C   UNL     1       1.909  -1.061  -2.985  1.00  0.00    -0.006 C 
ATOM     10  C   UNL     1       1.817   1.333  -2.764  1.00  0.00     0.047 C 
ATOM     11  C   UNL     1       0.612  -0.744  -2.886  1.00  0.00    -0.016 C 
BRANCH   8  12
ATOM     12  N   UNL     1       3.918   0.029  -2.086  1.00  0.00    -0.332 N 
ATOM     13  N   UNL     1       3.426  -0.076   0.242  1.00  0.00    -0.335 N 
ATOM     14  C   UNL     1       4.255  -0.040  -0.800  1.00  0.00     0.315 C 
ATOM     15  H   UNL     1       3.895  -0.034   1.107  1.00  0.00     0.165 HD
ATOM     16  O   UNL     1       5.466  -0.074  -0.552  1.00  0.00    -0.249 OA
ATOM     17  H   UNL     1       4.736  -0.019  -2.632  1.00  0.00     0.165 HD
BRANCH  13  18
ATOM     18  C   UNL     1       1.991  -0.165   0.382  1.00  0.00     0.095 C 
ATOM     19  C   UNL     1      -2.035  -0.604   1.647  1.00  0.00     0.332 C 
ATOM     20  N   UNL     1      -0.571  -0.555   1.709  1.00  0.00    -0.337 N 
ATOM     21  C   UNL     1      -0.086   0.794   1.388  1.00  0.00     0.264 C 
ATOM     22  C   UNL     1       0.007  -1.599   0.852  1.00  0.00     0.264 C 
ATOM     23  H   UNL     1      -0.261  -0.752   2.661  1.00  0.00     0.347 HD
ATOM     24  C   UNL     1       1.440   0.885   1.342  1.00  0.00     0.086 C 
ATOM     25  C   UNL     1       1.535  -1.549   0.830  1.00  0.00     0.086 C 
ENDBRANCH  13  18
ENDBRANCH   8  12
ENDBRANCH   4   7
ENDBRANCH   2   3
ENDBRANCH   1   2
BRANCH   1  26
ATOM     26  C   UNL     1      -4.027   2.958  -1.011  1.00  0.00     0.118 C 
BRANCH  26  27
ATOM     27  N   UNL     1      -5.085   2.061  -0.557  1.00  0.00    -0.352 N 
ATOM     28  C   UNL     1      -6.226   2.318   0.164  1.00  0.00     0.251 C 
ATOM     29  H   UNL     1      -4.961   1.117  -0.808  1.00  0.00     0.163 HD
ATOM     30  O   UNL     1      -6.931   1.368   0.504  1.00  0.00    -0.269 OA
BRANCH  28  31
ATOM     31  C   UNL     1      -6.598   3.696   0.568  1.00  0.00     0.039 A 
ATOM     32  C   UNL     1      -7.223   3.884   1.807  1.00  0.00     0.014 A 
ATOM     33  C   UNL     1      -6.359   4.798  -0.255  1.00  0.00     0.014 A 
ATOM     34  C   UNL     1      -7.542   5.174   2.245  1.00  0.00     0.010 A 
ATOM     35  C   UNL     1      -6.598   6.086   0.217  1.00  0.00     0.010 A 
ATOM     36  C   UNL     1      -7.197   6.290   1.469  1.00  0.00    -0.014 A 
BRANCH  36  37
ATOM     37  C   UNL     1      -7.435   7.679   1.941  1.00  0.00     0.031 A 
ATOM     38  C   UNL     1      -8.327   8.604   1.157  1.00  0.00     0.074 A 
ATOM     39  C   UNL     1      -6.757   8.144   3.009  1.00  0.00     0.049 A 
ATOM     40  N   UNL     1      -8.570   9.875   1.346  1.00  0.00    -0.248 NA
ATOM     41  C   UNL     1      -9.008   8.033  -0.018  1.00  0.00     0.031 C 
ATOM     42  C   UNL     1      -5.799   7.373   3.804  1.00  0.00     0.029 A 
ATOM     43  N   UNL     1      -6.746   9.386   3.592  1.00  0.00    -0.354 N 
ATOM     44  C   UNL     1      -9.387  10.267   0.292  1.00  0.00     0.074 A 
ATOM     45  C   UNL     1      -9.571   9.107  -0.552  1.00  0.00     0.031 C 
ATOM     46  C   UNL     1      -5.301   8.155   4.774  1.00  0.00     0.029 A 
ATOM     47  C   UNL     1      -5.878   9.490   4.654  1.00  0.00     0.049 A 
ATOM     48  H   UNL     1      -7.307  10.133   3.279  1.00  0.00     0.167 HD
ATOM     49  C   UNL     1      -9.962  11.473   0.064  1.00  0.00     0.034 A 
ATOM     50  C   UNL     1      -5.578  10.542   5.441  1.00  0.00     0.034 A 
ATOM     51  C   UNL     1      -9.828  12.605   0.940  1.00  0.00     0.049 A 
ATOM     52  C   UNL     1      -6.277  11.853   5.205  1.00  0.00     0.074 A 
ATOM     53  C   UNL     1     -10.447  13.839   0.854  1.00  0.00     0.029 A 
ATOM     54  N   UNL     1      -9.020  12.641   2.066  1.00  0.00    -0.354 N 
ATOM     55  N   UNL     1      -7.167  12.161   4.293  1.00  0.00    -0.248 NA
ATOM     56  C   UNL     1      -5.957  12.952   6.128  1.00  0.00     0.031 C 
ATOM     57  C   UNL     1     -10.004  14.626   1.924  1.00  0.00     0.029 A 
ATOM     58  C   UNL     1      -9.121  13.876   2.684  1.00  0.00     0.049 A 
ATOM     59  H   UNL     1      -8.457  11.897   2.381  1.00  0.00     0.167 HD
ATOM     60  C   UNL     1      -7.541  13.475   4.553  1.00  0.00     0.074 A 
ATOM     61  C   UNL     1      -6.792  13.898   5.719  1.00  0.00     0.031 C 
ATOM     62  C   UNL     1      -8.413  14.263   3.877  1.00  0.00     0.034 A 
BRANCH  49  63
ATOM     63  C   UNL     1     -10.841  11.604  -1.153  1.00  0.00     0.023 A 
ATOM     64  C   UNL     1     -12.090  10.949  -1.179  1.00  0.00     0.012 A 
ATOM     65  C   UNL     1     -10.454  12.392  -2.254  1.00  0.00     0.148 A 
ATOM     66  C   UNL     1     -12.918  11.037  -2.297  1.00  0.00     0.002 A 
ATOM     67  C   UNL     1     -11.306  12.512  -3.348  1.00  0.00     0.091 A 
ATOM     68  F   UNL     1      -9.255  12.991  -2.226  1.00  0.00    -0.205 F 
ATOM     69  C   UNL     1     -12.531  11.826  -3.376  1.00  0.00     0.022 A 
BRANCH  67  70
ATOM     70  S   UNL     1     -10.927  13.567  -4.752  1.00  0.00     0.127 S 
ATOM     71  O   UNL     1     -10.509  12.587  -5.753  1.00  0.00    -0.237 OA
ATOM     72  O   UNL     1     -12.218  14.201  -5.024  1.00  0.00    -0.237 OA
ATOM     73  O   UNL     1      -9.891  14.481  -4.292  1.00  0.00    -0.744 OA
ENDBRANCH  67  70
ENDBRANCH  49  63
BRANCH  50  74
ATOM     74  C   UNL     1      -4.638  10.366   6.583  1.00  0.00     0.023 A 
ATOM     75  C   UNL     1      -5.152  10.359   7.895  1.00  0.00     0.012 A 
ATOM     76  C   UNL     1      -3.260  10.152   6.383  1.00  0.00     0.148 A 
ATOM     77  C   UNL     1      -4.308  10.168   8.989  1.00  0.00     0.002 A 
ATOM     78  C   UNL     1      -2.433   9.911   7.475  1.00  0.00     0.091 A 
ATOM     79  F   UNL     1      -2.791  10.171   5.128  1.00  0.00    -0.205 F 
ATOM     80  C   UNL     1      -2.952   9.933   8.779  1.00  0.00     0.022 A 
BRANCH  78  81
ATOM     81  S   UNL     1      -0.701   9.469   7.295  1.00  0.00     0.127 S 
ATOM     82  O   UNL     1      -0.033  10.661   7.811  1.00  0.00    -0.237 OA
ATOM     83  O   UNL     1      -0.601   8.286   8.150  1.00  0.00    -0.237 OA
ATOM     84  O   UNL     1      -0.509   9.201   5.876  1.00  0.00    -0.744 OA
ENDBRANCH  78  81
ENDBRANCH  50  74
BRANCH  62  85
ATOM     85  C   UNL     1      -8.636  15.660   4.395  1.00  0.00     0.023 A 
ATOM     86  C   UNL     1      -7.643  16.641   4.207  1.00  0.00     0.012 A 
ATOM     87  C   UNL     1      -9.859  16.018   4.994  1.00  0.00     0.148 A 
ATOM     88  C   UNL     1      -7.853  17.952   4.631  1.00  0.00     0.002 A 
ATOM     89  C   UNL     1     -10.080  17.337   5.373  1.00  0.00     0.091 A 
ATOM     90  F   UNL     1     -10.783  15.065   5.184  1.00  0.00    -0.205 F 
ATOM     91  C   UNL     1      -9.075  18.303   5.202  1.00  0.00     0.022 A 
BRANCH  89  92
ATOM     92  S   UNL     1     -11.656  17.896   6.029  1.00  0.00     0.127 S 
ATOM     93  O   UNL     1     -11.350  18.055   7.449  1.00  0.00    -0.237 OA
ATOM     94  O   UNL     1     -11.868  19.151   5.306  1.00  0.00    -0.237 OA
ATOM     95  O   UNL     1     -12.616  16.848   5.707  1.00  0.00    -0.744 OA
ENDBRANCH  89  92
ENDBRANCH  62  85
ENDBRANCH  36  37
ENDBRANCH  28  31
ENDBRANCH  26  27
ENDBRANCH   1  26
TORSDOF 15
