REMARK SMILES Cc1ccc(S(=O)(=O)n2cc(C(=O)C(=O)N[C@@H](Cc3c[nH]c4ccccc34)C(=O)NCC(=O)NCCCNC(=O)c3ccc(-c4c5nc(c(-c6cccc(S(=O)(=O)[O-])c6F)c6ccc([nH]6)c(-c6cccc(S(=O)(=O)[O-])c6F)c6nc(c(-c7cccc(S(=O)(=O)[O-])c7F)c7ccc4[nH]7)C=C6)C=C5)cc3)c3ccccc32)cc1
REMARK SMILES IDX 32 1 33 2 34 3 31 5 30 6 28 7 29 8 17 10 16 11 14 12 15 13
REMARK SMILES IDX 12 15 13 16 11 17 9 18 10 19 109 20 104 21 108 22 105 23
REMARK SMILES IDX 107 24 106 25 6 26 7 27 8 28 5 29 1 30 2 31 3 32 111 33 4 34
REMARK SMILES IDX 110 35 18 36 19 37 20 38 27 39 21 40 22 41 26 42 23 44 25 45
REMARK SMILES IDX 24 46 35 47 36 48 37 49 38 50 39 51 40 53 41 54 42 55 103 56
REMARK SMILES IDX 43 57 102 58 44 59 45 60 46 61 96 62 47 63 101 64 95 65
REMARK SMILES IDX 97 66 48 67 100 68 94 69 93 70 49 72 81 73 61 74 80 75 62 76
REMARK SMILES IDX 65 77 79 78 98 79 63 80 64 81 78 83 99 84 66 85 50 86 51 87
REMARK SMILES IDX 59 88 52 89 54 90 60 91 53 92 55 93 56 94 57 95 58 96 82 97
REMARK SMILES IDX 83 98 91 99 84 100 86 101 92 102 85 103 87 104 88 105 89 106
REMARK SMILES IDX 90 107 67 108 68 109 76 110 69 111 71 112 77 113 70 114
REMARK SMILES IDX 72 115 73 116 74 117 75 118
REMARK H PARENT 34 4 30 9 16 14 21 43 38 52 97 71 65 82
REMARK Flexibility Score: inf
ROOT
ATOM      1  C   UNL     1     -12.392   5.261  -2.297  1.00  0.00     0.239 C 
ATOM      2  O   UNL     1     -13.188   6.170  -2.537  1.00  0.00    -0.273 OA
ATOM      3  N   UNL     1     -11.089   5.394  -2.696  1.00  0.00    -0.355 N 
ATOM      4  H   UNL     1     -10.879   6.139  -3.304  1.00  0.00     0.163 HD
ENDROOT
BRANCH   1   5
ATOM      5  C   UNL     1     -12.777   4.093  -1.369  1.00  0.00     0.216 C 
BRANCH   5   6
ATOM      6  N   UNL     1     -12.527   2.709  -1.737  1.00  0.00    -0.345 N 
ATOM      7  C   UNL     1     -11.909   1.663  -1.119  1.00  0.00     0.243 C 
ATOM      8  O   UNL     1     -12.107   0.563  -1.657  1.00  0.00    -0.273 OA
ATOM      9  H   UNL     1     -12.881   2.476  -2.626  1.00  0.00     0.164 HD
BRANCH   7  10
ATOM     10  C   UNL     1     -11.067   1.710   0.208  1.00  0.00     0.176 C 
BRANCH  10  11
ATOM     11  N   UNL     1      -9.867   2.578   0.264  1.00  0.00    -0.337 N 
ATOM     12  C   UNL     1      -8.515   2.389  -0.014  1.00  0.00     0.293 C 
ATOM     13  O   UNL     1      -7.729   3.304   0.212  1.00  0.00    -0.265 OA
ATOM     14  H   UNL     1     -10.071   3.493   0.565  1.00  0.00     0.164 HD
BRANCH  12  15
ATOM     15  C   UNL     1      -7.990   1.098  -0.650  1.00  0.00     0.252 C 
ATOM     16  O   UNL     1      -8.767   0.538  -1.424  1.00  0.00    -0.283 OA
BRANCH  15  17
ATOM     17  C   UNL     1      -6.713   0.461  -0.270  1.00  0.00     0.054 A 
ATOM     18  N   UNL     1      -4.686  -0.135   0.542  1.00  0.00    -0.240 N 
ATOM     19  C   UNL     1      -5.427   0.941   0.045  1.00  0.00     0.117 A 
ATOM     20  C   UNL     1      -5.572  -1.228   0.653  1.00  0.00     0.065 A 
ATOM     21  C   UNL     1      -6.585  -0.957  -0.253  1.00  0.00     0.012 A 
ATOM     22  C   UNL     1      -5.375  -2.525   1.169  1.00  0.00     0.028 A 
ATOM     23  C   UNL     1      -7.272  -2.037  -0.842  1.00  0.00     0.011 A 
ATOM     24  C   UNL     1      -5.998  -3.581   0.508  1.00  0.00     0.002 A 
ATOM     25  C   UNL     1      -6.899  -3.343  -0.520  1.00  0.00     0.001 A 
BRANCH  18  26
ATOM     26  S   UNL     1      -3.093  -0.712   0.172  1.00  0.00     0.268 S 
ATOM     27  O   UNL     1      -3.320  -1.431  -1.075  1.00  0.00    -0.201 OA
ATOM     28  O   UNL     1      -2.807  -1.446   1.404  1.00  0.00    -0.201 OA
BRANCH  26  29
ATOM     29  C   UNL     1      -1.524   0.025  -0.072  1.00  0.00     0.088 A 
ATOM     30  C   UNL     1       2.760   0.644  -0.065  1.00  0.00     0.044 C 
ATOM     31  C   UNL     1       1.269   0.480  -0.131  1.00  0.00    -0.051 A 
ATOM     32  C   UNL     1       0.791  -0.808  -0.296  1.00  0.00     0.005 A 
ATOM     33  C   UNL     1       0.341   1.540   0.009  1.00  0.00     0.005 A 
ATOM     34  C   UNL     1      -0.574  -1.017  -0.282  1.00  0.00     0.022 A 
ATOM     35  C   UNL     1      -1.067   1.323   0.048  1.00  0.00     0.022 A 
ENDBRANCH  26  29
ENDBRANCH  18  26
ENDBRANCH  15  17
ENDBRANCH  12  15
ENDBRANCH  10  11
BRANCH  10  36
ATOM     36  C   UNL     1     -11.955   1.850   1.488  1.00  0.00     0.072 C 
BRANCH  36  37
ATOM     37  C   UNL     1     -12.670   3.164   1.725  1.00  0.00    -0.020 A 
ATOM     38  C   UNL     1     -14.043   3.342   1.647  1.00  0.00     0.087 A 
ATOM     39  C   UNL     1     -12.111   4.476   1.958  1.00  0.00     0.003 A 
ATOM     40  N   UNL     1     -14.312   4.687   1.673  1.00  0.00    -0.361 N 
ATOM     41  C   UNL     1     -13.136   5.396   1.720  1.00  0.00     0.046 A 
ATOM     42  C   UNL     1     -10.809   4.982   2.160  1.00  0.00     0.010 A 
ATOM     43  H   UNL     1     -15.213   5.084   1.660  1.00  0.00     0.166 HD
ATOM     44  C   UNL     1     -12.899   6.760   1.505  1.00  0.00     0.026 A 
ATOM     45  C   UNL     1     -10.547   6.333   1.899  1.00  0.00     0.001 A 
ATOM     46  C   UNL     1     -11.575   7.200   1.544  1.00  0.00     0.002 A 
ENDBRANCH  36  37
ENDBRANCH  10  36
ENDBRANCH   7  10
ENDBRANCH   5   6
ENDBRANCH   1   5
BRANCH   3  47
ATOM     47  C   UNL     1      -9.999   4.536  -2.301  1.00  0.00     0.117 C 
BRANCH  47  48
ATOM     48  C   UNL     1      -9.947   3.236  -3.106  1.00  0.00     0.042 C 
BRANCH  48  49
ATOM     49  C   UNL     1      -9.033   3.277  -4.299  1.00  0.00     0.118 C 
BRANCH  49  50
ATOM     50  N   UNL     1      -7.627   3.358  -3.892  1.00  0.00    -0.352 N 
ATOM     51  C   UNL     1      -6.522   3.803  -4.588  1.00  0.00     0.251 C 
ATOM     52  H   UNL     1      -7.442   3.045  -2.977  1.00  0.00     0.163 HD
ATOM     53  O   UNL     1      -5.425   3.305  -4.317  1.00  0.00    -0.269 OA
BRANCH  51  54
ATOM     54  C   UNL     1      -6.671   4.888  -5.570  1.00  0.00     0.039 A 
ATOM     55  C   UNL     1      -5.633   5.426  -6.327  1.00  0.00     0.014 A 
ATOM     56  C   UNL     1      -7.885   5.550  -5.565  1.00  0.00     0.014 A 
ATOM     57  C   UNL     1      -5.829   6.696  -6.873  1.00  0.00     0.010 A 
ATOM     58  C   UNL     1      -8.207   6.464  -6.493  1.00  0.00     0.010 A 
ATOM     59  C   UNL     1      -7.116   7.224  -6.842  1.00  0.00    -0.014 A 
BRANCH  59  60
ATOM     60  C   UNL     1      -7.534   8.598  -6.992  1.00  0.00     0.031 A 
ATOM     61  C   UNL     1      -7.780   9.065  -8.343  1.00  0.00     0.074 A 
ATOM     62  C   UNL     1      -8.091   9.158  -5.889  1.00  0.00     0.049 A 
ATOM     63  N   UNL     1      -8.020  10.284  -8.647  1.00  0.00    -0.248 NA
ATOM     64  C   UNL     1      -7.748   8.155  -9.479  1.00  0.00     0.031 C 
ATOM     65  C   UNL     1      -9.147  10.157  -5.789  1.00  0.00     0.029 A 
ATOM     66  N   UNL     1      -7.783   8.893  -4.558  1.00  0.00    -0.354 N 
ATOM     67  C   UNL     1      -8.493  10.271  -9.939  1.00  0.00     0.074 A 
ATOM     68  C   UNL     1      -8.130   8.976 -10.456  1.00  0.00     0.031 C 
ATOM     69  C   UNL     1      -9.207  10.607  -4.520  1.00  0.00     0.029 A 
ATOM     70  C   UNL     1      -8.085  10.025  -3.798  1.00  0.00     0.049 A 
ATOM     71  H   UNL     1      -7.413   8.050  -4.211  1.00  0.00     0.167 HD
ATOM     72  C   UNL     1      -9.308  11.291 -10.323  1.00  0.00     0.034 A 
ATOM     73  C   UNL     1      -7.033  10.730  -3.273  1.00  0.00     0.034 A 
ATOM     74  C   UNL     1      -9.414  12.285  -9.227  1.00  0.00     0.049 A 
ATOM     75  C   UNL     1      -6.802  12.039  -4.014  1.00  0.00     0.074 A 
ATOM     76  C   UNL     1     -10.381  12.526  -8.263  1.00  0.00     0.029 A 
ATOM     77  N   UNL     1      -8.260  12.932  -8.778  1.00  0.00    -0.354 N 
ATOM     78  N   UNL     1      -7.422  12.383  -5.111  1.00  0.00    -0.248 NA
ATOM     79  C   UNL     1      -5.892  13.082  -3.554  1.00  0.00     0.031 C 
ATOM     80  C   UNL     1      -9.761  13.217  -7.178  1.00  0.00     0.029 A 
ATOM     81  C   UNL     1      -8.427  13.430  -7.491  1.00  0.00     0.049 A 
ATOM     82  H   UNL     1      -7.434  13.023  -9.306  1.00  0.00     0.167 HD
ATOM     83  C   UNL     1      -6.954  13.579  -5.574  1.00  0.00     0.074 A 
ATOM     84  C   UNL     1      -6.053  14.012  -4.514  1.00  0.00     0.031 C 
ATOM     85  C   UNL     1      -7.314  14.088  -6.797  1.00  0.00     0.034 A 
BRANCH  72  86
ATOM     86  C   UNL     1     -10.242  11.258 -11.527  1.00  0.00     0.023 A 
ATOM     87  C   UNL     1     -11.244  12.251 -11.581  1.00  0.00     0.012 A 
ATOM     88  C   UNL     1     -10.261  10.319 -12.591  1.00  0.00     0.148 A 
ATOM     89  C   UNL     1     -12.229  12.278 -12.578  1.00  0.00     0.002 A 
ATOM     90  C   UNL     1     -11.258  10.323 -13.570  1.00  0.00     0.091 A 
ATOM     91  F   UNL     1      -9.286   9.426 -12.723  1.00  0.00    -0.205 F 
ATOM     92  C   UNL     1     -12.248  11.304 -13.565  1.00  0.00     0.022 A 
BRANCH  90  93
ATOM     93  S   UNL     1     -11.349   9.074 -14.873  1.00  0.00     0.127 S 
ATOM     94  O   UNL     1     -12.716   8.573 -14.722  1.00  0.00    -0.237 OA
ATOM     95  O   UNL     1     -11.122   9.868 -16.079  1.00  0.00    -0.237 OA
ATOM     96  O   UNL     1     -10.317   8.088 -14.577  1.00  0.00    -0.744 OA
ENDBRANCH  90  93
ENDBRANCH  72  86
BRANCH  73  97
ATOM     97  C   UNL     1      -5.980   9.790  -2.740  1.00  0.00     0.023 A 
ATOM     98  C   UNL     1      -6.414   8.902  -1.718  1.00  0.00     0.012 A 
ATOM     99  C   UNL     1      -4.857   9.429  -3.506  1.00  0.00     0.148 A 
ATOM    100  C   UNL     1      -5.903   7.604  -1.629  1.00  0.00     0.002 A 
ATOM    101  C   UNL     1      -4.329   8.140  -3.386  1.00  0.00     0.091 A 
ATOM    102  F   UNL     1      -4.361  10.314  -4.380  1.00  0.00    -0.205 F 
ATOM    103  C   UNL     1      -4.895   7.207  -2.501  1.00  0.00     0.022 A 
BRANCH 101 104
ATOM    104  S   UNL     1      -2.958   7.598  -4.418  1.00  0.00     0.127 S 
ATOM    105  O   UNL     1      -1.809   8.000  -3.611  1.00  0.00    -0.237 OA
ATOM    106  O   UNL     1      -3.156   6.152  -4.502  1.00  0.00    -0.237 OA
ATOM    107  O   UNL     1      -3.136   8.301  -5.680  1.00  0.00    -0.744 OA
ENDBRANCH 101 104
ENDBRANCH  73  97
BRANCH  85 108
ATOM    108  C   UNL     1      -6.644  15.281  -7.459  1.00  0.00     0.023 A 
ATOM    109  C   UNL     1      -5.361  15.728  -7.089  1.00  0.00     0.012 A 
ATOM    110  C   UNL     1      -7.234  15.920  -8.582  1.00  0.00     0.148 A 
ATOM    111  C   UNL     1      -4.738  16.808  -7.721  1.00  0.00     0.002 A 
ATOM    112  C   UNL     1      -6.549  16.898  -9.296  1.00  0.00     0.091 A 
ATOM    113  F   UNL     1      -8.482  15.604  -8.957  1.00  0.00    -0.205 F 
ATOM    114  C   UNL     1      -5.322  17.380  -8.841  1.00  0.00     0.022 A 
BRANCH 112 115
ATOM    115  S   UNL     1      -7.124  17.456 -10.905  1.00  0.00     0.127 S 
ATOM    116  O   UNL     1      -7.774  18.721 -10.571  1.00  0.00    -0.237 OA
ATOM    117  O   UNL     1      -5.871  17.593 -11.650  1.00  0.00    -0.237 OA
ATOM    118  O   UNL     1      -7.996  16.397 -11.395  1.00  0.00    -0.744 OA
ENDBRANCH 112 115
ENDBRANCH  85 108
ENDBRANCH  59  60
ENDBRANCH  51  54
ENDBRANCH  49  50
ENDBRANCH  48  49
ENDBRANCH  47  48
ENDBRANCH   3  47
TORSDOF 22
