REMARK SMILES CC[C@@]1(CC(=O)NCCCNC(=O)c2ccc(-c3c4nc(c(-c5cccc(S(=O)(=O)[O-])c5F)c5ccc([nH]5)c(-c5cccc(S(=O)(=O)[O-])c5F)c5nc(c(-c6cccc(S(=O)(=O)[O-])c6F)c6ccc3[nH]6)C=C5)C=C4)cc2)OC[C@H](Cc2ccccc2)c2c1[nH]c1ccccc21
REMARK SMILES IDX 9 1 8 2 7 3 5 4 6 5 4 7 3 8 77 9 88 10 78 11 87 12 89 13
REMARK SMILES IDX 79 14 95 15 90 16 94 18 91 19 93 20 92 21 2 22 1 23 80 24
REMARK SMILES IDX 81 25 82 26 86 27 83 28 85 29 84 30 10 31 11 32 12 33 13 35
REMARK SMILES IDX 14 36 15 37 76 38 16 39 75 40 17 41 18 42 19 43 69 44 20 45
REMARK SMILES IDX 74 46 68 47 70 48 21 49 73 50 67 51 66 52 22 54 54 55 34 56
REMARK SMILES IDX 53 57 35 58 38 59 52 60 71 61 36 62 37 63 51 65 72 66 39 67
REMARK SMILES IDX 23 68 24 69 32 70 25 71 27 72 33 73 26 74 28 75 29 76 30 77
REMARK SMILES IDX 31 78 55 79 56 80 64 81 57 82 59 83 65 84 58 85 60 86 61 87
REMARK SMILES IDX 62 88 63 89 40 90 41 91 49 92 42 93 44 94 50 95 43 96 45 97
REMARK SMILES IDX 46 98 47 99 48 100
REMARK H PARENT 7 6 89 17 11 34 70 53 38 64
REMARK Flexibility Score: inf
ROOT
ATOM      1  C   UNL     1      -1.507  -0.763  -3.354  1.00  0.00     0.042 C 
ENDROOT
BRANCH   1   2
ATOM      2  C   UNL     1      -1.812  -0.275  -1.939  1.00  0.00     0.117 C 
BRANCH   2   3
ATOM      3  N   UNL     1      -0.813  -0.695  -0.981  1.00  0.00    -0.356 N 
ATOM      4  C   UNL     1       0.109   0.011  -0.280  1.00  0.00     0.223 C 
ATOM      5  O   UNL     1       0.720  -0.612   0.598  1.00  0.00    -0.275 OA
ATOM      6  H   UNL     1      -0.801  -1.663  -0.807  1.00  0.00     0.163 HD
BRANCH   4   7
ATOM      7  C   UNL     1       0.368   1.502  -0.476  1.00  0.00     0.142 C 
BRANCH   7   8
ATOM      8  C   UNL     1       1.120   1.959  -1.759  1.00  0.00     0.117 C 
ATOM      9  O   UNL     1       1.846   0.873  -2.379  1.00  0.00    -0.368 OA
ATOM     10  C   UNL     1       2.183   3.000  -1.432  1.00  0.00     0.052 A 
ATOM     11  C   UNL     1       2.979   0.369  -1.644  1.00  0.00     0.170 C 
ATOM     12  C   UNL     1       3.541   2.774  -1.317  1.00  0.00    -0.011 A 
ATOM     13  N   UNL     1       1.978   4.344  -1.242  1.00  0.00    -0.356 N 
ATOM     14  C   UNL     1       4.118   1.397  -1.415  1.00  0.00     0.052 C 
ATOM     15  C   UNL     1       4.190   4.039  -1.224  1.00  0.00     0.003 A 
ATOM     16  C   UNL     1       3.186   5.006  -1.191  1.00  0.00     0.046 A 
ATOM     17  H   UNL     1       1.096   4.773  -1.155  1.00  0.00     0.166 HD
ATOM     18  C   UNL     1       5.535   4.463  -1.202  1.00  0.00     0.010 A 
ATOM     19  C   UNL     1       3.459   6.378  -1.142  1.00  0.00     0.026 A 
ATOM     20  C   UNL     1       5.825   5.831  -1.162  1.00  0.00     0.001 A 
ATOM     21  C   UNL     1       4.801   6.773  -1.135  1.00  0.00     0.002 A 
BRANCH   8  22
ATOM     22  C   UNL     1       0.121   2.572  -2.799  1.00  0.00     0.039 C 
ATOM     23  C   UNL     1       0.317   2.182  -4.257  1.00  0.00     0.007 C 
ENDBRANCH   8  22
BRANCH  14  24
ATOM     24  C   UNL     1       4.919   1.042  -0.139  1.00  0.00     0.046 C 
BRANCH  24  25
ATOM     25  C   UNL     1       5.498  -0.352  -0.122  1.00  0.00    -0.047 A 
ATOM     26  C   UNL     1       6.435  -0.751  -1.082  1.00  0.00     0.004 A 
ATOM     27  C   UNL     1       5.096  -1.270   0.859  1.00  0.00     0.004 A 
ATOM     28  C   UNL     1       6.943  -2.051  -1.076  1.00  0.00     0.000 A 
ATOM     29  C   UNL     1       5.609  -2.567   0.868  1.00  0.00     0.000 A 
ATOM     30  C   UNL     1       6.528  -2.959  -0.103  1.00  0.00     0.000 A 
ENDBRANCH  24  25
ENDBRANCH  14  24
ENDBRANCH   7   8
ENDBRANCH   4   7
ENDBRANCH   2   3
ENDBRANCH   1   2
BRANCH   1  31
ATOM     31  C   UNL     1      -1.785  -2.246  -3.595  1.00  0.00     0.118 C 
BRANCH  31  32
ATOM     32  N   UNL     1      -3.107  -2.678  -3.199  1.00  0.00    -0.352 N 
ATOM     33  C   UNL     1      -4.340  -2.703  -3.783  1.00  0.00     0.251 C 
ATOM     34  H   UNL     1      -3.121  -3.042  -2.284  1.00  0.00     0.163 HD
ATOM     35  O   UNL     1      -5.218  -3.263  -3.119  1.00  0.00    -0.269 OA
BRANCH  33  36
ATOM     36  C   UNL     1      -4.706  -2.075  -5.081  1.00  0.00     0.039 A 
ATOM     37  C   UNL     1      -3.849  -1.370  -5.931  1.00  0.00     0.014 A 
ATOM     38  C   UNL     1      -6.070  -2.155  -5.419  1.00  0.00     0.014 A 
ATOM     39  C   UNL     1      -4.360  -0.666  -7.022  1.00  0.00     0.010 A 
ATOM     40  C   UNL     1      -6.580  -1.474  -6.514  1.00  0.00     0.010 A 
ATOM     41  C   UNL     1      -5.732  -0.680  -7.278  1.00  0.00    -0.014 A 
BRANCH  41  42
ATOM     42  C   UNL     1      -6.263   0.112  -8.383  1.00  0.00     0.031 A 
ATOM     43  C   UNL     1      -5.910  -0.355  -9.755  1.00  0.00     0.074 A 
ATOM     44  C   UNL     1      -7.169   1.092  -8.182  1.00  0.00     0.049 A 
ATOM     45  N   UNL     1      -5.298   0.294 -10.694  1.00  0.00    -0.248 NA
ATOM     46  C   UNL     1      -6.214  -1.753 -10.095  1.00  0.00     0.031 C 
ATOM     47  C   UNL     1      -7.841   1.452  -6.928  1.00  0.00     0.029 A 
ATOM     48  N   UNL     1      -7.797   1.879  -9.100  1.00  0.00    -0.354 N 
ATOM     49  C   UNL     1      -5.308  -0.548 -11.808  1.00  0.00     0.074 A 
ATOM     50  C   UNL     1      -5.760  -1.835 -11.346  1.00  0.00     0.031 C 
ATOM     51  C   UNL     1      -8.940   2.186  -7.208  1.00  0.00     0.029 A 
ATOM     52  C   UNL     1      -8.974   2.460  -8.632  1.00  0.00     0.049 A 
ATOM     53  H   UNL     1      -7.451   2.025 -10.010  1.00  0.00     0.167 HD
ATOM     54  C   UNL     1      -5.128  -0.096 -13.080  1.00  0.00     0.034 A 
ATOM     55  C   UNL     1      -9.937   3.045  -9.387  1.00  0.00     0.034 A 
ATOM     56  C   UNL     1      -4.589   1.232 -13.122  1.00  0.00     0.049 A 
ATOM     57  C   UNL     1      -9.309   3.396 -10.683  1.00  0.00     0.074 A 
ATOM     58  C   UNL     1      -3.421   1.827 -12.691  1.00  0.00     0.029 A 
ATOM     59  N   UNL     1      -5.466   2.259 -13.371  1.00  0.00    -0.354 N 
ATOM     60  N   UNL     1      -8.368   4.288 -10.817  1.00  0.00    -0.248 NA
ATOM     61  C   UNL     1      -9.452   2.460 -11.786  1.00  0.00     0.031 C 
ATOM     62  C   UNL     1      -3.819   3.115 -12.231  1.00  0.00     0.029 A 
ATOM     63  C   UNL     1      -5.193   3.236 -12.452  1.00  0.00     0.049 A 
ATOM     64  H   UNL     1      -6.155   2.287 -14.073  1.00  0.00     0.167 HD
ATOM     65  C   UNL     1      -7.535   3.769 -11.799  1.00  0.00     0.074 A 
ATOM     66  C   UNL     1      -8.307   2.701 -12.429  1.00  0.00     0.031 C 
ATOM     67  C   UNL     1      -6.202   4.057 -11.820  1.00  0.00     0.034 A 
BRANCH  54  68
ATOM     68  C   UNL     1      -5.716  -0.742 -14.306  1.00  0.00     0.023 A 
ATOM     69  C   UNL     1      -5.182  -0.403 -15.569  1.00  0.00     0.012 A 
ATOM     70  C   UNL     1      -6.929  -1.465 -14.289  1.00  0.00     0.148 A 
ATOM     71  C   UNL     1      -5.831  -0.762 -16.756  1.00  0.00     0.002 A 
ATOM     72  C   UNL     1      -7.531  -1.883 -15.470  1.00  0.00     0.091 A 
ATOM     73  F   UNL     1      -7.575  -1.641 -13.130  1.00  0.00    -0.205 F 
ATOM     74  C   UNL     1      -6.998  -1.516 -16.708  1.00  0.00     0.022 A 
BRANCH  72  75
ATOM     75  S   UNL     1      -9.017  -2.890 -15.459  1.00  0.00     0.127 S 
ATOM     76  O   UNL     1     -10.039  -1.910 -15.807  1.00  0.00    -0.237 OA
ATOM     77  O   UNL     1      -8.722  -3.877 -16.497  1.00  0.00    -0.237 OA
ATOM     78  O   UNL     1      -9.089  -3.448 -14.112  1.00  0.00    -0.744 OA
ENDBRANCH  72  75
ENDBRANCH  54  68
BRANCH  55  79
ATOM     79  C   UNL     1     -11.409   3.110  -9.191  1.00  0.00     0.023 A 
ATOM     80  C   UNL     1     -12.167   4.014  -9.966  1.00  0.00     0.012 A 
ATOM     81  C   UNL     1     -12.108   2.116  -8.469  1.00  0.00     0.148 A 
ATOM     82  C   UNL     1     -13.560   3.902 -10.060  1.00  0.00     0.002 A 
ATOM     83  C   UNL     1     -13.496   2.019  -8.552  1.00  0.00     0.091 A 
ATOM     84  F   UNL     1     -11.413   1.204  -7.778  1.00  0.00    -0.205 F 
ATOM     85  C   UNL     1     -14.224   2.900  -9.361  1.00  0.00     0.022 A 
BRANCH  83  86
ATOM     86  S   UNL     1     -14.418   0.745  -7.678  1.00  0.00     0.127 S 
ATOM     87  O   UNL     1     -15.552   1.501  -7.141  1.00  0.00    -0.237 OA
ATOM     88  O   UNL     1     -14.755  -0.180  -8.756  1.00  0.00    -0.237 OA
ATOM     89  O   UNL     1     -13.510   0.232  -6.660  1.00  0.00    -0.744 OA
ENDBRANCH  83  86
ENDBRANCH  55  79
BRANCH  67  90
ATOM     90  C   UNL     1      -5.682   5.114 -10.879  1.00  0.00     0.023 A 
ATOM     91  C   UNL     1      -5.646   4.904  -9.484  1.00  0.00     0.012 A 
ATOM     92  C   UNL     1      -5.002   6.215 -11.422  1.00  0.00     0.148 A 
ATOM     93  C   UNL     1      -4.943   5.774  -8.647  1.00  0.00     0.002 A 
ATOM     94  C   UNL     1      -4.270   7.055 -10.592  1.00  0.00     0.091 A 
ATOM     95  F   UNL     1      -5.034   6.383 -12.752  1.00  0.00    -0.205 F 
ATOM     96  C   UNL     1      -4.241   6.840  -9.204  1.00  0.00     0.022 A 
BRANCH  94  97
ATOM     97  S   UNL     1      -3.238   8.371 -11.242  1.00  0.00     0.127 S 
ATOM     98  O   UNL     1      -3.897   9.565 -10.716  1.00  0.00    -0.237 OA
ATOM     99  O   UNL     1      -1.940   8.072 -10.637  1.00  0.00    -0.237 OA
ATOM    100  O   UNL     1      -3.270   8.235 -12.693  1.00  0.00    -0.744 OA
ENDBRANCH  94  97
ENDBRANCH  67  90
ENDBRANCH  41  42
ENDBRANCH  33  36
ENDBRANCH  31  32
ENDBRANCH   1  31
TORSDOF 17
