REMARK SMILES O=C(NCCCNC(=O)[C@@H](Cc1ccc(O)cc1)Nc1c2ccccc2nc2ccccc12)c1ccc(-c2c3nc(c(-c4cccc(S(=O)(=O)[O-])c4F)c4ccc([nH]4)c(-c4cccc(S(=O)(=O)[O-])c4F)c4nc(c(-c5cccc(S(=O)(=O)[O-])c5F)c5ccc2[nH]5)C=C4)C=C3)cc1
REMARK SMILES IDX 5 1 4 2 3 3 1 4 2 5 34 7 35 8 96 9 36 10 95 11 37 12 38 13
REMARK SMILES IDX 39 14 89 15 40 16 94 17 88 18 90 19 41 20 93 21 87 22 86 23
REMARK SMILES IDX 42 25 74 26 54 27 73 28 55 29 58 30 72 31 91 32 56 33 57 34
REMARK SMILES IDX 71 36 92 37 59 38 43 39 44 40 52 41 45 42 47 43 53 44 46 45
REMARK SMILES IDX 48 46 49 47 50 48 51 49 75 50 76 51 84 52 77 53 79 54 85 55
REMARK SMILES IDX 78 56 80 57 81 58 82 59 83 60 60 61 61 62 69 63 62 64 64 65
REMARK SMILES IDX 70 66 63 67 65 68 66 69 67 70 68 71 6 72 7 73 8 74 9 76
REMARK SMILES IDX 10 77 11 78 12 79 13 80 18 81 14 82 17 83 15 84 16 85 19 87
REMARK SMILES IDX 20 89 21 90 33 91 22 92 26 93 28 94 32 95 23 96 25 97 27 98
REMARK SMILES IDX 29 99 31 100 24 101 30 102
REMARK H PARENT 3 6 90 24 58 35 7 75 16 86 19 88
REMARK Flexibility Score: inf
ROOT
ATOM      1  C   UNL     1       4.166  -2.214  -0.843  1.00  0.00     0.042 C 
ENDROOT
BRANCH   1   2
ATOM      2  C   UNL     1       3.775  -0.965  -1.617  1.00  0.00     0.118 C 
BRANCH   2   3
ATOM      3  N   UNL     1       2.442  -0.502  -1.272  1.00  0.00    -0.352 N 
ATOM      4  O   UNL     1       0.758   0.342  -0.089  1.00  0.00    -0.269 OA
ATOM      5  C   UNL     1       1.974   0.328  -0.280  1.00  0.00     0.251 C 
ATOM      6  H   UNL     1       1.736  -0.851  -1.863  1.00  0.00     0.163 HD
BRANCH   5   7
ATOM      7  C   UNL     1       2.853   1.182   0.571  1.00  0.00     0.039 A 
ATOM      8  C   UNL     1       4.051   1.737   0.124  1.00  0.00     0.014 A 
ATOM      9  C   UNL     1       2.390   1.546   1.845  1.00  0.00     0.014 A 
ATOM     10  C   UNL     1       4.836   2.524   0.974  1.00  0.00     0.010 A 
ATOM     11  C   UNL     1       3.124   2.427   2.656  1.00  0.00     0.010 A 
ATOM     12  C   UNL     1       4.374   2.906   2.243  1.00  0.00    -0.014 A 
BRANCH  12  13
ATOM     13  C   UNL     1       5.176   3.857   3.069  1.00  0.00     0.031 A 
ATOM     14  C   UNL     1       5.679   3.480   4.440  1.00  0.00     0.074 A 
ATOM     15  C   UNL     1       5.457   5.085   2.580  1.00  0.00     0.049 A 
ATOM     16  N   UNL     1       6.453   4.161   5.248  1.00  0.00    -0.248 NA
ATOM     17  C   UNL     1       5.256   2.179   4.980  1.00  0.00     0.031 C 
ATOM     18  C   UNL     1       4.979   5.611   1.298  1.00  0.00     0.029 A 
ATOM     19  N   UNL     1       6.213   6.111   3.093  1.00  0.00    -0.354 N 
ATOM     20  C   UNL     1       6.574   3.396   6.404  1.00  0.00     0.074 A 
ATOM     21  C   UNL     1       5.788   2.199   6.195  1.00  0.00     0.031 C 
ATOM     22  C   UNL     1       5.487   6.838   1.106  1.00  0.00     0.029 A 
ATOM     23  C   UNL     1       6.286   7.211   2.267  1.00  0.00     0.049 A 
ATOM     24  H   UNL     1       6.661   6.065   3.968  1.00  0.00     0.167 HD
ATOM     25  C   UNL     1       7.281   3.655   7.531  1.00  0.00     0.034 A 
ATOM     26  C   UNL     1       6.920   8.390   2.421  1.00  0.00     0.034 A 
ATOM     27  C   UNL     1       8.089   4.830   7.732  1.00  0.00     0.049 A 
ATOM     28  C   UNL     1       7.733   8.631   3.662  1.00  0.00     0.074 A 
ATOM     29  C   UNL     1       8.902   5.139   8.809  1.00  0.00     0.029 A 
ATOM     30  N   UNL     1       8.177   5.894   6.849  1.00  0.00    -0.354 N 
ATOM     31  N   UNL     1       7.958   7.824   4.669  1.00  0.00    -0.248 NA
ATOM     32  C   UNL     1       8.405   9.933   3.773  1.00  0.00     0.031 C 
ATOM     33  C   UNL     1       9.464   6.402   8.587  1.00  0.00     0.029 A 
ATOM     34  C   UNL     1       9.024   6.865   7.359  1.00  0.00     0.049 A 
ATOM     35  H   UNL     1       7.707   5.951   5.986  1.00  0.00     0.167 HD
ATOM     36  C   UNL     1       8.829   8.503   5.513  1.00  0.00     0.074 A 
ATOM     37  C   UNL     1       9.105   9.780   4.889  1.00  0.00     0.031 C 
ATOM     38  C   UNL     1       9.342   8.108   6.704  1.00  0.00     0.034 A 
BRANCH  25  39
ATOM     39  C   UNL     1       7.242   2.629   8.636  1.00  0.00     0.023 A 
ATOM     40  C   UNL     1       7.931   1.409   8.480  1.00  0.00     0.012 A 
ATOM     41  C   UNL     1       6.580   2.896   9.850  1.00  0.00     0.148 A 
ATOM     42  C   UNL     1       7.932   0.457   9.499  1.00  0.00     0.002 A 
ATOM     43  C   UNL     1       6.622   1.961  10.879  1.00  0.00     0.091 A 
ATOM     44  F   UNL     1       5.913   4.053   9.974  1.00  0.00    -0.205 F 
ATOM     45  C   UNL     1       7.287   0.738  10.701  1.00  0.00     0.022 A 
BRANCH  43  46
ATOM     46  S   UNL     1       5.891   2.267  12.492  1.00  0.00     0.127 S 
ATOM     47  O   UNL     1       4.707   1.411  12.445  1.00  0.00    -0.237 OA
ATOM     48  O   UNL     1       6.941   1.804  13.400  1.00  0.00    -0.237 OA
ATOM     49  O   UNL     1       5.631   3.698  12.547  1.00  0.00    -0.744 OA
ENDBRANCH  43  46
ENDBRANCH  25  39
BRANCH  26  50
ATOM     50  C   UNL     1       6.871   9.411   1.334  1.00  0.00     0.023 A 
ATOM     51  C   UNL     1       8.038   9.693   0.597  1.00  0.00     0.012 A 
ATOM     52  C   UNL     1       5.676  10.079   1.008  1.00  0.00     0.148 A 
ATOM     53  C   UNL     1       8.023  10.643  -0.425  1.00  0.00     0.002 A 
ATOM     54  C   UNL     1       5.654  10.982  -0.050  1.00  0.00     0.091 A 
ATOM     55  F   UNL     1       4.579   9.809   1.730  1.00  0.00    -0.205 F 
ATOM     56  C   UNL     1       6.830  11.278  -0.756  1.00  0.00     0.022 A 
BRANCH  54  57
ATOM     57  S   UNL     1       4.135  11.743  -0.633  1.00  0.00     0.127 S 
ATOM     58  O   UNL     1       4.309  13.126  -0.200  1.00  0.00    -0.237 OA
ATOM     59  O   UNL     1       4.226  11.531  -2.078  1.00  0.00    -0.237 OA
ATOM     60  O   UNL     1       3.056  11.007   0.013  1.00  0.00    -0.744 OA
ENDBRANCH  54  57
ENDBRANCH  26  50
BRANCH  38  61
ATOM     61  C   UNL     1      10.301   9.042   7.396  1.00  0.00     0.023 A 
ATOM     62  C   UNL     1       9.826  10.226   7.993  1.00  0.00     0.012 A 
ATOM     63  C   UNL     1      11.666   8.712   7.506  1.00  0.00     0.148 A 
ATOM     64  C   UNL     1      10.702  11.086   8.656  1.00  0.00     0.002 A 
ATOM     65  C   UNL     1      12.524   9.549   8.211  1.00  0.00     0.091 A 
ATOM     66  F   UNL     1      12.105   7.593   6.911  1.00  0.00    -0.205 F 
ATOM     67  C   UNL     1      12.046  10.742   8.776  1.00  0.00     0.022 A 
BRANCH  65  68
ATOM     68  S   UNL     1      14.247   9.126   8.494  1.00  0.00     0.127 S 
ATOM     69  O   UNL     1      14.927   9.989   7.527  1.00  0.00    -0.237 OA
ATOM     70  O   UNL     1      14.438   9.514   9.894  1.00  0.00    -0.237 OA
ATOM     71  O   UNL     1      14.352   7.698   8.247  1.00  0.00    -0.744 OA
ENDBRANCH  65  68
ENDBRANCH  38  61
ENDBRANCH  12  13
ENDBRANCH   5   7
ENDBRANCH   2   3
ENDBRANCH   1   2
BRANCH   1  72
ATOM     72  C   UNL     1       3.736  -3.526  -1.489  1.00  0.00     0.117 C 
BRANCH  72  73
ATOM     73  N   UNL     1       4.647  -3.906  -2.555  1.00  0.00    -0.354 N 
ATOM     74  C   UNL     1       5.720  -4.741  -2.610  1.00  0.00     0.242 C 
ATOM     75  H   UNL     1       4.446  -3.471  -3.415  1.00  0.00     0.163 HD
ATOM     76  O   UNL     1       6.423  -4.625  -3.625  1.00  0.00    -0.273 OA
BRANCH  74  77
ATOM     77  C   UNL     1       6.116  -5.782  -1.530  1.00  0.00     0.173 C 
BRANCH  77  78
ATOM     78  C   UNL     1       6.946  -5.203  -0.355  1.00  0.00     0.070 C 
BRANCH  78  79
ATOM     79  C   UNL     1       6.313  -4.351   0.720  1.00  0.00    -0.045 A 
ATOM     80  C   UNL     1       6.864  -3.092   1.019  1.00  0.00     0.007 A 
ATOM     81  C   UNL     1       5.241  -4.809   1.498  1.00  0.00     0.007 A 
ATOM     82  C   UNL     1       6.273  -2.256   1.972  1.00  0.00     0.046 A 
ATOM     83  C   UNL     1       4.644  -3.973   2.446  1.00  0.00     0.046 A 
ATOM     84  C   UNL     1       5.143  -2.693   2.650  1.00  0.00     0.115 A 
BRANCH  84  85
ATOM     85  O   UNL     1       4.474  -1.878   3.512  1.00  0.00    -0.508 OA
ATOM     86  H   UNL     1       4.784  -1.009   3.672  1.00  0.00     0.293 HD
ENDBRANCH  84  85
ENDBRANCH  78  79
ENDBRANCH  77  78
BRANCH  77  87
ATOM     87  N   UNL     1       5.003  -6.647  -1.111  1.00  0.00    -0.372 N 
ATOM     88  H   UNL     1       4.328  -6.242  -0.519  1.00  0.00     0.161 HD
BRANCH  87  89
ATOM     89  C   UNL     1       4.802  -7.991  -1.465  1.00  0.00     0.054 A 
ATOM     90  C   UNL     1       5.814  -9.003  -1.365  1.00  0.00     0.024 A 
ATOM     91  C   UNL     1       3.503  -8.372  -1.938  1.00  0.00     0.024 A 
ATOM     92  C   UNL     1       7.157  -8.818  -0.940  1.00  0.00     0.012 A 
ATOM     93  C   UNL     1       5.435 -10.328  -1.672  1.00  0.00     0.073 A 
ATOM     94  C   UNL     1       3.269  -9.738  -2.186  1.00  0.00     0.073 A 
ATOM     95  C   UNL     1       2.433  -7.470  -2.187  1.00  0.00     0.012 A 
ATOM     96  C   UNL     1       8.080  -9.863  -0.862  1.00  0.00     0.001 A 
ATOM     97  C   UNL     1       6.359 -11.361  -1.570  1.00  0.00     0.029 A 
ATOM     98  N   UNL     1       4.204 -10.678  -2.050  1.00  0.00    -0.248 NA
ATOM     99  C   UNL     1       2.012 -10.160  -2.600  1.00  0.00     0.029 A 
ATOM    100  C   UNL     1       1.181  -7.912  -2.621  1.00  0.00     0.001 A 
ATOM    101  C   UNL     1       7.677 -11.146  -1.177  1.00  0.00     0.002 A 
ATOM    102  C   UNL     1       0.966  -9.265  -2.816  1.00  0.00     0.002 A 
ENDBRANCH  87  89
ENDBRANCH  77  87
ENDBRANCH  74  77
ENDBRANCH  72  73
ENDBRANCH   1  72
TORSDOF 18
