REMARK SMILES O=C(NCCCNC(=O)[C@@H]1C[N@@H+](C2CCN(C(=O)c3ccccc3)CC2)C[C@H]1C1CC1)c1ccc(-c2c3nc(c(-c4cccc(S(=O)(=O)[O-])c4F)c4ccc([nH]4)c(-c4cccc(S(=O)(=O)[O-])c4F)c4nc(c(-c5cccc(S(=O)(=O)[O-])c5F)c5ccc2[nH]5)C=C4)C=C3)cc1
REMARK SMILES IDX 4 1 3 2 1 3 2 4 32 6 33 7 94 8 34 9 93 10 35 11 36 12 37 13
REMARK SMILES IDX 87 14 38 15 92 16 86 17 88 18 39 19 91 20 85 21 84 22 40 24
REMARK SMILES IDX 72 25 52 26 71 27 53 28 56 29 70 30 89 31 54 32 55 33 69 35
REMARK SMILES IDX 90 36 57 37 41 38 42 39 50 40 43 41 45 42 51 43 44 44 46 45
REMARK SMILES IDX 47 46 48 47 49 48 73 49 74 50 82 51 75 52 77 53 83 54 76 55
REMARK SMILES IDX 78 56 79 57 80 58 81 59 58 60 59 61 67 62 60 63 62 64 68 65
REMARK SMILES IDX 61 66 63 67 64 68 65 69 66 70 5 71 6 72 7 73 8 74 9 76 10 77
REMARK SMILES IDX 11 78 28 79 12 80 27 81 29 83 30 84 31 85 13 86 14 87 26 88
REMARK SMILES IDX 15 89 25 90 16 91 17 92 18 93 19 94 20 95 24 96 21 97 23 98
REMARK SMILES IDX 22 99
REMARK H PARENT 3 5 88 23 56 34 7 75 12 82
REMARK Flexibility Score: inf
ROOT
ATOM      1  C   UNL     1       4.082  -0.380  -1.259  1.00  0.00     0.118 C 
ENDROOT
BRANCH   1   2
ATOM      2  N   UNL     1       2.752   0.129  -0.970  1.00  0.00    -0.352 N 
ATOM      3  O   UNL     1       0.926   0.435   0.310  1.00  0.00    -0.269 OA
ATOM      4  C   UNL     1       2.155   0.314   0.249  1.00  0.00     0.251 C 
ATOM      5  H   UNL     1       2.208   0.374  -1.753  1.00  0.00     0.163 HD
BRANCH   4   6
ATOM      6  C   UNL     1       2.974   0.365   1.478  1.00  0.00     0.039 A 
ATOM      7  C   UNL     1       4.174   1.082   1.495  1.00  0.00     0.014 A 
ATOM      8  C   UNL     1       2.516  -0.258   2.642  1.00  0.00     0.014 A 
ATOM      9  C   UNL     1       4.966   1.085   2.638  1.00  0.00     0.010 A 
ATOM     10  C   UNL     1       3.272  -0.182   3.815  1.00  0.00     0.010 A 
ATOM     11  C   UNL     1       4.509   0.481   3.820  1.00  0.00    -0.014 A 
BRANCH  11  12
ATOM     12  C   UNL     1       5.285   0.665   5.073  1.00  0.00     0.031 A 
ATOM     13  C   UNL     1       5.905  -0.497   5.793  1.00  0.00     0.074 A 
ATOM     14  C   UNL     1       5.414   1.915   5.562  1.00  0.00     0.049 A 
ATOM     15  N   UNL     1       6.628  -0.493   6.883  1.00  0.00    -0.248 NA
ATOM     16  C   UNL     1       5.680  -1.838   5.229  1.00  0.00     0.031 C 
ATOM     17  C   UNL     1       4.804   3.112   4.976  1.00  0.00     0.029 A 
ATOM     18  N   UNL     1       6.090   2.390   6.655  1.00  0.00    -0.354 N 
ATOM     19  C   UNL     1       6.912  -1.825   7.161  1.00  0.00     0.074 A 
ATOM     20  C   UNL     1       6.279  -2.613   6.124  1.00  0.00     0.031 C 
ATOM     21  C   UNL     1       5.157   4.185   5.697  1.00  0.00     0.029 A 
ATOM     22  C   UNL     1       5.972   3.750   6.824  1.00  0.00     0.049 A 
ATOM     23  H   UNL     1       6.611   1.814   7.261  1.00  0.00     0.167 HD
ATOM     24  C   UNL     1       7.644  -2.338   8.178  1.00  0.00     0.034 A 
ATOM     25  C   UNL     1       6.453   4.560   7.786  1.00  0.00     0.034 A 
ATOM     26  C   UNL     1       8.299  -1.542   9.184  1.00  0.00     0.049 A 
ATOM     27  C   UNL     1       7.296   3.966   8.876  1.00  0.00     0.074 A 
ATOM     28  C   UNL     1       9.118  -1.965  10.217  1.00  0.00     0.029 A 
ATOM     29  N   UNL     1       8.205  -0.163   9.290  1.00  0.00    -0.354 N 
ATOM     30  N   UNL     1       7.663   2.718   9.043  1.00  0.00    -0.248 NA
ATOM     31  C   UNL     1       7.814   4.890   9.893  1.00  0.00     0.031 C 
ATOM     32  C   UNL     1       9.505  -0.843  10.958  1.00  0.00     0.029 A 
ATOM     33  C   UNL     1       8.944   0.282  10.375  1.00  0.00     0.049 A 
ATOM     34  H   UNL     1       7.689   0.416   8.684  1.00  0.00     0.167 HD
ATOM     35  C   UNL     1       8.470   2.709  10.173  1.00  0.00     0.074 A 
ATOM     36  C   UNL     1       8.564   4.082  10.630  1.00  0.00     0.031 C 
ATOM     37  C   UNL     1       9.063   1.657  10.789  1.00  0.00     0.034 A 
BRANCH  24  38
ATOM     38  C   UNL     1       7.816  -3.834   8.238  1.00  0.00     0.023 A 
ATOM     39  C   UNL     1       8.684  -4.471   7.327  1.00  0.00     0.012 A 
ATOM     40  C   UNL     1       7.184  -4.599   9.239  1.00  0.00     0.148 A 
ATOM     41  C   UNL     1       8.899  -5.847   7.394  1.00  0.00     0.002 A 
ATOM     42  C   UNL     1       7.433  -5.965   9.323  1.00  0.00     0.091 A 
ATOM     43  F   UNL     1       6.347  -3.980  10.083  1.00  0.00    -0.205 F 
ATOM     44  C   UNL     1       8.283  -6.591   8.397  1.00  0.00     0.022 A 
BRANCH  42  45
ATOM     45  S   UNL     1       6.744  -6.997  10.622  1.00  0.00     0.127 S 
ATOM     46  O   UNL     1       5.738  -7.762   9.887  1.00  0.00    -0.237 OA
ATOM     47  O   UNL     1       7.907  -7.775  11.050  1.00  0.00    -0.237 OA
ATOM     48  O   UNL     1       6.224  -6.081  11.628  1.00  0.00    -0.744 OA
ENDBRANCH  42  45
ENDBRANCH  24  38
BRANCH  25  49
ATOM     49  C   UNL     1       6.182   6.023   7.720  1.00  0.00     0.023 A 
ATOM     50  C   UNL     1       7.233   6.911   7.423  1.00  0.00     0.012 A 
ATOM     51  C   UNL     1       4.879   6.532   7.884  1.00  0.00     0.148 A 
ATOM     52  C   UNL     1       6.995   8.282   7.311  1.00  0.00     0.002 A 
ATOM     53  C   UNL     1       4.638   7.889   7.711  1.00  0.00     0.091 A 
ATOM     54  F   UNL     1       3.894   5.673   8.183  1.00  0.00    -0.205 F 
ATOM     55  C   UNL     1       5.697   8.769   7.441  1.00  0.00     0.022 A 
BRANCH  53  56
ATOM     56  S   UNL     1       2.975   8.571   7.711  1.00  0.00     0.127 S 
ATOM     57  O   UNL     1       2.920   9.224   9.015  1.00  0.00    -0.237 OA
ATOM     58  O   UNL     1       3.018   9.481   6.566  1.00  0.00    -0.237 OA
ATOM     59  O   UNL     1       2.089   7.428   7.531  1.00  0.00    -0.744 OA
ENDBRANCH  53  56
ENDBRANCH  25  49
BRANCH  37  60
ATOM     60  C   UNL     1       9.881   1.950  12.018  1.00  0.00     0.023 A 
ATOM     61  C   UNL     1       9.232   2.279  13.224  1.00  0.00     0.012 A 
ATOM     62  C   UNL     1      11.284   1.842  11.993  1.00  0.00     0.148 A 
ATOM     63  C   UNL     1       9.970   2.528  14.380  1.00  0.00     0.002 A 
ATOM     64  C   UNL     1      12.011   2.046  13.160  1.00  0.00     0.091 A 
ATOM     65  F   UNL     1      11.884   1.550  10.829  1.00  0.00    -0.205 F 
ATOM     66  C   UNL     1      11.356   2.400  14.351  1.00  0.00     0.022 A 
BRANCH  64  67
ATOM     67  S   UNL     1      13.790   1.814  13.233  1.00  0.00     0.127 S 
ATOM     68  O   UNL     1      14.271   3.194  13.251  1.00  0.00    -0.237 OA
ATOM     69  O   UNL     1      13.960   1.092  14.495  1.00  0.00    -0.237 OA
ATOM     70  O   UNL     1      14.139   1.042  12.048  1.00  0.00    -0.744 OA
ENDBRANCH  64  67
ENDBRANCH  37  60
ENDBRANCH  11  12
ENDBRANCH   4   6
ENDBRANCH   1   2
BRANCH   1  71
ATOM     71  C   UNL     1       4.029  -1.813  -1.779  1.00  0.00     0.042 C 
BRANCH  71  72
ATOM     72  C   UNL     1       3.471  -1.924  -3.194  1.00  0.00     0.117 C 
BRANCH  72  73
ATOM     73  N   UNL     1       4.207  -1.099  -4.127  1.00  0.00    -0.356 N 
ATOM     74  C   UNL     1       5.369  -1.272  -4.786  1.00  0.00     0.229 C 
ATOM     75  H   UNL     1       3.771  -0.237  -4.317  1.00  0.00     0.163 HD
ATOM     76  O   UNL     1       5.780  -0.281  -5.406  1.00  0.00    -0.275 OA
BRANCH  74  77
ATOM     77  C   UNL     1       6.112  -2.582  -4.944  1.00  0.00     0.142 C 
ATOM     78  C   UNL     1       5.556  -3.295  -6.168  1.00  0.00     0.276 C 
ATOM     79  C   UNL     1       6.223  -3.682  -3.903  1.00  0.00     0.065 C 
ATOM     80  N   UNL     1       6.161  -4.622  -6.174  1.00  0.00    -0.331 N 
ATOM     81  C   UNL     1       6.351  -4.974  -4.751  1.00  0.00     0.267 C 
ATOM     82  H   UNL     1       5.521  -5.244  -6.668  1.00  0.00     0.348 HD
BRANCH  79  83
ATOM     83  C   UNL     1       7.346  -3.575  -2.891  1.00  0.00    -0.001 C 
ATOM     84  C   UNL     1       8.690  -2.926  -3.140  1.00  0.00     0.004 C 
ATOM     85  C   UNL     1       7.701  -2.269  -2.221  1.00  0.00     0.004 C 
ENDBRANCH  79  83
BRANCH  80  86
ATOM     86  C   UNL     1       7.360  -4.862  -7.007  1.00  0.00     0.187 C 
ATOM     87  C   UNL     1       8.666  -4.141  -6.653  1.00  0.00     0.086 C 
ATOM     88  C   UNL     1       7.122  -4.761  -8.528  1.00  0.00     0.086 C 
ATOM     89  C   UNL     1       8.787  -2.742  -7.231  1.00  0.00     0.126 C 
ATOM     90  C   UNL     1       7.372  -3.392  -9.163  1.00  0.00     0.126 C 
ATOM     91  N   UNL     1       8.568  -2.709  -8.664  1.00  0.00    -0.338 N 
ATOM     92  C   UNL     1       9.338  -1.795  -9.385  1.00  0.00     0.253 C 
ATOM     93  O   UNL     1      10.277  -1.162  -8.905  1.00  0.00    -0.269 OA
BRANCH  92  94
ATOM     94  C   UNL     1       9.069  -1.584 -10.816  1.00  0.00     0.040 A 
ATOM     95  C   UNL     1      10.090  -1.899 -11.717  1.00  0.00     0.014 A 
ATOM     96  C   UNL     1       7.876  -1.006 -11.259  1.00  0.00     0.014 A 
ATOM     97  C   UNL     1       9.900  -1.678 -13.078  1.00  0.00     0.001 A 
ATOM     98  C   UNL     1       7.690  -0.791 -12.625  1.00  0.00     0.001 A 
ATOM     99  C   UNL     1       8.698  -1.132 -13.531  1.00  0.00     0.000 A 
ENDBRANCH  92  94
ENDBRANCH  80  86
ENDBRANCH  74  77
ENDBRANCH  72  73
ENDBRANCH  71  72
ENDBRANCH   1  71
TORSDOF 16
