REMARK SMILES CN(CC(=O)NCCCNC(=O)c1ccc(-c2c3nc(c(-c4cccc(S(=O)(=O)[O-])c4F)c4ccc([nH]4)c(-c4cccc(S(=O)(=O)[O-])c4F)c4nc(c(-c5cccc(S(=O)(=O)[O-])c5F)c5ccc2[nH]5)C=C4)C=C3)cc1)C(=O)c1ccccn1
REMARK SMILES IDX 8 1 7 2 6 3 4 4 5 5 3 7 2 8 1 9 76 10 77 11 78 12 79 13
REMARK SMILES IDX 83 14 80 15 82 16 81 17 9 18 10 19 11 20 12 22 13 23 14 24
REMARK SMILES IDX 75 25 15 26 74 27 16 28 17 29 18 30 68 31 19 32 73 33 67 34
REMARK SMILES IDX 69 35 20 36 72 37 66 38 65 39 21 41 53 42 33 43 52 44 34 45
REMARK SMILES IDX 37 46 51 47 70 48 35 49 36 50 50 52 71 53 38 54 22 55 23 56
REMARK SMILES IDX 31 57 24 58 26 59 32 60 25 61 27 62 28 63 29 64 30 65 54 66
REMARK SMILES IDX 55 67 63 68 56 69 58 70 64 71 57 72 59 73 60 74 61 75 62 76
REMARK SMILES IDX 39 77 40 78 48 79 41 80 43 81 49 82 42 83 44 84 45 85 46 86
REMARK SMILES IDX 47 87
REMARK H PARENT 6 6 10 21 69 40 37 51
REMARK Flexibility Score: inf
ROOT
ATOM      1  C   UNL     1      -1.970  -0.823   1.218  1.00  0.00     0.042 C 
ENDROOT
BRANCH   1   2
ATOM      2  C   UNL     1      -2.133  -0.188  -0.159  1.00  0.00     0.117 C 
BRANCH   2   3
ATOM      3  N   UNL     1      -2.471   1.220  -0.123  1.00  0.00    -0.354 N 
ATOM      4  C   UNL     1      -1.693   2.313  -0.365  1.00  0.00     0.239 C 
ATOM      5  O   UNL     1      -2.279   3.381  -0.572  1.00  0.00    -0.273 OA
ATOM      6  H   UNL     1      -3.406   1.419   0.113  1.00  0.00     0.163 HD
BRANCH   4   7
ATOM      7  C   UNL     1      -0.165   2.220  -0.523  1.00  0.00     0.219 C 
BRANCH   7   8
ATOM      8  N   UNL     1       0.550   1.417   0.474  1.00  0.00    -0.331 N 
ATOM      9  C   UNL     1       1.270   0.236   0.023  1.00  0.00     0.147 C 
BRANCH   8  10
ATOM     10  C   UNL     1       0.881   1.870   1.763  1.00  0.00     0.272 C 
ATOM     11  O   UNL     1       1.566   1.195   2.531  1.00  0.00    -0.267 OA
BRANCH  10  12
ATOM     12  C   UNL     1       0.430   3.213   2.227  1.00  0.00     0.128 A 
ATOM     13  C   UNL     1      -0.911   3.459   2.488  1.00  0.00     0.034 A 
ATOM     14  N   UNL     1       1.417   4.125   2.430  1.00  0.00    -0.251 NA
ATOM     15  C   UNL     1      -1.268   4.723   2.950  1.00  0.00     0.004 A 
ATOM     16  C   UNL     1       1.041   5.322   2.927  1.00  0.00     0.112 A 
ATOM     17  C   UNL     1      -0.276   5.669   3.185  1.00  0.00     0.020 A 
ENDBRANCH  10  12
ENDBRANCH   8  10
ENDBRANCH   7   8
ENDBRANCH   4   7
ENDBRANCH   2   3
ENDBRANCH   1   2
BRANCH   1  18
ATOM     18  C   UNL     1      -3.233  -0.847   2.076  1.00  0.00     0.118 C 
BRANCH  18  19
ATOM     19  N   UNL     1      -4.343  -1.542   1.441  1.00  0.00    -0.352 N 
ATOM     20  C   UNL     1      -5.083  -2.626   1.841  1.00  0.00     0.251 C 
ATOM     21  H   UNL     1      -4.611  -1.168   0.570  1.00  0.00     0.163 HD
ATOM     22  O   UNL     1      -5.867  -3.127   1.035  1.00  0.00    -0.269 OA
BRANCH  20  23
ATOM     23  C   UNL     1      -4.960  -3.206   3.200  1.00  0.00     0.039 A 
ATOM     24  C   UNL     1      -5.091  -4.593   3.344  1.00  0.00     0.014 A 
ATOM     25  C   UNL     1      -4.795  -2.411   4.337  1.00  0.00     0.014 A 
ATOM     26  C   UNL     1      -5.012  -5.179   4.611  1.00  0.00     0.010 A 
ATOM     27  C   UNL     1      -4.641  -3.004   5.592  1.00  0.00     0.010 A 
ATOM     28  C   UNL     1      -4.762  -4.393   5.746  1.00  0.00    -0.014 A 
BRANCH  28  29
ATOM     29  C   UNL     1      -4.625  -5.011   7.092  1.00  0.00     0.031 A 
ATOM     30  C   UNL     1      -5.601  -4.684   8.193  1.00  0.00     0.074 A 
ATOM     31  C   UNL     1      -3.580  -5.825   7.346  1.00  0.00     0.049 A 
ATOM     32  N   UNL     1      -5.627  -5.116   9.428  1.00  0.00    -0.248 NA
ATOM     33  C   UNL     1      -6.674  -3.728   7.873  1.00  0.00     0.031 C 
ATOM     34  C   UNL     1      -2.521  -6.162   6.392  1.00  0.00     0.029 A 
ATOM     35  N   UNL     1      -3.225  -6.502   8.487  1.00  0.00    -0.354 N 
ATOM     36  C   UNL     1      -6.691  -4.463  10.040  1.00  0.00     0.074 A 
ATOM     37  C   UNL     1      -7.266  -3.579   9.050  1.00  0.00     0.031 C 
ATOM     38  C   UNL     1      -1.643  -6.988   6.983  1.00  0.00     0.029 A 
ATOM     39  C   UNL     1      -2.059  -7.221   8.362  1.00  0.00     0.049 A 
ATOM     40  H   UNL     1      -3.756  -6.475   9.316  1.00  0.00     0.167 HD
ATOM     41  C   UNL     1      -7.170  -4.608  11.300  1.00  0.00     0.034 A 
ATOM     42  C   UNL     1      -1.399  -7.984   9.256  1.00  0.00     0.034 A 
ATOM     43  C   UNL     1      -6.624  -5.521  12.269  1.00  0.00     0.049 A 
ATOM     44  C   UNL     1      -1.978  -8.166  10.633  1.00  0.00     0.074 A 
ATOM     45  C   UNL     1      -7.087  -5.801  13.543  1.00  0.00     0.029 A 
ATOM     46  N   UNL     1      -5.494  -6.299  12.076  1.00  0.00    -0.354 N 
ATOM     47  N   UNL     1      -3.077  -7.662  11.139  1.00  0.00    -0.248 NA
ATOM     48  C   UNL     1      -1.248  -9.056  11.548  1.00  0.00     0.031 C 
ATOM     49  C   UNL     1      -6.225  -6.735  14.127  1.00  0.00     0.029 A 
ATOM     50  C   UNL     1      -5.241  -7.057  13.207  1.00  0.00     0.049 A 
ATOM     51  H   UNL     1      -4.950  -6.311  11.255  1.00  0.00     0.167 HD
ATOM     52  C   UNL     1      -3.193  -8.205  12.414  1.00  0.00     0.074 A 
ATOM     53  C   UNL     1      -2.061  -9.091  12.595  1.00  0.00     0.031 C 
ATOM     54  C   UNL     1      -4.145  -7.981  13.354  1.00  0.00     0.034 A 
BRANCH  41  55
ATOM     55  C   UNL     1      -8.384  -3.801  11.685  1.00  0.00     0.023 A 
ATOM     56  C   UNL     1      -9.638  -4.128  11.130  1.00  0.00     0.012 A 
ATOM     57  C   UNL     1      -8.301  -2.765  12.636  1.00  0.00     0.148 A 
ATOM     58  C   UNL     1     -10.782  -3.413  11.482  1.00  0.00     0.002 A 
ATOM     59  C   UNL     1      -9.453  -2.086  13.016  1.00  0.00     0.091 A 
ATOM     60  F   UNL     1      -7.098  -2.454  13.141  1.00  0.00    -0.205 F 
ATOM     61  C   UNL     1     -10.691  -2.400  12.432  1.00  0.00     0.022 A 
BRANCH  59  62
ATOM     62  S   UNL     1      -9.456  -0.818  14.290  1.00  0.00     0.127 S 
ATOM     63  O   UNL     1      -9.650   0.396  13.498  1.00  0.00    -0.237 OA
ATOM     64  O   UNL     1     -10.608  -1.203  15.107  1.00  0.00    -0.237 OA
ATOM     65  O   UNL     1      -8.171  -0.927  14.966  1.00  0.00    -0.744 OA
ENDBRANCH  59  62
ENDBRANCH  41  55
BRANCH  42  66
ATOM     66  C   UNL     1      -0.160  -8.704   8.846  1.00  0.00     0.023 A 
ATOM     67  C   UNL     1      -0.192 -10.105   8.705  1.00  0.00     0.012 A 
ATOM     68  C   UNL     1       1.035  -8.012   8.568  1.00  0.00     0.148 A 
ATOM     69  C   UNL     1       0.951 -10.809   8.325  1.00  0.00     0.002 A 
ATOM     70  C   UNL     1       2.155  -8.714   8.137  1.00  0.00     0.091 A 
ATOM     71  F   UNL     1       1.049  -6.681   8.720  1.00  0.00    -0.205 F 
ATOM     72  C   UNL     1       2.121 -10.113   8.031  1.00  0.00     0.022 A 
BRANCH  70  73
ATOM     73  S   UNL     1       3.664  -7.892   7.612  1.00  0.00     0.127 S 
ATOM     74  O   UNL     1       4.582  -8.233   8.697  1.00  0.00    -0.237 OA
ATOM     75  O   UNL     1       3.942  -8.558   6.338  1.00  0.00    -0.237 OA
ATOM     76  O   UNL     1       3.321  -6.484   7.490  1.00  0.00    -0.744 OA
ENDBRANCH  70  73
ENDBRANCH  42  66
BRANCH  54  77
ATOM     77  C   UNL     1      -4.037  -8.736  14.653  1.00  0.00     0.023 A 
ATOM     78  C   UNL     1      -3.038  -8.395  15.585  1.00  0.00     0.012 A 
ATOM     79  C   UNL     1      -4.972  -9.739  14.978  1.00  0.00     0.148 A 
ATOM     80  C   UNL     1      -2.950  -9.063  16.806  1.00  0.00     0.002 A 
ATOM     81  C   UNL     1      -4.909 -10.366  16.217  1.00  0.00     0.091 A 
ATOM     82  F   UNL     1      -5.904 -10.065  14.070  1.00  0.00    -0.205 F 
ATOM     83  C   UNL     1      -3.891 -10.039  17.127  1.00  0.00     0.022 A 
BRANCH  81  84
ATOM     84  S   UNL     1      -6.136 -11.564  16.751  1.00  0.00     0.127 S 
ATOM     85  O   UNL     1      -5.397 -12.820  16.638  1.00  0.00    -0.237 OA
ATOM     86  O   UNL     1      -6.410 -11.139  18.124  1.00  0.00    -0.237 OA
ATOM     87  O   UNL     1      -7.263 -11.415  15.839  1.00  0.00    -0.744 OA
ENDBRANCH  81  84
ENDBRANCH  54  77
ENDBRANCH  28  29
ENDBRANCH  20  23
ENDBRANCH  18  19
ENDBRANCH   1  18
TORSDOF 16
