REMARK SMILES O=C(NCCCNC(=O)[C@H]1CSC2(CCCCC2)[NH2+]1)c1ccc(-c2c3nc(c(-c4cccc(S(=O)(=O)[O-])c4F)c4ccc([nH]4)c(-c4cccc(S(=O)(=O)[O-])c4F)c4nc(c(-c5cccc(S(=O)(=O)[O-])c5F)c5ccc2[nH]5)C=C4)C=C3)cc1
REMARK SMILES IDX 1 1 2 2 3 3 20 5 21 6 82 7 22 8 81 9 23 10 24 11 25 12 75 13
REMARK SMILES IDX 26 14 80 15 74 16 76 17 27 18 79 19 73 20 72 21 28 23 60 24
REMARK SMILES IDX 40 25 59 26 41 27 44 28 58 29 77 30 42 31 43 32 57 34 78 35
REMARK SMILES IDX 45 36 29 37 30 38 38 39 31 40 33 41 39 42 32 43 34 44 35 45
REMARK SMILES IDX 36 46 37 47 61 48 62 49 70 50 63 51 65 52 71 53 64 54 66 55
REMARK SMILES IDX 67 56 68 57 69 58 46 59 47 60 55 61 48 62 50 63 56 64 49 65
REMARK SMILES IDX 51 66 52 67 53 68 54 69 4 70 5 71 6 72 7 73 8 74 9 76 10 77
REMARK SMILES IDX 11 78 19 79 12 80 13 81 14 84 18 85 15 86 17 87 16 88
REMARK H PARENT 3 4 76 22 44 33 7 75 19 82 19 83
REMARK Flexibility Score: inf
ROOT
ATOM      1  O   UNL     1       4.602  12.604  -5.471  1.00  0.00    -0.269 OA
ATOM      2  C   UNL     1       4.428  11.457  -5.866  1.00  0.00     0.251 C 
ATOM      3  N   UNL     1       4.174  10.473  -4.939  1.00  0.00    -0.352 N 
ATOM      4  H   UNL     1       3.969  10.808  -4.037  1.00  0.00     0.163 HD
ENDROOT
BRANCH   2   5
ATOM      5  C   UNL     1       4.505  11.144  -7.312  1.00  0.00     0.039 A 
ATOM      6  C   UNL     1       3.697  10.160  -7.879  1.00  0.00     0.014 A 
ATOM      7  C   UNL     1       5.363  11.887  -8.131  1.00  0.00     0.014 A 
ATOM      8  C   UNL     1       3.866   9.798  -9.208  1.00  0.00     0.010 A 
ATOM      9  C   UNL     1       5.441  11.607  -9.500  1.00  0.00     0.010 A 
ATOM     10  C   UNL     1       4.713  10.540 -10.044  1.00  0.00    -0.014 A 
BRANCH  10  11
ATOM     11  C   UNL     1       4.727  10.235 -11.498  1.00  0.00     0.031 A 
ATOM     12  C   UNL     1       5.981   9.789 -12.195  1.00  0.00     0.074 A 
ATOM     13  C   UNL     1       3.571  10.354 -12.183  1.00  0.00     0.049 A 
ATOM     14  N   UNL     1       6.145   9.459 -13.450  1.00  0.00    -0.248 NA
ATOM     15  C   UNL     1       7.211   9.710 -11.391  1.00  0.00     0.031 C 
ATOM     16  C   UNL     1       2.302  10.825 -11.617  1.00  0.00     0.029 A 
ATOM     17  N   UNL     1       3.266  10.088 -13.493  1.00  0.00    -0.354 N 
ATOM     18  C   UNL     1       7.497   9.176 -13.599  1.00  0.00     0.074 A 
ATOM     19  C   UNL     1       8.113   9.377 -12.305  1.00  0.00     0.031 C 
ATOM     20  C   UNL     1       1.351  10.777 -12.559  1.00  0.00     0.029 A 
ATOM     21  C   UNL     1       1.952  10.341 -13.812  1.00  0.00     0.049 A 
ATOM     22  H   UNL     1       3.924   9.749 -14.142  1.00  0.00     0.167 HD
ATOM     23  C   UNL     1       8.158   8.774 -14.711  1.00  0.00     0.034 A 
ATOM     24  C   UNL     1       1.303  10.255 -14.988  1.00  0.00     0.034 A 
ATOM     25  C   UNL     1       7.526   8.541 -15.984  1.00  0.00     0.049 A 
ATOM     26  C   UNL     1       2.059   9.781 -16.193  1.00  0.00     0.074 A 
ATOM     27  C   UNL     1       8.098   8.072 -17.154  1.00  0.00     0.029 A 
ATOM     28  N   UNL     1       6.185   8.766 -16.258  1.00  0.00    -0.354 N 
ATOM     29  N   UNL     1       3.311   9.401 -16.282  1.00  0.00    -0.248 NA
ATOM     30  C   UNL     1       1.312   9.700 -17.455  1.00  0.00     0.031 C 
ATOM     31  C   UNL     1       7.108   8.037 -18.141  1.00  0.00     0.029 A 
ATOM     32  C   UNL     1       5.913   8.456 -17.580  1.00  0.00     0.049 A 
ATOM     33  H   UNL     1       5.524   9.097 -15.608  1.00  0.00     0.167 HD
ATOM     34  C   UNL     1       3.495   9.011 -17.601  1.00  0.00     0.074 A 
ATOM     35  C   UNL     1       2.218   9.174 -18.267  1.00  0.00     0.031 C 
ATOM     36  C   UNL     1       4.625   8.577 -18.212  1.00  0.00     0.034 A 
BRANCH  23  37
ATOM     37  C   UNL     1       9.640   8.525 -14.604  1.00  0.00     0.023 A 
ATOM     38  C   UNL     1      10.109   7.376 -13.937  1.00  0.00     0.012 A 
ATOM     39  C   UNL     1      10.564   9.381 -15.238  1.00  0.00     0.148 A 
ATOM     40  C   UNL     1      11.474   7.094 -13.881  1.00  0.00     0.002 A 
ATOM     41  C   UNL     1      11.920   9.071 -15.213  1.00  0.00     0.091 A 
ATOM     42  F   UNL     1      10.101  10.479 -15.851  1.00  0.00    -0.205 F 
ATOM     43  C   UNL     1      12.377   7.934 -14.527  1.00  0.00     0.022 A 
BRANCH  41  44
ATOM     44  S   UNL     1      13.155  10.046 -16.080  1.00  0.00     0.127 S 
ATOM     45  O   UNL     1      13.878  10.663 -14.968  1.00  0.00    -0.237 OA
ATOM     46  O   UNL     1      13.907   9.019 -16.801  1.00  0.00    -0.237 OA
ATOM     47  O   UNL     1      12.415  10.968 -16.931  1.00  0.00    -0.744 OA
ENDBRANCH  41  44
ENDBRANCH  23  37
BRANCH  24  48
ATOM     48  C   UNL     1      -0.145  10.599 -15.063  1.00  0.00     0.023 A 
ATOM     49  C   UNL     1      -1.090   9.585 -15.309  1.00  0.00     0.012 A 
ATOM     50  C   UNL     1      -0.592  11.917 -14.848  1.00  0.00     0.148 A 
ATOM     51  C   UNL     1      -2.452   9.883 -15.367  1.00  0.00     0.002 A 
ATOM     52  C   UNL     1      -1.953  12.196 -14.845  1.00  0.00     0.091 A 
ATOM     53  F   UNL     1       0.323  12.873 -14.631  1.00  0.00    -0.205 F 
ATOM     54  C   UNL     1      -2.884  11.184 -15.123  1.00  0.00     0.022 A 
BRANCH  52  55
ATOM     55  S   UNL     1      -2.595  13.811 -14.391  1.00  0.00     0.127 S 
ATOM     56  O   UNL     1      -2.988  14.351 -15.689  1.00  0.00    -0.237 OA
ATOM     57  O   UNL     1      -3.706  13.460 -13.506  1.00  0.00    -0.237 OA
ATOM     58  O   UNL     1      -1.494  14.492 -13.723  1.00  0.00    -0.744 OA
ENDBRANCH  52  55
ENDBRANCH  24  48
BRANCH  36  59
ATOM     59  C   UNL     1       4.524   8.214 -19.669  1.00  0.00     0.023 A 
ATOM     60  C   UNL     1       4.391   9.230 -20.636  1.00  0.00     0.012 A 
ATOM     61  C   UNL     1       4.621   6.871 -20.082  1.00  0.00     0.148 A 
ATOM     62  C   UNL     1       4.323   8.912 -21.991  1.00  0.00     0.002 A 
ATOM     63  C   UNL     1       4.603   6.566 -21.437  1.00  0.00     0.091 A 
ATOM     64  F   UNL     1       4.725   5.919 -19.144  1.00  0.00    -0.205 F 
ATOM     65  C   UNL     1       4.441   7.583 -22.392  1.00  0.00     0.022 A 
BRANCH  63  66
ATOM     66  S   UNL     1       4.842   4.894 -22.048  1.00  0.00     0.127 S 
ATOM     67  O   UNL     1       3.494   4.543 -22.491  1.00  0.00    -0.237 OA
ATOM     68  O   UNL     1       5.808   5.094 -23.129  1.00  0.00    -0.237 OA
ATOM     69  O   UNL     1       5.350   4.125 -20.920  1.00  0.00    -0.744 OA
ENDBRANCH  63  66
ENDBRANCH  36  59
ENDBRANCH  10  11
ENDBRANCH   2   5
BRANCH   3  70
ATOM     70  C   UNL     1       4.155   9.018  -5.060  1.00  0.00     0.118 C 
BRANCH  70  71
ATOM     71  C   UNL     1       5.255   8.359  -4.244  1.00  0.00     0.042 C 
BRANCH  71  72
ATOM     72  C   UNL     1       5.094   8.552  -2.742  1.00  0.00     0.118 C 
BRANCH  72  73
ATOM     73  N   UNL     1       4.479   7.422  -2.081  1.00  0.00    -0.351 N 
ATOM     74  C   UNL     1       4.959   6.369  -1.378  1.00  0.00     0.279 C 
ATOM     75  H   UNL     1       3.498   7.417  -2.160  1.00  0.00     0.163 HD
ATOM     76  O   UNL     1       4.087   5.666  -0.842  1.00  0.00    -0.268 OA
BRANCH  74  77
ATOM     77  C   UNL     1       6.428   5.905  -1.276  1.00  0.00     0.283 C 
ATOM     78  C   UNL     1       6.700   4.835  -2.324  1.00  0.00     0.151 C 
ATOM     79  N   UNL     1       7.501   6.926  -1.237  1.00  0.00    -0.322 N 
ATOM     80  S   UNL     1       7.581   5.727  -3.607  1.00  0.00    -0.089 SA
ATOM     81  C   UNL     1       8.388   6.843  -2.408  1.00  0.00     0.143 C 
ATOM     82  H   UNL     1       8.056   6.787  -0.393  1.00  0.00     0.348 HD
ATOM     83  H   UNL     1       7.059   7.845  -1.242  1.00  0.00     0.348 HD
ATOM     84  C   UNL     1       8.695   8.233  -3.001  1.00  0.00     0.081 C 
ATOM     85  C   UNL     1       9.741   6.231  -1.972  1.00  0.00     0.081 C 
ATOM     86  C   UNL     1       9.653   8.186  -4.190  1.00  0.00     0.007 C 
ATOM     87  C   UNL     1      10.778   6.181  -3.106  1.00  0.00     0.007 C 
ATOM     88  C   UNL     1      10.970   7.527  -3.803  1.00  0.00     0.001 C 
ENDBRANCH  74  77
ENDBRANCH  72  73
ENDBRANCH  71  72
ENDBRANCH  70  71
ENDBRANCH   3  70
TORSDOF 13
