REMARK SMILES CC(C)(CNC(=O)[C@H]1CCC[C@H](C(=O)NCCCNC(=O)c2ccc(-c3c4nc(c(-c5cccc(S(=O)(=O)[O-])c5F)c5ccc([nH]5)c(-c5cccc(S(=O)(=O)[O-])c5F)c5nc(c(-c6cccc(S(=O)(=O)[O-])c6F)c6ccc3[nH]6)C=C5)C=C4)cc2)C1)S(C)(=O)=O
REMARK SMILES IDX 16 1 15 2 13 3 14 4 12 6 8 7 9 8 85 9 10 10 11 11 6 12 5 13
REMARK SMILES IDX 7 15 4 16 2 17 1 18 3 19 86 20 87 21 88 22 89 23 17 24 18 25
REMARK SMILES IDX 19 26 20 27 21 29 22 30 23 31 84 32 24 33 83 34 25 35 26 36
REMARK SMILES IDX 27 37 77 38 28 39 82 40 76 41 78 42 29 43 81 44 75 45 74 46
REMARK SMILES IDX 30 48 62 49 42 50 61 51 43 52 46 53 60 54 79 55 44 56 45 57
REMARK SMILES IDX 59 59 80 60 47 61 31 62 32 63 40 64 33 65 35 66 41 67 34 68
REMARK SMILES IDX 36 69 37 70 38 71 39 72 63 73 64 74 72 75 65 76 67 77 73 78
REMARK SMILES IDX 66 79 68 80 69 81 70 82 71 83 48 84 49 85 57 86 50 87 52 88
REMARK SMILES IDX 58 89 51 90 53 91 54 92 55 93 56 94
REMARK H PARENT 15 5 5 14 19 28 78 47 46 58
REMARK Flexibility Score: inf
ROOT
ATOM      1  C   UNL     1       0.947  -1.415   4.816  1.00  0.00     0.117 C 
ENDROOT
BRANCH   1   2
ATOM      2  N   UNL     1       0.277  -2.135   5.887  1.00  0.00    -0.356 N 
ATOM      3  C   UNL     1      -1.039  -2.196   6.231  1.00  0.00     0.223 C 
ATOM      4  O   UNL     1      -1.359  -2.911   7.184  1.00  0.00    -0.275 OA
ATOM      5  H   UNL     1       0.875  -2.668   6.459  1.00  0.00     0.163 HD
BRANCH   3   6
ATOM      6  C   UNL     1      -2.098  -1.425   5.452  1.00  0.00     0.079 C 
ATOM      7  C   UNL     1      -3.012  -1.074   3.057  1.00  0.00     0.079 C 
ATOM      8  C   UNL     1      -2.732   0.419   3.249  1.00  0.00     0.013 C 
ATOM      9  C   UNL     1      -2.198  -1.947   4.011  1.00  0.00     0.027 C 
ATOM     10  C   UNL     1      -2.830   0.887   4.696  1.00  0.00     0.002 C 
ATOM     11  C   UNL     1      -1.918   0.086   5.608  1.00  0.00     0.013 C 
BRANCH   7  12
ATOM     12  C   UNL     1      -4.496  -1.425   3.147  1.00  0.00     0.223 C 
ATOM     13  N   UNL     1      -4.972  -2.523   2.484  1.00  0.00    -0.354 N 
ATOM     14  H   UNL     1      -5.904  -2.769   2.687  1.00  0.00     0.163 HD
ATOM     15  O   UNL     1      -5.296  -0.794   3.835  1.00  0.00    -0.275 OA
BRANCH  13  16
ATOM     16  C   UNL     1      -4.296  -3.379   1.521  1.00  0.00     0.138 C 
BRANCH  16  17
ATOM     17  C   UNL     1      -4.613  -4.887   1.618  1.00  0.00     0.084 C 
ATOM     18  C   UNL     1      -6.119  -5.174   1.656  1.00  0.00     0.030 C 
ATOM     19  C   UNL     1      -4.020  -5.557   0.356  1.00  0.00     0.030 C 
BRANCH  17  20
ATOM     20  S   UNL     1      -3.778  -5.644   3.056  1.00  0.00     0.154 S 
ATOM     21  C   UNL     1      -4.554  -4.996   4.526  1.00  0.00     0.158 C 
ATOM     22  O   UNL     1      -4.079  -7.068   3.033  1.00  0.00    -0.229 OA
ATOM     23  O   UNL     1      -2.397  -5.209   3.045  1.00  0.00    -0.229 OA
ENDBRANCH  17  20
ENDBRANCH  16  17
ENDBRANCH  13  16
ENDBRANCH   7  12
ENDBRANCH   3   6
ENDBRANCH   1   2
BRANCH   1  24
ATOM     24  C   UNL     1       1.851  -0.310   5.331  1.00  0.00     0.042 C 
BRANCH  24  25
ATOM     25  C   UNL     1       3.037  -0.823   6.124  1.00  0.00     0.118 C 
BRANCH  25  26
ATOM     26  N   UNL     1       3.941  -1.627   5.313  1.00  0.00    -0.352 N 
ATOM     27  C   UNL     1       5.250  -1.398   4.967  1.00  0.00     0.251 C 
ATOM     28  H   UNL     1       3.556  -2.462   4.961  1.00  0.00     0.163 HD
ATOM     29  O   UNL     1       5.776  -2.089   4.099  1.00  0.00    -0.269 OA
BRANCH  27  30
ATOM     30  C   UNL     1       6.015  -0.319   5.628  1.00  0.00     0.039 A 
ATOM     31  C   UNL     1       6.922   0.433   4.878  1.00  0.00     0.014 A 
ATOM     32  C   UNL     1       5.855  -0.062   6.991  1.00  0.00     0.014 A 
ATOM     33  C   UNL     1       7.637   1.464   5.490  1.00  0.00     0.010 A 
ATOM     34  C   UNL     1       6.469   1.041   7.566  1.00  0.00     0.010 A 
ATOM     35  C   UNL     1       7.402   1.788   6.836  1.00  0.00    -0.014 A 
BRANCH  35  36
ATOM     36  C   UNL     1       8.166   2.857   7.525  1.00  0.00     0.031 A 
ATOM     37  C   UNL     1       9.024   2.511   8.716  1.00  0.00     0.074 A 
ATOM     38  C   UNL     1       8.038   4.137   7.131  1.00  0.00     0.049 A 
ATOM     39  N   UNL     1       9.742   3.298   9.473  1.00  0.00    -0.248 NA
ATOM     40  C   UNL     1       9.047   1.099   9.134  1.00  0.00     0.031 C 
ATOM     41  C   UNL     1       7.183   4.607   6.039  1.00  0.00     0.029 A 
ATOM     42  N   UNL     1       8.620   5.281   7.614  1.00  0.00    -0.354 N 
ATOM     43  C   UNL     1      10.264   2.487  10.474  1.00  0.00     0.074 A 
ATOM     44  C   UNL     1       9.730   1.161  10.265  1.00  0.00     0.031 C 
ATOM     45  C   UNL     1       7.322   5.937   5.915  1.00  0.00     0.029 A 
ATOM     46  C   UNL     1       8.248   6.417   6.936  1.00  0.00     0.049 A 
ATOM     47  H   UNL     1       9.245   5.288   8.374  1.00  0.00     0.167 HD
ATOM     48  C   UNL     1      11.142   2.801  11.457  1.00  0.00     0.034 A 
ATOM     49  C   UNL     1       8.621   7.699   7.113  1.00  0.00     0.034 A 
ATOM     50  C   UNL     1      11.700   4.113  11.635  1.00  0.00     0.049 A 
ATOM     51  C   UNL     1       9.618   8.025   8.192  1.00  0.00     0.074 A 
ATOM     52  C   UNL     1      12.653   4.530  12.545  1.00  0.00     0.029 A 
ATOM     53  N   UNL     1      11.345   5.227  10.887  1.00  0.00    -0.354 N 
ATOM     54  N   UNL     1      10.212   7.220   9.040  1.00  0.00    -0.248 NA
ATOM     55  C   UNL     1      10.027   9.431   8.310  1.00  0.00     0.031 C 
ATOM     56  C   UNL     1      12.852   5.904  12.369  1.00  0.00     0.029 A 
ATOM     57  C   UNL     1      12.054   6.334  11.320  1.00  0.00     0.049 A 
ATOM     58  H   UNL     1      10.686   5.230  10.157  1.00  0.00     0.167 HD
ATOM     59  C   UNL     1      11.102   8.011   9.757  1.00  0.00     0.074 A 
ATOM     60  C   UNL     1      10.973   9.357   9.237  1.00  0.00     0.031 C 
ATOM     61  C   UNL     1      11.949   7.657  10.756  1.00  0.00     0.034 A 
BRANCH  48  62
ATOM     62  C   UNL     1      11.571   1.688  12.381  1.00  0.00     0.023 A 
ATOM     63  C   UNL     1      12.341   0.616  11.880  1.00  0.00     0.012 A 
ATOM     64  C   UNL     1      11.213   1.696  13.743  1.00  0.00     0.148 A 
ATOM     65  C   UNL     1      12.689  -0.458  12.698  1.00  0.00     0.002 A 
ATOM     66  C   UNL     1      11.612   0.649  14.566  1.00  0.00     0.091 A 
ATOM     67  F   UNL     1      10.464   2.709  14.204  1.00  0.00    -0.205 F 
ATOM     68  C   UNL     1      12.332  -0.437  14.042  1.00  0.00     0.022 A 
BRANCH  66  69
ATOM     69  S   UNL     1      11.277   0.629  16.331  1.00  0.00     0.127 S 
ATOM     70  O   UNL     1      10.211  -0.367  16.418  1.00  0.00    -0.237 OA
ATOM     71  O   UNL     1      12.561   0.198  16.884  1.00  0.00    -0.237 OA
ATOM     72  O   UNL     1      10.896   1.991  16.679  1.00  0.00    -0.744 OA
ENDBRANCH  66  69
ENDBRANCH  48  62
BRANCH  49  73
ATOM     73  C   UNL     1       8.133   8.749   6.175  1.00  0.00     0.023 A 
ATOM     74  C   UNL     1       9.035   9.310   5.249  1.00  0.00     0.012 A 
ATOM     75  C   UNL     1       6.789   9.164   6.163  1.00  0.00     0.148 A 
ATOM     76  C   UNL     1       8.615  10.287   4.347  1.00  0.00     0.002 A 
ATOM     77  C   UNL     1       6.364  10.101   5.227  1.00  0.00     0.091 A 
ATOM     78  F   UNL     1       5.948   8.617   7.052  1.00  0.00    -0.205 F 
ATOM     79  C   UNL     1       7.278  10.676   4.330  1.00  0.00     0.022 A 
BRANCH  77  80
ATOM     80  S   UNL     1       4.642  10.579   5.045  1.00  0.00     0.127 S 
ATOM     81  O   UNL     1       4.685  11.995   5.401  1.00  0.00    -0.237 OA
ATOM     82  O   UNL     1       4.406  10.306   3.627  1.00  0.00    -0.237 OA
ATOM     83  O   UNL     1       3.895   9.726   5.958  1.00  0.00    -0.744 OA
ENDBRANCH  77  80
ENDBRANCH  49  73
BRANCH  61  84
ATOM     84  C   UNL     1      12.854   8.724  11.316  1.00  0.00     0.023 A 
ATOM     85  C   UNL     1      12.325   9.760  12.111  1.00  0.00     0.012 A 
ATOM     86  C   UNL     1      14.246   8.656  11.104  1.00  0.00     0.148 A 
ATOM     87  C   UNL     1      13.164  10.734  12.652  1.00  0.00     0.002 A 
ATOM     88  C   UNL     1      15.080   9.598  11.693  1.00  0.00     0.091 A 
ATOM     89  F   UNL     1      14.728   7.674  10.329  1.00  0.00    -0.205 F 
ATOM     90  C   UNL     1      14.540  10.646  12.454  1.00  0.00     0.022 A 
BRANCH  88  91
ATOM     91  S   UNL     1      16.870   9.500  11.578  1.00  0.00     0.127 S 
ATOM     92  O   UNL     1      17.169  10.591  10.652  1.00  0.00    -0.237 OA
ATOM     93  O   UNL     1      17.283   9.742  12.960  1.00  0.00    -0.237 OA
ATOM     94  O   UNL     1      17.167   8.161  11.085  1.00  0.00    -0.744 OA
ENDBRANCH  88  91
ENDBRANCH  61  84
ENDBRANCH  35  36
ENDBRANCH  27  30
ENDBRANCH  25  26
ENDBRANCH  24  25
ENDBRANCH   1  24
TORSDOF 17
