REMARK SMILES O=C(NCCCNC(=O)[C@@H]1CCCN1S(=O)(=O)c1ccc2c3c(cccc13)C(=O)N2)c1ccc(-c2c3nc(c(-c4cccc(S(=O)(=O)[O-])c4F)c4ccc([nH]4)c(-c4cccc(S(=O)(=O)[O-])c4F)c4nc(c(-c5cccc(S(=O)(=O)[O-])c5F)c5ccc2[nH]5)C=C4)C=C3)cc1
REMARK SMILES IDX 4 1 3 2 1 3 2 4 31 6 32 7 93 8 33 9 92 10 34 11 35 12 36 13
REMARK SMILES IDX 86 14 37 15 91 16 85 17 87 18 38 19 90 20 84 21 83 22 39 24
REMARK SMILES IDX 71 25 51 26 70 27 52 28 55 29 69 30 88 31 53 32 54 33 68 35
REMARK SMILES IDX 89 36 56 37 40 38 41 39 49 40 42 41 44 42 50 43 43 44 45 45
REMARK SMILES IDX 46 46 47 47 48 48 72 49 73 50 81 51 74 52 76 53 82 54 75 55
REMARK SMILES IDX 77 56 78 57 79 58 80 59 57 60 58 61 66 62 59 63 61 64 67 65
REMARK SMILES IDX 60 66 62 67 63 68 64 69 65 70 5 71 6 72 7 73 8 74 9 76 10 77
REMARK SMILES IDX 11 78 14 79 12 80 13 81 15 82 16 83 17 84 18 85 19 86 27 87
REMARK SMILES IDX 20 88 22 89 26 90 21 91 23 92 25 93 30 94 24 95 28 96 29 98
REMARK H PARENT 3 5 87 23 55 34 7 75 30 97
REMARK Flexibility Score: inf
ROOT
ATOM      1  C   UNL     1       3.714   0.114   2.075  1.00  0.00     0.118 C 
ENDROOT
BRANCH   1   2
ATOM      2  N   UNL     1       2.289   0.380   1.902  1.00  0.00    -0.352 N 
ATOM      3  O   UNL     1       0.602   0.276   0.349  1.00  0.00    -0.269 OA
ATOM      4  C   UNL     1       1.731   0.667   0.636  1.00  0.00     0.251 C 
ATOM      5  H   UNL     1       1.700   0.359   2.690  1.00  0.00     0.163 HD
BRANCH   4   6
ATOM      6  C   UNL     1       2.479   1.494  -0.369  1.00  0.00     0.039 A 
ATOM      7  C   UNL     1       3.115   0.952  -1.492  1.00  0.00     0.014 A 
ATOM      8  C   UNL     1       2.449   2.882  -0.242  1.00  0.00     0.014 A 
ATOM      9  C   UNL     1       3.870   1.783  -2.366  1.00  0.00     0.010 A 
ATOM     10  C   UNL     1       3.159   3.706  -1.142  1.00  0.00     0.010 A 
ATOM     11  C   UNL     1       3.965   3.173  -2.167  1.00  0.00    -0.014 A 
BRANCH  11  12
ATOM     12  C   UNL     1       4.944   4.071  -2.906  1.00  0.00     0.031 A 
ATOM     13  C   UNL     1       5.945   4.920  -2.117  1.00  0.00     0.074 A 
ATOM     14  C   UNL     1       4.999   4.183  -4.255  1.00  0.00     0.049 A 
ATOM     15  N   UNL     1       6.788   5.835  -2.540  1.00  0.00    -0.248 NA
ATOM     16  C   UNL     1       6.015   4.698  -0.662  1.00  0.00     0.031 C 
ATOM     17  C   UNL     1       4.181   3.440  -5.210  1.00  0.00     0.029 A 
ATOM     18  N   UNL     1       5.777   5.000  -5.059  1.00  0.00    -0.354 N 
ATOM     19  C   UNL     1       7.449   6.317  -1.412  1.00  0.00     0.074 A 
ATOM     20  C   UNL     1       6.912   5.597  -0.280  1.00  0.00     0.031 C 
ATOM     21  C   UNL     1       4.491   3.834  -6.459  1.00  0.00     0.029 A 
ATOM     22  C   UNL     1       5.488   4.904  -6.405  1.00  0.00     0.049 A 
ATOM     23  H   UNL     1       6.474   5.596  -4.702  1.00  0.00     0.167 HD
ATOM     24  C   UNL     1       8.420   7.258  -1.306  1.00  0.00     0.034 A 
ATOM     25  C   UNL     1       5.926   5.604  -7.477  1.00  0.00     0.034 A 
ATOM     26  C   UNL     1       9.004   7.991  -2.398  1.00  0.00     0.049 A 
ATOM     27  C   UNL     1       6.931   6.720  -7.328  1.00  0.00     0.074 A 
ATOM     28  C   UNL     1      10.002   8.953  -2.343  1.00  0.00     0.029 A 
ATOM     29  N   UNL     1       8.648   7.866  -3.727  1.00  0.00    -0.354 N 
ATOM     30  N   UNL     1       7.569   7.117  -6.256  1.00  0.00    -0.248 NA
ATOM     31  C   UNL     1       7.282   7.481  -8.543  1.00  0.00     0.031 C 
ATOM     32  C   UNL     1      10.222   9.438  -3.634  1.00  0.00     0.029 A 
ATOM     33  C   UNL     1       9.385   8.753  -4.496  1.00  0.00     0.049 A 
ATOM     34  H   UNL     1       7.972   7.241  -4.076  1.00  0.00     0.167 HD
ATOM     35  C   UNL     1       8.403   8.154  -6.668  1.00  0.00     0.074 A 
ATOM     36  C   UNL     1       8.209   8.317  -8.091  1.00  0.00     0.031 C 
ATOM     37  C   UNL     1       9.242   8.908  -5.918  1.00  0.00     0.034 A 
BRANCH  24  38
ATOM     38  C   UNL     1       8.973   7.569   0.062  1.00  0.00     0.023 A 
ATOM     39  C   UNL     1       9.978   6.743   0.602  1.00  0.00     0.012 A 
ATOM     40  C   UNL     1       8.621   8.763   0.724  1.00  0.00     0.148 A 
ATOM     41  C   UNL     1      10.631   7.105   1.780  1.00  0.00     0.002 A 
ATOM     42  C   UNL     1       9.293   9.127   1.885  1.00  0.00     0.091 A 
ATOM     43  F   UNL     1       7.664   9.531   0.185  1.00  0.00    -0.205 F 
ATOM     44  C   UNL     1      10.298   8.300   2.413  1.00  0.00     0.022 A 
BRANCH  42  45
ATOM     45  S   UNL     1       8.973  10.666   2.755  1.00  0.00     0.127 S 
ATOM     46  O   UNL     1       8.486  10.175   4.044  1.00  0.00    -0.237 OA
ATOM     47  O   UNL     1      10.302  11.276   2.798  1.00  0.00    -0.237 OA
ATOM     48  O   UNL     1       7.989  11.385   1.960  1.00  0.00    -0.744 OA
ENDBRANCH  42  45
ENDBRANCH  24  38
BRANCH  25  49
ATOM     49  C   UNL     1       5.399   5.275  -8.836  1.00  0.00     0.023 A 
ATOM     50  C   UNL     1       6.237   4.643  -9.775  1.00  0.00     0.012 A 
ATOM     51  C   UNL     1       4.070   5.578  -9.193  1.00  0.00     0.148 A 
ATOM     52  C   UNL     1       5.759   4.315 -11.045  1.00  0.00     0.002 A 
ATOM     53  C   UNL     1       3.588   5.211 -10.444  1.00  0.00     0.091 A 
ATOM     54  F   UNL     1       3.302   6.208  -8.293  1.00  0.00    -0.205 F 
ATOM     55  C   UNL     1       4.433   4.586 -11.374  1.00  0.00     0.022 A 
BRANCH  53  56
ATOM     56  S   UNL     1       1.875   5.444 -10.930  1.00  0.00     0.127 S 
ATOM     57  O   UNL     1       2.007   6.362 -12.060  1.00  0.00    -0.237 OA
ATOM     58  O   UNL     1       1.480   4.082 -11.287  1.00  0.00    -0.237 OA
ATOM     59  O   UNL     1       1.199   5.987  -9.761  1.00  0.00    -0.744 OA
ENDBRANCH  53  56
ENDBRANCH  25  49
BRANCH  37  60
ATOM     60  C   UNL     1      10.047   9.992  -6.588  1.00  0.00     0.023 A 
ATOM     61  C   UNL     1       9.419  11.200  -6.950  1.00  0.00     0.012 A 
ATOM     62  C   UNL     1      11.443   9.865  -6.751  1.00  0.00     0.148 A 
ATOM     63  C   UNL     1      10.163  12.258  -7.475  1.00  0.00     0.002 A 
ATOM     64  C   UNL     1      12.182  10.934  -7.248  1.00  0.00     0.091 A 
ATOM     65  F   UNL     1      12.022   8.708  -6.399  1.00  0.00    -0.205 F 
ATOM     66  C   UNL     1      11.543  12.129  -7.614  1.00  0.00     0.022 A 
BRANCH  64  67
ATOM     67  S   UNL     1      13.972  10.888  -7.415  1.00  0.00     0.127 S 
ATOM     68  O   UNL     1      14.137  10.964  -8.866  1.00  0.00    -0.237 OA
ATOM     69  O   UNL     1      14.381  12.091  -6.691  1.00  0.00    -0.237 OA
ATOM     70  O   UNL     1      14.403   9.635  -6.810  1.00  0.00    -0.744 OA
ENDBRANCH  64  67
ENDBRANCH  37  60
ENDBRANCH  11  12
ENDBRANCH   4   6
ENDBRANCH   1   2
BRANCH   1  71
ATOM     71  C   UNL     1       4.429  -0.166   3.483  1.00  0.00     0.042 C 
BRANCH  71  72
ATOM     72  C   UNL     1       6.000  -0.800   3.763  1.00  0.00     0.117 C 
BRANCH  72  73
ATOM     73  N   UNL     1       6.660  -2.034   3.114  1.00  0.00    -0.355 N 
ATOM     74  C   UNL     1       6.698  -3.386   3.513  1.00  0.00     0.238 C 
ATOM     75  H   UNL     1       7.138  -1.845   2.275  1.00  0.00     0.163 HD
ATOM     76  O   UNL     1       7.297  -4.262   2.904  1.00  0.00    -0.273 OA
BRANCH  74  77
ATOM     77  C   UNL     1       5.886  -3.612   4.740  1.00  0.00     0.162 C 
ATOM     78  C   UNL     1       5.441  -4.854   5.486  1.00  0.00     0.032 C 
ATOM     79  N   UNL     1       4.609  -2.926   4.418  1.00  0.00    -0.185 NA
ATOM     80  C   UNL     1       4.531  -4.164   6.512  1.00  0.00     0.019 C 
ATOM     81  C   UNL     1       3.866  -3.013   5.716  1.00  0.00     0.103 C 
BRANCH  79  82
ATOM     82  S   UNL     1       3.827  -3.305   2.903  1.00  0.00     0.244 S 
ATOM     83  O   UNL     1       3.629  -4.743   2.970  1.00  0.00    -0.207 OA
ATOM     84  O   UNL     1       2.647  -2.469   2.819  1.00  0.00    -0.207 OA
BRANCH  82  85
ATOM     85  C   UNL     1       4.858  -3.013   1.171  1.00  0.00     0.090 A 
ATOM     86  C   UNL     1       4.688  -4.185   0.392  1.00  0.00     0.024 A 
ATOM     87  C   UNL     1       5.548  -1.765   0.509  1.00  0.00     0.005 A 
ATOM     88  C   UNL     1       5.051  -4.245  -0.956  1.00  0.00     0.028 A 
ATOM     89  C   UNL     1       5.780  -1.935  -0.826  1.00  0.00     0.019 A 
ATOM     90  C   UNL     1       6.071  -0.399   0.788  1.00  0.00     0.010 A 
ATOM     91  C   UNL     1       5.542  -3.095  -1.527  1.00  0.00     0.050 A 
ATOM     92  C   UNL     1       6.273  -1.007  -1.764  1.00  0.00     0.050 A 
ATOM     93  C   UNL     1       6.561   0.588  -0.097  1.00  0.00     0.002 A 
ATOM     94  N   UNL     1       5.869  -2.873  -2.851  1.00  0.00    -0.321 N 
ATOM     95  C   UNL     1       6.653   0.282  -1.424  1.00  0.00     0.014 A 
ATOM     96  C   UNL     1       6.311  -1.575  -3.090  1.00  0.00     0.256 C 
ATOM     97  H   UNL     1       5.796  -3.560  -3.552  1.00  0.00     0.170 HD
ATOM     98  O   UNL     1       6.622  -1.123  -4.170  1.00  0.00    -0.269 OA
ENDBRANCH  82  85
ENDBRANCH  79  82
ENDBRANCH  74  77
ENDBRANCH  72  73
ENDBRANCH  71  72
ENDBRANCH   1  71
TORSDOF 15
