REMARK SMILES O=C(/C=C/c1ccc(O)c(O)c1)NCCCNC(=O)c1ccc(-c2c3nc(c(-c4cccc(S(=O)(=O)[O-])c4F)c4ccc([nH]4)c(-c4cccc(S(=O)(=O)[O-])c4F)c4nc(c(-c5cccc(S(=O)(=O)[O-])c5F)c5ccc2[nH]5)C=C4)C=C3)cc1
REMARK SMILES IDX 15 1 14 2 13 3 1 4 2 5 3 7 4 8 5 9 6 10 12 11 7 12 10 13
REMARK SMILES IDX 8 14 11 15 9 17 16 19 17 20 18 21 19 23 20 24 21 25 82 26
REMARK SMILES IDX 22 27 81 28 23 29 24 30 25 31 75 32 26 33 80 34 74 35 76 36
REMARK SMILES IDX 27 37 79 38 73 39 72 40 28 42 60 43 40 44 59 45 41 46 44 47
REMARK SMILES IDX 58 48 77 49 42 50 43 51 57 53 78 54 45 55 29 56 30 57 38 58
REMARK SMILES IDX 31 59 33 60 39 61 32 62 34 63 35 64 36 65 37 66 61 67 62 68
REMARK SMILES IDX 70 69 63 70 65 71 71 72 64 73 66 74 67 75 68 76 69 77 46 78
REMARK SMILES IDX 47 79 55 80 48 81 50 82 56 83 49 84 51 85 52 86 53 87 54 88
REMARK H PARENT 13 6 11 16 9 18 17 22 76 41 44 52
REMARK Flexibility Score: inf
ROOT
ATOM      1  C   UNL     1       2.493  -3.114   1.393  1.00  0.00     0.042 C 
ENDROOT
BRANCH   1   2
ATOM      2  C   UNL     1       2.181  -1.672   1.779  1.00  0.00     0.118 C 
BRANCH   2   3
ATOM      3  N   UNL     1       2.883  -0.707   0.953  1.00  0.00    -0.352 N 
ATOM      4  O   UNL     1       1.021   0.165  -0.071  1.00  0.00    -0.270 OA
ATOM      5  C   UNL     1       2.239   0.121   0.073  1.00  0.00     0.244 C 
ATOM      6  H   UNL     1       3.862  -0.646   1.028  1.00  0.00     0.163 HD
BRANCH   5   7
ATOM      7  C   UNL     1       3.091   1.054  -0.713  1.00  0.00     0.072 C 
ATOM      8  C   UNL     1       4.431   1.035  -0.802  1.00  0.00     0.014 C 
BRANCH   8   9
ATOM      9  C   UNL     1       5.212   1.978  -1.617  1.00  0.00    -0.022 A 
ATOM     10  C   UNL     1       4.870   3.337  -1.737  1.00  0.00     0.012 A 
ATOM     11  C   UNL     1       6.381   1.515  -2.235  1.00  0.00     0.058 A 
ATOM     12  C   UNL     1       5.668   4.215  -2.481  1.00  0.00     0.051 A 
ATOM     13  C   UNL     1       7.168   2.393  -2.969  1.00  0.00     0.157 A 
ATOM     14  C   UNL     1       6.817   3.733  -3.094  1.00  0.00     0.157 A 
BRANCH  13  15
ATOM     15  O   UNL     1       8.302   1.924  -3.566  1.00  0.00    -0.504 OA
ATOM     16  H   UNL     1       8.843   2.505  -4.065  1.00  0.00     0.293 HD
ENDBRANCH  13  15
BRANCH  14  17
ATOM     17  O   UNL     1       7.641   4.543  -3.825  1.00  0.00    -0.504 OA
ATOM     18  H   UNL     1       7.435   5.450  -3.930  1.00  0.00     0.293 HD
ENDBRANCH  14  17
ENDBRANCH   8   9
ENDBRANCH   5   7
ENDBRANCH   2   3
ENDBRANCH   1   2
BRANCH   1  19
ATOM     19  C   UNL     1       3.967  -3.504   1.482  1.00  0.00     0.118 C 
BRANCH  19  20
ATOM     20  N   UNL     1       4.518  -3.392   2.827  1.00  0.00    -0.352 N 
ATOM     21  C   UNL     1       5.153  -4.328   3.608  1.00  0.00     0.251 C 
ATOM     22  H   UNL     1       4.419  -2.505   3.242  1.00  0.00     0.163 HD
ATOM     23  O   UNL     1       5.432  -4.048   4.772  1.00  0.00    -0.269 OA
BRANCH  21  24
ATOM     24  C   UNL     1       5.476  -5.673   3.079  1.00  0.00     0.039 A 
ATOM     25  C   UNL     1       5.214  -6.788   3.881  1.00  0.00     0.014 A 
ATOM     26  C   UNL     1       6.037  -5.846   1.812  1.00  0.00     0.014 A 
ATOM     27  C   UNL     1       5.434  -8.075   3.381  1.00  0.00     0.010 A 
ATOM     28  C   UNL     1       6.191  -7.130   1.289  1.00  0.00     0.010 A 
ATOM     29  C   UNL     1       5.878  -8.259   2.062  1.00  0.00    -0.014 A 
BRANCH  29  30
ATOM     30  C   UNL     1       5.961  -9.616   1.458  1.00  0.00     0.031 A 
ATOM     31  C   UNL     1       7.276 -10.172   0.984  1.00  0.00     0.074 A 
ATOM     32  C   UNL     1       4.826 -10.313   1.245  1.00  0.00     0.049 A 
ATOM     33  N   UNL     1       7.520 -11.299   0.365  1.00  0.00    -0.248 NA
ATOM     34  C   UNL     1       8.471  -9.346   1.217  1.00  0.00     0.031 C 
ATOM     35  C   UNL     1       3.478  -9.860   1.595  1.00  0.00     0.029 A 
ATOM     36  N   UNL     1       4.619 -11.536   0.654  1.00  0.00    -0.354 N 
ATOM     37  C   UNL     1       8.885 -11.305   0.104  1.00  0.00     0.074 A 
ATOM     38  C   UNL     1       9.413 -10.057   0.611  1.00  0.00     0.031 C 
ATOM     39  C   UNL     1       2.587 -10.787   1.210  1.00  0.00     0.029 A 
ATOM     40  C   UNL     1       3.291 -11.881   0.550  1.00  0.00     0.049 A 
ATOM     41  H   UNL     1       5.352 -12.111   0.334  1.00  0.00     0.167 HD
ATOM     42  C   UNL     1       9.634 -12.269  -0.484  1.00  0.00     0.034 A 
ATOM     43  C   UNL     1       2.700 -12.945  -0.029  1.00  0.00     0.034 A 
ATOM     44  C   UNL     1       9.111 -13.521  -0.965  1.00  0.00     0.049 A 
ATOM     45  C   UNL     1       3.557 -14.002  -0.671  1.00  0.00     0.074 A 
ATOM     46  C   UNL     1       9.806 -14.594  -1.497  1.00  0.00     0.029 A 
ATOM     47  N   UNL     1       7.768 -13.864  -0.994  1.00  0.00    -0.354 N 
ATOM     48  N   UNL     1       4.863 -14.062  -0.764  1.00  0.00    -0.248 NA
ATOM     49  C   UNL     1       2.859 -15.154  -1.262  1.00  0.00     0.031 C 
ATOM     50  C   UNL     1       8.879 -15.569  -1.882  1.00  0.00     0.029 A 
ATOM     51  C   UNL     1       7.611 -15.121  -1.555  1.00  0.00     0.049 A 
ATOM     52  H   UNL     1       7.034 -13.296  -0.665  1.00  0.00     0.167 HD
ATOM     53  C   UNL     1       5.145 -15.269  -1.395  1.00  0.00     0.074 A 
ATOM     54  C   UNL     1       3.874 -15.921  -1.636  1.00  0.00     0.031 C 
ATOM     55  C   UNL     1       6.346 -15.783  -1.755  1.00  0.00     0.034 A 
BRANCH  42  56
ATOM     56  C   UNL     1      11.117 -12.027  -0.609  1.00  0.00     0.023 A 
ATOM     57  C   UNL     1      11.928 -12.051   0.544  1.00  0.00     0.012 A 
ATOM     58  C   UNL     1      11.717 -11.844  -1.871  1.00  0.00     0.148 A 
ATOM     59  C   UNL     1      13.306 -11.862   0.448  1.00  0.00     0.002 A 
ATOM     60  C   UNL     1      13.097 -11.703  -1.963  1.00  0.00     0.091 A 
ATOM     61  F   UNL     1      10.929 -11.808  -2.955  1.00  0.00    -0.205 F 
ATOM     62  C   UNL     1      13.891 -11.698  -0.804  1.00  0.00     0.022 A 
BRANCH  60  63
ATOM     63  S   UNL     1      13.957 -11.568  -3.534  1.00  0.00     0.127 S 
ATOM     64  O   UNL     1      14.415 -10.179  -3.501  1.00  0.00    -0.237 OA
ATOM     65  O   UNL     1      15.019 -12.563  -3.389  1.00  0.00    -0.237 OA
ATOM     66  O   UNL     1      12.971 -11.874  -4.561  1.00  0.00    -0.744 OA
ENDBRANCH  60  63
ENDBRANCH  42  56
BRANCH  43  67
ATOM     67  C   UNL     1       1.216 -13.084   0.004  1.00  0.00     0.023 A 
ATOM     68  C   UNL     1       0.632 -14.099   0.784  1.00  0.00     0.012 A 
ATOM     69  C   UNL     1       0.383 -12.207  -0.718  1.00  0.00     0.148 A 
ATOM     70  C   UNL     1      -0.754 -14.261   0.819  1.00  0.00     0.002 A 
ATOM     71  C   UNL     1      -0.998 -12.337  -0.633  1.00  0.00     0.091 A 
ATOM     72  F   UNL     1       0.959 -11.254  -1.464  1.00  0.00    -0.205 F 
ATOM     73  C   UNL     1      -1.568 -13.375   0.120  1.00  0.00     0.022 A 
BRANCH  71  74
ATOM     74  S   UNL     1      -2.126 -11.164  -1.392  1.00  0.00     0.127 S 
ATOM     75  O   UNL     1      -2.737 -11.975  -2.443  1.00  0.00    -0.237 OA
ATOM     76  O   UNL     1      -3.011 -10.833  -0.275  1.00  0.00    -0.237 OA
ATOM     77  O   UNL     1      -1.296 -10.058  -1.849  1.00  0.00    -0.744 OA
ENDBRANCH  71  74
ENDBRANCH  43  67
BRANCH  55  78
ATOM     78  C   UNL     1       6.357 -17.133  -2.427  1.00  0.00     0.023 A 
ATOM     79  C   UNL     1       5.882 -17.265  -3.747  1.00  0.00     0.012 A 
ATOM     80  C   UNL     1       6.899 -18.258  -1.773  1.00  0.00     0.148 A 
ATOM     81  C   UNL     1       5.911 -18.501  -4.392  1.00  0.00     0.002 A 
ATOM     82  C   UNL     1       6.973 -19.474  -2.441  1.00  0.00     0.091 A 
ATOM     83  F   UNL     1       7.331 -18.117  -0.512  1.00  0.00    -0.205 F 
ATOM     84  C   UNL     1       6.467 -19.601  -3.745  1.00  0.00     0.022 A 
BRANCH  82  85
ATOM     85  S   UNL     1       7.757 -20.924  -1.725  1.00  0.00     0.127 S 
ATOM     86  O   UNL     1       6.610 -21.800  -1.494  1.00  0.00    -0.237 OA
ATOM     87  O   UNL     1       8.647 -21.357  -2.803  1.00  0.00    -0.237 OA
ATOM     88  O   UNL     1       8.440 -20.462  -0.524  1.00  0.00    -0.744 OA
ENDBRANCH  82  85
ENDBRANCH  55  78
ENDBRANCH  29  30
ENDBRANCH  21  24
ENDBRANCH  19  20
ENDBRANCH   1  19
TORSDOF 16
