REMARK SMILES O=C(NCCCNC(=O)[C@@H]1CCCC[C@@H]1NS(=O)(=O)c1ccc2ccccc2c1)c1ccc(-c2c3nc(c(-c4cccc(S(=O)(=O)[O-])c4F)c4ccc([nH]4)c(-c4cccc(S(=O)(=O)[O-])c4F)c4nc(c(-c5cccc(S(=O)(=O)[O-])c5F)c5ccc2[nH]5)C=C4)C=C3)cc1
REMARK SMILES IDX 5 1 4 2 3 3 1 4 2 5 30 7 31 8 92 9 32 10 91 11 33 12 34 13
REMARK SMILES IDX 35 14 85 15 36 16 90 17 84 18 86 19 37 20 89 21 83 22 82 23
REMARK SMILES IDX 38 25 70 26 50 27 69 28 51 29 54 30 68 31 87 32 52 33 53 34
REMARK SMILES IDX 67 36 88 37 55 38 39 39 40 40 48 41 41 42 43 43 49 44 42 45
REMARK SMILES IDX 44 46 45 47 46 48 47 49 71 50 72 51 80 52 73 53 75 54 81 55
REMARK SMILES IDX 74 56 76 57 77 58 78 59 79 60 56 61 57 62 65 63 58 64 60 65
REMARK SMILES IDX 66 66 59 67 61 68 62 69 63 70 64 71 6 72 7 73 8 74 9 76
REMARK SMILES IDX 10 77 11 78 15 79 12 80 14 81 13 82 16 83 17 85 18 86 19 87
REMARK SMILES IDX 20 88 21 89 29 90 22 91 28 92 23 93 27 94 24 95 26 96 25 97
REMARK H PARENT 3 6 86 24 54 35 7 75 16 84
REMARK Flexibility Score: inf
ROOT
ATOM      1  C   UNL     1       5.694  -2.824   1.084  1.00  0.00     0.042 C 
ENDROOT
BRANCH   1   2
ATOM      2  C   UNL     1       4.996  -1.512   0.717  1.00  0.00     0.118 C 
BRANCH   2   3
ATOM      3  N   UNL     1       3.584  -1.587   0.337  1.00  0.00    -0.352 N 
ATOM      4  O   UNL     1       1.492  -0.712   0.049  1.00  0.00    -0.269 OA
ATOM      5  C   UNL     1       2.638  -0.578   0.460  1.00  0.00     0.251 C 
ATOM      6  H   UNL     1       3.273  -2.440  -0.044  1.00  0.00     0.163 HD
BRANCH   5   7
ATOM      7  C   UNL     1       3.033   0.644   1.192  1.00  0.00     0.039 A 
ATOM      8  C   UNL     1       4.135   1.381   0.760  1.00  0.00     0.014 A 
ATOM      9  C   UNL     1       2.456   0.883   2.442  1.00  0.00     0.014 A 
ATOM     10  C   UNL     1       4.813   2.174   1.680  1.00  0.00     0.010 A 
ATOM     11  C   UNL     1       3.092   1.750   3.332  1.00  0.00     0.010 A 
ATOM     12  C   UNL     1       4.333   2.316   2.995  1.00  0.00    -0.014 A 
BRANCH  12  13
ATOM     13  C   UNL     1       5.184   2.974   4.025  1.00  0.00     0.031 A 
ATOM     14  C   UNL     1       5.703   2.193   5.213  1.00  0.00     0.074 A 
ATOM     15  C   UNL     1       5.531   4.265   3.875  1.00  0.00     0.049 A 
ATOM     16  N   UNL     1       6.489   2.592   6.182  1.00  0.00    -0.248 NA
ATOM     17  C   UNL     1       5.285   0.786   5.335  1.00  0.00     0.031 C 
ATOM     18  C   UNL     1       5.081   5.136   2.789  1.00  0.00     0.029 A 
ATOM     19  N   UNL     1       6.343   5.069   4.635  1.00  0.00    -0.354 N 
ATOM     20  C   UNL     1       6.613   1.513   7.052  1.00  0.00     0.074 A 
ATOM     21  C   UNL     1       5.820   0.438   6.498  1.00  0.00     0.031 C 
ATOM     22  C   UNL     1       5.640   6.346   2.938  1.00  0.00     0.029 A 
ATOM     23  C   UNL     1       6.452   6.351   4.151  1.00  0.00     0.049 A 
ATOM     24  H   UNL     1       6.802   4.758   5.448  1.00  0.00     0.167 HD
ATOM     25  C   UNL     1       7.333   1.415   8.196  1.00  0.00     0.034 A 
ATOM     26  C   UNL     1       7.125   7.415   4.630  1.00  0.00     0.034 A 
ATOM     27  C   UNL     1       8.174   2.461   8.716  1.00  0.00     0.049 A 
ATOM     28  C   UNL     1       7.949   7.264   5.877  1.00  0.00     0.074 A 
ATOM     29  C   UNL     1       9.003   2.426   9.825  1.00  0.00     0.029 A 
ATOM     30  N   UNL     1       8.297   3.727   8.167  1.00  0.00    -0.354 N 
ATOM     31  N   UNL     1       8.150   6.197   6.610  1.00  0.00    -0.248 NA
ATOM     32  C   UNL     1       8.665   8.460   6.345  1.00  0.00     0.031 C 
ATOM     33  C   UNL     1       9.614   3.678   9.955  1.00  0.00     0.029 A 
ATOM     34  C   UNL     1       9.181   4.485   8.916  1.00  0.00     0.049 A 
ATOM     35  H   UNL     1       7.824   4.041   7.362  1.00  0.00     0.167 HD
ATOM     36  C   UNL     1       9.039   6.582   7.607  1.00  0.00     0.074 A 
ATOM     37  C   UNL     1       9.356   7.975   7.368  1.00  0.00     0.031 C 
ATOM     38  C   UNL     1       9.535   5.853   8.637  1.00  0.00     0.034 A 
BRANCH  25  39
ATOM     39  C   UNL     1       7.285   0.112   8.956  1.00  0.00     0.023 A 
ATOM     40  C   UNL     1       7.980  -1.010   8.462  1.00  0.00     0.012 A 
ATOM     41  C   UNL     1       6.625   0.022  10.198  1.00  0.00     0.148 A 
ATOM     42  C   UNL     1       7.997  -2.208   9.178  1.00  0.00     0.002 A 
ATOM     43  C   UNL     1       6.679  -1.163  10.925  1.00  0.00     0.091 A 
ATOM     44  F   UNL     1       5.951   1.093  10.644  1.00  0.00    -0.205 F 
ATOM     45  C   UNL     1       7.356  -2.280  10.412  1.00  0.00     0.022 A 
BRANCH  43  46
ATOM     46  S   UNL     1       5.954  -1.325  12.561  1.00  0.00     0.127 S 
ATOM     47  O   UNL     1       4.758  -2.116  12.276  1.00  0.00    -0.237 OA
ATOM     48  O   UNL     1       6.997  -2.043  13.294  1.00  0.00    -0.237 OA
ATOM     49  O   UNL     1       5.715   0.033  13.027  1.00  0.00    -0.744 OA
ENDBRANCH  43  46
ENDBRANCH  25  39
BRANCH  26  50
ATOM     50  C   UNL     1       7.091   8.701   3.881  1.00  0.00     0.023 A 
ATOM     51  C   UNL     1       8.250   9.144   3.215  1.00  0.00     0.012 A 
ATOM     52  C   UNL     1       5.907   9.457   3.780  1.00  0.00     0.148 A 
ATOM     53  C   UNL     1       8.237  10.329   2.480  1.00  0.00     0.002 A 
ATOM     54  C   UNL     1       5.885  10.604   2.997  1.00  0.00     0.091 A 
ATOM     55  F   UNL     1       4.821   9.028   4.437  1.00  0.00    -0.205 F 
ATOM     56  C   UNL     1       7.052  11.051   2.359  1.00  0.00     0.022 A 
BRANCH  54  57
ATOM     57  S   UNL     1       4.367  11.507   2.671  1.00  0.00     0.127 S 
ATOM     58  O   UNL     1       4.535  12.688   3.512  1.00  0.00    -0.237 OA
ATOM     59  O   UNL     1       4.464  11.755   1.231  1.00  0.00    -0.237 OA
ATOM     60  O   UNL     1       3.289  10.602   3.048  1.00  0.00    -0.744 OA
ENDBRANCH  54  57
ENDBRANCH  26  50
BRANCH  38  61
ATOM     61  C   UNL     1      10.501   6.534   9.569  1.00  0.00     0.023 A 
ATOM     62  C   UNL     1      10.029   7.491  10.489  1.00  0.00     0.012 A 
ATOM     63  C   UNL     1      11.866   6.186   9.573  1.00  0.00     0.148 A 
ATOM     64  C   UNL     1      10.907   8.118  11.373  1.00  0.00     0.002 A 
ATOM     65  C   UNL     1      12.727   6.782  10.488  1.00  0.00     0.091 A 
ATOM     66  F   UNL     1      12.303   5.289   8.677  1.00  0.00    -0.205 F 
ATOM     67  C   UNL     1      12.252   7.756  11.381  1.00  0.00     0.022 A 
BRANCH  65  68
ATOM     68  S   UNL     1      14.454   6.304  10.622  1.00  0.00     0.127 S 
ATOM     69  O   UNL     1      15.120   7.385   9.899  1.00  0.00    -0.237 OA
ATOM     70  O   UNL     1      14.673   6.312  12.069  1.00  0.00    -0.237 OA
ATOM     71  O   UNL     1      14.546   4.984  10.011  1.00  0.00    -0.744 OA
ENDBRANCH  65  68
ENDBRANCH  38  61
ENDBRANCH  12  13
ENDBRANCH   5   7
ENDBRANCH   2   3
ENDBRANCH   1   2
BRANCH   1  72
ATOM     72  C   UNL     1       5.746  -3.866  -0.021  1.00  0.00     0.117 C 
BRANCH  72  73
ATOM     73  N   UNL     1       6.659  -3.575  -1.113  1.00  0.00    -0.356 N 
ATOM     74  C   UNL     1       6.765  -4.188  -2.338  1.00  0.00     0.224 C 
ATOM     75  H   UNL     1       7.289  -2.836  -0.953  1.00  0.00     0.163 HD
ATOM     76  O   UNL     1       7.485  -3.644  -3.178  1.00  0.00    -0.275 OA
BRANCH  74  77
ATOM     77  C   UNL     1       6.082  -5.529  -2.606  1.00  0.00     0.096 C 
ATOM     78  C   UNL     1       6.498  -6.121  -3.969  1.00  0.00     0.015 C 
ATOM     79  C   UNL     1       4.550  -5.617  -2.474  1.00  0.00     0.082 C 
ATOM     80  C   UNL     1       6.160  -7.608  -4.022  1.00  0.00     0.001 C 
ATOM     81  C   UNL     1       4.149  -7.106  -2.511  1.00  0.00     0.021 C 
ATOM     82  C   UNL     1       4.695  -7.896  -3.701  1.00  0.00     0.002 C 
BRANCH  79  83
ATOM     83  N   UNL     1       3.831  -4.822  -3.521  1.00  0.00    -0.207 NA
ATOM     84  H   UNL     1       3.381  -5.494  -4.142  1.00  0.00     0.141 HD
BRANCH  83  85
ATOM     85  S   UNL     1       2.632  -3.688  -3.072  1.00  0.00     0.240 S 
ATOM     86  O   UNL     1       1.547  -3.925  -4.001  1.00  0.00    -0.207 OA
ATOM     87  O   UNL     1       2.454  -3.758  -1.639  1.00  0.00    -0.207 OA
BRANCH  85  88
ATOM     88  C   UNL     1       3.319  -2.084  -3.440  1.00  0.00     0.083 A 
ATOM     89  C   UNL     1       4.552  -1.759  -2.899  1.00  0.00     0.022 A 
ATOM     90  C   UNL     1       2.604  -1.102  -4.127  1.00  0.00     0.030 A 
ATOM     91  C   UNL     1       5.103  -0.488  -3.018  1.00  0.00     0.010 A 
ATOM     92  C   UNL     1       3.124   0.214  -4.226  1.00  0.00    -0.017 A 
ATOM     93  C   UNL     1       4.387   0.516  -3.657  1.00  0.00    -0.018 A 
ATOM     94  C   UNL     1       2.414   1.259  -4.839  1.00  0.00     0.009 A 
ATOM     95  C   UNL     1       4.899   1.821  -3.701  1.00  0.00     0.009 A 
ATOM     96  C   UNL     1       2.929   2.562  -4.867  1.00  0.00     0.001 A 
ATOM     97  C   UNL     1       4.167   2.843  -4.296  1.00  0.00     0.001 A 
ENDBRANCH  85  88
ENDBRANCH  83  85
ENDBRANCH  79  83
ENDBRANCH  74  77
ENDBRANCH  72  73
ENDBRANCH   1  72
TORSDOF 16
