REMARK SMILES O=C(Nc1ccc2c(c1)OCO2)N[C@H]1C=C[C@@H](C(=O)NCCCNC(=O)c2ccc(-c3c4nc(c(-c5cccc(S(=O)(=O)[O-])c5F)c5ccc([nH]5)c(-c5cccc(S(=O)(=O)[O-])c5F)c5nc(c(-c6cccc(S(=O)(=O)[O-])c6F)c6ccc3[nH]6)C=C5)C=C4)cc2)C1
REMARK SMILES IDX 22 1 21 2 20 3 18 4 19 5 17 7 14 8 15 9 90 10 16 11 13 12
REMARK SMILES IDX 1 13 2 14 3 15 4 18 5 19 9 20 6 21 8 22 7 23 10 24 12 25
REMARK SMILES IDX 11 26 23 27 24 28 25 29 26 31 27 32 28 33 89 34 29 35 88 36
REMARK SMILES IDX 30 37 31 38 32 39 82 40 33 41 87 42 81 43 83 44 34 45 86 46
REMARK SMILES IDX 80 47 79 48 35 50 67 51 47 52 66 53 48 54 51 55 65 56 84 57
REMARK SMILES IDX 49 58 50 59 64 61 85 62 52 63 36 64 37 65 45 66 38 67 40 68
REMARK SMILES IDX 46 69 39 70 41 71 42 72 43 73 44 74 68 75 69 76 77 77 70 78
REMARK SMILES IDX 72 79 78 80 71 81 73 82 74 83 75 84 76 85 53 86 54 87 62 88
REMARK SMILES IDX 55 89 57 90 63 91 56 92 58 93 59 94 60 95 61 96
REMARK H PARENT 20 6 3 16 13 17 24 30 83 49 51 60
REMARK Flexibility Score: inf
ROOT
ATOM      1  C   UNL     1       2.951   3.072   2.330  1.00  0.00     0.042 C 
ENDROOT
BRANCH   1   2
ATOM      2  C   UNL     1       1.567   3.322   1.745  1.00  0.00     0.117 C 
BRANCH   2   3
ATOM      3  N   UNL     1       1.432   4.667   1.217  1.00  0.00    -0.356 N 
ATOM      4  C   UNL     1       1.314   5.117  -0.061  1.00  0.00     0.227 C 
ATOM      5  O   UNL     1       1.147   6.332  -0.211  1.00  0.00    -0.274 OA
ATOM      6  H   UNL     1       1.423   5.375   1.901  1.00  0.00     0.163 HD
BRANCH   4   7
ATOM      7  C   UNL     1       1.351   4.197  -1.285  1.00  0.00     0.103 C 
ATOM      8  C   UNL     1       2.122   1.891  -1.704  1.00  0.00     0.107 C 
ATOM      9  C   UNL     1       0.643   1.978  -1.557  1.00  0.00    -0.006 C 
ATOM     10  C   UNL     1       2.606   3.330  -1.445  1.00  0.00     0.047 C 
ATOM     11  C   UNL     1       0.217   3.225  -1.327  1.00  0.00    -0.016 C 
BRANCH   8  12
ATOM     12  N   UNL     1       2.789   0.939  -0.830  1.00  0.00    -0.332 N 
ATOM     13  O   UNL     1       1.050  -0.123   0.234  1.00  0.00    -0.248 OA
ATOM     14  C   UNL     1       2.251   0.023   0.022  1.00  0.00     0.319 C 
ATOM     15  N   UNL     1       3.120  -0.860   0.597  1.00  0.00    -0.308 N 
ATOM     16  H   UNL     1       2.687  -1.658   0.978  1.00  0.00     0.171 HD
ATOM     17  H   UNL     1       3.773   0.959  -0.859  1.00  0.00     0.165 HD
BRANCH  15  18
ATOM     18  C   UNL     1       4.517  -0.841   0.745  1.00  0.00     0.046 A 
ATOM     19  C   UNL     1       5.263   0.351   0.832  1.00  0.00     0.030 A 
ATOM     20  C   UNL     1       5.164  -2.079   0.848  1.00  0.00     0.076 A 
ATOM     21  C   UNL     1       6.652   0.317   0.978  1.00  0.00     0.053 A 
ATOM     22  C   UNL     1       6.539  -2.083   0.948  1.00  0.00     0.167 A 
ATOM     23  C   UNL     1       7.258  -0.916   1.014  1.00  0.00     0.165 A 
ATOM     24  O   UNL     1       7.336  -3.185   0.977  1.00  0.00    -0.454 OA
ATOM     25  O   UNL     1       8.589  -1.134   1.121  1.00  0.00    -0.454 OA
ATOM     26  C   UNL     1       8.655  -2.568   0.982  1.00  0.00     0.468 C 
ENDBRANCH  15  18
ENDBRANCH   8  12
ENDBRANCH   4   7
ENDBRANCH   2   3
ENDBRANCH   1   2
BRANCH   1  27
ATOM     27  C   UNL     1       3.246   3.872   3.592  1.00  0.00     0.118 C 
BRANCH  27  28
ATOM     28  N   UNL     1       2.416   3.461   4.716  1.00  0.00    -0.352 N 
ATOM     29  C   UNL     1       2.773   2.922   5.926  1.00  0.00     0.251 C 
ATOM     30  H   UNL     1       1.448   3.590   4.587  1.00  0.00     0.163 HD
ATOM     31  O   UNL     1       1.902   2.455   6.659  1.00  0.00    -0.269 OA
BRANCH  29  32
ATOM     32  C   UNL     1       4.190   2.886   6.350  1.00  0.00     0.039 A 
ATOM     33  C   UNL     1       4.671   1.748   7.005  1.00  0.00     0.014 A 
ATOM     34  C   UNL     1       5.037   3.975   6.133  1.00  0.00     0.014 A 
ATOM     35  C   UNL     1       6.013   1.682   7.390  1.00  0.00     0.010 A 
ATOM     36  C   UNL     1       6.392   3.873   6.438  1.00  0.00     0.010 A 
ATOM     37  C   UNL     1       6.893   2.732   7.081  1.00  0.00    -0.014 A 
BRANCH  37  38
ATOM     38  C   UNL     1       8.338   2.658   7.420  1.00  0.00     0.031 A 
ATOM     39  C   UNL     1       8.947   3.658   8.369  1.00  0.00     0.074 A 
ATOM     40  C   UNL     1       9.120   1.749   6.803  1.00  0.00     0.049 A 
ATOM     41  N   UNL     1      10.193   3.780   8.750  1.00  0.00    -0.248 NA
ATOM     42  C   UNL     1       8.046   4.672   8.940  1.00  0.00     0.031 C 
ATOM     43  C   UNL     1       8.666   0.774   5.807  1.00  0.00     0.029 A 
ATOM     44  N   UNL     1      10.467   1.510   6.907  1.00  0.00    -0.354 N 
ATOM     45  C   UNL     1      10.234   4.910   9.561  1.00  0.00     0.074 A 
ATOM     46  C   UNL     1       8.894   5.452   9.595  1.00  0.00     0.031 C 
ATOM     47  C   UNL     1       9.711   0.031   5.407  1.00  0.00     0.029 A 
ATOM     48  C   UNL     1      10.912   0.493   6.095  1.00  0.00     0.049 A 
ATOM     49  H   UNL     1      11.059   2.020   7.506  1.00  0.00     0.167 HD
ATOM     50  C   UNL     1      11.285   5.437  10.233  1.00  0.00     0.034 A 
ATOM     51  C   UNL     1      12.149  -0.012   5.928  1.00  0.00     0.034 A 
ATOM     52  C   UNL     1      12.605   4.865  10.235  1.00  0.00     0.049 A 
ATOM     53  C   UNL     1      13.290   0.564   6.722  1.00  0.00     0.074 A 
ATOM     54  C   UNL     1      13.710   5.253  10.970  1.00  0.00     0.029 A 
ATOM     55  N   UNL     1      13.002   3.792   9.453  1.00  0.00    -0.354 N 
ATOM     56  N   UNL     1      13.275   1.526   7.612  1.00  0.00    -0.248 NA
ATOM     57  C   UNL     1      14.613  -0.040   6.511  1.00  0.00     0.031 C 
ATOM     58  C   UNL     1      14.787   4.439  10.604  1.00  0.00     0.029 A 
ATOM     59  C   UNL     1      14.342   3.518   9.669  1.00  0.00     0.049 A 
ATOM     60  H   UNL     1      12.418   3.296   8.834  1.00  0.00     0.167 HD
ATOM     61  C   UNL     1      14.577   1.619   8.094  1.00  0.00     0.074 A 
ATOM     62  C   UNL     1      15.348   0.602   7.408  1.00  0.00     0.031 C 
ATOM     63  C   UNL     1      15.089   2.475   9.013  1.00  0.00     0.034 A 
BRANCH  50  64
ATOM     64  C   UNL     1      11.045   6.681  11.051  1.00  0.00     0.023 A 
ATOM     65  C   UNL     1      10.264   6.614  12.224  1.00  0.00     0.012 A 
ATOM     66  C   UNL     1      11.631   7.909  10.685  1.00  0.00     0.148 A 
ATOM     67  C   UNL     1      10.032   7.754  12.992  1.00  0.00     0.002 A 
ATOM     68  C   UNL     1      11.436   9.031  11.482  1.00  0.00     0.091 A 
ATOM     69  F   UNL     1      12.353   7.963   9.557  1.00  0.00    -0.205 F 
ATOM     70  C   UNL     1      10.626   8.960  12.627  1.00  0.00     0.022 A 
BRANCH  68  71
ATOM     71  S   UNL     1      12.227  10.608  11.141  1.00  0.00     0.127 S 
ATOM     72  O   UNL     1      11.101  11.405  10.658  1.00  0.00    -0.237 OA
ATOM     73  O   UNL     1      12.725  10.995  12.462  1.00  0.00    -0.237 OA
ATOM     74  O   UNL     1      13.266  10.330  10.160  1.00  0.00    -0.744 OA
ENDBRANCH  68  71
ENDBRANCH  50  64
BRANCH  51  75
ATOM     75  C   UNL     1      12.366  -1.190   5.042  1.00  0.00     0.023 A 
ATOM     76  C   UNL     1      12.627  -2.442   5.636  1.00  0.00     0.012 A 
ATOM     77  C   UNL     1      12.324  -1.089   3.639  1.00  0.00     0.148 A 
ATOM     78  C   UNL     1      12.874  -3.566   4.848  1.00  0.00     0.002 A 
ATOM     79  C   UNL     1      12.541  -2.221   2.860  1.00  0.00     0.091 A 
ATOM     80  F   UNL     1      12.083   0.112   3.094  1.00  0.00    -0.205 F 
ATOM     81  C   UNL     1      12.824  -3.457   3.462  1.00  0.00     0.022 A 
BRANCH  79  82
ATOM     82  S   UNL     1      12.424  -2.193   1.068  1.00  0.00     0.127 S 
ATOM     83  O   UNL     1      13.829  -2.236   0.671  1.00  0.00    -0.237 OA
ATOM     84  O   UNL     1      11.667  -3.418   0.794  1.00  0.00    -0.237 OA
ATOM     85  O   UNL     1      11.705  -0.973   0.741  1.00  0.00    -0.744 OA
ENDBRANCH  79  82
ENDBRANCH  51  75
BRANCH  63  86
ATOM     86  C   UNL     1      16.547   2.334   9.364  1.00  0.00     0.023 A 
ATOM     87  C   UNL     1      17.535   2.721   8.438  1.00  0.00     0.012 A 
ATOM     88  C   UNL     1      16.936   1.886  10.642  1.00  0.00     0.148 A 
ATOM     89  C   UNL     1      18.888   2.634   8.766  1.00  0.00     0.002 A 
ATOM     90  C   UNL     1      18.283   1.852  10.981  1.00  0.00     0.091 A 
ATOM     91  F   UNL     1      15.982   1.504  11.504  1.00  0.00    -0.205 F 
ATOM     92  C   UNL     1      19.261   2.212  10.040  1.00  0.00     0.022 A 
BRANCH  90  93
ATOM     93  S   UNL     1      18.851   1.420  12.630  1.00  0.00     0.127 S 
ATOM     94  O   UNL     1      19.449   0.105  12.404  1.00  0.00    -0.237 OA
ATOM     95  O   UNL     1      19.811   2.486  12.916  1.00  0.00    -0.237 OA
ATOM     96  O   UNL     1      17.666   1.430  13.478  1.00  0.00    -0.744 OA
ENDBRANCH  90  93
ENDBRANCH  63  86
ENDBRANCH  37  38
ENDBRANCH  29  32
ENDBRANCH  27  28
ENDBRANCH   1  27
TORSDOF 15
