REMARK SMILES Cc1cc(C(=O)NCCCNC(=O)c2ccc(-c3c4nc(c(-c5cccc(S(=O)(=O)[O-])c5F)c5ccc([nH]5)c(-c5cccc(S(=O)(=O)[O-])c5F)c5nc(c(-c6cccc(S(=O)(=O)[O-])c6F)c6ccc3[nH]6)C=C5)C=C4)cc2)ccc1NC(=O)N1C[C@@H](C)[C@H](C)C1
REMARK SMILES IDX 10 1 9 2 8 3 7 4 5 5 6 6 4 8 1 9 2 10 3 11 79 12 78 13 77 14
REMARK SMILES IDX 80 15 81 16 82 18 83 19 84 20 89 21 85 22 87 23 86 24 88 25
REMARK SMILES IDX 11 26 12 27 13 29 14 30 15 31 76 32 16 33 75 34 17 35 18 36
REMARK SMILES IDX 19 37 69 38 20 39 74 40 68 41 70 42 21 43 73 44 67 45 66 46
REMARK SMILES IDX 22 48 54 49 34 50 53 51 35 52 38 53 52 54 71 55 36 56 37 57
REMARK SMILES IDX 51 59 72 60 39 61 23 62 24 63 32 64 25 65 27 66 33 67 26 68
REMARK SMILES IDX 28 69 29 70 30 71 31 72 55 73 56 74 64 75 57 76 59 77 65 78
REMARK SMILES IDX 58 79 60 80 61 81 62 82 63 83 40 84 41 85 49 86 42 87 44 88
REMARK SMILES IDX 50 89 43 90 45 91 46 92 47 93 48 94
REMARK H PARENT 7 7 80 17 11 28 70 47 38 58
REMARK Flexibility Score: inf
ROOT
ATOM      1  C   UNL     1      -5.956  -1.292  -1.111  1.00  0.00     0.118 C 
ENDROOT
BRANCH   1   2
ATOM      2  C   UNL     1      -4.684  -0.576  -0.682  1.00  0.00     0.042 C 
BRANCH   2   3
ATOM      3  C   UNL     1      -3.886  -1.287   0.412  1.00  0.00     0.118 C 
BRANCH   3   4
ATOM      4  N   UNL     1      -3.048  -2.391  -0.044  1.00  0.00    -0.352 N 
ATOM      5  C   UNL     1      -1.679  -2.427  -0.241  1.00  0.00     0.251 C 
ATOM      6  O   UNL     1      -1.085  -3.500  -0.283  1.00  0.00    -0.269 OA
ATOM      7  H   UNL     1      -3.525  -3.230  -0.239  1.00  0.00     0.163 HD
BRANCH   5   8
ATOM      8  C   UNL     1      -0.899  -1.170  -0.362  1.00  0.00     0.040 A 
ATOM      9  C   UNL     1       2.519   0.157   0.590  1.00  0.00     0.046 C 
ATOM     10  C   UNL     1       1.071   0.172   0.185  1.00  0.00    -0.027 A 
ATOM     11  C   UNL     1       0.377  -1.060   0.198  1.00  0.00     0.019 A 
ATOM     12  C   UNL     1       0.404   1.313  -0.295  1.00  0.00     0.045 A 
ATOM     13  C   UNL     1      -0.761   1.131  -1.042  1.00  0.00     0.027 A 
ATOM     14  C   UNL     1      -1.379  -0.108  -1.110  1.00  0.00     0.016 A 
BRANCH  12  15
ATOM     15  N   UNL     1       0.902   2.614  -0.080  1.00  0.00    -0.308 N 
ATOM     16  C   UNL     1       0.256   3.811  -0.243  1.00  0.00     0.321 C 
ATOM     17  H   UNL     1       1.836   2.670   0.227  1.00  0.00     0.171 HD
ATOM     18  O   UNL     1       0.909   4.804  -0.564  1.00  0.00    -0.248 OA
ATOM     19  N   UNL     1      -1.098   3.869  -0.012  1.00  0.00    -0.324 N 
ATOM     20  C   UNL     1      -1.942   4.829  -0.697  1.00  0.00     0.125 C 
ATOM     21  C   UNL     1      -1.762   3.326   1.170  1.00  0.00     0.125 C 
ATOM     22  C   UNL     1      -3.106   5.099   0.253  1.00  0.00     0.010 C 
ATOM     23  C   UNL     1      -3.218   3.795   1.065  1.00  0.00     0.010 C 
ATOM     24  C   UNL     1      -4.391   5.456  -0.481  1.00  0.00     0.010 C 
ATOM     25  C   UNL     1      -3.892   3.994   2.421  1.00  0.00     0.010 C 
ENDBRANCH  12  15
ENDBRANCH   5   8
ENDBRANCH   3   4
ENDBRANCH   2   3
ENDBRANCH   1   2
BRANCH   1  26
ATOM     26  N   UNL     1      -7.053  -0.338  -1.318  1.00  0.00    -0.352 N 
ATOM     27  C   UNL     1      -8.235  -0.500  -2.018  1.00  0.00     0.251 C 
ATOM     28  H   UNL     1      -6.929   0.544  -0.898  1.00  0.00     0.163 HD
ATOM     29  O   UNL     1      -9.066   0.402  -2.058  1.00  0.00    -0.269 OA
BRANCH  27  30
ATOM     30  C   UNL     1      -8.488  -1.819  -2.623  1.00  0.00     0.039 A 
ATOM     31  C   UNL     1      -9.462  -2.620  -2.024  1.00  0.00     0.014 A 
ATOM     32  C   UNL     1      -7.512  -2.357  -3.458  1.00  0.00     0.014 A 
ATOM     33  C   UNL     1      -9.286  -3.998  -2.029  1.00  0.00     0.010 A 
ATOM     34  C   UNL     1      -7.291  -3.717  -3.391  1.00  0.00     0.010 A 
ATOM     35  C   UNL     1      -8.130  -4.518  -2.605  1.00  0.00    -0.014 A 
BRANCH  35  36
ATOM     36  C   UNL     1      -7.707  -5.898  -2.439  1.00  0.00     0.031 A 
ATOM     37  C   UNL     1      -8.194  -6.908  -3.386  1.00  0.00     0.074 A 
ATOM     38  C   UNL     1      -6.850  -6.251  -1.456  1.00  0.00     0.049 A 
ATOM     39  N   UNL     1      -8.215  -8.173  -3.149  1.00  0.00    -0.248 NA
ATOM     40  C   UNL     1      -8.769  -6.536  -4.669  1.00  0.00     0.031 C 
ATOM     41  C   UNL     1      -6.108  -7.499  -1.334  1.00  0.00     0.029 A 
ATOM     42  N   UNL     1      -6.677  -5.626  -0.220  1.00  0.00    -0.354 N 
ATOM     43  C   UNL     1      -8.518  -8.801  -4.336  1.00  0.00     0.074 A 
ATOM     44  C   UNL     1      -8.971  -7.741  -5.205  1.00  0.00     0.031 C 
ATOM     45  C   UNL     1      -5.803  -7.694  -0.042  1.00  0.00     0.029 A 
ATOM     46  C   UNL     1      -6.482  -6.661   0.719  1.00  0.00     0.049 A 
ATOM     47  H   UNL     1      -6.688  -4.658  -0.039  1.00  0.00     0.167 HD
ATOM     48  C   UNL     1      -8.187 -10.116  -4.478  1.00  0.00     0.034 A 
ATOM     49  C   UNL     1      -7.279  -6.859   1.810  1.00  0.00     0.034 A 
ATOM     50  C   UNL     1      -7.728 -10.689  -3.197  1.00  0.00     0.049 A 
ATOM     51  C   UNL     1      -7.904  -8.250   1.860  1.00  0.00     0.074 A 
ATOM     52  C   UNL     1      -6.486 -10.996  -2.662  1.00  0.00     0.029 A 
ATOM     53  N   UNL     1      -8.625 -10.773  -2.140  1.00  0.00    -0.354 N 
ATOM     54  N   UNL     1      -7.693  -9.200   0.990  1.00  0.00    -0.248 NA
ATOM     55  C   UNL     1      -8.928  -8.615   2.836  1.00  0.00     0.031 C 
ATOM     56  C   UNL     1      -6.647 -11.245  -1.266  1.00  0.00     0.029 A 
ATOM     57  C   UNL     1      -7.988 -11.114  -0.955  1.00  0.00     0.049 A 
ATOM     58  H   UNL     1      -9.592 -10.611  -2.222  1.00  0.00     0.167 HD
ATOM     59  C   UNL     1      -8.634 -10.191   1.153  1.00  0.00     0.074 A 
ATOM     60  C   UNL     1      -9.374  -9.777   2.335  1.00  0.00     0.031 C 
ATOM     61  C   UNL     1      -8.787 -11.226   0.263  1.00  0.00     0.034 A 
BRANCH  48  62
ATOM     62  C   UNL     1      -7.982 -10.809  -5.822  1.00  0.00     0.023 A 
ATOM     63  C   UNL     1      -7.201 -11.987  -5.828  1.00  0.00     0.012 A 
ATOM     64  C   UNL     1      -8.409 -10.358  -7.093  1.00  0.00     0.148 A 
ATOM     65  C   UNL     1      -6.776 -12.605  -7.011  1.00  0.00     0.002 A 
ATOM     66  C   UNL     1      -7.932 -10.930  -8.277  1.00  0.00     0.091 A 
ATOM     67  F   UNL     1      -9.356  -9.427  -7.190  1.00  0.00    -0.205 F 
ATOM     68  C   UNL     1      -7.108 -12.054  -8.238  1.00  0.00     0.022 A 
BRANCH  66  69
ATOM     69  S   UNL     1      -8.278 -10.223  -9.900  1.00  0.00     0.127 S 
ATOM     70  O   UNL     1      -6.932 -10.049 -10.451  1.00  0.00    -0.237 OA
ATOM     71  O   UNL     1      -9.065 -11.275 -10.540  1.00  0.00    -0.237 OA
ATOM     72  O   UNL     1      -8.987  -8.972  -9.661  1.00  0.00    -0.744 OA
ENDBRANCH  66  69
ENDBRANCH  48  62
BRANCH  49  73
ATOM     73  C   UNL     1      -7.954  -5.604   2.272  1.00  0.00     0.023 A 
ATOM     74  C   UNL     1      -7.119  -4.505   2.596  1.00  0.00     0.012 A 
ATOM     75  C   UNL     1      -9.304  -5.360   1.980  1.00  0.00     0.148 A 
ATOM     76  C   UNL     1      -7.568  -3.195   2.420  1.00  0.00     0.002 A 
ATOM     77  C   UNL     1      -9.752  -4.051   1.839  1.00  0.00     0.091 A 
ATOM     78  F   UNL     1     -10.126  -6.392   1.757  1.00  0.00    -0.205 F 
ATOM     79  C   UNL     1      -8.874  -2.969   1.995  1.00  0.00     0.022 A 
BRANCH  77  80
ATOM     80  S   UNL     1     -11.446  -3.743   1.333  1.00  0.00     0.127 S 
ATOM     81  O   UNL     1     -12.155  -3.856   2.603  1.00  0.00    -0.237 OA
ATOM     82  O   UNL     1     -11.377  -2.390   0.784  1.00  0.00    -0.237 OA
ATOM     83  O   UNL     1     -11.709  -4.776   0.341  1.00  0.00    -0.744 OA
ENDBRANCH  77  80
ENDBRANCH  49  73
BRANCH  61  84
ATOM     84  C   UNL     1      -9.762 -12.396   0.418  1.00  0.00     0.023 A 
ATOM     85  C   UNL     1     -10.347 -12.728   1.656  1.00  0.00     0.012 A 
ATOM     86  C   UNL     1     -10.069 -13.272  -0.660  1.00  0.00     0.148 A 
ATOM     87  C   UNL     1     -11.294 -13.751   1.792  1.00  0.00     0.002 A 
ATOM     88  C   UNL     1     -10.987 -14.312  -0.520  1.00  0.00     0.091 A 
ATOM     89  F   UNL     1      -9.428 -13.146  -1.827  1.00  0.00    -0.205 F 
ATOM     90  C   UNL     1     -11.631 -14.531   0.697  1.00  0.00     0.022 A 
BRANCH  88  91
ATOM     91  S   UNL     1     -11.374 -15.450  -1.860  1.00  0.00     0.127 S 
ATOM     92  O   UNL     1     -10.756 -16.686  -1.381  1.00  0.00    -0.237 OA
ATOM     93  O   UNL     1     -12.837 -15.454  -1.841  1.00  0.00    -0.237 OA
ATOM     94  O   UNL     1     -10.783 -14.882  -3.063  1.00  0.00    -0.744 OA
ENDBRANCH  88  91
ENDBRANCH  61  84
ENDBRANCH  35  36
ENDBRANCH  27  30
ENDBRANCH   1  26
TORSDOF 14
