REMARK SMILES CCc1nc2sc(C(=O)NCC(=O)NCCCNC(=O)c3ccc(-c4c5nc(c(-c6cccc(S(=O)(=O)[O-])c6F)c6ccc([nH]6)c(-c6cccc(S(=O)(=O)[O-])c6F)c6nc(c(-c7cccc(S(=O)(=O)[O-])c7F)c7ccc4[nH]7)C=C6)C=C5)cc3)c(N)c2c(C(F)(F)F)c1C
REMARK SMILES IDX 16 1 15 2 14 3 12 4 13 5 11 7 10 8 8 9 9 10 7 12 3 13 4 14
REMARK SMILES IDX 92 15 5 16 87 17 93 18 6 19 86 20 84 21 2 22 1 23 88 24
REMARK SMILES IDX 89 25 90 26 91 27 85 28 17 31 18 32 19 33 20 35 21 36 22 37
REMARK SMILES IDX 83 38 23 39 82 40 24 41 25 42 26 43 76 44 27 45 81 46 75 47
REMARK SMILES IDX 77 48 28 49 80 50 74 51 73 52 29 54 61 55 41 56 60 57 42 58
REMARK SMILES IDX 45 59 59 60 78 61 43 62 44 63 58 65 79 66 46 67 30 68 31 69
REMARK SMILES IDX 39 70 32 71 34 72 40 73 33 74 35 75 36 76 37 77 38 78 62 79
REMARK SMILES IDX 63 80 71 81 64 82 66 83 72 84 65 85 67 86 68 87 69 88 70 89
REMARK SMILES IDX 47 90 48 91 56 92 49 93 51 94 57 95 50 96 52 97 53 98 54 99
REMARK SMILES IDX 55 100
REMARK H PARENT 14 6 10 11 85 29 85 30 18 34 77 53 45 64
REMARK Flexibility Score: inf
ROOT
ATOM      1  C   UNL     1       4.512  -6.795  -4.699  1.00  0.00     0.042 C 
ENDROOT
BRANCH   1   2
ATOM      2  C   UNL     1       4.505  -5.420  -5.355  1.00  0.00     0.117 C 
BRANCH   2   3
ATOM      3  N   UNL     1       4.754  -5.414  -6.785  1.00  0.00    -0.355 N 
ATOM      4  C   UNL     1       3.934  -5.513  -7.866  1.00  0.00     0.239 C 
ATOM      5  O   UNL     1       4.434  -5.205  -8.954  1.00  0.00    -0.273 OA
ATOM      6  H   UNL     1       5.706  -5.320  -7.019  1.00  0.00     0.163 HD
BRANCH   4   7
ATOM      7  C   UNL     1       2.432  -5.834  -7.800  1.00  0.00     0.216 C 
BRANCH   7   8
ATOM      8  N   UNL     1       1.853  -6.436  -6.623  1.00  0.00    -0.342 N 
ATOM      9  C   UNL     1       1.165  -5.951  -5.543  1.00  0.00     0.264 C 
ATOM     10  O   UNL     1       0.648  -6.855  -4.873  1.00  0.00    -0.268 OA
ATOM     11  H   UNL     1       1.981  -7.412  -6.589  1.00  0.00     0.164 HD
BRANCH   9  12
ATOM     12  C   UNL     1       1.098  -4.541  -5.138  1.00  0.00     0.118 A 
ATOM     13  C   UNL     1       0.664  -0.615  -2.539  1.00  0.00     0.045 A 
ATOM     14  N   UNL     1       0.265  -1.900  -2.538  1.00  0.00    -0.242 NA
ATOM     15  C   UNL     1       1.456  -0.048  -3.551  1.00  0.00    -0.017 A 
ATOM     16  C   UNL     1       0.646  -2.639  -3.588  1.00  0.00     0.127 A 
ATOM     17  C   UNL     1       1.794  -0.846  -4.686  1.00  0.00     0.073 A 
ATOM     18  C   UNL     1       1.927   1.383  -3.472  1.00  0.00     0.047 C 
ATOM     19  S   UNL     1       0.248  -4.277  -3.645  1.00  0.00    -0.108 S 
ATOM     20  C   UNL     1       1.366  -2.211  -4.686  1.00  0.00     0.048 A 
ATOM     21  C   UNL     1       1.577  -3.319  -5.599  1.00  0.00     0.066 A 
BRANCH  13  22
ATOM     22  C   UNL     1       0.162   0.151  -1.337  1.00  0.00     0.053 C 
ATOM     23  C   UNL     1       0.953  -0.168  -0.077  1.00  0.00     0.011 C 
ENDBRANCH  13  22
BRANCH  17  24
ATOM     24  C   UNL     1       2.624  -0.317  -5.838  1.00  0.00     0.417 C 
ATOM     25  F   UNL     1       3.871  -0.866  -5.875  1.00  0.00    -0.166 F 
ATOM     26  F   UNL     1       2.062  -0.584  -7.055  1.00  0.00    -0.166 F 
ATOM     27  F   UNL     1       2.823   1.030  -5.854  1.00  0.00    -0.166 F 
ENDBRANCH  17  24
BRANCH  21  28
ATOM     28  N   UNL     1       2.280  -3.123  -6.734  1.00  0.00    -0.397 N 
ATOM     29  H   UNL     1       2.426  -3.871  -7.358  1.00  0.00     0.156 HD
ATOM     30  H   UNL     1       2.646  -2.233  -6.939  1.00  0.00     0.156 HD
ENDBRANCH  21  28
ENDBRANCH   9  12
ENDBRANCH   7   8
ENDBRANCH   4   7
ENDBRANCH   2   3
ENDBRANCH   1   2
BRANCH   1  31
ATOM     31  C   UNL     1       5.921  -7.244  -4.362  1.00  0.00     0.118 C 
BRANCH  31  32
ATOM     32  N   UNL     1       6.534  -6.426  -3.310  1.00  0.00    -0.352 N 
ATOM     33  C   UNL     1       7.842  -6.468  -2.853  1.00  0.00     0.251 C 
ATOM     34  H   UNL     1       5.945  -5.766  -2.877  1.00  0.00     0.163 HD
ATOM     35  O   UNL     1       8.160  -5.957  -1.800  1.00  0.00    -0.269 OA
BRANCH  33  36
ATOM     36  C   UNL     1       8.826  -7.179  -3.689  1.00  0.00     0.039 A 
ATOM     37  C   UNL     1       9.642  -8.169  -3.140  1.00  0.00     0.014 A 
ATOM     38  C   UNL     1       8.817  -6.928  -5.057  1.00  0.00     0.014 A 
ATOM     39  C   UNL     1      10.369  -8.983  -4.003  1.00  0.00     0.010 A 
ATOM     40  C   UNL     1       9.405  -7.833  -5.907  1.00  0.00     0.010 A 
ATOM     41  C   UNL     1      10.216  -8.840  -5.393  1.00  0.00    -0.014 A 
BRANCH  41  42
ATOM     42  C   UNL     1      10.850  -9.789  -6.304  1.00  0.00     0.031 A 
ATOM     43  C   UNL     1      10.676 -11.233  -5.980  1.00  0.00     0.074 A 
ATOM     44  C   UNL     1      11.459  -9.436  -7.456  1.00  0.00     0.049 A 
ATOM     45  N   UNL     1      11.567 -12.033  -5.492  1.00  0.00    -0.248 NA
ATOM     46  C   UNL     1       9.343 -11.835  -6.111  1.00  0.00     0.031 C 
ATOM     47  C   UNL     1      11.501  -8.125  -8.117  1.00  0.00     0.029 A 
ATOM     48  N   UNL     1      12.101 -10.240  -8.345  1.00  0.00    -0.354 N 
ATOM     49  C   UNL     1      10.977 -13.295  -5.455  1.00  0.00     0.074 A 
ATOM     50  C   UNL     1       9.571 -13.082  -5.686  1.00  0.00     0.031 C 
ATOM     51  C   UNL     1      11.907  -8.277  -9.396  1.00  0.00     0.029 A 
ATOM     52  C   UNL     1      12.354  -9.642  -9.570  1.00  0.00     0.049 A 
ATOM     53  H   UNL     1      12.363 -11.166  -8.137  1.00  0.00     0.167 HD
ATOM     54  C   UNL     1      11.732 -14.430  -5.440  1.00  0.00     0.034 A 
ATOM     55  C   UNL     1      12.904 -10.232 -10.654  1.00  0.00     0.034 A 
ATOM     56  C   UNL     1      13.117 -14.135  -5.170  1.00  0.00     0.049 A 
ATOM     57  C   UNL     1      13.697 -11.378 -10.159  1.00  0.00     0.074 A 
ATOM     58  C   UNL     1      13.819 -13.561  -4.130  1.00  0.00     0.029 A 
ATOM     59  N   UNL     1      13.965 -14.122  -6.251  1.00  0.00    -0.354 N 
ATOM     60  N   UNL     1      14.761 -11.250  -9.417  1.00  0.00    -0.248 NA
ATOM     61  C   UNL     1      13.094 -12.698 -10.169  1.00  0.00     0.031 C 
ATOM     62  C   UNL     1      14.860 -12.814  -4.759  1.00  0.00     0.029 A 
ATOM     63  C   UNL     1      14.761 -13.014  -6.139  1.00  0.00     0.049 A 
ATOM     64  H   UNL     1      13.995 -14.788  -6.975  1.00  0.00     0.167 HD
ATOM     65  C   UNL     1      14.697 -12.318  -8.532  1.00  0.00     0.074 A 
ATOM     66  C   UNL     1      13.738 -13.242  -9.133  1.00  0.00     0.031 C 
ATOM     67  C   UNL     1      15.209 -12.222  -7.268  1.00  0.00     0.034 A 
BRANCH  54  68
ATOM     68  C   UNL     1      11.327 -15.783  -5.987  1.00  0.00     0.023 A 
ATOM     69  C   UNL     1      12.202 -16.869  -5.743  1.00  0.00     0.012 A 
ATOM     70  C   UNL     1      10.301 -15.996  -6.933  1.00  0.00     0.148 A 
ATOM     71  C   UNL     1      12.098 -18.077  -6.441  1.00  0.00     0.002 A 
ATOM     72  C   UNL     1      10.151 -17.227  -7.567  1.00  0.00     0.091 A 
ATOM     73  F   UNL     1       9.538 -14.975  -7.333  1.00  0.00    -0.205 F 
ATOM     74  C   UNL     1      11.066 -18.260  -7.350  1.00  0.00     0.022 A 
BRANCH  72  75
ATOM     75  S   UNL     1       8.795 -17.541  -8.704  1.00  0.00     0.127 S 
ATOM     76  O   UNL     1       9.475 -17.487  -9.994  1.00  0.00    -0.237 OA
ATOM     77  O   UNL     1       8.358 -18.875  -8.289  1.00  0.00    -0.237 OA
ATOM     78  O   UNL     1       7.821 -16.489  -8.443  1.00  0.00    -0.744 OA
ENDBRANCH  72  75
ENDBRANCH  54  68
BRANCH  55  79
ATOM     79  C   UNL     1      12.625 -10.014 -12.086  1.00  0.00     0.023 A 
ATOM     80  C   UNL     1      13.575 -10.416 -13.044  1.00  0.00     0.012 A 
ATOM     81  C   UNL     1      11.318  -9.702 -12.522  1.00  0.00     0.148 A 
ATOM     82  C   UNL     1      13.220 -10.559 -14.389  1.00  0.00     0.002 A 
ATOM     83  C   UNL     1      10.968  -9.852 -13.860  1.00  0.00     0.091 A 
ATOM     84  F   UNL     1      10.400  -9.354 -11.609  1.00  0.00    -0.205 F 
ATOM     85  C   UNL     1      11.915 -10.294 -14.794  1.00  0.00     0.022 A 
BRANCH  83  86
ATOM     86  S   UNL     1       9.294  -9.579 -14.455  1.00  0.00     0.127 S 
ATOM     87  O   UNL     1       9.522  -8.704 -15.606  1.00  0.00    -0.237 OA
ATOM     88  O   UNL     1       8.870 -10.935 -14.792  1.00  0.00    -0.237 OA
ATOM     89  O   UNL     1       8.577  -8.948 -13.354  1.00  0.00    -0.744 OA
ENDBRANCH  83  86
ENDBRANCH  55  79
BRANCH  67  90
ATOM     90  C   UNL     1      16.083 -11.032  -6.937  1.00  0.00     0.023 A 
ATOM     91  C   UNL     1      15.595  -9.709  -6.981  1.00  0.00     0.012 A 
ATOM     92  C   UNL     1      17.356 -11.262  -6.384  1.00  0.00     0.148 A 
ATOM     93  C   UNL     1      16.361  -8.642  -6.505  1.00  0.00     0.002 A 
ATOM     94  C   UNL     1      18.095 -10.205  -5.864  1.00  0.00     0.091 A 
ATOM     95  F   UNL     1      17.810 -12.524  -6.342  1.00  0.00    -0.205 F 
ATOM     96  C   UNL     1      17.605  -8.891  -5.932  1.00  0.00     0.022 A 
BRANCH  94  97
ATOM     97  S   UNL     1      19.638 -10.472  -4.986  1.00  0.00     0.127 S 
ATOM     98  O   UNL     1      20.626  -9.993  -5.950  1.00  0.00    -0.237 OA
ATOM     99  O   UNL     1      19.477  -9.623  -3.804  1.00  0.00    -0.237 OA
ATOM    100  O   UNL     1      19.689 -11.898  -4.690  1.00  0.00    -0.744 OA
ENDBRANCH  94  97
ENDBRANCH  67  90
ENDBRANCH  41  42
ENDBRANCH  33  36
ENDBRANCH  31  32
ENDBRANCH   1  31
TORSDOF 18
