REMARK SMILES COc1cc(C(=O)NCCCNC(=O)c2ccc(-c3c4nc(c(-c5cccc(S(=O)(=O)[O-])c5F)c5ccc([nH]5)c(-c5cccc(S(=O)(=O)[O-])c5F)c5nc(c(-c6cccc(S(=O)(=O)[O-])c6F)c6ccc3[nH]6)C=C5)C=C4)cc2)c([N+](=O)[O-])cc1OCC[NH+](C)C
REMARK SMILES IDX 9 1 8 2 6 3 7 4 5 6 3 7 4 8 83 9 82 10 78 11 2 12 1 13 84 14
REMARK SMILES IDX 85 15 86 16 87 17 88 18 89 19 79 21 80 22 81 23 10 24 11 25
REMARK SMILES IDX 12 26 13 27 14 29 15 30 16 31 77 32 17 33 76 34 18 35 19 36
REMARK SMILES IDX 20 37 70 38 21 39 75 40 69 41 71 42 22 43 74 44 68 45 67 46
REMARK SMILES IDX 23 48 55 49 35 50 54 51 36 52 39 53 53 54 72 55 37 56 38 57
REMARK SMILES IDX 52 59 73 60 40 61 24 62 25 63 33 64 26 65 28 66 34 67 27 68
REMARK SMILES IDX 29 69 30 70 31 71 32 72 56 73 57 74 65 75 58 76 60 77 66 78
REMARK SMILES IDX 59 79 61 80 62 81 63 82 64 83 41 84 42 85 50 86 43 87 45 88
REMARK SMILES IDX 51 89 44 90 46 91 47 92 48 93 49 94
REMARK H PARENT 8 5 87 20 12 28 71 47 39 58
REMARK Flexibility Score: inf
ROOT
ATOM      1  C   UNL     1       1.797   6.158  -4.346  1.00  0.00     0.118 C 
ENDROOT
BRANCH   1   2
ATOM      2  N   UNL     1       0.428   5.696  -4.143  1.00  0.00    -0.352 N 
ATOM      3  C   UNL     1      -0.076   4.644  -3.414  1.00  0.00     0.258 C 
ATOM      4  O   UNL     1      -1.289   4.452  -3.388  1.00  0.00    -0.269 OA
ATOM      5  H   UNL     1      -0.254   6.231  -4.609  1.00  0.00     0.163 HD
BRANCH   3   6
ATOM      6  C   UNL     1       0.812   3.689  -2.712  1.00  0.00     0.121 A 
ATOM      7  C   UNL     1       1.349   1.357  -2.223  1.00  0.00     0.162 A 
ATOM      8  C   UNL     1       0.531   2.315  -2.845  1.00  0.00     0.071 A 
ATOM      9  C   UNL     1       2.494   1.770  -1.531  1.00  0.00     0.168 A 
ATOM     10  C   UNL     1       2.807   3.124  -1.441  1.00  0.00     0.136 A 
ATOM     11  C   UNL     1       1.906   4.068  -1.934  1.00  0.00     0.286 A 
BRANCH   7  12
ATOM     12  O   UNL     1       1.090   0.024  -2.401  1.00  0.00    -0.493 OA
ATOM     13  C   UNL     1      -0.044  -0.424  -1.655  1.00  0.00     0.278 C 
ENDBRANCH   7  12
BRANCH   9  14
ATOM     14  O   UNL     1       3.366   0.962  -0.863  1.00  0.00    -0.484 OA
BRANCH  14  15
ATOM     15  C   UNL     1       2.805   0.198   0.211  1.00  0.00     0.291 C 
BRANCH  15  16
ATOM     16  C   UNL     1       2.106   0.969   1.369  1.00  0.00     0.303 C 
BRANCH  16  17
ATOM     17  N   UNL     1       0.868   1.693   1.008  1.00  0.00    -0.337 N 
ATOM     18  C   UNL     1      -0.316   1.166   1.687  1.00  0.00     0.332 C 
ATOM     19  C   UNL     1       0.969   3.127   1.299  1.00  0.00     0.332 C 
ATOM     20  H   UNL     1       0.762   1.551   0.004  1.00  0.00     0.347 HD
ENDBRANCH  16  17
ENDBRANCH  15  16
ENDBRANCH  14  15
ENDBRANCH   9  14
BRANCH  11  21
ATOM     21  N   UNL     1       2.051   5.427  -1.441  1.00  0.00     0.063 N 
ATOM     22  O   UNL     1       1.039   5.991  -1.007  1.00  0.00    -0.258 OA
ATOM     23  O   UNL     1       3.192   5.911  -1.438  1.00  0.00    -0.258 OA
ENDBRANCH  11  21
ENDBRANCH   3   6
ENDBRANCH   1   2
BRANCH   1  24
ATOM     24  C   UNL     1       2.173   6.431  -5.788  1.00  0.00     0.042 C 
BRANCH  24  25
ATOM     25  C   UNL     1       1.358   7.521  -6.461  1.00  0.00     0.118 C 
BRANCH  25  26
ATOM     26  N   UNL     1       1.559   8.848  -5.890  1.00  0.00    -0.352 N 
ATOM     27  C   UNL     1       2.281   9.938  -6.334  1.00  0.00     0.251 C 
ATOM     28  H   UNL     1       1.097   8.993  -5.033  1.00  0.00     0.163 HD
ATOM     29  O   UNL     1       2.385  10.921  -5.617  1.00  0.00    -0.269 OA
BRANCH  27  30
ATOM     30  C   UNL     1       2.963   9.910  -7.651  1.00  0.00     0.039 A 
ATOM     31  C   UNL     1       4.240  10.469  -7.766  1.00  0.00     0.014 A 
ATOM     32  C   UNL     1       2.362   9.338  -8.768  1.00  0.00     0.014 A 
ATOM     33  C   UNL     1       4.946  10.351  -8.969  1.00  0.00     0.010 A 
ATOM     34  C   UNL     1       3.111   9.102  -9.914  1.00  0.00     0.010 A 
ATOM     35  C   UNL     1       4.411   9.612 -10.036  1.00  0.00    -0.014 A 
BRANCH  35  36
ATOM     36  C   UNL     1       5.176   9.356 -11.287  1.00  0.00     0.031 A 
ATOM     37  C   UNL     1       4.600   9.763 -12.621  1.00  0.00     0.074 A 
ATOM     38  C   UNL     1       6.331   8.659 -11.238  1.00  0.00     0.049 A 
ATOM     39  N   UNL     1       5.050   9.519 -13.824  1.00  0.00    -0.248 NA
ATOM     40  C   UNL     1       3.329  10.510 -12.602  1.00  0.00     0.031 C 
ATOM     41  C   UNL     1       6.956   8.134 -10.021  1.00  0.00     0.029 A 
ATOM     42  N   UNL     1       7.172   8.247 -12.242  1.00  0.00    -0.354 N 
ATOM     43  C   UNL     1       4.101  10.037 -14.698  1.00  0.00     0.074 A 
ATOM     44  C   UNL     1       3.026  10.567 -13.890  1.00  0.00     0.031 C 
ATOM     45  C   UNL     1       8.085   7.484 -10.348  1.00  0.00     0.029 A 
ATOM     46  C   UNL     1       8.245   7.507 -11.798  1.00  0.00     0.049 A 
ATOM     47  H   UNL     1       7.022   8.460 -13.192  1.00  0.00     0.167 HD
ATOM     48  C   UNL     1       4.134  10.104 -16.050  1.00  0.00     0.034 A 
ATOM     49  C   UNL     1       9.239   6.906 -12.480  1.00  0.00     0.034 A 
ATOM     50  C   UNL     1       5.231   9.632 -16.849  1.00  0.00     0.049 A 
ATOM     51  C   UNL     1       9.271   7.028 -13.981  1.00  0.00     0.074 A 
ATOM     52  C   UNL     1       5.402   9.732 -18.218  1.00  0.00     0.029 A 
ATOM     53  N   UNL     1       6.343   8.971 -16.353  1.00  0.00    -0.354 N 
ATOM     54  N   UNL     1       8.438   7.653 -14.776  1.00  0.00    -0.248 NA
ATOM     55  C   UNL     1      10.400   6.392 -14.676  1.00  0.00     0.031 C 
ATOM     56  C   UNL     1       6.610   9.111 -18.552  1.00  0.00     0.029 A 
ATOM     57  C   UNL     1       7.204   8.652 -17.388  1.00  0.00     0.049 A 
ATOM     58  H   UNL     1       6.498   8.760 -15.403  1.00  0.00     0.167 HD
ATOM     59  C   UNL     1       8.961   7.520 -16.057  1.00  0.00     0.074 A 
ATOM     60  C   UNL     1      10.195   6.773 -15.929  1.00  0.00     0.031 C 
ATOM     61  C   UNL     1       8.459   7.962 -17.236  1.00  0.00     0.034 A 
BRANCH  48  62
ATOM     62  C   UNL     1       2.977  10.772 -16.749  1.00  0.00     0.023 A 
ATOM     63  C   UNL     1       2.805  12.167 -16.631  1.00  0.00     0.012 A 
ATOM     64  C   UNL     1       2.099  10.036 -17.568  1.00  0.00     0.148 A 
ATOM     65  C   UNL     1       1.757  12.813 -17.284  1.00  0.00     0.002 A 
ATOM     66  C   UNL     1       1.086  10.695 -18.256  1.00  0.00     0.091 A 
ATOM     67  F   UNL     1       2.266   8.709 -17.655  1.00  0.00    -0.205 F 
ATOM     68  C   UNL     1       0.905  12.080 -18.104  1.00  0.00     0.022 A 
BRANCH  66  69
ATOM     69  S   UNL     1      -0.015   9.858 -19.402  1.00  0.00     0.127 S 
ATOM     70  O   UNL     1      -1.293   9.936 -18.694  1.00  0.00    -0.237 OA
ATOM     71  O   UNL     1       0.076  10.708 -20.590  1.00  0.00    -0.237 OA
ATOM     72  O   UNL     1       0.522   8.515 -19.570  1.00  0.00    -0.744 OA
ENDBRANCH  66  69
ENDBRANCH  48  62
BRANCH  49  73
ATOM     73  C   UNL     1      10.325   6.185 -11.753  1.00  0.00     0.023 A 
ATOM     74  C   UNL     1      11.628   6.721 -11.753  1.00  0.00     0.012 A 
ATOM     75  C   UNL     1      10.079   4.984 -11.062  1.00  0.00     0.148 A 
ATOM     76  C   UNL     1      12.674   6.054 -11.114  1.00  0.00     0.002 A 
ATOM     77  C   UNL     1      11.114   4.353 -10.380  1.00  0.00     0.091 A 
ATOM     78  F   UNL     1       8.836   4.482 -11.081  1.00  0.00    -0.205 F 
ATOM     79  C   UNL     1      12.416   4.876 -10.421  1.00  0.00     0.022 A 
BRANCH  77  80
ATOM     80  S   UNL     1      10.848   2.901  -9.355  1.00  0.00     0.127 S 
ATOM     81  O   UNL     1      11.487   1.855 -10.149  1.00  0.00    -0.237 OA
ATOM     82  O   UNL     1      11.557   3.263  -8.127  1.00  0.00    -0.237 OA
ATOM     83  O   UNL     1       9.404   2.789  -9.203  1.00  0.00    -0.744 OA
ENDBRANCH  77  80
ENDBRANCH  49  73
BRANCH  61  84
ATOM     84  C   UNL     1       9.260   7.699 -18.483  1.00  0.00     0.023 A 
ATOM     85  C   UNL     1       9.333   6.394 -19.010  1.00  0.00     0.012 A 
ATOM     86  C   UNL     1       9.872   8.762 -19.177  1.00  0.00     0.148 A 
ATOM     87  C   UNL     1      10.029   6.146 -20.192  1.00  0.00     0.002 A 
ATOM     88  C   UNL     1      10.519   8.516 -20.381  1.00  0.00     0.091 A 
ATOM     89  F   UNL     1       9.804   9.993 -18.650  1.00  0.00    -0.205 F 
ATOM     90  C   UNL     1      10.610   7.207 -20.883  1.00  0.00     0.022 A 
BRANCH  88  91
ATOM     91  S   UNL     1      11.210   9.831 -21.391  1.00  0.00     0.127 S 
ATOM     92  O   UNL     1      12.645   9.595 -21.246  1.00  0.00    -0.237 OA
ATOM     93  O   UNL     1      10.671   9.518 -22.715  1.00  0.00    -0.237 OA
ATOM     94  O   UNL     1      10.722  11.078 -20.819  1.00  0.00    -0.744 OA
ENDBRANCH  88  91
ENDBRANCH  61  84
ENDBRANCH  35  36
ENDBRANCH  27  30
ENDBRANCH  25  26
ENDBRANCH  24  25
ENDBRANCH   1  24
TORSDOF 19
