REMARK SMILES NC(=O)c1ccccc1N[C@@H]1CCCCC[C@@H]1C(=O)NCCCNC(=O)c1ccc(-c2c3nc(c(-c4cccc(S(=O)(=O)[O-])c4F)c4ccc([nH]4)c(-c4cccc(S(=O)(=O)[O-])c4F)c4nc(c(-c5cccc(S(=O)(=O)[O-])c5F)c5ccc2[nH]5)C=C4)C=C3)cc1
REMARK SMILES IDX 21 1 20 2 18 3 19 4 17 6 11 7 10 9 9 11 4 12 5 13 6 14 8 15
REMARK SMILES IDX 7 16 2 17 1 18 3 21 16 22 15 23 14 24 13 25 12 26 22 28
REMARK SMILES IDX 23 29 24 30 25 31 26 33 27 34 28 35 89 36 29 37 88 38 30 39
REMARK SMILES IDX 31 40 32 41 82 42 33 43 87 44 81 45 83 46 34 47 86 48 80 49
REMARK SMILES IDX 79 50 35 52 67 53 47 54 66 55 48 56 51 57 65 58 84 59 49 60
REMARK SMILES IDX 50 61 64 63 85 64 52 65 36 66 37 67 45 68 38 69 40 70 46 71
REMARK SMILES IDX 39 72 41 73 42 74 43 75 44 76 68 77 69 78 77 79 70 80 72 81
REMARK SMILES IDX 78 82 71 83 73 84 74 85 75 86 76 87 53 88 54 89 62 90 55 91
REMARK SMILES IDX 57 92 63 93 56 94 58 95 59 96 60 97 61 98
REMARK H PARENT 20 5 10 10 1 19 1 20 24 32 83 51 51 62
REMARK Flexibility Score: 90.00
ROOT
ATOM      1  C   UNL     1       1.088   5.687   1.369  1.00  0.00     0.117 C 
ENDROOT
BRANCH   1   2
ATOM      2  N   UNL     1       1.125   5.164   0.017  1.00  0.00    -0.356 N 
ATOM      3  C   UNL     1       2.124   4.633  -0.730  1.00  0.00     0.225 C 
ATOM      4  O   UNL     1       1.811   4.234  -1.860  1.00  0.00    -0.275 OA
ATOM      5  H   UNL     1       0.258   5.202  -0.448  1.00  0.00     0.163 HD
BRANCH   3   6
ATOM      6  C   UNL     1       3.561   4.410  -0.238  1.00  0.00     0.101 C 
BRANCH   6   7
ATOM      7  C   UNL     1       3.791   2.898   0.020  1.00  0.00     0.091 CG0
ATOM      8  G   UNL     1       5.088   2.415   0.685  1.00  0.00     0.000 G0
BRANCH   7   9
ATOM      9  N   UNL     1       2.621   2.170   0.547  1.00  0.00    -0.381 N 
ATOM     10  H   UNL     1       2.197   1.555  -0.094  1.00  0.00     0.160 HD
BRANCH   9  11
ATOM     11  C   UNL     1       2.018   2.208   1.797  1.00  0.00     0.047 A 
ATOM     12  C   UNL     1       0.803   1.520   2.050  1.00  0.00     0.062 A 
ATOM     13  C   UNL     1       0.146   1.636   3.289  1.00  0.00     0.016 A 
ATOM     14  C   UNL     1       0.704   2.386   4.318  1.00  0.00     0.001 A 
ATOM     15  C   UNL     1       2.583   2.886   2.885  1.00  0.00     0.026 A 
ATOM     16  C   UNL     1       1.933   2.995   4.120  1.00  0.00     0.002 A 
BRANCH  12  17
ATOM     17  C   UNL     1       0.129   0.634   1.054  1.00  0.00     0.250 C 
ATOM     18  N   UNL     1       0.936  -0.051   0.188  1.00  0.00    -0.366 N 
ATOM     19  H   UNL     1       0.539  -0.647  -0.488  1.00  0.00     0.159 HD
ATOM     20  H   UNL     1       1.914   0.053   0.239  1.00  0.00     0.159 HD
ATOM     21  O   UNL     1      -1.083   0.473   1.040  1.00  0.00    -0.269 OA
ENDBRANCH  12  17
ENDBRANCH   9  11
ENDBRANCH   7   9
ENDBRANCH   6   7
BRANCH   6  22
ATOM     22  C   UNL     1       4.133   5.433   0.745  1.00  0.00     0.015 C 
BRANCH  22  23
ATOM     23  C   UNL     1       5.642   5.648   0.653  1.00  0.00     0.001 C 
BRANCH  23  24
ATOM     24  C   UNL     1       6.464   4.491   1.198  1.00  0.00     0.000 C 
BRANCH  24  25
ATOM     25  C   UNL     1       6.346   3.217   0.371  1.00  0.00     0.002 C 
BRANCH  25  26
ATOM     26  C   UNL     1       5.088   2.415   0.685  1.00  0.00     0.025 CG0
ATOM     27  G   UNL     1       3.791   2.898   0.020  1.00  0.00     0.000 G0
ENDBRANCH  25  26
ENDBRANCH  24  25
ENDBRANCH  23  24
ENDBRANCH  22  23
ENDBRANCH   6  22
ENDBRANCH   3   6
ENDBRANCH   1   2
BRANCH   1  28
ATOM     28  C   UNL     1       1.087   7.211   1.391  1.00  0.00     0.042 C 
BRANCH  28  29
ATOM     29  C   UNL     1      -0.283   7.808   1.090  1.00  0.00     0.118 C 
BRANCH  29  30
ATOM     30  N   UNL     1      -1.243   7.517   2.149  1.00  0.00    -0.352 N 
ATOM     31  C   UNL     1      -1.895   8.365   3.008  1.00  0.00     0.251 C 
ATOM     32  H   UNL     1      -1.458   6.563   2.264  1.00  0.00     0.163 HD
ATOM     33  O   UNL     1      -2.460   7.903   3.997  1.00  0.00    -0.269 OA
BRANCH  31  34
ATOM     34  C   UNL     1      -1.917   9.822   2.757  1.00  0.00     0.039 A 
ATOM     35  C   UNL     1      -1.807  10.696   3.842  1.00  0.00     0.014 A 
ATOM     36  C   UNL     1      -2.079  10.329   1.465  1.00  0.00     0.014 A 
ATOM     37  C   UNL     1      -1.797  12.075   3.623  1.00  0.00     0.010 A 
ATOM     38  C   UNL     1      -1.986  11.700   1.240  1.00  0.00     0.010 A 
ATOM     39  C   UNL     1      -1.848  12.588   2.316  1.00  0.00    -0.014 A 
BRANCH  39  40
ATOM     40  C   UNL     1      -1.724  14.044   2.057  1.00  0.00     0.031 A 
ATOM     41  C   UNL     1      -2.844  14.803   1.397  1.00  0.00     0.074 A 
ATOM     42  C   UNL     1      -0.558  14.663   2.335  1.00  0.00     0.049 A 
ATOM     43  N   UNL     1      -2.888  16.061   1.044  1.00  0.00    -0.248 NA
ATOM     44  C   UNL     1      -4.064  14.047   1.066  1.00  0.00     0.031 C 
ATOM     45  C   UNL     1       0.630  14.013   2.895  1.00  0.00     0.029 A 
ATOM     46  N   UNL     1      -0.168  15.966   2.155  1.00  0.00    -0.354 N 
ATOM     47  C   UNL     1      -4.116  16.240   0.419  1.00  0.00     0.074 A 
ATOM     48  C   UNL     1      -4.780  14.955   0.418  1.00  0.00     0.031 C 
ATOM     49  C   UNL     1       1.614  14.918   3.012  1.00  0.00     0.029 A 
ATOM     50  C   UNL     1       1.142  16.202   2.503  1.00  0.00     0.049 A 
ATOM     51  H   UNL     1      -0.768  16.666   1.811  1.00  0.00     0.167 HD
ATOM     52  C   UNL     1      -4.651  17.376  -0.087  1.00  0.00     0.034 A 
ATOM     53  C   UNL     1       1.887  17.321   2.408  1.00  0.00     0.034 A 
ATOM     54  C   UNL     1      -4.002  18.659  -0.045  1.00  0.00     0.049 A 
ATOM     55  C   UNL     1       1.249  18.576   1.879  1.00  0.00     0.074 A 
ATOM     56  C   UNL     1      -4.505  19.888  -0.436  1.00  0.00     0.029 A 
ATOM     57  N   UNL     1      -2.708  18.879   0.397  1.00  0.00    -0.354 N 
ATOM     58  N   UNL     1       0.022  18.764   1.458  1.00  0.00    -0.248 NA
ATOM     59  C   UNL     1       2.087  19.784   1.845  1.00  0.00     0.031 C 
ATOM     60  C   UNL     1      -3.501  20.846  -0.262  1.00  0.00     0.029 A 
ATOM     61  C   UNL     1      -2.386  20.220   0.271  1.00  0.00     0.049 A 
ATOM     62  H   UNL     1      -2.106  18.184   0.749  1.00  0.00     0.167 HD
ATOM     63  C   UNL     1      -0.069  20.113   1.139  1.00  0.00     0.074 A 
ATOM     64  C   UNL     1       1.219  20.702   1.444  1.00  0.00     0.031 C 
ATOM     65  C   UNL     1      -1.117  20.801   0.622  1.00  0.00     0.034 A 
BRANCH  52  66
ATOM     66  C   UNL     1      -6.029  17.304  -0.692  1.00  0.00     0.023 A 
ATOM     67  C   UNL     1      -7.151  17.138   0.145  1.00  0.00     0.012 A 
ATOM     68  C   UNL     1      -6.220  17.495  -2.075  1.00  0.00     0.148 A 
ATOM     69  C   UNL     1      -8.440  17.139  -0.387  1.00  0.00     0.002 A 
ATOM     70  C   UNL     1      -7.510  17.541  -2.591  1.00  0.00     0.091 A 
ATOM     71  F   UNL     1      -5.140  17.633  -2.856  1.00  0.00    -0.205 F 
ATOM     72  C   UNL     1      -8.620  17.352  -1.751  1.00  0.00     0.022 A 
BRANCH  70  73
ATOM     73  S   UNL     1      -7.854  17.892  -4.319  1.00  0.00     0.127 S 
ATOM     74  O   UNL     1      -8.411  16.619  -4.774  1.00  0.00    -0.237 OA
ATOM     75  O   UNL     1      -8.825  18.982  -4.221  1.00  0.00    -0.237 OA
ATOM     76  O   UNL     1      -6.579  18.261  -4.918  1.00  0.00    -0.744 OA
ENDBRANCH  70  73
ENDBRANCH  52  66
BRANCH  53  77
ATOM     77  C   UNL     1       3.308  17.315   2.858  1.00  0.00     0.023 A 
ATOM     78  C   UNL     1       3.680  18.053   3.999  1.00  0.00     0.012 A 
ATOM     79  C   UNL     1       4.290  16.576   2.170  1.00  0.00     0.148 A 
ATOM     80  C   UNL     1       5.010  18.089   4.421  1.00  0.00     0.002 A 
ATOM     81  C   UNL     1       5.601  16.567   2.631  1.00  0.00     0.091 A 
ATOM     82  F   UNL     1       3.920  15.890   1.079  1.00  0.00    -0.205 F 
ATOM     83  C   UNL     1       5.967  17.339   3.744  1.00  0.00     0.022 A 
BRANCH  81  84
ATOM     84  S   UNL     1       6.865  15.519   1.903  1.00  0.00     0.127 S 
ATOM     85  O   UNL     1       7.688  16.493   1.191  1.00  0.00    -0.237 OA
ATOM     86  O   UNL     1       7.491  14.931   3.087  1.00  0.00    -0.237 OA
ATOM     87  O   UNL     1       6.148  14.562   1.070  1.00  0.00    -0.744 OA
ENDBRANCH  81  84
ENDBRANCH  53  77
BRANCH  65  88
ATOM     88  C   UNL     1      -0.931  22.276   0.381  1.00  0.00     0.023 A 
ATOM     89  C   UNL     1      -0.103  22.716  -0.670  1.00  0.00     0.012 A 
ATOM     90  C   UNL     1      -1.632  23.223   1.153  1.00  0.00     0.148 A 
ATOM     91  C   UNL     1       0.055  24.078  -0.925  1.00  0.00     0.002 A 
ATOM     92  C   UNL     1      -1.511  24.576   0.860  1.00  0.00     0.091 A 
ATOM     93  F   UNL     1      -2.403  22.785   2.159  1.00  0.00    -0.205 F 
ATOM     94  C   UNL     1      -0.657  25.006  -0.169  1.00  0.00     0.022 A 
BRANCH  92  95
ATOM     95  S   UNL     1      -2.463  25.836   1.714  1.00  0.00     0.127 S 
ATOM     96  O   UNL     1      -1.431  26.502   2.507  1.00  0.00    -0.237 OA
ATOM     97  O   UNL     1      -2.989  26.632   0.604  1.00  0.00    -0.237 OA
ATOM     98  O   UNL     1      -3.477  25.125   2.481  1.00  0.00    -0.744 OA
ENDBRANCH  92  95
ENDBRANCH  65  88
ENDBRANCH  39  40
ENDBRANCH  31  34
ENDBRANCH  29  30
ENDBRANCH  28  29
ENDBRANCH   1  28
TORSDOF 16
