REMARK SMILES COCC[C@H](NC(=O)c1ccc(Br)nc1)C(=O)NCCCNC(=O)c1ccc(-c2c3nc(c(-c4cccc(S(=O)(=O)[O-])c4F)c4ccc([nH]4)c(-c4cccc(S(=O)(=O)[O-])c4F)c4nc(c(-c5cccc(S(=O)(=O)[O-])c5F)c5ccc2[nH]5)C=C4)C=C3)cc1
REMARK SMILES IDX 20 1 19 2 18 3 16 4 17 5 5 7 4 8 3 9 2 10 1 11 6 12 7 13
REMARK SMILES IDX 8 15 9 16 10 17 15 18 11 19 14 20 12 21 13 22 21 23 22 24
REMARK SMILES IDX 23 25 24 27 25 28 26 29 87 30 27 31 86 32 28 33 29 34 30 35
REMARK SMILES IDX 80 36 31 37 85 38 79 39 81 40 32 41 84 42 78 43 77 44 33 46
REMARK SMILES IDX 65 47 45 48 64 49 46 50 49 51 63 52 82 53 47 54 48 55 62 57
REMARK SMILES IDX 83 58 50 59 34 60 35 61 43 62 36 63 38 64 44 65 37 66 39 67
REMARK SMILES IDX 40 68 41 69 42 70 66 71 67 72 75 73 68 74 70 75 76 76 69 77
REMARK SMILES IDX 71 78 72 79 73 80 74 81 51 82 52 83 60 84 53 85 55 86 61 87
REMARK SMILES IDX 54 88 56 89 57 90 58 91 59 92
REMARK H PARENT 18 6 6 14 22 26 81 45 49 56
REMARK Flexibility Score: inf
ROOT
ATOM      1  C   UNL     1       1.067  -3.170   5.494  1.00  0.00     0.042 C 
ENDROOT
BRANCH   1   2
ATOM      2  C   UNL     1       1.720  -3.264   4.124  1.00  0.00     0.117 C 
BRANCH   2   3
ATOM      3  N   UNL     1       0.784  -3.693   3.097  1.00  0.00    -0.354 N 
ATOM      4  C   UNL     1       0.450  -3.127   1.904  1.00  0.00     0.242 C 
ATOM      5  O   UNL     1      -0.303  -3.763   1.162  1.00  0.00    -0.273 OA
ATOM      6  H   UNL     1       0.313  -4.534   3.298  1.00  0.00     0.163 HD
BRANCH   4   7
ATOM      7  C   UNL     1       1.087  -1.805   1.438  1.00  0.00     0.173 C 
BRANCH   7   8
ATOM      8  C   UNL     1       2.585  -1.991   1.141  1.00  0.00     0.063 C 
BRANCH   8   9
ATOM      9  C   UNL     1       2.906  -3.150   0.197  1.00  0.00     0.162 C 
BRANCH   9  10
ATOM     10  O   UNL     1       2.551  -2.845  -1.149  1.00  0.00    -0.385 OA
ATOM     11  C   UNL     1       1.327  -3.431  -1.573  1.00  0.00     0.194 C 
ENDBRANCH   9  10
ENDBRANCH   8   9
ENDBRANCH   7   8
BRANCH   7  12
ATOM     12  N   UNL     1       0.792  -0.754   2.424  1.00  0.00    -0.340 N 
ATOM     13  C   UNL     1       1.040   0.593   2.389  1.00  0.00     0.253 C 
ATOM     14  H   UNL     1       0.344  -1.070   3.241  1.00  0.00     0.164 HD
ATOM     15  O   UNL     1       0.745   1.307   3.336  1.00  0.00    -0.269 OA
BRANCH  13  16
ATOM     16  C   UNL     1       1.724   1.182   1.232  1.00  0.00     0.058 A 
ATOM     17  C   UNL     1       1.235   1.077  -0.068  1.00  0.00     0.018 A 
ATOM     18  C   UNL     1       2.928   1.837   1.443  1.00  0.00     0.126 A 
ATOM     19  C   UNL     1       2.013   1.561  -1.118  1.00  0.00     0.037 A 
ATOM     20  N   UNL     1       3.702   2.315   0.440  1.00  0.00    -0.249 NA
ATOM     21  C   UNL     1       3.234   2.154  -0.819  1.00  0.00     0.106 A 
ATOM     22  Br  UNL     1       4.329   2.756  -2.245  1.00  0.00    -0.029 Br
ENDBRANCH  13  16
ENDBRANCH   7  12
ENDBRANCH   4   7
ENDBRANCH   2   3
ENDBRANCH   1   2
BRANCH   1  23
ATOM     23  C   UNL     1       0.515  -4.489   6.017  1.00  0.00     0.118 C 
BRANCH  23  24
ATOM     24  N   UNL     1       1.547  -5.497   6.223  1.00  0.00    -0.352 N 
ATOM     25  C   UNL     1       1.866  -6.194   7.364  1.00  0.00     0.251 C 
ATOM     26  H   UNL     1       2.093  -5.709   5.432  1.00  0.00     0.163 HD
ATOM     27  O   UNL     1       2.874  -6.894   7.390  1.00  0.00    -0.269 OA
BRANCH  25  28
ATOM     28  C   UNL     1       1.006  -6.079   8.561  1.00  0.00     0.039 A 
ATOM     29  C   UNL     1       1.601  -5.875   9.808  1.00  0.00     0.014 A 
ATOM     30  C   UNL     1      -0.385  -6.157   8.448  1.00  0.00     0.014 A 
ATOM     31  C   UNL     1       0.796  -5.677  10.933  1.00  0.00     0.010 A 
ATOM     32  C   UNL     1      -1.183  -5.881   9.553  1.00  0.00     0.010 A 
ATOM     33  C   UNL     1      -0.603  -5.644  10.807  1.00  0.00    -0.014 A 
BRANCH  33  34
ATOM     34  C   UNL     1      -1.481  -5.361  11.970  1.00  0.00     0.031 A 
ATOM     35  C   UNL     1      -2.463  -6.399  12.443  1.00  0.00     0.074 A 
ATOM     36  C   UNL     1      -1.470  -4.137  12.533  1.00  0.00     0.049 A 
ATOM     37  N   UNL     1      -3.366  -6.311  13.383  1.00  0.00    -0.248 NA
ATOM     38  C   UNL     1      -2.451  -7.696  11.743  1.00  0.00     0.031 C 
ATOM     39  C   UNL     1      -0.630  -3.015  12.105  1.00  0.00     0.029 A 
ATOM     40  N   UNL     1      -2.208  -3.621  13.569  1.00  0.00    -0.354 N 
ATOM     41  C   UNL     1      -4.057  -7.517  13.360  1.00  0.00     0.074 A 
ATOM     42  C   UNL     1      -3.490  -8.309  12.291  1.00  0.00     0.031 C 
ATOM     43  C   UNL     1      -0.896  -1.948  12.875  1.00  0.00     0.029 A 
ATOM     44  C   UNL     1      -1.937  -2.300  13.836  1.00  0.00     0.049 A 
ATOM     45  H   UNL     1      -2.869  -4.148  14.073  1.00  0.00     0.167 HD
ATOM     46  C   UNL     1      -5.049  -7.942  14.177  1.00  0.00     0.034 A 
ATOM     47  C   UNL     1      -2.464  -1.467  14.755  1.00  0.00     0.034 A 
ATOM     48  C   UNL     1      -5.559  -7.183  15.285  1.00  0.00     0.049 A 
ATOM     49  C   UNL     1      -3.505  -1.993  15.705  1.00  0.00     0.074 A 
ATOM     50  C   UNL     1      -6.491  -7.566  16.234  1.00  0.00     0.029 A 
ATOM     51  N   UNL     1      -5.174  -5.890  15.600  1.00  0.00    -0.354 N 
ATOM     52  N   UNL     1      -4.029  -3.193  15.771  1.00  0.00    -0.248 NA
ATOM     53  C   UNL     1      -4.001  -1.064  16.731  1.00  0.00     0.031 C 
ATOM     54  C   UNL     1      -6.667  -6.501  17.125  1.00  0.00     0.029 A 
ATOM     55  C   UNL     1      -5.844  -5.458  16.730  1.00  0.00     0.049 A 
ATOM     56  H   UNL     1      -4.520  -5.356  15.093  1.00  0.00     0.167 HD
ATOM     57  C   UNL     1      -4.889  -3.174  16.862  1.00  0.00     0.074 A 
ATOM     58  C   UNL     1      -4.801  -1.849  17.441  1.00  0.00     0.031 C 
ATOM     59  C   UNL     1      -5.696  -4.158  17.331  1.00  0.00     0.034 A 
BRANCH  46  60
ATOM     60  C   UNL     1      -5.590  -9.328  13.950  1.00  0.00     0.023 A 
ATOM     61  C   UNL     1      -4.808 -10.440  14.324  1.00  0.00     0.012 A 
ATOM     62  C   UNL     1      -6.877  -9.535  13.417  1.00  0.00     0.148 A 
ATOM     63  C   UNL     1      -5.284 -11.738  14.142  1.00  0.00     0.002 A 
ATOM     64  C   UNL     1      -7.360 -10.832  13.274  1.00  0.00     0.091 A 
ATOM     65  F   UNL     1      -7.596  -8.468  13.042  1.00  0.00    -0.205 F 
ATOM     66  C   UNL     1      -6.562 -11.933  13.627  1.00  0.00     0.022 A 
BRANCH  64  67
ATOM     67  S   UNL     1      -9.021 -11.180  12.683  1.00  0.00     0.127 S 
ATOM     68  O   UNL     1      -8.764 -11.594  11.305  1.00  0.00    -0.237 OA
ATOM     69  O   UNL     1      -9.450 -12.259  13.574  1.00  0.00    -0.237 OA
ATOM     70  O   UNL     1      -9.764  -9.937  12.841  1.00  0.00    -0.744 OA
ENDBRANCH  64  67
ENDBRANCH  46  60
BRANCH  47  71
ATOM     71  C   UNL     1      -1.942  -0.078  14.882  1.00  0.00     0.023 A 
ATOM     72  C   UNL     1      -1.132   0.249  15.987  1.00  0.00     0.012 A 
ATOM     73  C   UNL     1      -2.200   0.903  13.906  1.00  0.00     0.148 A 
ATOM     74  C   UNL     1      -0.609   1.534  16.131  1.00  0.00     0.002 A 
ATOM     75  C   UNL     1      -1.635   2.168  14.031  1.00  0.00     0.091 A 
ATOM     76  F   UNL     1      -2.987   0.579  12.870  1.00  0.00    -0.205 F 
ATOM     77  C   UNL     1      -0.851   2.490  15.149  1.00  0.00     0.022 A 
BRANCH  75  78
ATOM     78  S   UNL     1      -1.792   3.412  12.744  1.00  0.00     0.127 S 
ATOM     79  O   UNL     1      -2.820   4.288  13.298  1.00  0.00    -0.237 OA
ATOM     80  O   UNL     1      -0.447   3.987  12.706  1.00  0.00    -0.237 OA
ATOM     81  O   UNL     1      -2.158   2.675  11.542  1.00  0.00    -0.744 OA
ENDBRANCH  75  78
ENDBRANCH  47  71
BRANCH  59  82
ATOM     82  C   UNL     1      -6.534  -3.854  18.542  1.00  0.00     0.023 A 
ATOM     83  C   UNL     1      -7.683  -3.050  18.405  1.00  0.00     0.012 A 
ATOM     84  C   UNL     1      -6.234  -4.428  19.793  1.00  0.00     0.148 A 
ATOM     85  C   UNL     1      -8.508  -2.803  19.501  1.00  0.00     0.002 A 
ATOM     86  C   UNL     1      -7.084  -4.210  20.871  1.00  0.00     0.091 A 
ATOM     87  F   UNL     1      -5.123  -5.171  19.909  1.00  0.00    -0.205 F 
ATOM     88  C   UNL     1      -8.217  -3.392  20.729  1.00  0.00     0.022 A 
BRANCH  86  89
ATOM     89  S   UNL     1      -6.825  -5.005  22.461  1.00  0.00     0.127 S 
ATOM     90  O   UNL     1      -6.197  -3.934  23.233  1.00  0.00    -0.237 OA
ATOM     91  O   UNL     1      -8.189  -5.336  22.877  1.00  0.00    -0.237 OA
ATOM     92  O   UNL     1      -5.985  -6.165  22.189  1.00  0.00    -0.744 OA
ENDBRANCH  86  89
ENDBRANCH  59  82
ENDBRANCH  33  34
ENDBRANCH  25  28
ENDBRANCH  23  24
ENDBRANCH   1  23
TORSDOF 18
