REMARK SMILES CN(CC(C)(C)O)C(=O)N1CCCC[C@H]1CC(=O)NCCCNC(=O)c1ccc(-c2c3nc(c(-c4cccc(S(=O)(=O)[O-])c4F)c4ccc([nH]4)c(-c4cccc(S(=O)(=O)[O-])c4F)c4nc(c(-c5cccc(S(=O)(=O)[O-])c5F)c5ccc2[nH]5)C=C4)C=C3)cc1
REMARK SMILES IDX 17 1 18 2 19 3 16 5 15 6 10 7 11 8 12 9 14 10 13 11 8 12
REMARK SMILES IDX 9 13 2 14 1 15 3 16 4 17 5 18 6 19 7 20 20 22 21 23 22 24
REMARK SMILES IDX 23 25 24 26 25 28 26 29 27 30 88 31 28 32 87 33 29 34 30 35
REMARK SMILES IDX 31 36 81 37 32 38 86 39 80 40 82 41 33 42 85 43 79 44 78 45
REMARK SMILES IDX 34 47 66 48 46 49 65 50 47 51 50 52 64 53 83 54 48 55 49 56
REMARK SMILES IDX 63 58 84 59 51 60 35 61 36 62 44 63 37 64 39 65 45 66 38 67
REMARK SMILES IDX 40 68 41 69 42 70 43 71 67 72 68 73 76 74 69 75 71 76 77 77
REMARK SMILES IDX 70 78 72 79 73 80 74 81 75 82 52 83 53 84 61 85 54 86 56 87
REMARK SMILES IDX 62 88 55 89 57 90 58 91 59 92 60 93
REMARK H PARENT 19 4 7 21 23 27 82 46 50 57
REMARK Flexibility Score: inf
ROOT
ATOM      1  C   UNL     1      -0.087  -2.325   4.888  1.00  0.00     0.222 C 
ATOM      2  O   UNL     1      -1.063  -1.706   5.320  1.00  0.00    -0.275 OA
ATOM      3  N   UNL     1       1.125  -1.699   4.892  1.00  0.00    -0.356 N 
ATOM      4  H   UNL     1       1.119  -0.786   5.259  1.00  0.00     0.163 HD
ENDROOT
BRANCH   1   5
ATOM      5  C   UNL     1      -0.250  -3.732   4.355  1.00  0.00     0.125 C 
BRANCH   5   6
ATOM      6  C   UNL     1      -0.773  -3.772   2.902  1.00  0.00     0.096 C 
ATOM      7  N   UNL     1       0.268  -3.592   1.877  1.00  0.00    -0.321 N 
ATOM      8  C   UNL     1       1.261  -4.681   1.834  1.00  0.00     0.121 C 
ATOM      9  C   UNL     1       0.602  -6.032   1.577  1.00  0.00     0.022 C 
ATOM     10  C   UNL     1      -1.499  -5.106   2.609  1.00  0.00     0.026 C 
ATOM     11  C   UNL     1      -0.533  -6.292   2.566  1.00  0.00     0.004 C 
BRANCH   7  12
ATOM     12  C   UNL     1       0.178  -2.826   0.721  1.00  0.00     0.320 C 
ATOM     13  O   UNL     1       0.725  -3.245  -0.307  1.00  0.00    -0.248 OA
BRANCH  12  14
ATOM     14  N   UNL     1      -0.394  -1.560   0.713  1.00  0.00    -0.325 N 
ATOM     15  C   UNL     1      -0.077  -0.796  -0.500  1.00  0.00     0.148 C 
BRANCH  14  16
ATOM     16  C   UNL     1      -0.911  -0.743   1.825  1.00  0.00     0.155 C 
BRANCH  16  17
ATOM     17  C   UNL     1      -2.429  -0.380   1.762  1.00  0.00     0.077 C 
ATOM     18  C   UNL     1      -3.373  -1.582   1.810  1.00  0.00     0.043 C 
ATOM     19  C   UNL     1      -2.764   0.571   2.918  1.00  0.00     0.043 C 
BRANCH  17  20
ATOM     20  O   UNL     1      -2.728   0.339   0.559  1.00  0.00    -0.389 OA
ATOM     21  H   UNL     1      -2.532  -0.220  -0.209  1.00  0.00     0.211 HD
ENDBRANCH  17  20
ENDBRANCH  16  17
ENDBRANCH  14  16
ENDBRANCH  12  14
ENDBRANCH   7  12
ENDBRANCH   5   6
ENDBRANCH   1   5
BRANCH   3  22
ATOM     22  C   UNL     1       2.425  -2.170   4.440  1.00  0.00     0.117 C 
BRANCH  22  23
ATOM     23  C   UNL     1       2.757  -1.718   3.021  1.00  0.00     0.042 C 
BRANCH  23  24
ATOM     24  C   UNL     1       3.259  -0.285   2.899  1.00  0.00     0.118 C 
BRANCH  24  25
ATOM     25  N   UNL     1       4.649  -0.168   3.301  1.00  0.00    -0.352 N 
ATOM     26  C   UNL     1       5.777   0.098   2.563  1.00  0.00     0.251 C 
ATOM     27  H   UNL     1       4.811  -0.302   4.263  1.00  0.00     0.163 HD
ATOM     28  O   UNL     1       6.870  -0.125   3.084  1.00  0.00    -0.269 OA
BRANCH  26  29
ATOM     29  C   UNL     1       5.724   0.651   1.183  1.00  0.00     0.039 A 
ATOM     30  C   UNL     1       6.760   0.319   0.299  1.00  0.00     0.014 A 
ATOM     31  C   UNL     1       4.760   1.578   0.777  1.00  0.00     0.014 A 
ATOM     32  C   UNL     1       6.825   0.902  -0.973  1.00  0.00     0.010 A 
ATOM     33  C   UNL     1       4.785   2.105  -0.520  1.00  0.00     0.010 A 
ATOM     34  C   UNL     1       5.836   1.801  -1.398  1.00  0.00    -0.014 A 
BRANCH  34  35
ATOM     35  C   UNL     1       5.924   2.466  -2.729  1.00  0.00     0.031 A 
ATOM     36  C   UNL     1       6.108   3.961  -2.826  1.00  0.00     0.074 A 
ATOM     37  C   UNL     1       5.797   1.741  -3.858  1.00  0.00     0.049 A 
ATOM     38  N   UNL     1       6.193   4.717  -3.892  1.00  0.00    -0.248 NA
ATOM     39  C   UNL     1       6.186   4.709  -1.560  1.00  0.00     0.031 C 
ATOM     40  C   UNL     1       5.548   0.300  -3.914  1.00  0.00     0.029 A 
ATOM     41  N   UNL     1       5.842   2.122  -5.178  1.00  0.00    -0.354 N 
ATOM     42  C   UNL     1       6.294   6.024  -3.429  1.00  0.00     0.074 A 
ATOM     43  C   UNL     1       6.230   5.964  -1.985  1.00  0.00     0.031 C 
ATOM     44  C   UNL     1       5.468  -0.082  -5.199  1.00  0.00     0.029 A 
ATOM     45  C   UNL     1       5.641   1.085  -6.059  1.00  0.00     0.049 A 
ATOM     46  H   UNL     1       6.002   3.050  -5.465  1.00  0.00     0.167 HD
ATOM     47  C   UNL     1       6.459   7.170  -4.134  1.00  0.00     0.034 A 
ATOM     48  C   UNL     1       5.605   1.072  -7.407  1.00  0.00     0.034 A 
ATOM     49  C   UNL     1       6.589   7.230  -5.565  1.00  0.00     0.049 A 
ATOM     50  C   UNL     1       5.851   2.349  -8.166  1.00  0.00     0.074 A 
ATOM     51  C   UNL     1       6.850   8.333  -6.359  1.00  0.00     0.029 A 
ATOM     52  N   UNL     1       6.473   6.143  -6.417  1.00  0.00    -0.354 N 
ATOM     53  N   UNL     1       6.104   3.549  -7.703  1.00  0.00    -0.248 NA
ATOM     54  C   UNL     1       5.845   2.263  -9.635  1.00  0.00     0.031 C 
ATOM     55  C   UNL     1       6.884   7.914  -7.694  1.00  0.00     0.029 A 
ATOM     56  C   UNL     1       6.654   6.548  -7.728  1.00  0.00     0.049 A 
ATOM     57  H   UNL     1       6.288   5.219  -6.131  1.00  0.00     0.167 HD
ATOM     58  C   UNL     1       6.321   4.351  -8.819  1.00  0.00     0.074 A 
ATOM     59  C   UNL     1       6.190   3.496  -9.980  1.00  0.00     0.031 C 
ATOM     60  C   UNL     1       6.587   5.679  -8.875  1.00  0.00     0.034 A 
BRANCH  47  61
ATOM     61  C   UNL     1       6.582   8.457  -3.359  1.00  0.00     0.023 A 
ATOM     62  C   UNL     1       7.771   8.723  -2.649  1.00  0.00     0.012 A 
ATOM     63  C   UNL     1       5.560   9.426  -3.382  1.00  0.00     0.148 A 
ATOM     64  C   UNL     1       7.928   9.917  -1.946  1.00  0.00     0.002 A 
ATOM     65  C   UNL     1       5.740  10.632  -2.711  1.00  0.00     0.091 A 
ATOM     66  F   UNL     1       4.428   9.149  -4.044  1.00  0.00    -0.205 F 
ATOM     67  C   UNL     1       6.919  10.874  -1.986  1.00  0.00     0.022 A 
BRANCH  65  68
ATOM     68  S   UNL     1       4.529  11.957  -2.765  1.00  0.00     0.127 S 
ATOM     69  O   UNL     1       3.917  11.852  -1.442  1.00  0.00    -0.237 OA
ATOM     70  O   UNL     1       5.367  13.140  -2.957  1.00  0.00    -0.237 OA
ATOM     71  O   UNL     1       3.654  11.649  -3.890  1.00  0.00    -0.744 OA
ENDBRANCH  65  68
ENDBRANCH  47  61
BRANCH  48  72
ATOM     72  C   UNL     1       5.413  -0.217  -8.130  1.00  0.00     0.023 A 
ATOM     73  C   UNL     1       6.503  -0.789  -8.814  1.00  0.00     0.012 A 
ATOM     74  C   UNL     1       4.178  -0.892  -8.118  1.00  0.00     0.148 A 
ATOM     75  C   UNL     1       6.361  -1.999  -9.494  1.00  0.00     0.002 A 
ATOM     76  C   UNL     1       4.056  -2.122  -8.756  1.00  0.00     0.091 A 
ATOM     77  F   UNL     1       3.148  -0.322  -7.477  1.00  0.00    -0.205 F 
ATOM     78  C   UNL     1       5.142  -2.670  -9.456  1.00  0.00     0.022 A 
BRANCH  76  79
ATOM     79  S   UNL     1       2.561  -3.112  -8.659  1.00  0.00     0.127 S 
ATOM     80  O   UNL     1       2.001  -2.944  -9.995  1.00  0.00    -0.237 OA
ATOM     81  O   UNL     1       3.095  -4.445  -8.377  1.00  0.00    -0.237 OA
ATOM     82  O   UNL     1       1.784  -2.536  -7.566  1.00  0.00    -0.744 OA
ENDBRANCH  76  79
ENDBRANCH  48  72
BRANCH  60  83
ATOM     83  C   UNL     1       6.785   6.300 -10.233  1.00  0.00     0.023 A 
ATOM     84  C   UNL     1       5.670   6.523 -11.064  1.00  0.00     0.012 A 
ATOM     85  C   UNL     1       8.057   6.738 -10.650  1.00  0.00     0.148 A 
ATOM     86  C   UNL     1       5.822   7.148 -12.302  1.00  0.00     0.002 A 
ATOM     87  C   UNL     1       8.195   7.398 -11.866  1.00  0.00     0.091 A 
ATOM     88  F   UNL     1       9.110   6.498  -9.854  1.00  0.00    -0.205 F 
ATOM     89  C   UNL     1       7.080   7.596 -12.697  1.00  0.00     0.022 A 
BRANCH  87  90
ATOM     90  S   UNL     1       9.762   8.087 -12.411  1.00  0.00     0.127 S 
ATOM     91  O   UNL     1      10.188   7.109 -13.409  1.00  0.00    -0.237 OA
ATOM     92  O   UNL     1       9.363   9.384 -12.959  1.00  0.00    -0.237 OA
ATOM     93  O   UNL     1      10.595   8.171 -11.217  1.00  0.00    -0.744 OA
ENDBRANCH  87  90
ENDBRANCH  60  83
ENDBRANCH  34  35
ENDBRANCH  26  29
ENDBRANCH  24  25
ENDBRANCH  23  24
ENDBRANCH  22  23
ENDBRANCH   3  22
TORSDOF 19
