REMARK SMILES Cc1ccc(C(N)=O)c(NCc2ccc(C(=O)NCCCNC(=O)c3ccc(-c4c5nc(c(-c6cccc(S(=O)(=O)[O-])c6F)c6ccc([nH]6)c(-c6cccc(S(=O)(=O)[O-])c6F)c6nc(c(-c7cccc(S(=O)(=O)[O-])c7F)c7ccc4[nH]7)C=C6)C=C5)cc3)o2)n1
REMARK SMILES IDX 19 1 18 2 16 3 17 4 15 6 12 7 13 8 88 9 14 10 11 11 10 12
REMARK SMILES IDX 9 14 1 15 2 16 3 17 89 18 4 19 5 20 6 21 7 22 8 23 20 26
REMARK SMILES IDX 21 27 22 28 23 29 24 31 25 32 26 33 87 34 27 35 86 36 28 37
REMARK SMILES IDX 29 38 30 39 80 40 31 41 85 42 79 43 81 44 32 45 84 46 78 47
REMARK SMILES IDX 77 48 33 50 65 51 45 52 64 53 46 54 49 55 63 56 82 57 47 58
REMARK SMILES IDX 48 59 62 61 83 62 50 63 34 64 35 65 43 66 36 67 38 68 44 69
REMARK SMILES IDX 37 70 39 71 40 72 41 73 42 74 66 75 67 76 75 77 68 78 70 79
REMARK SMILES IDX 76 80 69 81 71 82 72 83 73 84 74 85 51 86 52 87 60 88 53 89
REMARK SMILES IDX 55 90 61 91 54 92 56 93 57 94 58 95 59 96
REMARK H PARENT 18 5 10 13 7 24 7 25 22 30 81 49 49 60
REMARK Flexibility Score: inf
ROOT
ATOM      1  C   UNL     1      -1.041   7.026  -5.477  1.00  0.00     0.118 C 
ENDROOT
BRANCH   1   2
ATOM      2  N   UNL     1      -1.008   7.795  -4.249  1.00  0.00    -0.349 N 
ATOM      3  C   UNL     1      -1.012   7.392  -2.933  1.00  0.00     0.286 C 
ATOM      4  O   UNL     1      -0.824   8.283  -2.101  1.00  0.00    -0.266 OA
ATOM      5  H   UNL     1      -0.977   8.771  -4.378  1.00  0.00     0.163 HD
BRANCH   3   6
ATOM      6  C   UNL     1      -1.202   6.000  -2.570  1.00  0.00     0.191 A 
ATOM      7  C   UNL     1      -1.063   4.308  -1.144  1.00  0.00     0.124 A 
ATOM      8  C   UNL     1      -1.600   3.795  -2.303  1.00  0.00     0.048 A 
ATOM      9  O   UNL     1      -0.811   5.636  -1.302  1.00  0.00    -0.454 OA
ATOM     10  C   UNL     1      -1.733   4.885  -3.195  1.00  0.00     0.056 A 
BRANCH   7  11
ATOM     11  C   UNL     1      -0.754   3.723   0.193  1.00  0.00     0.190 C 
BRANCH  11  12
ATOM     12  N   UNL     1      -1.531   2.531   0.492  1.00  0.00    -0.362 N 
ATOM     13  H   UNL     1      -2.446   2.627   0.844  1.00  0.00     0.162 HD
BRANCH  12  14
ATOM     14  C   UNL     1      -1.010   1.266   0.294  1.00  0.00     0.139 A 
ATOM     15  C   UNL     1       2.396  -0.103  -0.051  1.00  0.00     0.067 C 
ATOM     16  C   UNL     1       0.901  -0.064   0.027  1.00  0.00     0.040 A 
ATOM     17  C   UNL     1       0.149  -1.224  -0.065  1.00  0.00     0.024 A 
ATOM     18  N   UNL     1       0.337   1.158   0.185  1.00  0.00    -0.236 NA
ATOM     19  C   UNL     1      -1.233  -1.119   0.018  1.00  0.00     0.019 A 
ATOM     20  C   UNL     1      -1.831   0.136   0.191  1.00  0.00     0.081 A 
BRANCH  20  21
ATOM     21  C   UNL     1      -3.316   0.168   0.235  1.00  0.00     0.252 C 
ATOM     22  N   UNL     1      -3.946   1.304  -0.187  1.00  0.00    -0.365 N 
ATOM     23  O   UNL     1      -3.959  -0.808   0.601  1.00  0.00    -0.269 OA
ATOM     24  H   UNL     1      -3.417   2.082  -0.479  1.00  0.00     0.159 HD
ATOM     25  H   UNL     1      -4.930   1.346  -0.200  1.00  0.00     0.159 HD
ENDBRANCH  20  21
ENDBRANCH  12  14
ENDBRANCH  11  12
ENDBRANCH   7  11
ENDBRANCH   3   6
ENDBRANCH   1   2
BRANCH   1  26
ATOM     26  C   UNL     1      -2.421   7.046  -6.127  1.00  0.00     0.042 C 
BRANCH  26  27
ATOM     27  C   UNL     1      -2.735   8.362  -6.839  1.00  0.00     0.118 C 
BRANCH  27  28
ATOM     28  N   UNL     1      -1.861   8.583  -7.986  1.00  0.00    -0.352 N 
ATOM     29  C   UNL     1      -2.162   8.745  -9.315  1.00  0.00     0.251 C 
ATOM     30  H   UNL     1      -0.901   8.623  -7.772  1.00  0.00     0.163 HD
ATOM     31  O   UNL     1      -1.256   8.686 -10.144  1.00  0.00    -0.269 OA
BRANCH  29  32
ATOM     32  C   UNL     1      -3.553   8.986  -9.757  1.00  0.00     0.039 A 
ATOM     33  C   UNL     1      -4.001   8.379 -10.934  1.00  0.00     0.014 A 
ATOM     34  C   UNL     1      -4.396   9.847  -9.051  1.00  0.00     0.014 A 
ATOM     35  C   UNL     1      -5.310   8.594 -11.373  1.00  0.00     0.010 A 
ATOM     36  C   UNL     1      -5.721  10.004  -9.451  1.00  0.00     0.010 A 
ATOM     37  C   UNL     1      -6.191   9.386 -10.620  1.00  0.00    -0.014 A 
BRANCH  37  38
ATOM     38  C   UNL     1      -7.607   9.570 -11.028  1.00  0.00     0.031 A 
ATOM     39  C   UNL     1      -8.127  10.939 -11.377  1.00  0.00     0.074 A 
ATOM     40  C   UNL     1      -8.448   8.518 -10.989  1.00  0.00     0.049 A 
ATOM     41  N   UNL     1      -9.345  11.303 -11.684  1.00  0.00    -0.248 NA
ATOM     42  C   UNL     1      -7.160  12.048 -11.351  1.00  0.00     0.031 C 
ATOM     43  C   UNL     1      -8.082   7.158 -10.588  1.00  0.00     0.029 A 
ATOM     44  N   UNL     1      -9.792   8.434 -11.258  1.00  0.00    -0.354 N 
ATOM     45  C   UNL     1      -9.301  12.683 -11.845  1.00  0.00     0.074 A 
ATOM     46  C   UNL     1      -7.941  13.095 -11.576  1.00  0.00     0.031 C 
ATOM     47  C   UNL     1      -9.173   6.376 -10.635  1.00  0.00     0.029 A 
ATOM     48  C   UNL     1     -10.320   7.182 -11.039  1.00  0.00     0.049 A 
ATOM     49  H   UNL     1     -10.326   9.196 -11.577  1.00  0.00     0.167 HD
ATOM     50  C   UNL     1     -10.296  13.528 -12.209  1.00  0.00     0.034 A 
ATOM     51  C   UNL     1     -11.587   6.736 -11.142  1.00  0.00     0.034 A 
ATOM     52  C   UNL     1     -11.634  13.106 -12.526  1.00  0.00     0.049 A 
ATOM     53  C   UNL     1     -12.661   7.685 -11.599  1.00  0.00     0.074 A 
ATOM     54  C   UNL     1     -12.685  13.868 -13.005  1.00  0.00     0.029 A 
ATOM     55  N   UNL     1     -12.109  11.811 -12.389  1.00  0.00    -0.354 N 
ATOM     56  N   UNL     1     -12.561   8.954 -11.912  1.00  0.00    -0.248 NA
ATOM     57  C   UNL     1     -14.015   7.133 -11.754  1.00  0.00     0.031 C 
ATOM     58  C   UNL     1     -13.803  13.038 -13.135  1.00  0.00     0.029 A 
ATOM     59  C   UNL     1     -13.441  11.753 -12.762  1.00  0.00     0.049 A 
ATOM     60  H   UNL     1     -11.578  11.045 -12.072  1.00  0.00     0.167 HD
ATOM     61  C   UNL     1     -13.827   9.344 -12.334  1.00  0.00     0.074 A 
ATOM     62  C   UNL     1     -14.672   8.169 -12.258  1.00  0.00     0.031 C 
ATOM     63  C   UNL     1     -14.255  10.566 -12.735  1.00  0.00     0.034 A 
BRANCH  50  64
ATOM     64  C   UNL     1      -9.964  14.992 -12.338  1.00  0.00     0.023 A 
ATOM     65  C   UNL     1      -9.165  15.432 -13.413  1.00  0.00     0.012 A 
ATOM     66  C   UNL     1     -10.494  15.939 -11.440  1.00  0.00     0.148 A 
ATOM     67  C   UNL     1      -8.870  16.786 -13.573  1.00  0.00     0.002 A 
ATOM     68  C   UNL     1     -10.233  17.291 -11.632  1.00  0.00     0.091 A 
ATOM     69  F   UNL     1     -11.235  15.501 -10.412  1.00  0.00    -0.205 F 
ATOM     70  C   UNL     1      -9.413  17.715 -12.690  1.00  0.00     0.022 A 
BRANCH  68  71
ATOM     71  S   UNL     1     -10.950  18.573 -10.597  1.00  0.00     0.127 S 
ATOM     72  O   UNL     1      -9.784  19.030  -9.843  1.00  0.00    -0.237 OA
ATOM     73  O   UNL     1     -11.447  19.527 -11.588  1.00  0.00    -0.237 OA
ATOM     74  O   UNL     1     -11.987  17.921  -9.810  1.00  0.00    -0.744 OA
ENDBRANCH  68  71
ENDBRANCH  50  64
BRANCH  51  75
ATOM     75  C   UNL     1     -11.895   5.303 -10.870  1.00  0.00     0.023 A 
ATOM     76  C   UNL     1     -12.248   4.457 -11.939  1.00  0.00     0.012 A 
ATOM     77  C   UNL     1     -11.812   4.768  -9.570  1.00  0.00     0.148 A 
ATOM     78  C   UNL     1     -12.545   3.113 -11.715  1.00  0.00     0.002 A 
ATOM     79  C   UNL     1     -12.054   3.415  -9.362  1.00  0.00     0.091 A 
ATOM     80  F   UNL     1     -11.487   5.592  -8.563  1.00  0.00    -0.205 F 
ATOM     81  C   UNL     1     -12.438   2.590 -10.430  1.00  0.00     0.022 A 
BRANCH  79  82
ATOM     82  S   UNL     1     -11.805   2.630  -7.765  1.00  0.00     0.127 S 
ATOM     83  O   UNL     1     -13.179   2.386  -7.334  1.00  0.00    -0.237 OA
ATOM     84  O   UNL     1     -11.050   1.431  -8.131  1.00  0.00    -0.237 OA
ATOM     85  O   UNL     1     -11.050   3.591  -6.971  1.00  0.00    -0.744 OA
ENDBRANCH  79  82
ENDBRANCH  51  75
BRANCH  63  86
ATOM     86  C   UNL     1     -15.695  10.698 -13.158  1.00  0.00     0.023 A 
ATOM     87  C   UNL     1     -16.716  10.665 -12.189  1.00  0.00     0.012 A 
ATOM     88  C   UNL     1     -16.027  10.933 -14.507  1.00  0.00     0.148 A 
ATOM     89  C   UNL     1     -18.050  10.832 -12.561  1.00  0.00     0.002 A 
ATOM     90  C   UNL     1     -17.353  11.147 -14.863  1.00  0.00     0.091 A 
ATOM     91  F   UNL     1     -15.042  10.941 -15.417  1.00  0.00    -0.205 F 
ATOM     92  C   UNL     1     -18.367  11.085 -13.893  1.00  0.00     0.022 A 
BRANCH  90  93
ATOM     93  S   UNL     1     -17.842  11.575 -16.538  1.00  0.00     0.127 S 
ATOM     94  O   UNL     1     -18.473  10.336 -16.990  1.00  0.00    -0.237 OA
ATOM     95  O   UNL     1     -18.770  12.686 -16.316  1.00  0.00    -0.237 OA
ATOM     96  O   UNL     1     -16.616  11.944 -17.232  1.00  0.00    -0.744 OA
ENDBRANCH  90  93
ENDBRANCH  63  86
ENDBRANCH  37  38
ENDBRANCH  29  32
ENDBRANCH  27  28
ENDBRANCH  26  27
ENDBRANCH   1  26
TORSDOF 17
