REMARK SMILES CC(C)=CCc1cccc2c(C(=O)NCCCNC(=O)c3ccc(-c4c5nc(c(-c6cccc(S(=O)(=O)[O-])c6F)c6ccc([nH]6)c(-c6cccc(S(=O)(=O)[O-])c6F)c6nc(c(-c7cccc(S(=O)(=O)[O-])c7F)c7ccc4[nH]7)C=C6)C=C5)cc3)c[nH]c12
REMARK SMILES IDX 16 1 15 2 14 3 12 4 13 5 11 7 6 8 7 9 86 10 8 11 10 12 85 13
REMARK SMILES IDX 9 14 84 15 5 17 4 18 1 19 2 20 3 21 17 22 18 23 19 24 20 26
REMARK SMILES IDX 21 27 22 28 83 29 23 30 82 31 24 32 25 33 26 34 76 35 27 36
REMARK SMILES IDX 81 37 75 38 77 39 28 40 80 41 74 42 73 43 29 45 61 46 41 47
REMARK SMILES IDX 60 48 42 49 45 50 59 51 78 52 43 53 44 54 58 56 79 57 46 58
REMARK SMILES IDX 30 59 31 60 39 61 32 62 34 63 40 64 33 65 35 66 36 67 37 68
REMARK SMILES IDX 38 69 62 70 63 71 71 72 64 73 66 74 72 75 65 76 67 77 68 78
REMARK SMILES IDX 69 79 70 80 47 81 48 82 56 83 49 84 51 85 57 86 50 87 52 88
REMARK SMILES IDX 53 89 54 90 55 91
REMARK H PARENT 14 6 85 16 18 25 77 44 45 55
REMARK Flexibility Score: inf
ROOT
ATOM      1  C   UNL     1       7.258  -6.655   1.371  1.00  0.00     0.042 C 
ENDROOT
BRANCH   1   2
ATOM      2  C   UNL     1       6.567  -6.475   0.037  1.00  0.00     0.118 C 
BRANCH   2   3
ATOM      3  N   UNL     1       5.896  -7.635  -0.499  1.00  0.00    -0.352 N 
ATOM      4  C   UNL     1       4.711  -7.718  -1.193  1.00  0.00     0.253 C 
ATOM      5  O   UNL     1       4.373  -8.842  -1.574  1.00  0.00    -0.269 OA
ATOM      6  H   UNL     1       6.353  -8.493  -0.346  1.00  0.00     0.163 HD
BRANCH   4   7
ATOM      7  C   UNL     1       3.833  -6.558  -1.394  1.00  0.00     0.065 A 
ATOM      8  C   UNL     1       2.622  -3.110  -1.506  1.00  0.00    -0.020 A 
ATOM      9  C   UNL     1       3.791  -2.333  -1.423  1.00  0.00     0.006 A 
ATOM     10  C   UNL     1       2.797  -4.510  -1.524  1.00  0.00     0.050 A 
ATOM     11  C   UNL     1       5.048  -2.909  -1.524  1.00  0.00     0.001 A 
ATOM     12  C   UNL     1       4.051  -5.135  -1.542  1.00  0.00     0.012 A 
ATOM     13  N   UNL     1       1.855  -5.510  -1.542  1.00  0.00    -0.360 N 
ATOM     14  C   UNL     1       5.179  -4.291  -1.663  1.00  0.00     0.011 A 
ATOM     15  C   UNL     1       2.457  -6.729  -1.468  1.00  0.00     0.097 A 
ATOM     16  H   UNL     1       0.883  -5.365  -1.601  1.00  0.00     0.166 HD
BRANCH   8  17
ATOM     17  C   UNL     1       1.278  -2.426  -1.569  1.00  0.00     0.065 C 
BRANCH  17  18
ATOM     18  C   UNL     1       0.585  -2.334  -0.241  1.00  0.00    -0.024 C 
ATOM     19  C   UNL     1       0.847   0.144   0.055  1.00  0.00     0.039 C 
ATOM     20  C   UNL     1       0.362  -1.215   0.476  1.00  0.00    -0.080 C 
ATOM     21  C   UNL     1      -0.384  -1.300   1.779  1.00  0.00     0.039 C 
ENDBRANCH  17  18
ENDBRANCH   8  17
ENDBRANCH   4   7
ENDBRANCH   2   3
ENDBRANCH   1   2
BRANCH   1  22
ATOM     22  C   UNL     1       8.434  -7.611   1.372  1.00  0.00     0.118 C 
BRANCH  22  23
ATOM     23  N   UNL     1       9.542  -7.197   0.516  1.00  0.00    -0.352 N 
ATOM     24  C   UNL     1      10.795  -6.712   0.815  1.00  0.00     0.251 C 
ATOM     25  H   UNL     1       9.360  -7.280  -0.449  1.00  0.00     0.163 HD
ATOM     26  O   UNL     1      11.519  -6.322  -0.100  1.00  0.00    -0.269 OA
BRANCH  24  27
ATOM     27  C   UNL     1      11.268  -6.618   2.216  1.00  0.00     0.039 A 
ATOM     28  C   UNL     1      12.042  -5.519   2.606  1.00  0.00     0.014 A 
ATOM     29  C   UNL     1      10.956  -7.600   3.153  1.00  0.00     0.014 A 
ATOM     30  C   UNL     1      12.412  -5.367   3.947  1.00  0.00     0.010 A 
ATOM     31  C   UNL     1      11.198  -7.376   4.502  1.00  0.00     0.010 A 
ATOM     32  C   UNL     1      11.947  -6.268   4.918  1.00  0.00    -0.014 A 
BRANCH  32  33
ATOM     33  C   UNL     1      12.239  -6.092   6.365  1.00  0.00     0.031 A 
ATOM     34  C   UNL     1      12.936  -7.187   7.134  1.00  0.00     0.074 A 
ATOM     35  C   UNL     1      11.787  -4.998   7.013  1.00  0.00     0.049 A 
ATOM     36  N   UNL     1      13.198  -7.259   8.414  1.00  0.00    -0.248 NA
ATOM     37  C   UNL     1      13.358  -8.377   6.374  1.00  0.00     0.031 C 
ATOM     38  C   UNL     1      11.015  -3.911   6.407  1.00  0.00     0.029 A 
ATOM     39  N   UNL     1      11.886  -4.634   8.334  1.00  0.00    -0.354 N 
ATOM     40  C   UNL     1      13.765  -8.512   8.616  1.00  0.00     0.074 A 
ATOM     41  C   UNL     1      13.767  -9.187   7.338  1.00  0.00     0.031 C 
ATOM     42  C   UNL     1      10.724  -2.998   7.347  1.00  0.00     0.029 A 
ATOM     43  C   UNL     1      11.253  -3.449   8.629  1.00  0.00     0.049 A 
ATOM     44  H   UNL     1      12.365  -5.171   9.006  1.00  0.00     0.167 HD
ATOM     45  C   UNL     1      14.274  -9.043   9.753  1.00  0.00     0.034 A 
ATOM     46  C   UNL     1      11.107  -2.801   9.802  1.00  0.00     0.034 A 
ATOM     47  C   UNL     1      14.325  -8.347  11.008  1.00  0.00     0.049 A 
ATOM     48  C   UNL     1      11.734  -3.384  11.039  1.00  0.00     0.074 A 
ATOM     49  C   UNL     1      14.913  -8.752  12.193  1.00  0.00     0.029 A 
ATOM     50  N   UNL     1      13.763  -7.102  11.244  1.00  0.00    -0.354 N 
ATOM     51  N   UNL     1      12.413  -4.498  11.174  1.00  0.00    -0.248 NA
ATOM     52  C   UNL     1      11.609  -2.604  12.279  1.00  0.00     0.031 C 
ATOM     53  C   UNL     1      14.680  -7.764  13.155  1.00  0.00     0.029 A 
ATOM     54  C   UNL     1      13.979  -6.728  12.559  1.00  0.00     0.049 A 
ATOM     55  H   UNL     1      13.281  -6.564  10.576  1.00  0.00     0.167 HD
ATOM     56  C   UNL     1      12.827  -4.535  12.501  1.00  0.00     0.074 A 
ATOM     57  C   UNL     1      12.341  -3.320  13.123  1.00  0.00     0.031 C 
ATOM     58  C   UNL     1      13.534  -5.492  13.149  1.00  0.00     0.034 A 
BRANCH  45  59
ATOM     59  C   UNL     1      14.866 -10.428   9.678  1.00  0.00     0.023 A 
ATOM     60  C   UNL     1      16.070 -10.637   8.973  1.00  0.00     0.012 A 
ATOM     61  C   UNL     1      14.262 -11.510  10.347  1.00  0.00     0.148 A 
ATOM     62  C   UNL     1      16.642 -11.906   8.901  1.00  0.00     0.002 A 
ATOM     63  C   UNL     1      14.865 -12.762  10.314  1.00  0.00     0.091 A 
ATOM     64  F   UNL     1      13.108 -11.299  10.995  1.00  0.00    -0.205 F 
ATOM     65  C   UNL     1      16.046 -12.965   9.580  1.00  0.00     0.022 A 
BRANCH  63  66
ATOM     66  S   UNL     1      14.226 -14.172  11.224  1.00  0.00     0.127 S 
ATOM     67  O   UNL     1      13.753 -15.033  10.141  1.00  0.00    -0.237 OA
ATOM     68  O   UNL     1      15.421 -14.660  11.913  1.00  0.00    -0.237 OA
ATOM     69  O   UNL     1      13.189 -13.648  12.102  1.00  0.00    -0.744 OA
ENDBRANCH  63  66
ENDBRANCH  45  59
BRANCH  46  70
ATOM     70  C   UNL     1      10.393  -1.493   9.849  1.00  0.00     0.023 A 
ATOM     71  C   UNL     1      11.123  -0.313  10.093  1.00  0.00     0.012 A 
ATOM     72  C   UNL     1       9.004  -1.407   9.630  1.00  0.00     0.148 A 
ATOM     73  C   UNL     1      10.479   0.924  10.153  1.00  0.00     0.002 A 
ATOM     74  C   UNL     1       8.378  -0.166   9.634  1.00  0.00     0.091 A 
ATOM     75  F   UNL     1       8.326  -2.542   9.408  1.00  0.00    -0.205 F 
ATOM     76  C   UNL     1       9.110   0.999   9.914  1.00  0.00     0.022 A 
BRANCH  74  77
ATOM     77  S   UNL     1       6.646   0.042   9.207  1.00  0.00     0.127 S 
ATOM     78  O   UNL     1       6.065   0.423  10.492  1.00  0.00    -0.237 OA
ATOM     79  O   UNL     1       6.707   1.116   8.215  1.00  0.00    -0.237 OA
ATOM     80  O   UNL     1       6.214  -1.243   8.674  1.00  0.00    -0.744 OA
ENDBRANCH  74  77
ENDBRANCH  46  70
BRANCH  58  81
ATOM     81  C   UNL     1      13.868  -5.255  14.599  1.00  0.00     0.023 A 
ATOM     82  C   UNL     1      12.856  -5.329  15.576  1.00  0.00     0.012 A 
ATOM     83  C   UNL     1      15.201  -5.033  14.997  1.00  0.00     0.148 A 
ATOM     84  C   UNL     1      13.161  -5.149  16.925  1.00  0.00     0.002 A 
ATOM     85  C   UNL     1      15.505  -4.908  16.346  1.00  0.00     0.091 A 
ATOM     86  F   UNL     1      16.146  -4.949  14.049  1.00  0.00    -0.205 F 
ATOM     87  C   UNL     1      14.485  -4.952  17.311  1.00  0.00     0.022 A 
BRANCH  85  88
ATOM     88  S   UNL     1      17.193  -4.753  16.942  1.00  0.00     0.127 S 
ATOM     89  O   UNL     1      17.229  -3.357  17.374  1.00  0.00    -0.237 OA
ATOM     90  O   UNL     1      17.227  -5.730  18.031  1.00  0.00    -0.237 OA
ATOM     91  O   UNL     1      18.050  -5.080  15.810  1.00  0.00    -0.744 OA
ENDBRANCH  85  88
ENDBRANCH  58  81
ENDBRANCH  32  33
ENDBRANCH  24  27
ENDBRANCH  22  23
ENDBRANCH   1  22
TORSDOF 15
