REMARK SMILES C[C@@H]1CCC[C@H](S[C@@H]2CCC[C@]([NH2+]C3CC3)(C(=O)NCCCNC(=O)c3ccc(-c4c5nc(c(-c6cccc(S(=O)(=O)[O-])c6F)c6ccc([nH]6)c(-c6cccc(S(=O)(=O)[O-])c6F)c6nc(c(-c7cccc(S(=O)(=O)[O-])c7F)c7ccc4[nH]7)C=C6)C=C5)cc3)C2)C1
REMARK SMILES IDX 21 1 20 2 19 3 17 4 18 5 12 7 8 8 9 9 89 10 10 11 11 12 7 13
REMARK SMILES IDX 6 14 1 15 2 16 3 17 90 18 4 19 5 20 13 21 14 24 15 25 16 26
REMARK SMILES IDX 22 27 23 28 24 29 25 31 26 32 27 33 88 34 28 35 87 36 29 37
REMARK SMILES IDX 30 38 31 39 81 40 32 41 86 42 80 43 82 44 33 45 85 46 79 47
REMARK SMILES IDX 78 48 34 50 66 51 46 52 65 53 47 54 50 55 64 56 83 57 48 58
REMARK SMILES IDX 49 59 63 61 84 62 51 63 35 64 36 65 44 66 37 67 39 68 45 69
REMARK SMILES IDX 38 70 40 71 41 72 42 73 43 74 67 75 68 76 76 77 69 78 71 79
REMARK SMILES IDX 77 80 70 81 72 82 73 83 74 84 75 85 52 86 53 87 61 88 54 89
REMARK SMILES IDX 56 90 62 91 55 92 57 93 58 94 59 95 60 96
REMARK H PARENT 19 6 13 22 13 23 23 30 82 49 50 60
REMARK Flexibility Score: inf
ROOT
ATOM      1  C   UNL     1       4.587   4.025   4.793  1.00  0.00     0.042 C 
ENDROOT
BRANCH   1   2
ATOM      2  C   UNL     1       3.574   4.168   3.667  1.00  0.00     0.118 C 
BRANCH   2   3
ATOM      3  N   UNL     1       3.638   3.091   2.693  1.00  0.00    -0.351 N 
ATOM      4  C   UNL     1       2.812   2.047   2.388  1.00  0.00     0.281 C 
ATOM      5  O   UNL     1       3.200   1.329   1.460  1.00  0.00    -0.268 OA
ATOM      6  H   UNL     1       4.449   3.119   2.135  1.00  0.00     0.163 HD
BRANCH   4   7
ATOM      7  C   UNL     1       1.455   1.793   3.122  1.00  0.00     0.176 C 
ATOM      8  C   UNL     1      -0.762   0.408   2.886  1.00  0.00     0.053 C 
ATOM      9  C   UNL     1      -1.605   1.677   2.789  1.00  0.00     0.015 C 
ATOM     10  C   UNL     1       0.711   0.568   2.519  1.00  0.00     0.093 C 
ATOM     11  C   UNL     1      -0.877   2.884   3.371  1.00  0.00     0.008 C 
ATOM     12  C   UNL     1       0.542   3.018   2.829  1.00  0.00     0.079 C 
BRANCH   8  13
ATOM     13  S   UNL     1      -1.560  -1.100   2.145  1.00  0.00    -0.155 SA
BRANCH  13  14
ATOM     14  C   UNL     1      -1.592  -1.021   0.288  1.00  0.00     0.047 C 
ATOM     15  C   UNL     1       1.885  -1.459   0.195  1.00  0.00     0.007 C 
ATOM     16  C   UNL     1       0.779  -1.099  -0.802  1.00  0.00    -0.013 C 
ATOM     17  C   UNL     1       0.624   0.404  -1.123  1.00  0.00     0.003 C 
ATOM     18  C   UNL     1      -0.515  -1.833  -0.447  1.00  0.00     0.017 C 
ATOM     19  C   UNL     1      -0.642   1.139  -0.671  1.00  0.00     0.001 C 
ATOM     20  C   UNL     1      -1.868   0.277  -0.451  1.00  0.00     0.014 C 
ENDBRANCH  13  14
ENDBRANCH   8  13
BRANCH   7  21
ATOM     21  N   UNL     1       1.691   1.603   4.568  1.00  0.00    -0.331 N 
ATOM     22  H   UNL     1       0.769   1.573   5.004  1.00  0.00     0.347 HD
ATOM     23  H   UNL     1       2.320   2.377   4.782  1.00  0.00     0.347 HD
BRANCH  21  24
ATOM     24  C   UNL     1       2.436   0.446   5.100  1.00  0.00     0.183 C 
ATOM     25  C   UNL     1       3.108  -0.656   4.327  1.00  0.00     0.071 C 
ATOM     26  C   UNL     1       3.942   0.375   5.013  1.00  0.00     0.071 C 
ENDBRANCH  21  24
ENDBRANCH   7  21
ENDBRANCH   4   7
ENDBRANCH   2   3
ENDBRANCH   1   2
BRANCH   1  27
ATOM     27  C   UNL     1       6.030   3.944   4.317  1.00  0.00     0.118 C 
BRANCH  27  28
ATOM     28  N   UNL     1       6.447   5.151   3.613  1.00  0.00    -0.352 N 
ATOM     29  C   UNL     1       7.173   6.232   4.053  1.00  0.00     0.251 C 
ATOM     30  H   UNL     1       6.164   5.199   2.672  1.00  0.00     0.163 HD
ATOM     31  O   UNL     1       7.190   7.259   3.382  1.00  0.00    -0.269 OA
BRANCH  29  32
ATOM     32  C   UNL     1       7.916   6.167   5.331  1.00  0.00     0.039 A 
ATOM     33  C   UNL     1       7.936   7.286   6.167  1.00  0.00     0.014 A 
ATOM     34  C   UNL     1       8.618   5.016   5.692  1.00  0.00     0.014 A 
ATOM     35  C   UNL     1       8.604   7.223   7.394  1.00  0.00     0.010 A 
ATOM     36  C   UNL     1       9.188   4.918   6.956  1.00  0.00     0.010 A 
ATOM     37  C   UNL     1       9.203   6.025   7.816  1.00  0.00    -0.014 A 
BRANCH  37  38
ATOM     38  C   UNL     1       9.860   5.907   9.143  1.00  0.00     0.031 A 
ATOM     39  C   UNL     1      11.321   5.547   9.236  1.00  0.00     0.074 A 
ATOM     40  C   UNL     1       9.123   6.030  10.265  1.00  0.00     0.049 A 
ATOM     41  N   UNL     1      12.050   5.327  10.299  1.00  0.00    -0.248 NA
ATOM     42  C   UNL     1      12.051   5.378   7.968  1.00  0.00     0.031 C 
ATOM     43  C   UNL     1       7.682   6.292  10.308  1.00  0.00     0.029 A 
ATOM     44  N   UNL     1       9.478   5.924  11.587  1.00  0.00    -0.354 N 
ATOM     45  C   UNL     1      13.305   4.956   9.830  1.00  0.00     0.074 A 
ATOM     46  C   UNL     1      13.229   4.939   8.387  1.00  0.00     0.031 C 
ATOM     47  C   UNL     1       7.279   6.336  11.587  1.00  0.00     0.029 A 
ATOM     48  C   UNL     1       8.421   6.071  12.456  1.00  0.00     0.049 A 
ATOM     49  H   UNL     1      10.401   5.758  11.885  1.00  0.00     0.167 HD
ATOM     50  C   UNL     1      14.430   4.685  10.534  1.00  0.00     0.034 A 
ATOM     51  C   UNL     1       8.376   5.994  13.800  1.00  0.00     0.034 A 
ATOM     52  C   UNL     1      14.514   4.752  11.967  1.00  0.00     0.049 A 
ATOM     53  C   UNL     1       9.650   5.737  14.559  1.00  0.00     0.074 A 
ATOM     54  C   UNL     1      15.628   4.588  12.771  1.00  0.00     0.029 A 
ATOM     55  N   UNL     1      13.442   4.995  12.811  1.00  0.00    -0.354 N 
ATOM     56  N   UNL     1      10.861   5.546  14.096  1.00  0.00    -0.248 NA
ATOM     57  C   UNL     1       9.558   5.722  16.026  1.00  0.00     0.031 C 
ATOM     58  C   UNL     1      15.223   4.705  14.105  1.00  0.00     0.029 A 
ATOM     59  C   UNL     1      13.864   4.976  14.129  1.00  0.00     0.049 A 
ATOM     60  H   UNL     1      12.517   5.157  12.517  1.00  0.00     0.167 HD
ATOM     61  C   UNL     1      11.681   5.426  15.212  1.00  0.00     0.074 A 
ATOM     62  C   UNL     1      10.830   5.588  16.373  1.00  0.00     0.031 C 
ATOM     63  C   UNL     1      13.015   5.191  15.272  1.00  0.00     0.034 A 
BRANCH  50  64
ATOM     64  C   UNL     1      15.678   4.344   9.759  1.00  0.00     0.023 A 
ATOM     65  C   UNL     1      16.327   5.345   9.006  1.00  0.00     0.012 A 
ATOM     66  C   UNL     1      16.240   3.054   9.821  1.00  0.00     0.148 A 
ATOM     67  C   UNL     1      17.492   5.058   8.296  1.00  0.00     0.002 A 
ATOM     68  C   UNL     1      17.429   2.789   9.150  1.00  0.00     0.091 A 
ATOM     69  F   UNL     1      15.600   2.110  10.525  1.00  0.00    -0.205 F 
ATOM     70  C   UNL     1      18.048   3.785   8.377  1.00  0.00     0.022 A 
BRANCH  68  71
ATOM     71  S   UNL     1      18.272   1.206   9.257  1.00  0.00     0.127 S 
ATOM     72  O   UNL     1      18.088   0.683   7.904  1.00  0.00    -0.237 OA
ATOM     73  O   UNL     1      19.642   1.610   9.574  1.00  0.00    -0.237 OA
ATOM     74  O   UNL     1      17.597   0.462  10.311  1.00  0.00    -0.744 OA
ENDBRANCH  68  71
ENDBRANCH  50  64
BRANCH  51  75
ATOM     75  C   UNL     1       7.090   6.226  14.519  1.00  0.00     0.023 A 
ATOM     76  C   UNL     1       6.930   7.394  15.290  1.00  0.00     0.012 A 
ATOM     77  C   UNL     1       6.022   5.314  14.425  1.00  0.00     0.148 A 
ATOM     78  C   UNL     1       5.743   7.631  15.985  1.00  0.00     0.002 A 
ATOM     79  C   UNL     1       4.822   5.584  15.073  1.00  0.00     0.091 A 
ATOM     80  F   UNL     1       6.197   4.205  13.693  1.00  0.00    -0.205 F 
ATOM     81  C   UNL     1       4.687   6.732  15.869  1.00  0.00     0.022 A 
BRANCH  79  82
ATOM     82  S   UNL     1       3.366   4.553  14.871  1.00  0.00     0.127 S 
ATOM     83  O   UNL     1       3.255   3.931  16.187  1.00  0.00    -0.237 OA
ATOM     84  O   UNL     1       2.334   5.545  14.568  1.00  0.00    -0.237 OA
ATOM     85  O   UNL     1       3.672   3.651  13.768  1.00  0.00    -0.744 OA
ENDBRANCH  79  82
ENDBRANCH  51  75
BRANCH  63  86
ATOM     86  C   UNL     1      13.655   5.136  16.635  1.00  0.00     0.023 A 
ATOM     87  C   UNL     1      13.415   4.037  17.482  1.00  0.00     0.012 A 
ATOM     88  C   UNL     1      14.552   6.143  17.043  1.00  0.00     0.148 A 
ATOM     89  C   UNL     1      14.031   3.958  18.730  1.00  0.00     0.002 A 
ATOM     90  C   UNL     1      15.203   6.031  18.265  1.00  0.00     0.091 A 
ATOM     91  F   UNL     1      14.752   7.190  16.230  1.00  0.00    -0.205 F 
ATOM     92  C   UNL     1      14.933   4.947  19.116  1.00  0.00     0.022 A 
BRANCH  90  93
ATOM     93  S   UNL     1      16.454   7.203  18.800  1.00  0.00     0.127 S 
ATOM     94  O   UNL     1      15.757   7.915  19.870  1.00  0.00    -0.237 OA
ATOM     95  O   UNL     1      17.530   6.321  19.254  1.00  0.00    -0.237 OA
ATOM     96  O   UNL     1      16.783   8.004  17.629  1.00  0.00    -0.744 OA
ENDBRANCH  90  93
ENDBRANCH  63  86
ENDBRANCH  37  38
ENDBRANCH  29  32
ENDBRANCH  27  28
ENDBRANCH   1  27
TORSDOF 17
