REMARK SMILES C[C@@H](CCC(=O)NCCCNC(=O)c1ccc(-c2c3nc(c(-c4cccc(S(=O)(=O)[O-])c4F)c4ccc([nH]4)c(-c4cccc(S(=O)(=O)[O-])c4F)c4nc(c(-c5cccc(S(=O)(=O)[O-])c5F)c5ccc2[nH]5)C=C4)C=C3)cc1)[C@@H]1CC[C@H]2[C@@H]3CC[C@H]4CC(=O)CC[C@@]4(C)[C@H]3CC(=O)[C@@]21C
REMARK SMILES IDX 9 1 8 2 7 3 5 4 6 5 4 7 3 8 2 9 1 10 77 11 78 12 96 13 79 14
REMARK SMILES IDX 80 15 94 16 97 17 81 18 93 19 95 20 82 21 92 22 83 23 90 24
REMARK SMILES IDX 84 25 89 26 91 27 85 28 88 29 86 30 87 31 10 32 11 33 12 34
REMARK SMILES IDX 13 36 14 37 15 38 76 39 16 40 75 41 17 42 18 43 19 44 69 45
REMARK SMILES IDX 20 46 74 47 68 48 70 49 21 50 73 51 67 52 66 53 22 55 54 56
REMARK SMILES IDX 34 57 53 58 35 59 38 60 52 61 71 62 36 63 37 64 51 66 72 67
REMARK SMILES IDX 39 68 23 69 24 70 32 71 25 72 27 73 33 74 26 75 28 76 29 77
REMARK SMILES IDX 30 78 31 79 55 80 56 81 64 82 57 83 59 84 65 85 58 86 60 87
REMARK SMILES IDX 61 88 62 89 63 90 40 91 41 92 49 93 42 94 44 95 50 96 43 97
REMARK SMILES IDX 45 98 46 99 47 100 48 101
REMARK H PARENT 7 6 11 35 70 54 38 65
REMARK Flexibility Score: inf
ROOT
ATOM      1  C   UNL     1       0.919   0.841  -2.107  1.00  0.00     0.042 C 
ENDROOT
BRANCH   1   2
ATOM      2  C   UNL     1       0.177   0.684  -3.440  1.00  0.00     0.117 C 
BRANCH   2   3
ATOM      3  N   UNL     1      -1.271   0.460  -3.373  1.00  0.00    -0.356 N 
ATOM      4  C   UNL     1      -2.357   1.302  -3.382  1.00  0.00     0.220 C 
ATOM      5  O   UNL     1      -3.471   0.773  -3.471  1.00  0.00    -0.275 OA
ATOM      6  H   UNL     1      -1.516  -0.492  -3.307  1.00  0.00     0.163 HD
BRANCH   4   7
ATOM      7  C   UNL     1      -2.240   2.823  -3.224  1.00  0.00     0.100 C 
BRANCH   7   8
ATOM      8  C   UNL     1      -2.481   3.507  -1.840  1.00  0.00     0.013 C 
BRANCH   8   9
ATOM      9  C   UNL     1      -1.746   2.946  -0.555  1.00  0.00    -0.010 C 
ATOM     10  C   UNL     1      -0.285   3.362  -0.741  1.00  0.00     0.008 C 
BRANCH   9  11
ATOM     11  C   UNL     1      -2.230   1.468  -0.325  1.00  0.00     0.005 C 
ATOM     12  C   UNL     1      -3.794   1.560  -0.223  1.00  0.00     0.005 C 
ATOM     13  C   UNL     1      -1.876   0.279   0.661  1.00  0.00     0.032 C 
ATOM     14  C   UNL     1      -4.266   0.378   0.573  1.00  0.00     0.005 C 
ATOM     15  C   UNL     1      -3.123   0.252   1.560  1.00  0.00     0.006 C 
ATOM     16  C   UNL     1      -0.695   0.220   1.619  1.00  0.00     0.139 C 
ATOM     17  C   UNL     1      -1.756  -1.028  -0.205  1.00  0.00     0.020 C 
ATOM     18  C   UNL     1      -3.272  -0.921   2.523  1.00  0.00    -0.003 C 
ATOM     19  C   UNL     1      -0.698  -0.983   2.603  1.00  0.00     0.080 C 
ATOM     20  O   UNL     1       0.256   0.991   1.541  1.00  0.00    -0.299 OA
ATOM     21  C   UNL     1      -4.502  -0.628   3.393  1.00  0.00     0.004 C 
ATOM     22  C   UNL     1      -2.016  -1.068   3.410  1.00  0.00     0.006 C 
ATOM     23  C   UNL     1      -4.691  -1.594   4.532  1.00  0.00     0.005 C 
ATOM     24  C   UNL     1      -2.187  -2.267   4.443  1.00  0.00    -0.025 C 
ATOM     25  C   UNL     1      -3.407  -1.886   5.341  1.00  0.00     0.002 C 
ATOM     26  C   UNL     1      -2.399  -3.688   3.819  1.00  0.00     0.015 C 
ATOM     27  C   UNL     1      -0.888  -2.339   5.291  1.00  0.00     0.012 C 
ATOM     28  C   UNL     1      -3.723  -2.963   6.376  1.00  0.00     0.079 C 
ATOM     29  C   UNL     1      -3.537  -4.582   4.360  1.00  0.00     0.076 C 
ATOM     30  C   UNL     1      -4.208  -4.193   5.663  1.00  0.00     0.133 C 
ATOM     31  O   UNL     1      -5.158  -4.844   6.103  1.00  0.00    -0.300 OA
ENDBRANCH   9  11
ENDBRANCH   8   9
ENDBRANCH   7   8
ENDBRANCH   4   7
ENDBRANCH   2   3
ENDBRANCH   1   2
BRANCH   1  32
ATOM     32  C   UNL     1       1.737  -0.217  -1.358  1.00  0.00     0.118 C 
BRANCH  32  33
ATOM     33  N   UNL     1       2.071  -1.454  -2.004  1.00  0.00    -0.352 N 
ATOM     34  C   UNL     1       2.939  -2.406  -1.504  1.00  0.00     0.251 C 
ATOM     35  H   UNL     1       1.649  -1.639  -2.874  1.00  0.00     0.163 HD
ATOM     36  O   UNL     1       3.237  -3.377  -2.191  1.00  0.00    -0.269 OA
BRANCH  34  37
ATOM     37  C   UNL     1       3.544  -2.250  -0.149  1.00  0.00     0.039 A 
ATOM     38  C   UNL     1       4.935  -2.194  -0.043  1.00  0.00     0.014 A 
ATOM     39  C   UNL     1       2.768  -2.245   1.016  1.00  0.00     0.014 A 
ATOM     40  C   UNL     1       5.543  -2.130   1.218  1.00  0.00     0.010 A 
ATOM     41  C   UNL     1       3.379  -2.138   2.279  1.00  0.00     0.010 A 
ATOM     42  C   UNL     1       4.777  -2.099   2.400  1.00  0.00    -0.014 A 
BRANCH  42  43
ATOM     43  C   UNL     1       5.474  -2.016   3.723  1.00  0.00     0.031 A 
ATOM     44  C   UNL     1       5.428  -3.147   4.723  1.00  0.00     0.074 A 
ATOM     45  C   UNL     1       6.198  -0.917   4.024  1.00  0.00     0.049 A 
ATOM     46  N   UNL     1       6.128  -3.307   5.821  1.00  0.00    -0.248 NA
ATOM     47  C   UNL     1       4.465  -4.229   4.473  1.00  0.00     0.031 C 
ATOM     48  C   UNL     1       6.261   0.296   3.207  1.00  0.00     0.029 A 
ATOM     49  N   UNL     1       7.025  -0.641   5.088  1.00  0.00    -0.354 N 
ATOM     50  C   UNL     1       5.687  -4.495   6.395  1.00  0.00     0.074 A 
ATOM     51  C   UNL     1       4.628  -4.995   5.544  1.00  0.00     0.031 C 
ATOM     52  C   UNL     1       7.109   1.167   3.775  1.00  0.00     0.029 A 
ATOM     53  C   UNL     1       7.642   0.586   5.005  1.00  0.00     0.049 A 
ATOM     54  H   UNL     1       7.162  -1.264   5.838  1.00  0.00     0.167 HD
ATOM     55  C   UNL     1       6.136  -5.129   7.508  1.00  0.00     0.034 A 
ATOM     56  C   UNL     1       8.548   1.176   5.812  1.00  0.00     0.034 A 
ATOM     57  C   UNL     1       7.200  -4.644   8.350  1.00  0.00     0.049 A 
ATOM     58  C   UNL     1       9.075   0.426   7.006  1.00  0.00     0.074 A 
ATOM     59  C   UNL     1       7.777  -5.257   9.451  1.00  0.00     0.029 A 
ATOM     60  N   UNL     1       7.839  -3.423   8.200  1.00  0.00    -0.354 N 
ATOM     61  N   UNL     1       8.774  -0.778   7.425  1.00  0.00    -0.248 NA
ATOM     62  C   UNL     1      10.105   1.101   7.811  1.00  0.00     0.031 C 
ATOM     63  C   UNL     1       8.739  -4.391   9.986  1.00  0.00     0.029 A 
ATOM     64  C   UNL     1       8.793  -3.258   9.193  1.00  0.00     0.049 A 
ATOM     65  H   UNL     1       7.643  -2.768   7.492  1.00  0.00     0.167 HD
ATOM     66  C   UNL     1       9.600  -1.019   8.519  1.00  0.00     0.074 A 
ATOM     67  C   UNL     1      10.436   0.153   8.676  1.00  0.00     0.031 C 
ATOM     68  C   UNL     1       9.650  -2.107   9.327  1.00  0.00     0.034 A 
BRANCH  55  69
ATOM     69  C   UNL     1       5.508  -6.457   7.864  1.00  0.00     0.023 A 
ATOM     70  C   UNL     1       5.763  -7.586   7.058  1.00  0.00     0.012 A 
ATOM     71  C   UNL     1       4.730  -6.607   9.030  1.00  0.00     0.148 A 
ATOM     72  C   UNL     1       5.223  -8.831   7.382  1.00  0.00     0.002 A 
ATOM     73  C   UNL     1       4.234  -7.861   9.371  1.00  0.00     0.091 A 
ATOM     74  F   UNL     1       4.485  -5.523   9.780  1.00  0.00    -0.205 F 
ATOM     75  C   UNL     1       4.468  -8.970   8.543  1.00  0.00     0.022 A 
BRANCH  73  76
ATOM     76  S   UNL     1       3.316  -8.165  10.887  1.00  0.00     0.127 S 
ATOM     77  O   UNL     1       1.973  -8.421  10.370  1.00  0.00    -0.237 OA
ATOM     78  O   UNL     1       3.997  -9.341  11.429  1.00  0.00    -0.237 OA
ATOM     79  O   UNL     1       3.456  -6.957  11.690  1.00  0.00    -0.744 OA
ENDBRANCH  73  76
ENDBRANCH  55  69
BRANCH  56  80
ATOM     80  C   UNL     1       9.078   2.529   5.472  1.00  0.00     0.023 A 
ATOM     81  C   UNL     1      10.421   2.675   5.069  1.00  0.00     0.012 A 
ATOM     82  C   UNL     1       8.254   3.668   5.535  1.00  0.00     0.148 A 
ATOM     83  C   UNL     1      10.941   3.935   4.769  1.00  0.00     0.002 A 
ATOM     84  C   UNL     1       8.761   4.911   5.176  1.00  0.00     0.091 A 
ATOM     85  F   UNL     1       6.984   3.511   5.935  1.00  0.00    -0.205 F 
ATOM     86  C   UNL     1      10.109   5.051   4.812  1.00  0.00     0.022 A 
BRANCH  84  87
ATOM     87  S   UNL     1       7.731   6.378   5.071  1.00  0.00     0.127 S 
ATOM     88  O   UNL     1       8.227   7.174   6.188  1.00  0.00    -0.237 OA
ATOM     89  O   UNL     1       8.073   6.891   3.744  1.00  0.00    -0.237 OA
ATOM     90  O   UNL     1       6.357   5.903   5.194  1.00  0.00    -0.744 OA
ENDBRANCH  84  87
ENDBRANCH  56  80
BRANCH  68  91
ATOM     91  C   UNL     1      10.671  -2.101  10.439  1.00  0.00     0.023 A 
ATOM     92  C   UNL     1      10.527  -1.217  11.528  1.00  0.00     0.012 A 
ATOM     93  C   UNL     1      11.763  -2.991  10.418  1.00  0.00     0.148 A 
ATOM     94  C   UNL     1      11.482  -1.178  12.545  1.00  0.00     0.002 A 
ATOM     95  C   UNL     1      12.681  -2.986  11.463  1.00  0.00     0.091 A 
ATOM     96  F   UNL     1      11.899  -3.815   9.369  1.00  0.00    -0.205 F 
ATOM     97  C   UNL     1      12.552  -2.068  12.517  1.00  0.00     0.022 A 
BRANCH  95  98
ATOM     98  S   UNL     1      14.034  -4.165  11.557  1.00  0.00     0.127 S 
ATOM     99  O   UNL     1      15.177  -3.337  11.176  1.00  0.00    -0.237 OA
ATOM    100  O   UNL     1      14.008  -4.557  12.967  1.00  0.00    -0.237 OA
ATOM    101  O   UNL     1      13.694  -5.235  10.629  1.00  0.00    -0.744 OA
ENDBRANCH  95  98
ENDBRANCH  68  91
ENDBRANCH  42  43
ENDBRANCH  34  37
ENDBRANCH  32  33
ENDBRANCH   1  32
TORSDOF 16
