REMARK SMILES C[C@@H]1CN(C(=O)Nc2ccc(O)c(C(=O)NCCCNC(=O)c3ccc(-c4c5nc(c(-c6cccc(S(=O)(=O)[O-])c6F)c6ccc([nH]6)c(-c6cccc(S(=O)(=O)[O-])c6F)c6nc(c(-c7cccc(S(=O)(=O)[O-])c7F)c7ccc4[nH]7)C=C6)C=C5)cc3)c2)C[C@H]1C
REMARK SMILES IDX 19 1 18 2 17 3 16 4 14 5 15 6 13 8 8 9 9 10 86 11 10 12
REMARK SMILES IDX 11 13 7 14 1 15 2 16 3 17 88 18 4 19 87 20 89 21 5 22 6 23
REMARK SMILES IDX 12 25 20 27 21 28 22 30 23 31 24 32 85 33 25 34 84 35 26 36
REMARK SMILES IDX 27 37 28 38 78 39 29 40 83 41 77 42 79 43 30 44 82 45 76 46
REMARK SMILES IDX 75 47 31 49 63 50 43 51 62 52 44 53 47 54 61 55 80 56 45 57
REMARK SMILES IDX 46 58 60 60 81 61 48 62 32 63 33 64 41 65 34 66 36 67 42 68
REMARK SMILES IDX 35 69 37 70 38 71 39 72 40 73 64 74 65 75 73 76 66 77 68 78
REMARK SMILES IDX 74 79 67 80 69 81 70 82 71 83 72 84 49 85 50 86 58 87 51 88
REMARK SMILES IDX 53 89 59 90 52 91 54 92 55 93 56 94 57 95
REMARK H PARENT 16 7 7 24 12 26 20 29 79 48 47 59
REMARK Flexibility Score: inf
ROOT
ATOM      1  C   UNL     1       5.479   6.983   3.111  1.00  0.00     0.118 C 
ENDROOT
BRANCH   1   2
ATOM      2  C   UNL     1       5.017   5.970   2.077  1.00  0.00     0.042 C 
BRANCH   2   3
ATOM      3  C   UNL     1       3.642   5.365   2.354  1.00  0.00     0.118 C 
BRANCH   3   4
ATOM      4  N   UNL     1       2.580   6.294   2.027  1.00  0.00    -0.352 N 
ATOM      5  C   UNL     1       1.783   6.433   0.923  1.00  0.00     0.255 C 
ATOM      6  O   UNL     1       0.917   7.313   0.986  1.00  0.00    -0.269 OA
ATOM      7  H   UNL     1       2.396   6.952   2.736  1.00  0.00     0.163 HD
BRANCH   5   8
ATOM      8  C   UNL     1       1.809   5.568  -0.294  1.00  0.00     0.083 A 
ATOM      9  C   UNL     1       0.390   4.569  -2.011  1.00  0.00     0.043 A 
ATOM     10  C   UNL     1       1.511   4.113  -2.693  1.00  0.00     0.030 A 
ATOM     11  C   UNL     1       0.542   5.364  -0.876  1.00  0.00     0.044 A 
ATOM     12  C   UNL     1       2.773   4.310  -2.146  1.00  0.00     0.049 A 
ATOM     13  C   UNL     1       2.918   4.999  -0.936  1.00  0.00     0.128 A 
BRANCH   9  14
ATOM     14  N   UNL     1      -0.902   4.240  -2.422  1.00  0.00    -0.308 N 
ATOM     15  C   UNL     1       0.700  -0.317   0.015  1.00  0.00     0.010 C 
ATOM     16  C   UNL     1       0.242   0.086  -1.377  1.00  0.00     0.010 C 
ATOM     17  C   UNL     1       0.192   1.603  -1.543  1.00  0.00     0.125 C 
ATOM     18  C   UNL     1      -1.184  -0.335  -1.740  1.00  0.00     0.010 C 
ATOM     19  N   UNL     1      -0.850   1.866  -2.533  1.00  0.00    -0.324 N 
ATOM     20  C   UNL     1      -1.523   0.625  -2.885  1.00  0.00     0.125 C 
ATOM     21  C   UNL     1      -1.295  -1.794  -2.143  1.00  0.00     0.010 C 
ATOM     22  C   UNL     1      -1.405   3.069  -2.907  1.00  0.00     0.321 C 
ATOM     23  O   UNL     1      -2.447   3.122  -3.566  1.00  0.00    -0.248 OA
ATOM     24  H   UNL     1      -1.558   4.971  -2.350  1.00  0.00     0.171 HD
ENDBRANCH   9  14
BRANCH  13  25
ATOM     25  O   UNL     1       4.181   5.096  -0.444  1.00  0.00    -0.507 OA
ATOM     26  H   UNL     1       4.894   4.700  -0.905  1.00  0.00     0.293 HD
ENDBRANCH  13  25
ENDBRANCH   5   8
ENDBRANCH   3   4
ENDBRANCH   2   3
ENDBRANCH   1   2
BRANCH   1  27
ATOM     27  N   UNL     1       5.886   6.352   4.357  1.00  0.00    -0.352 N 
ATOM     28  C   UNL     1       7.115   6.335   4.970  1.00  0.00     0.251 C 
ATOM     29  H   UNL     1       5.174   5.865   4.832  1.00  0.00     0.163 HD
ATOM     30  O   UNL     1       7.309   5.560   5.904  1.00  0.00    -0.269 OA
BRANCH  28  31
ATOM     31  C   UNL     1       8.207   7.227   4.511  1.00  0.00     0.039 A 
ATOM     32  C   UNL     1       9.519   6.742   4.500  1.00  0.00     0.014 A 
ATOM     33  C   UNL     1       7.955   8.549   4.135  1.00  0.00     0.014 A 
ATOM     34  C   UNL     1      10.565   7.565   4.072  1.00  0.00     0.010 A 
ATOM     35  C   UNL     1       8.983   9.339   3.629  1.00  0.00     0.010 A 
ATOM     36  C   UNL     1      10.302   8.864   3.612  1.00  0.00    -0.014 A 
BRANCH  36  37
ATOM     37  C   UNL     1      11.386   9.759   3.134  1.00  0.00     0.031 A 
ATOM     38  C   UNL     1      11.673  11.046   3.861  1.00  0.00     0.074 A 
ATOM     39  C   UNL     1      12.043   9.467   1.994  1.00  0.00     0.049 A 
ATOM     40  N   UNL     1      12.515  11.999   3.555  1.00  0.00    -0.248 NA
ATOM     41  C   UNL     1      10.883  11.313   5.075  1.00  0.00     0.031 C 
ATOM     42  C   UNL     1      11.809   8.284   1.164  1.00  0.00     0.029 A 
ATOM     43  N   UNL     1      13.021  10.156   1.323  1.00  0.00    -0.354 N 
ATOM     44  C   UNL     1      12.320  12.997   4.503  1.00  0.00     0.074 A 
ATOM     45  C   UNL     1      11.259  12.546   5.378  1.00  0.00     0.031 C 
ATOM     46  C   UNL     1      12.628   8.325   0.101  1.00  0.00     0.029 A 
ATOM     47  C   UNL     1      13.421   9.550   0.155  1.00  0.00     0.049 A 
ATOM     48  H   UNL     1      13.401  11.005   1.647  1.00  0.00     0.167 HD
ATOM     49  C   UNL     1      12.981  14.170   4.651  1.00  0.00     0.034 A 
ATOM     50  C   UNL     1      14.323   9.938  -0.767  1.00  0.00     0.034 A 
ATOM     51  C   UNL     1      14.073  14.584   3.814  1.00  0.00     0.049 A 
ATOM     52  C   UNL     1      15.078  11.223  -0.556  1.00  0.00     0.074 A 
ATOM     53  C   UNL     1      14.883  15.699   3.942  1.00  0.00     0.029 A 
ATOM     54  N   UNL     1      14.507  13.902   2.687  1.00  0.00    -0.354 N 
ATOM     55  N   UNL     1      14.992  12.076   0.435  1.00  0.00    -0.248 NA
ATOM     56  C   UNL     1      16.077  11.581  -1.573  1.00  0.00     0.031 C 
ATOM     57  C   UNL     1      15.792  15.702   2.879  1.00  0.00     0.029 A 
ATOM     58  C   UNL     1      15.564  14.577   2.102  1.00  0.00     0.049 A 
ATOM     59  H   UNL     1      14.119  13.062   2.352  1.00  0.00     0.167 HD
ATOM     60  C   UNL     1      15.953  13.050   0.185  1.00  0.00     0.074 A 
ATOM     61  C   UNL     1      16.616  12.674  -1.047  1.00  0.00     0.031 C 
ATOM     62  C   UNL     1      16.252  14.159   0.906  1.00  0.00     0.034 A 
BRANCH  49  63
ATOM     63  C   UNL     1      12.566  15.064   5.791  1.00  0.00     0.023 A 
ATOM     64  C   UNL     1      12.844  14.679   7.120  1.00  0.00     0.012 A 
ATOM     65  C   UNL     1      11.925  16.296   5.552  1.00  0.00     0.148 A 
ATOM     66  C   UNL     1      12.448  15.479   8.191  1.00  0.00     0.002 A 
ATOM     67  C   UNL     1      11.576  17.111   6.624  1.00  0.00     0.091 A 
ATOM     68  F   UNL     1      11.646  16.639   4.287  1.00  0.00    -0.205 F 
ATOM     69  C   UNL     1      11.823  16.697   7.943  1.00  0.00     0.022 A 
BRANCH  67  70
ATOM     70  S   UNL     1      10.841  18.734   6.397  1.00  0.00     0.127 S 
ATOM     71  O   UNL     1       9.438  18.470   6.706  1.00  0.00    -0.237 OA
ATOM     72  O   UNL     1      11.544  19.538   7.399  1.00  0.00    -0.237 OA
ATOM     73  O   UNL     1      11.126  19.108   5.019  1.00  0.00    -0.744 OA
ENDBRANCH  67  70
ENDBRANCH  49  63
BRANCH  50  74
ATOM     74  C   UNL     1      14.630   9.045  -1.921  1.00  0.00     0.023 A 
ATOM     75  C   UNL     1      15.865   8.367  -1.946  1.00  0.00     0.012 A 
ATOM     76  C   UNL     1      13.700   8.819  -2.954  1.00  0.00     0.148 A 
ATOM     77  C   UNL     1      16.177   7.496  -2.991  1.00  0.00     0.002 A 
ATOM     78  C   UNL     1      13.997   7.912  -3.964  1.00  0.00     0.091 A 
ATOM     79  F   UNL     1      12.534   9.479  -2.913  1.00  0.00    -0.205 F 
ATOM     80  C   UNL     1      15.241   7.261  -3.993  1.00  0.00     0.022 A 
BRANCH  78  81
ATOM     81  S   UNL     1      12.809   7.443  -5.229  1.00  0.00     0.127 S 
ATOM     82  O   UNL     1      13.430   7.979  -6.437  1.00  0.00    -0.237 OA
ATOM     83  O   UNL     1      12.819   5.984  -5.124  1.00  0.00    -0.237 OA
ATOM     84  O   UNL     1      11.550   8.065  -4.838  1.00  0.00    -0.744 OA
ENDBRANCH  78  81
ENDBRANCH  50  74
BRANCH  62  85
ATOM     85  C   UNL     1      17.374  15.034   0.413  1.00  0.00     0.023 A 
ATOM     86  C   UNL     1      17.180  15.854  -0.716  1.00  0.00     0.012 A 
ATOM     87  C   UNL     1      18.589  15.109   1.123  1.00  0.00     0.148 A 
ATOM     88  C   UNL     1      18.188  16.717  -1.146  1.00  0.00     0.002 A 
ATOM     89  C   UNL     1      19.570  16.006   0.718  1.00  0.00     0.091 A 
ATOM     90  F   UNL     1      18.761  14.305   2.183  1.00  0.00    -0.205 F 
ATOM     91  C   UNL     1      19.376  16.802  -0.422  1.00  0.00     0.022 A 
BRANCH  89  92
ATOM     92  S   UNL     1      21.088  16.254   1.646  1.00  0.00     0.127 S 
ATOM     93  O   UNL     1      22.073  15.602   0.786  1.00  0.00    -0.237 OA
ATOM     94  O   UNL     1      21.189  17.713   1.692  1.00  0.00    -0.237 OA
ATOM     95  O   UNL     1      20.873  15.624   2.942  1.00  0.00    -0.744 OA
ENDBRANCH  89  92
ENDBRANCH  62  85
ENDBRANCH  36  37
ENDBRANCH  28  31
ENDBRANCH   1  27
TORSDOF 15
