REMARK SMILES Cn1c(C[NH+](C)C)nnc1[C@@H]1CCC[N@@H+](Cc2ccccc2C(=O)NCCCNC(=O)c2ccc(-c3c4nc(c(-c5cccc(S(=O)(=O)[O-])c5F)c5ccc([nH]5)c(-c5cccc(S(=O)(=O)[O-])c5F)c5nc(c(-c6cccc(S(=O)(=O)[O-])c6F)c6ccc3[nH]6)C=C5)C=C4)cc2)C1
REMARK SMILES IDX 26 1 25 2 23 3 24 4 22 6 17 7 18 8 19 9 21 10 20 11 16 12
REMARK SMILES IDX 15 13 11 14 12 15 95 16 13 17 14 18 10 20 3 21 8 22 2 23
REMARK SMILES IDX 9 24 1 25 4 26 5 27 6 28 7 29 27 31 28 32 29 33 30 34 31 36
REMARK SMILES IDX 32 37 33 38 94 39 34 40 93 41 35 42 36 43 37 44 87 45 38 46
REMARK SMILES IDX 92 47 86 48 88 49 39 50 91 51 85 52 84 53 40 55 72 56 52 57
REMARK SMILES IDX 71 58 53 59 56 60 70 61 89 62 54 63 55 64 69 66 90 67 57 68
REMARK SMILES IDX 41 69 42 70 50 71 43 72 45 73 51 74 44 75 46 76 47 77 48 78
REMARK SMILES IDX 49 79 73 80 74 81 82 82 75 83 77 84 83 85 76 86 78 87 79 88
REMARK SMILES IDX 80 89 81 90 58 91 59 92 67 93 60 94 62 95 68 96 61 97 63 98
REMARK SMILES IDX 64 99 65 100 66 101
REMARK H PARENT 25 5 15 19 5 30 29 35 88 54 56 65
REMARK Flexibility Score: inf
ROOT
ATOM      1  C   UNL     1      -2.476  -1.859   2.248  1.00  0.00     0.118 C 
ENDROOT
BRANCH   1   2
ATOM      2  N   UNL     1      -2.774  -2.397   3.564  1.00  0.00    -0.352 N 
ATOM      3  C   UNL     1      -2.514  -3.602   4.165  1.00  0.00     0.251 C 
ATOM      4  O   UNL     1      -2.728  -3.666   5.380  1.00  0.00    -0.269 OA
ATOM      5  H   UNL     1      -3.262  -1.768   4.143  1.00  0.00     0.163 HD
BRANCH   3   6
ATOM      6  C   UNL     1      -2.073  -4.851   3.471  1.00  0.00     0.048 A 
ATOM      7  C   UNL     1      -1.036  -5.039   2.537  1.00  0.00     0.019 A 
ATOM      8  C   UNL     1      -0.873  -6.331   1.973  1.00  0.00     0.010 A 
ATOM      9  C   UNL     1      -1.615  -7.429   2.399  1.00  0.00     0.001 A 
ATOM     10  C   UNL     1      -2.771  -5.995   3.933  1.00  0.00     0.014 A 
ATOM     11  C   UNL     1      -2.538  -7.269   3.416  1.00  0.00     0.001 A 
BRANCH   7  12
ATOM     12  C   UNL     1      -0.037  -4.013   2.068  1.00  0.00     0.299 C 
BRANCH  12  13
ATOM     13  N   UNL     1       0.962  -3.514   3.008  1.00  0.00    -0.331 N 
ATOM     14  C   UNL     1       1.562  -1.820   4.676  1.00  0.00     0.113 C 
ATOM     15  C   UNL     1       2.780  -2.636   5.096  1.00  0.00     0.023 C 
ATOM     16  C   UNL     1       0.469  -2.729   4.130  1.00  0.00     0.274 C 
ATOM     17  C   UNL     1       3.173  -3.750   4.122  1.00  0.00     0.062 C 
ATOM     18  C   UNL     1       1.995  -4.457   3.420  1.00  0.00     0.262 C 
ATOM     19  H   UNL     1       1.432  -2.844   2.399  1.00  0.00     0.348 HD
BRANCH  14  20
ATOM     20  C   UNL     1       1.805  -0.599   3.814  1.00  0.00     0.141 A 
ATOM     21  C   UNL     1       1.829   0.836   2.126  1.00  0.00     0.187 A 
ATOM     22  N   UNL     1       1.735   1.510   3.252  1.00  0.00    -0.129 NA
ATOM     23  N   UNL     1       2.012  -0.490   2.453  1.00  0.00    -0.313 N 
ATOM     24  N   UNL     1       1.688   0.625   4.293  1.00  0.00    -0.135 NA
ATOM     25  C   UNL     1       2.434  -1.478   1.508  1.00  0.00     0.153 C 
BRANCH  21  26
ATOM     26  C   UNL     1       1.872   1.438   0.746  1.00  0.00     0.340 C 
BRANCH  26  27
ATOM     27  N   UNL     1       1.118   0.744  -0.287  1.00  0.00    -0.333 N 
ATOM     28  C   UNL     1       1.751  -0.074  -1.283  1.00  0.00     0.332 C 
ATOM     29  C   UNL     1      -0.313   0.864  -0.355  1.00  0.00     0.332 C 
ATOM     30  H   UNL     1       1.877   0.936   0.366  1.00  0.00     0.348 HD
ENDBRANCH  26  27
ENDBRANCH  21  26
ENDBRANCH  14  20
ENDBRANCH  12  13
ENDBRANCH   7  12
ENDBRANCH   3   6
ENDBRANCH   1   2
BRANCH   1  31
ATOM     31  C   UNL     1      -3.207  -0.575   1.890  1.00  0.00     0.042 C 
BRANCH  31  32
ATOM     32  C   UNL     1      -3.089   0.576   2.894  1.00  0.00     0.118 C 
BRANCH  32  33
ATOM     33  N   UNL     1      -1.799   1.244   3.069  1.00  0.00    -0.352 N 
ATOM     34  C   UNL     1      -1.453   2.568   2.837  1.00  0.00     0.251 C 
ATOM     35  H   UNL     1      -1.070   0.671   3.400  1.00  0.00     0.163 HD
ATOM     36  O   UNL     1      -0.540   3.121   3.431  1.00  0.00    -0.269 OA
BRANCH  34  37
ATOM     37  C   UNL     1      -2.123   3.323   1.772  1.00  0.00     0.039 A 
ATOM     38  C   UNL     1      -1.344   3.872   0.742  1.00  0.00     0.014 A 
ATOM     39  C   UNL     1      -3.500   3.468   1.771  1.00  0.00     0.014 A 
ATOM     40  C   UNL     1      -1.959   4.415  -0.382  1.00  0.00     0.010 A 
ATOM     41  C   UNL     1      -4.120   3.929   0.630  1.00  0.00     0.010 A 
ATOM     42  C   UNL     1      -3.351   4.404  -0.446  1.00  0.00    -0.014 A 
BRANCH  42  43
ATOM     43  C   UNL     1      -4.104   5.082  -1.510  1.00  0.00     0.031 A 
ATOM     44  C   UNL     1      -4.767   6.364  -1.116  1.00  0.00     0.074 A 
ATOM     45  C   UNL     1      -4.366   4.439  -2.658  1.00  0.00     0.049 A 
ATOM     46  N   UNL     1      -5.758   6.988  -1.679  1.00  0.00    -0.248 NA
ATOM     47  C   UNL     1      -4.297   6.974   0.144  1.00  0.00     0.031 C 
ATOM     48  C   UNL     1      -3.776   3.165  -3.075  1.00  0.00     0.029 A 
ATOM     49  N   UNL     1      -5.255   4.740  -3.653  1.00  0.00    -0.354 N 
ATOM     50  C   UNL     1      -6.086   8.014  -0.803  1.00  0.00     0.074 A 
ATOM     51  C   UNL     1      -5.205   7.914   0.337  1.00  0.00     0.031 C 
ATOM     52  C   UNL     1      -4.344   2.778  -4.230  1.00  0.00     0.029 A 
ATOM     53  C   UNL     1      -5.364   3.752  -4.605  1.00  0.00     0.049 A 
ATOM     54  H   UNL     1      -5.767   5.580  -3.685  1.00  0.00     0.167 HD
ATOM     55  C   UNL     1      -7.043   8.956  -0.948  1.00  0.00     0.034 A 
ATOM     56  C   UNL     1      -6.219   3.654  -5.640  1.00  0.00     0.034 A 
ATOM     57  C   UNL     1      -7.871   9.033  -2.116  1.00  0.00     0.049 A 
ATOM     58  C   UNL     1      -7.234   4.756  -5.817  1.00  0.00     0.074 A 
ATOM     59  C   UNL     1      -8.802   9.993  -2.455  1.00  0.00     0.029 A 
ATOM     60  N   UNL     1      -7.864   8.092  -3.139  1.00  0.00    -0.354 N 
ATOM     61  N   UNL     1      -7.448   5.810  -5.063  1.00  0.00    -0.248 NA
ATOM     62  C   UNL     1      -8.107   4.672  -6.994  1.00  0.00     0.031 C 
ATOM     63  C   UNL     1      -9.378   9.617  -3.673  1.00  0.00     0.029 A 
ATOM     64  C   UNL     1      -8.782   8.440  -4.108  1.00  0.00     0.049 A 
ATOM     65  H   UNL     1      -7.287   7.295  -3.168  1.00  0.00     0.167 HD
ATOM     66  C   UNL     1      -8.450   6.538  -5.693  1.00  0.00     0.074 A 
ATOM     67  C   UNL     1      -8.791   5.806  -6.899  1.00  0.00     0.031 C 
ATOM     68  C   UNL     1      -9.047   7.697  -5.316  1.00  0.00     0.034 A 
BRANCH  55  69
ATOM     69  C   UNL     1      -7.212   9.952   0.168  1.00  0.00     0.023 A 
ATOM     70  C   UNL     1      -6.184  10.876   0.450  1.00  0.00     0.012 A 
ATOM     71  C   UNL     1      -8.379   9.960   0.955  1.00  0.00     0.148 A 
ATOM     72  C   UNL     1      -6.289  11.751   1.531  1.00  0.00     0.002 A 
ATOM     73  C   UNL     1      -8.501  10.873   1.995  1.00  0.00     0.091 A 
ATOM     74  F   UNL     1      -9.333   9.054   0.695  1.00  0.00    -0.205 F 
ATOM     75  C   UNL     1      -7.451  11.755   2.297  1.00  0.00     0.022 A 
BRANCH  73  76
ATOM     76  S   UNL     1      -9.989  11.015   2.990  1.00  0.00     0.127 S 
ATOM     77  O   UNL     1      -9.530  10.517   4.285  1.00  0.00    -0.237 OA
ATOM     78  O   UNL     1     -10.247  12.455   2.947  1.00  0.00    -0.237 OA
ATOM     79  O   UNL     1     -10.996  10.198   2.328  1.00  0.00    -0.744 OA
ENDBRANCH  73  76
ENDBRANCH  55  69
BRANCH  56  80
ATOM     80  C   UNL     1      -6.096   2.536  -6.619  1.00  0.00     0.023 A 
ATOM     81  C   UNL     1      -5.611   2.822  -7.911  1.00  0.00     0.012 A 
ATOM     82  C   UNL     1      -6.398   1.202  -6.283  1.00  0.00     0.148 A 
ATOM     83  C   UNL     1      -5.457   1.809  -8.858  1.00  0.00     0.002 A 
ATOM     84  C   UNL     1      -6.196   0.189  -7.217  1.00  0.00     0.091 A 
ATOM     85  F   UNL     1      -6.860   0.946  -5.051  1.00  0.00    -0.205 F 
ATOM     86  C   UNL     1      -5.741   0.492  -8.510  1.00  0.00     0.022 A 
BRANCH  84  87
ATOM     87  S   UNL     1      -6.413  -1.553  -6.828  1.00  0.00     0.127 S 
ATOM     88  O   UNL     1      -7.559  -1.907  -7.662  1.00  0.00    -0.237 OA
ATOM     89  O   UNL     1      -5.136  -2.120  -7.262  1.00  0.00    -0.237 OA
ATOM     90  O   UNL     1      -6.639  -1.612  -5.390  1.00  0.00    -0.744 OA
ENDBRANCH  84  87
ENDBRANCH  56  80
BRANCH  68  91
ATOM     91  C   UNL     1     -10.095   8.262  -6.233  1.00  0.00     0.023 A 
ATOM     92  C   UNL     1     -11.367   7.665  -6.297  1.00  0.00     0.012 A 
ATOM     93  C   UNL     1      -9.844   9.451  -6.945  1.00  0.00     0.148 A 
ATOM     94  C   UNL     1     -12.371   8.230  -7.081  1.00  0.00     0.002 A 
ATOM     95  C   UNL     1     -10.865  10.039  -7.678  1.00  0.00     0.091 A 
ATOM     96  F   UNL     1      -8.618   9.991  -6.878  1.00  0.00    -0.205 F 
ATOM     97  C   UNL     1     -12.125   9.423  -7.758  1.00  0.00     0.022 A 
BRANCH  95  98
ATOM     98  S   UNL     1     -10.672  11.630  -8.487  1.00  0.00     0.127 S 
ATOM     99  O   UNL     1     -10.663  11.246  -9.898  1.00  0.00    -0.237 OA
ATOM    100  O   UNL     1     -11.875  12.343  -8.055  1.00  0.00    -0.237 OA
ATOM    101  O   UNL     1      -9.424  12.189  -7.985  1.00  0.00    -0.744 OA
ENDBRANCH  95  98
ENDBRANCH  68  91
ENDBRANCH  42  43
ENDBRANCH  34  37
ENDBRANCH  32  33
ENDBRANCH  31  32
ENDBRANCH   1  31
TORSDOF 18
