REMARK SMILES Cc1c(CC(=O)NCCCNC(=O)c2ccc(-c3c4nc(c(-c5cccc(S(=O)(=O)[O-])c5F)c5ccc([nH]5)c(-c5cccc(S(=O)(=O)[O-])c5F)c5nc(c(-c6cccc(S(=O)(=O)[O-])c6F)c6ccc3[nH]6)C=C5)C=C4)cc2)cccc1-c1ccn(C(F)F)c(=O)c1
REMARK SMILES IDX 9 1 8 2 7 3 5 4 6 5 4 7 3 8 1 9 2 10 80 11 77 12 79 13 78 14
REMARK SMILES IDX 81 15 82 16 90 17 83 18 88 19 84 20 89 21 85 22 86 23 87 24
REMARK SMILES IDX 10 25 11 26 12 27 13 29 14 30 15 31 76 32 16 33 75 34 17 35
REMARK SMILES IDX 18 36 19 37 69 38 20 39 74 40 68 41 70 42 21 43 73 44 67 45
REMARK SMILES IDX 66 46 22 48 54 49 34 50 53 51 35 52 38 53 52 54 71 55 36 56
REMARK SMILES IDX 37 57 51 59 72 60 39 61 23 62 24 63 32 64 25 65 27 66 33 67
REMARK SMILES IDX 26 68 28 69 29 70 30 71 31 72 55 73 56 74 64 75 57 76 59 77
REMARK SMILES IDX 65 78 58 79 60 80 61 81 62 82 63 83 40 84 41 85 49 86 42 87
REMARK SMILES IDX 44 88 50 89 43 90 45 91 46 92 47 93 48 94
REMARK H PARENT 7 6 11 28 70 47 38 58
REMARK Flexibility Score: inf
ROOT
ATOM      1  C   UNL     1       1.395  -0.588   2.815  1.00  0.00     0.042 C 
ENDROOT
BRANCH   1   2
ATOM      2  C   UNL     1       2.064  -1.944   2.612  1.00  0.00     0.117 C 
BRANCH   2   3
ATOM      3  N   UNL     1       1.129  -2.992   2.230  1.00  0.00    -0.356 N 
ATOM      4  C   UNL     1       0.640  -3.319   0.995  1.00  0.00     0.224 C 
ATOM      5  O   UNL     1      -0.120  -4.286   0.897  1.00  0.00    -0.275 OA
ATOM      6  H   UNL     1       0.799  -3.549   2.972  1.00  0.00     0.163 HD
BRANCH   4   7
ATOM      7  C   UNL     1       1.037  -2.521  -0.245  1.00  0.00     0.135 C 
BRANCH   7   8
ATOM      8  C   UNL     1       0.358  -1.164  -0.345  1.00  0.00    -0.035 A 
ATOM      9  C   UNL     1       2.573   0.064  -0.597  1.00  0.00     0.045 C 
ATOM     10  C   UNL     1       1.072   0.062  -0.423  1.00  0.00    -0.040 A 
ATOM     11  C   UNL     1       0.350   1.284  -0.334  1.00  0.00    -0.015 A 
ATOM     12  C   UNL     1      -1.050  -1.140  -0.277  1.00  0.00     0.004 A 
ATOM     13  C   UNL     1      -1.052   1.266  -0.239  1.00  0.00     0.009 A 
ATOM     14  C   UNL     1      -1.748   0.062  -0.225  1.00  0.00     0.001 A 
BRANCH  11  15
ATOM     15  C   UNL     1       1.032   2.597  -0.248  1.00  0.00    -0.011 A 
ATOM     16  C   UNL     1       1.803   3.161  -1.340  1.00  0.00     0.027 A 
ATOM     17  C   UNL     1       0.996   3.249   0.929  1.00  0.00     0.080 A 
ATOM     18  C   UNL     1       2.553   4.252  -1.148  1.00  0.00     0.095 A 
ATOM     19  C   UNL     1       1.761   4.511   1.130  1.00  0.00     0.255 A 
ATOM     20  N   UNL     1       2.561   4.905   0.070  1.00  0.00    -0.258 N 
ATOM     21  O   UNL     1       1.659   5.101   2.200  1.00  0.00    -0.269 OA
BRANCH  20  22
ATOM     22  C   UNL     1       3.399   6.056   0.282  1.00  0.00     0.451 C 
ATOM     23  F   UNL     1       2.662   7.173   0.490  1.00  0.00    -0.185 F 
ATOM     24  F   UNL     1       4.218   5.882   1.348  1.00  0.00    -0.185 F 
ENDBRANCH  20  22
ENDBRANCH  11  15
ENDBRANCH   7   8
ENDBRANCH   4   7
ENDBRANCH   2   3
ENDBRANCH   1   2
BRANCH   1  25
ATOM     25  C   UNL     1       0.786  -0.390   4.192  1.00  0.00     0.118 C 
BRANCH  25  26
ATOM     26  N   UNL     1       1.482   0.599   5.000  1.00  0.00    -0.352 N 
ATOM     27  C   UNL     1       1.218   1.018   6.298  1.00  0.00     0.251 C 
ATOM     28  H   UNL     1       2.251   1.034   4.564  1.00  0.00     0.163 HD
ATOM     29  O   UNL     1       1.841   1.946   6.763  1.00  0.00    -0.269 OA
BRANCH  27  30
ATOM     30  C   UNL     1       0.254   0.240   7.119  1.00  0.00     0.039 A 
ATOM     31  C   UNL     1       0.664  -0.170   8.393  1.00  0.00     0.014 A 
ATOM     32  C   UNL     1      -0.930  -0.246   6.572  1.00  0.00     0.014 A 
ATOM     33  C   UNL     1       0.025  -1.245   9.009  1.00  0.00     0.010 A 
ATOM     34  C   UNL     1      -1.511  -1.363   7.134  1.00  0.00     0.010 A 
ATOM     35  C   UNL     1      -0.988  -1.902   8.316  1.00  0.00    -0.014 A 
BRANCH  35  36
ATOM     36  C   UNL     1      -1.505  -3.217   8.663  1.00  0.00     0.031 A 
ATOM     37  C   UNL     1      -2.801  -3.367   9.348  1.00  0.00     0.074 A 
ATOM     38  C   UNL     1      -0.886  -4.295   8.135  1.00  0.00     0.049 A 
ATOM     39  N   UNL     1      -3.210  -4.460   9.899  1.00  0.00    -0.248 NA
ATOM     40  C   UNL     1      -3.735  -2.260   9.487  1.00  0.00     0.031 C 
ATOM     41  C   UNL     1      -1.451  -5.623   7.935  1.00  0.00     0.029 A 
ATOM     42  N   UNL     1       0.477  -4.453   7.860  1.00  0.00    -0.354 N 
ATOM     43  C   UNL     1      -4.543  -4.293  10.212  1.00  0.00     0.074 A 
ATOM     44  C   UNL     1      -4.795  -2.885  10.008  1.00  0.00     0.031 C 
ATOM     45  C   UNL     1      -0.446  -6.506   7.846  1.00  0.00     0.029 A 
ATOM     46  C   UNL     1       0.779  -5.793   8.160  1.00  0.00     0.049 A 
ATOM     47  H   UNL     1       1.097  -3.766   7.526  1.00  0.00     0.167 HD
ATOM     48  C   UNL     1      -5.311  -5.393  10.462  1.00  0.00     0.034 A 
ATOM     49  C   UNL     1       1.705  -6.178   9.084  1.00  0.00     0.034 A 
ATOM     50  C   UNL     1      -4.500  -6.619  10.445  1.00  0.00     0.049 A 
ATOM     51  C   UNL     1       1.138  -7.072  10.171  1.00  0.00     0.074 A 
ATOM     52  C   UNL     1      -4.266  -7.584   9.477  1.00  0.00     0.029 A 
ATOM     53  N   UNL     1      -3.572  -6.844  11.453  1.00  0.00    -0.354 N 
ATOM     54  N   UNL     1      -0.127  -7.363  10.297  1.00  0.00    -0.248 NA
ATOM     55  C   UNL     1       1.945  -7.677  11.228  1.00  0.00     0.031 C 
ATOM     56  C   UNL     1      -3.133  -8.342   9.876  1.00  0.00     0.029 A 
ATOM     57  C   UNL     1      -2.694  -7.856  11.096  1.00  0.00     0.049 A 
ATOM     58  H   UNL     1      -3.542  -6.352  12.305  1.00  0.00     0.167 HD
ATOM     59  C   UNL     1      -0.338  -8.019  11.482  1.00  0.00     0.074 A 
ATOM     60  C   UNL     1       1.003  -8.279  11.976  1.00  0.00     0.031 C 
ATOM     61  C   UNL     1      -1.596  -8.219  11.986  1.00  0.00     0.034 A 
BRANCH  48  62
ATOM     62  C   UNL     1      -6.832  -5.421  10.402  1.00  0.00     0.023 A 
ATOM     63  C   UNL     1      -7.451  -6.667  10.145  1.00  0.00     0.012 A 
ATOM     64  C   UNL     1      -7.705  -4.315  10.496  1.00  0.00     0.148 A 
ATOM     65  C   UNL     1      -8.818  -6.791   9.871  1.00  0.00     0.002 A 
ATOM     66  C   UNL     1      -9.055  -4.420  10.142  1.00  0.00     0.091 A 
ATOM     67  F   UNL     1      -7.272  -3.171  11.031  1.00  0.00    -0.205 F 
ATOM     68  C   UNL     1      -9.614  -5.658   9.822  1.00  0.00     0.022 A 
BRANCH  66  69
ATOM     69  S   UNL     1     -10.116  -2.973   9.970  1.00  0.00     0.127 S 
ATOM     70  O   UNL     1     -10.722  -3.188   8.654  1.00  0.00    -0.237 OA
ATOM     71  O   UNL     1     -11.037  -3.121  11.094  1.00  0.00    -0.237 OA
ATOM     72  O   UNL     1      -9.229  -1.817  10.029  1.00  0.00    -0.744 OA
ENDBRANCH  66  69
ENDBRANCH  48  62
BRANCH  49  73
ATOM     73  C   UNL     1       2.830  -5.215   9.248  1.00  0.00     0.023 A 
ATOM     74  C   UNL     1       3.695  -5.052   8.140  1.00  0.00     0.012 A 
ATOM     75  C   UNL     1       2.821  -4.232  10.254  1.00  0.00     0.148 A 
ATOM     76  C   UNL     1       4.444  -3.887   7.978  1.00  0.00     0.002 A 
ATOM     77  C   UNL     1       3.567  -3.066  10.080  1.00  0.00     0.091 A 
ATOM     78  F   UNL     1       2.023  -4.409  11.314  1.00  0.00    -0.205 F 
ATOM     79  C   UNL     1       4.354  -2.880   8.931  1.00  0.00     0.022 A 
BRANCH  77  80
ATOM     80  S   UNL     1       3.442  -1.683  11.223  1.00  0.00     0.127 S 
ATOM     81  O   UNL     1       4.623  -1.885  12.056  1.00  0.00    -0.237 OA
ATOM     82  O   UNL     1       3.510  -0.531  10.324  1.00  0.00    -0.237 OA
ATOM     83  O   UNL     1       2.152  -1.854  11.874  1.00  0.00    -0.744 OA
ENDBRANCH  77  80
ENDBRANCH  49  73
BRANCH  61  84
ATOM     84  C   UNL     1      -1.923  -8.730  13.378  1.00  0.00     0.023 A 
ATOM     85  C   UNL     1      -1.026  -8.616  14.456  1.00  0.00     0.012 A 
ATOM     86  C   UNL     1      -3.226  -9.205  13.685  1.00  0.00     0.148 A 
ATOM     87  C   UNL     1      -1.377  -8.995  15.758  1.00  0.00     0.002 A 
ATOM     88  C   UNL     1      -3.605  -9.476  14.999  1.00  0.00     0.091 A 
ATOM     89  F   UNL     1      -4.112  -9.413  12.700  1.00  0.00    -0.205 F 
ATOM     90  C   UNL     1      -2.675  -9.401  16.035  1.00  0.00     0.022 A 
BRANCH  88  91
ATOM     91  S   UNL     1      -5.333  -9.767  15.407  1.00  0.00     0.127 S 
ATOM     92  O   UNL     1      -5.462 -11.207  15.201  1.00  0.00    -0.237 OA
ATOM     93  O   UNL     1      -5.408  -9.346  16.808  1.00  0.00    -0.237 OA
ATOM     94  O   UNL     1      -6.073  -8.911  14.490  1.00  0.00    -0.744 OA
ENDBRANCH  88  91
ENDBRANCH  61  84
ENDBRANCH  35  36
ENDBRANCH  27  30
ENDBRANCH  25  26
ENDBRANCH   1  25
TORSDOF 16
