REMARK SMILES Cc1c(CC(=O)NCCCNC(=O)c2ccc(-c3c4nc(c(-c5cccc(S(=O)(=O)[O-])c5F)c5ccc([nH]5)c(-c5cccc(S(=O)(=O)[O-])c5F)c5nc(c(-c6cccc(S(=O)(=O)[O-])c6F)c6ccc3[nH]6)C=C5)C=C4)cc2)c2cc(O)ccc2n1C(=O)c1ccc(Cl)cc1
REMARK SMILES IDX 9 1 8 2 7 3 5 4 6 5 4 7 3 8 1 9 2 10 84 11 77 12 83 13 78 14
REMARK SMILES IDX 82 15 79 16 81 17 85 18 86 19 87 20 88 21 93 22 89 23 92 24
REMARK SMILES IDX 90 25 91 26 80 27 10 29 11 30 12 31 13 33 14 34 15 35 76 36
REMARK SMILES IDX 16 37 75 38 17 39 18 40 19 41 69 42 20 43 74 44 68 45 70 46
REMARK SMILES IDX 21 47 73 48 67 49 66 50 22 52 54 53 34 54 53 55 35 56 38 57
REMARK SMILES IDX 52 58 71 59 36 60 37 61 51 63 72 64 39 65 23 66 24 67 32 68
REMARK SMILES IDX 25 69 27 70 33 71 26 72 28 73 29 74 30 75 31 76 55 77 56 78
REMARK SMILES IDX 64 79 57 80 59 81 65 82 58 83 60 84 61 85 62 86 63 87 40 88
REMARK SMILES IDX 41 89 49 90 42 91 44 92 50 93 43 94 45 95 46 96 47 97 48 98
REMARK H PARENT 7 6 80 28 11 32 70 51 38 62
REMARK Flexibility Score: inf
ROOT
ATOM      1  C   UNL     1       3.934  -0.571   2.470  1.00  0.00     0.042 C 
ENDROOT
BRANCH   1   2
ATOM      2  C   UNL     1       3.767  -1.550   1.304  1.00  0.00     0.117 C 
BRANCH   2   3
ATOM      3  N   UNL     1       3.401  -2.887   1.742  1.00  0.00    -0.356 N 
ATOM      4  C   UNL     1       2.207  -3.538   1.629  1.00  0.00     0.224 C 
ATOM      5  O   UNL     1       2.133  -4.695   2.051  1.00  0.00    -0.275 OA
ATOM      6  H   UNL     1       4.118  -3.396   2.184  1.00  0.00     0.163 HD
BRANCH   4   7
ATOM      7  C   UNL     1       1.026  -2.870   0.944  1.00  0.00     0.138 C 
BRANCH   7   8
ATOM      8  C   UNL     1       0.496  -1.681   1.692  1.00  0.00    -0.009 A 
ATOM      9  C   UNL     1       0.607   0.114  -0.179  1.00  0.00     0.065 C 
ATOM     10  C   UNL     1       0.336  -0.390   1.206  1.00  0.00     0.028 A 
ATOM     11  N   UNL     1      -0.083   0.444   2.256  1.00  0.00    -0.280 N 
ATOM     12  C   UNL     1       0.018  -1.685   3.032  1.00  0.00     0.008 A 
ATOM     13  C   UNL     1      -0.408  -0.387   3.343  1.00  0.00     0.057 A 
ATOM     14  C   UNL     1      -0.103  -2.708   4.000  1.00  0.00     0.056 A 
ATOM     15  C   UNL     1      -1.024  -0.133   4.588  1.00  0.00     0.031 A 
ATOM     16  C   UNL     1      -0.643  -2.420   5.248  1.00  0.00     0.116 A 
ATOM     17  C   UNL     1      -1.109  -1.153   5.542  1.00  0.00     0.048 A 
BRANCH  11  18
ATOM     18  C   UNL     1      -0.152   1.870   2.190  1.00  0.00     0.262 C 
ATOM     19  O   UNL     1       0.164   2.422   1.145  1.00  0.00    -0.268 OA
BRANCH  18  20
ATOM     20  C   UNL     1      -0.590   2.766   3.278  1.00  0.00     0.040 A 
ATOM     21  C   UNL     1       0.115   2.850   4.483  1.00  0.00     0.015 A 
ATOM     22  C   UNL     1      -1.729   3.549   3.063  1.00  0.00     0.015 A 
ATOM     23  C   UNL     1      -0.392   3.642   5.517  1.00  0.00     0.021 A 
ATOM     24  C   UNL     1      -2.221   4.352   4.093  1.00  0.00     0.021 A 
ATOM     25  C   UNL     1      -1.566   4.374   5.323  1.00  0.00     0.041 A 
ATOM     26  Cl  UNL     1      -2.227   5.284   6.626  1.00  0.00    -0.084 Cl
ENDBRANCH  18  20
ENDBRANCH  11  18
BRANCH  16  27
ATOM     27  O   UNL     1      -0.711  -3.431   6.162  1.00  0.00    -0.508 OA
ATOM     28  H   UNL     1      -0.389  -4.283   5.942  1.00  0.00     0.293 HD
ENDBRANCH  16  27
ENDBRANCH   7   8
ENDBRANCH   4   7
ENDBRANCH   2   3
ENDBRANCH   1   2
BRANCH   1  29
ATOM     29  C   UNL     1       5.090  -0.928   3.405  1.00  0.00     0.118 C 
BRANCH  29  30
ATOM     30  N   UNL     1       6.368  -1.057   2.732  1.00  0.00    -0.352 N 
ATOM     31  C   UNL     1       7.404  -0.224   2.425  1.00  0.00     0.251 C 
ATOM     32  H   UNL     1       6.528  -1.977   2.419  1.00  0.00     0.163 HD
ATOM     33  O   UNL     1       8.388  -0.775   1.922  1.00  0.00    -0.269 OA
BRANCH  31  34
ATOM     34  C   UNL     1       7.408   1.256   2.575  1.00  0.00     0.039 A 
ATOM     35  C   UNL     1       6.393   2.023   3.147  1.00  0.00     0.014 A 
ATOM     36  C   UNL     1       8.521   1.918   2.017  1.00  0.00     0.014 A 
ATOM     37  C   UNL     1       6.433   3.412   3.056  1.00  0.00     0.010 A 
ATOM     38  C   UNL     1       8.572   3.303   1.936  1.00  0.00     0.010 A 
ATOM     39  C   UNL     1       7.496   4.045   2.402  1.00  0.00    -0.014 A 
BRANCH  39  40
ATOM     40  C   UNL     1       7.487   5.502   2.314  1.00  0.00     0.031 A 
ATOM     41  C   UNL     1       7.514   6.195   3.633  1.00  0.00     0.074 A 
ATOM     42  C   UNL     1       7.541   6.175   1.145  1.00  0.00     0.049 A 
ATOM     43  N   UNL     1       6.582   6.918   4.164  1.00  0.00    -0.248 NA
ATOM     44  C   UNL     1       8.653   5.933   4.527  1.00  0.00     0.031 C 
ATOM     45  C   UNL     1       7.779   5.642  -0.199  1.00  0.00     0.029 A 
ATOM     46  N   UNL     1       7.508   7.521   0.931  1.00  0.00    -0.354 N 
ATOM     47  C   UNL     1       7.106   7.382   5.369  1.00  0.00     0.074 A 
ATOM     48  C   UNL     1       8.307   6.625   5.614  1.00  0.00     0.031 C 
ATOM     49  C   UNL     1       8.119   6.655  -1.029  1.00  0.00     0.029 A 
ATOM     50  C   UNL     1       7.987   7.914  -0.319  1.00  0.00     0.049 A 
ATOM     51  H   UNL     1       7.176   8.161   1.601  1.00  0.00     0.167 HD
ATOM     52  C   UNL     1       6.637   8.505   5.978  1.00  0.00     0.034 A 
ATOM     53  C   UNL     1       8.316   9.178  -0.694  1.00  0.00     0.034 A 
ATOM     54  C   UNL     1       5.370   8.922   5.447  1.00  0.00     0.049 A 
ATOM     55  C   UNL     1       7.595  10.091   0.223  1.00  0.00     0.074 A 
ATOM     56  C   UNL     1       4.109   8.367   5.381  1.00  0.00     0.029 A 
ATOM     57  N   UNL     1       5.391   9.934   4.519  1.00  0.00    -0.354 N 
ATOM     58  N   UNL     1       6.297  10.205   0.254  1.00  0.00    -0.248 NA
ATOM     59  C   UNL     1       8.301  10.566   1.401  1.00  0.00     0.031 C 
ATOM     60  C   UNL     1       3.614   8.742   4.099  1.00  0.00     0.029 A 
ATOM     61  C   UNL     1       4.574   9.552   3.489  1.00  0.00     0.049 A 
ATOM     62  H   UNL     1       5.897  10.775   4.582  1.00  0.00     0.167 HD
ATOM     63  C   UNL     1       6.000  10.332   1.603  1.00  0.00     0.074 A 
ATOM     64  C   UNL     1       7.273  10.645   2.250  1.00  0.00     0.031 C 
ATOM     65  C   UNL     1       4.813   9.889   2.105  1.00  0.00     0.034 A 
BRANCH  52  66
ATOM     66  C   UNL     1       7.478   9.427   6.818  1.00  0.00     0.023 A 
ATOM     67  C   UNL     1       6.824  10.356   7.654  1.00  0.00     0.012 A 
ATOM     68  C   UNL     1       8.866   9.600   6.613  1.00  0.00     0.148 A 
ATOM     69  C   UNL     1       7.519  11.415   8.251  1.00  0.00     0.002 A 
ATOM     70  C   UNL     1       9.563  10.613   7.258  1.00  0.00     0.091 A 
ATOM     71  F   UNL     1       9.492   8.862   5.690  1.00  0.00    -0.205 F 
ATOM     72  C   UNL     1       8.892  11.536   8.062  1.00  0.00     0.022 A 
BRANCH  70  73
ATOM     73  S   UNL     1      11.338  10.810   7.062  1.00  0.00     0.127 S 
ATOM     74  O   UNL     1      11.408  12.021   6.249  1.00  0.00    -0.237 OA
ATOM     75  O   UNL     1      11.775  10.967   8.449  1.00  0.00    -0.237 OA
ATOM     76  O   UNL     1      11.798   9.583   6.424  1.00  0.00    -0.744 OA
ENDBRANCH  70  73
ENDBRANCH  52  66
BRANCH  53  77
ATOM     77  C   UNL     1       9.419   9.677  -1.561  1.00  0.00     0.023 A 
ATOM     78  C   UNL     1       9.438  11.043  -1.926  1.00  0.00     0.012 A 
ATOM     79  C   UNL     1      10.599   8.929  -1.761  1.00  0.00     0.148 A 
ATOM     80  C   UNL     1      10.606  11.656  -2.400  1.00  0.00     0.002 A 
ATOM     81  C   UNL     1      11.756   9.541  -2.243  1.00  0.00     0.091 A 
ATOM     82  F   UNL     1      10.624   7.644  -1.389  1.00  0.00    -0.205 F 
ATOM     83  C   UNL     1      11.769  10.908  -2.544  1.00  0.00     0.022 A 
BRANCH  81  84
ATOM     84  S   UNL     1      13.299   8.638  -2.441  1.00  0.00     0.127 S 
ATOM     85  O   UNL     1      13.760   9.102  -3.750  1.00  0.00    -0.237 OA
ATOM     86  O   UNL     1      14.082   9.123  -1.308  1.00  0.00    -0.237 OA
ATOM     87  O   UNL     1      12.937   7.226  -2.403  1.00  0.00    -0.744 OA
ENDBRANCH  81  84
ENDBRANCH  53  77
BRANCH  65  88
ATOM     88  C   UNL     1       3.741   9.472   1.133  1.00  0.00     0.023 A 
ATOM     89  C   UNL     1       3.847   8.302   0.350  1.00  0.00     0.012 A 
ATOM     90  C   UNL     1       2.518  10.159   1.176  1.00  0.00     0.148 A 
ATOM     91  C   UNL     1       2.748   7.827  -0.371  1.00  0.00     0.002 A 
ATOM     92  C   UNL     1       1.419   9.663   0.488  1.00  0.00     0.091 A 
ATOM     93  F   UNL     1       2.443  11.261   1.937  1.00  0.00    -0.205 F 
ATOM     94  C   UNL     1       1.530   8.499  -0.290  1.00  0.00     0.022 A 
BRANCH  92  95
ATOM     95  S   UNL     1      -0.203  10.413   0.639  1.00  0.00     0.127 S 
ATOM     96  O   UNL     1      -0.433  10.921  -0.712  1.00  0.00    -0.237 OA
ATOM     97  O   UNL     1      -1.039   9.271   1.014  1.00  0.00    -0.237 OA
ATOM     98  O   UNL     1      -0.086  11.434   1.673  1.00  0.00    -0.744 OA
ENDBRANCH  92  95
ENDBRANCH  65  88
ENDBRANCH  39  40
ENDBRANCH  31  34
ENDBRANCH  29  30
ENDBRANCH   1  29
TORSDOF 17
