REMARK SMILES C[C@H](NC(=O)CCn1ccccc1=O)C(=O)NCCCNC(=O)c1ccc(-c2c3nc(c(-c4cccc(S(=O)(=O)[O-])c4F)c4ccc([nH]4)c(-c4cccc(S(=O)(=O)[O-])c4F)c4nc(c(-c5cccc(S(=O)(=O)[O-])c5F)c5ccc2[nH]5)C=C4)C=C3)cc1
REMARK SMILES IDX 18 1 17 2 15 3 16 4 2 6 1 7 3 8 4 9 5 11 6 12 7 13 8 14 9 15
REMARK SMILES IDX 13 16 10 17 12 18 14 19 11 20 19 21 20 22 21 23 22 24 23 26
REMARK SMILES IDX 24 27 25 28 86 29 26 30 85 31 27 32 28 33 29 34 79 35 30 36
REMARK SMILES IDX 84 37 78 38 80 39 31 40 83 41 77 42 76 43 32 45 64 46 44 47
REMARK SMILES IDX 63 48 45 49 48 50 62 51 81 52 46 53 47 54 61 56 82 57 49 58
REMARK SMILES IDX 33 59 34 60 42 61 35 62 37 63 43 64 36 65 38 66 39 67 40 68
REMARK SMILES IDX 41 69 65 70 66 71 74 72 67 73 69 74 75 75 68 76 70 77 71 78
REMARK SMILES IDX 72 79 73 80 50 81 51 82 59 83 52 84 54 85 60 86 53 87 55 88
REMARK SMILES IDX 56 89 57 90 58 91
REMARK H PARENT 17 5 3 10 21 25 80 44 48 55
REMARK Flexibility Score: inf
ROOT
ATOM      1  C   UNL     1      -1.097  -1.484  -0.948  1.00  0.00     0.117 C 
ENDROOT
BRANCH   1   2
ATOM      2  N   UNL     1      -1.613  -0.267  -0.344  1.00  0.00    -0.354 N 
ATOM      3  C   UNL     1      -0.974   0.821   0.170  1.00  0.00     0.242 C 
ATOM      4  O   UNL     1      -1.688   1.725   0.617  1.00  0.00    -0.273 OA
ATOM      5  H   UNL     1      -2.595  -0.220  -0.299  1.00  0.00     0.163 HD
BRANCH   3   6
ATOM      6  C   UNL     1       0.546   1.057  -0.028  1.00  0.00     0.168 C 
ATOM      7  C   UNL     1       0.677   1.781  -1.353  1.00  0.00     0.041 C 
BRANCH   6   8
ATOM      8  N   UNL     1       1.349  -0.153   0.193  1.00  0.00    -0.345 N 
ATOM      9  C   UNL     1       2.394  -0.786  -0.389  1.00  0.00     0.222 C 
ATOM     10  H   UNL     1       1.038  -0.643   0.989  1.00  0.00     0.164 HD
ATOM     11  O   UNL     1       2.767  -1.836   0.146  1.00  0.00    -0.275 OA
BRANCH   9  12
ATOM     12  C   UNL     1       3.122  -0.288  -1.613  1.00  0.00     0.122 C 
BRANCH  12  13
ATOM     13  C   UNL     1       2.832  -1.131  -2.865  1.00  0.00     0.135 C 
BRANCH  13  14
ATOM     14  N   UNL     1       1.744  -0.608  -3.704  1.00  0.00    -0.315 N 
ATOM     15  C   UNL     1       1.897   0.626  -4.324  1.00  0.00     0.089 A 
ATOM     16  C   UNL     1       0.587  -1.371  -3.875  1.00  0.00     0.250 A 
ATOM     17  C   UNL     1       0.887   1.198  -4.993  1.00  0.00     0.018 A 
ATOM     18  C   UNL     1      -0.544  -0.696  -4.571  1.00  0.00     0.072 A 
ATOM     19  O   UNL     1       0.420  -2.510  -3.449  1.00  0.00    -0.269 OA
ATOM     20  C   UNL     1      -0.389   0.534  -5.074  1.00  0.00     0.007 A 
ENDBRANCH  13  14
ENDBRANCH  12  13
ENDBRANCH   9  12
ENDBRANCH   6   8
ENDBRANCH   3   6
ENDBRANCH   1   2
BRANCH   1  21
ATOM     21  C   UNL     1      -1.181  -2.664   0.007  1.00  0.00     0.042 C 
BRANCH  21  22
ATOM     22  C   UNL     1      -2.611  -3.142   0.214  1.00  0.00     0.118 C 
BRANCH  22  23
ATOM     23  N   UNL     1      -3.161  -3.857  -0.932  1.00  0.00    -0.352 N 
ATOM     24  C   UNL     1      -3.966  -4.980  -0.933  1.00  0.00     0.251 C 
ATOM     25  H   UNL     1      -2.928  -3.494  -1.817  1.00  0.00     0.163 HD
ATOM     26  O   UNL     1      -4.282  -5.519  -1.980  1.00  0.00    -0.269 OA
BRANCH  24  27
ATOM     27  C   UNL     1      -4.387  -5.543   0.371  1.00  0.00     0.039 A 
ATOM     28  C   UNL     1      -4.890  -4.703   1.363  1.00  0.00     0.014 A 
ATOM     29  C   UNL     1      -4.165  -6.896   0.635  1.00  0.00     0.014 A 
ATOM     30  C   UNL     1      -4.962  -5.164   2.670  1.00  0.00     0.010 A 
ATOM     31  C   UNL     1      -4.348  -7.384   1.933  1.00  0.00     0.010 A 
ATOM     32  C   UNL     1      -4.685  -6.508   2.977  1.00  0.00    -0.014 A 
BRANCH  32  33
ATOM     33  C   UNL     1      -4.752  -6.954   4.395  1.00  0.00     0.031 A 
ATOM     34  C   UNL     1      -3.540  -7.506   5.104  1.00  0.00     0.074 A 
ATOM     35  C   UNL     1      -5.907  -6.793   5.072  1.00  0.00     0.049 A 
ATOM     36  N   UNL     1      -3.428  -7.892   6.350  1.00  0.00    -0.248 NA
ATOM     37  C   UNL     1      -2.299  -7.652   4.325  1.00  0.00     0.031 C 
ATOM     38  C   UNL     1      -7.156  -6.289   4.493  1.00  0.00     0.029 A 
ATOM     39  N   UNL     1      -6.217  -7.004   6.391  1.00  0.00    -0.354 N 
ATOM     40  C   UNL     1      -2.130  -8.371   6.490  1.00  0.00     0.074 A 
ATOM     41  C   UNL     1      -1.487  -8.227   5.203  1.00  0.00     0.031 C 
ATOM     42  C   UNL     1      -8.072  -6.164   5.463  1.00  0.00     0.029 A 
ATOM     43  C   UNL     1      -7.502  -6.642   6.718  1.00  0.00     0.049 A 
ATOM     44  H   UNL     1      -5.580  -7.380   7.042  1.00  0.00     0.167 HD
ATOM     45  C   UNL     1      -1.524  -8.866   7.595  1.00  0.00     0.034 A 
ATOM     46  C   UNL     1      -8.160  -6.690   7.892  1.00  0.00     0.034 A 
ATOM     47  C   UNL     1      -2.139  -8.941   8.892  1.00  0.00     0.049 A 
ATOM     48  C   UNL     1      -7.454  -7.212   9.106  1.00  0.00     0.074 A 
ATOM     49  C   UNL     1      -1.581  -9.382  10.079  1.00  0.00     0.029 A 
ATOM     50  N   UNL     1      -3.439  -8.559   9.177  1.00  0.00    -0.354 N 
ATOM     51  N   UNL     1      -6.209  -7.599   9.226  1.00  0.00    -0.248 NA
ATOM     52  C   UNL     1      -8.236  -7.300  10.347  1.00  0.00     0.031 C 
ATOM     53  C   UNL     1      -2.546  -9.270  11.084  1.00  0.00     0.029 A 
ATOM     54  C   UNL     1      -3.702  -8.752  10.522  1.00  0.00     0.049 A 
ATOM     55  H   UNL     1      -4.081  -8.203   8.521  1.00  0.00     0.167 HD
ATOM     56  C   UNL     1      -6.053  -7.970  10.554  1.00  0.00     0.074 A 
ATOM     57  C   UNL     1      -7.325  -7.740  11.207  1.00  0.00     0.031 C 
ATOM     58  C   UNL     1      -4.957  -8.475  11.169  1.00  0.00     0.034 A 
BRANCH  45  59
ATOM     59  C   UNL     1      -0.094  -9.322   7.482  1.00  0.00     0.023 A 
ATOM     60  C   UNL     1       0.938  -8.364   7.506  1.00  0.00     0.012 A 
ATOM     61  C   UNL     1       0.230 -10.693   7.477  1.00  0.00     0.148 A 
ATOM     62  C   UNL     1       2.274  -8.763   7.519  1.00  0.00     0.002 A 
ATOM     63  C   UNL     1       1.563 -11.084   7.520  1.00  0.00     0.091 A 
ATOM     64  F   UNL     1      -0.771 -11.585   7.446  1.00  0.00    -0.205 F 
ATOM     65  C   UNL     1       2.586 -10.120   7.537  1.00  0.00     0.022 A 
BRANCH  63  66
ATOM     66  S   UNL     1       2.074 -12.805   7.607  1.00  0.00     0.127 S 
ATOM     67  O   UNL     1       2.765 -12.972   6.329  1.00  0.00    -0.237 OA
ATOM     68  O   UNL     1       2.951 -12.805   8.778  1.00  0.00    -0.237 OA
ATOM     69  O   UNL     1       0.852 -13.582   7.756  1.00  0.00    -0.744 OA
ENDBRANCH  63  66
ENDBRANCH  45  59
BRANCH  46  70
ATOM     70  C   UNL     1      -9.555  -6.179   7.960  1.00  0.00     0.023 A 
ATOM     71  C   UNL     1      -9.804  -4.937   8.573  1.00  0.00     0.012 A 
ATOM     72  C   UNL     1     -10.613  -6.865   7.332  1.00  0.00     0.148 A 
ATOM     73  C   UNL     1     -11.085  -4.386   8.561  1.00  0.00     0.002 A 
ATOM     74  C   UNL     1     -11.875  -6.289   7.282  1.00  0.00     0.091 A 
ATOM     75  F   UNL     1     -10.347  -8.048   6.761  1.00  0.00    -0.205 F 
ATOM     76  C   UNL     1     -12.116  -5.054   7.904  1.00  0.00     0.022 A 
BRANCH  74  77
ATOM     77  S   UNL     1     -13.231  -7.013   6.353  1.00  0.00     0.127 S 
ATOM     78  O   UNL     1     -14.172  -7.354   7.417  1.00  0.00    -0.237 OA
ATOM     79  O   UNL     1     -13.641  -5.895   5.503  1.00  0.00    -0.237 OA
ATOM     80  O   UNL     1     -12.661  -8.143   5.633  1.00  0.00    -0.744 OA
ENDBRANCH  74  77
ENDBRANCH  46  70
BRANCH  58  81
ATOM     81  C   UNL     1      -5.061  -8.816  12.627  1.00  0.00     0.023 A 
ATOM     82  C   UNL     1      -5.659 -10.033  13.007  1.00  0.00     0.012 A 
ATOM     83  C   UNL     1      -4.450  -8.003  13.601  1.00  0.00     0.148 A 
ATOM     84  C   UNL     1      -5.650 -10.436  14.341  1.00  0.00     0.002 A 
ATOM     85  C   UNL     1      -4.417  -8.427  14.924  1.00  0.00     0.091 A 
ATOM     86  F   UNL     1      -3.895  -6.847  13.210  1.00  0.00    -0.205 F 
ATOM     87  C   UNL     1      -5.019  -9.641  15.296  1.00  0.00     0.022 A 
BRANCH  85  88
ATOM     88  S   UNL     1      -3.566  -7.512  16.214  1.00  0.00     0.127 S 
ATOM     89  O   UNL     1      -4.676  -7.115  17.079  1.00  0.00    -0.237 OA
ATOM     90  O   UNL     1      -2.683  -8.530  16.782  1.00  0.00    -0.237 OA
ATOM     91  O   UNL     1      -2.880  -6.413  15.547  1.00  0.00    -0.744 OA
ENDBRANCH  85  88
ENDBRANCH  58  81
ENDBRANCH  32  33
ENDBRANCH  24  27
ENDBRANCH  22  23
ENDBRANCH  21  22
ENDBRANCH   1  21
TORSDOF 17
