REMARK SMILES CC1(C)S[C@H](c2ccc(-c3cccc([N+](=O)[O-])c3)o2)[NH2+][C@@H]1C(=O)NCCCNC(=O)c1ccc(-c2c3nc(c(-c4cccc(S(=O)(=O)[O-])c4F)c4ccc([nH]4)c(-c4cccc(S(=O)(=O)[O-])c4F)c4nc(c(-c5cccc(S(=O)(=O)[O-])c5F)c5ccc2[nH]5)C=C4)C=C3)cc1
REMARK SMILES IDX 26 1 25 2 24 3 22 4 23 5 21 7 1 8 2 9 3 10 4 11 5 12 20 13
REMARK SMILES IDX 6 16 7 17 19 18 8 19 9 20 10 21 11 22 18 23 12 24 14 25
REMARK SMILES IDX 13 26 15 27 16 28 17 29 27 30 28 31 29 32 30 34 31 35 32 36
REMARK SMILES IDX 93 37 33 38 92 39 34 40 35 41 36 42 86 43 37 44 91 45 85 46
REMARK SMILES IDX 87 47 38 48 90 49 84 50 83 51 39 53 71 54 51 55 70 56 52 57
REMARK SMILES IDX 55 58 69 59 88 60 53 61 54 62 68 64 89 65 56 66 40 67 41 68
REMARK SMILES IDX 49 69 42 70 44 71 50 72 43 73 45 74 46 75 47 76 48 77 72 78
REMARK SMILES IDX 73 79 81 80 74 81 76 82 82 83 75 84 77 85 78 86 79 87 80 88
REMARK SMILES IDX 57 89 58 90 66 91 59 92 61 93 67 94 60 95 62 96 63 97 64 98
REMARK SMILES IDX 65 99
REMARK H PARENT 24 6 20 14 20 15 28 33 87 52 55 63
REMARK Flexibility Score: inf
ROOT
ATOM      1  C   UNL     1      -2.916   4.116  -2.259  1.00  0.00     0.042 C 
ENDROOT
BRANCH   1   2
ATOM      2  C   UNL     1      -2.299   2.853  -1.692  1.00  0.00     0.118 C 
BRANCH   2   3
ATOM      3  N   UNL     1      -1.219   2.311  -2.496  1.00  0.00    -0.351 N 
ATOM      4  C   UNL     1      -0.307   1.358  -2.108  1.00  0.00     0.279 C 
ATOM      5  O   UNL     1       0.423   0.886  -2.979  1.00  0.00    -0.268 OA
ATOM      6  H   UNL     1      -1.131   2.661  -3.412  1.00  0.00     0.163 HD
BRANCH   4   7
ATOM      7  C   UNL     1      -0.183   1.038  -0.596  1.00  0.00     0.289 C 
ATOM      8  C   UNL     1       1.267   0.292   1.338  1.00  0.00     0.030 C 
ATOM      9  C   UNL     1       0.881   0.014  -0.132  1.00  0.00     0.078 C 
ATOM     10  C   UNL     1       2.169  -0.074  -0.951  1.00  0.00     0.030 C 
ATOM     11  S   UNL     1       0.003  -1.586  -0.195  1.00  0.00    -0.078 SA
ATOM     12  C   UNL     1      -1.639  -0.835  -0.201  1.00  0.00     0.311 C 
ATOM     13  N   UNL     1      -1.502   0.613  -0.032  1.00  0.00    -0.317 N 
ATOM     14  H   UNL     1      -1.544   0.849   0.960  1.00  0.00     0.348 HD
ATOM     15  H   UNL     1      -2.260   1.093  -0.518  1.00  0.00     0.348 HD
BRANCH  12  16
ATOM     16  C   UNL     1      -2.474  -1.283  -1.362  1.00  0.00     0.172 A 
ATOM     17  C   UNL     1      -3.231  -2.428  -1.537  1.00  0.00     0.054 A 
ATOM     18  O   UNL     1      -2.607  -0.481  -2.468  1.00  0.00    -0.454 OA
ATOM     19  C   UNL     1      -3.873  -2.309  -2.788  1.00  0.00     0.051 A 
ATOM     20  C   UNL     1      -3.470  -1.105  -3.326  1.00  0.00     0.134 A 
BRANCH  20  21
ATOM     21  C   UNL     1      -3.826  -0.398  -4.549  1.00  0.00     0.024 A 
ATOM     22  C   UNL     1      -2.873   0.304  -5.301  1.00  0.00     0.012 A 
ATOM     23  C   UNL     1      -5.155  -0.427  -5.000  1.00  0.00     0.097 A 
ATOM     24  C   UNL     1      -3.237   0.971  -6.478  1.00  0.00     0.008 A 
ATOM     25  C   UNL     1      -5.518   0.252  -6.172  1.00  0.00     0.270 A 
ATOM     26  C   UNL     1      -4.562   0.952  -6.917  1.00  0.00     0.085 A 
BRANCH  25  27
ATOM     27  N   UNL     1      -6.921   0.244  -6.605  1.00  0.00     0.062 N 
ATOM     28  O   UNL     1      -7.257   1.048  -7.487  1.00  0.00    -0.258 OA
ATOM     29  O   UNL     1      -7.672  -0.609  -6.107  1.00  0.00    -0.258 OA
ENDBRANCH  25  27
ENDBRANCH  20  21
ENDBRANCH  12  16
ENDBRANCH   4   7
ENDBRANCH   2   3
ENDBRANCH   1   2
BRANCH   1  30
ATOM     30  C   UNL     1      -3.550   3.960  -3.632  1.00  0.00     0.118 C 
BRANCH  30  31
ATOM     31  N   UNL     1      -4.647   3.006  -3.682  1.00  0.00    -0.352 N 
ATOM     32  C   UNL     1      -5.863   3.099  -4.327  1.00  0.00     0.251 C 
ATOM     33  H   UNL     1      -4.501   2.172  -3.181  1.00  0.00     0.163 HD
ATOM     34  O   UNL     1      -6.700   2.223  -4.181  1.00  0.00    -0.269 OA
BRANCH  32  35
ATOM     35  C   UNL     1      -6.170   4.286  -5.161  1.00  0.00     0.039 A 
ATOM     36  C   UNL     1      -7.443   4.850  -5.056  1.00  0.00     0.014 A 
ATOM     37  C   UNL     1      -5.202   4.890  -5.964  1.00  0.00     0.014 A 
ATOM     38  C   UNL     1      -7.690   6.099  -5.625  1.00  0.00     0.010 A 
ATOM     39  C   UNL     1      -5.412   6.180  -6.435  1.00  0.00     0.010 A 
ATOM     40  C   UNL     1      -6.647   6.812  -6.239  1.00  0.00    -0.014 A 
BRANCH  40  41
ATOM     41  C   UNL     1      -6.805   8.248  -6.577  1.00  0.00     0.031 A 
ATOM     42  C   UNL     1      -6.643   8.730  -7.989  1.00  0.00     0.074 A 
ATOM     43  C   UNL     1      -6.991   9.132  -5.573  1.00  0.00     0.049 A 
ATOM     44  N   UNL     1      -6.723   9.950  -8.453  1.00  0.00    -0.248 NA
ATOM     45  C   UNL     1      -6.314   7.721  -9.009  1.00  0.00     0.031 C 
ATOM     46  C   UNL     1      -7.045   8.793  -4.146  1.00  0.00     0.029 A 
ATOM     47  N   UNL     1      -7.151  10.494  -5.590  1.00  0.00    -0.354 N 
ATOM     48  C   UNL     1      -6.427   9.860  -9.807  1.00  0.00     0.074 A 
ATOM     49  C   UNL     1      -6.121   8.473 -10.082  1.00  0.00     0.031 C 
ATOM     50  C   UNL     1      -7.254   9.909  -3.432  1.00  0.00     0.029 A 
ATOM     51  C   UNL     1      -7.320  11.047  -4.341  1.00  0.00     0.049 A 
ATOM     52  H   UNL     1      -7.146  11.027  -6.418  1.00  0.00     0.167 HD
ATOM     53  C   UNL     1      -6.446  10.838 -10.744  1.00  0.00     0.034 A 
ATOM     54  C   UNL     1      -7.515  12.327  -3.969  1.00  0.00     0.034 A 
ATOM     55  C   UNL     1      -6.796  12.204 -10.467  1.00  0.00     0.049 A 
ATOM     56  C   UNL     1      -7.604  13.381  -5.038  1.00  0.00     0.074 A 
ATOM     57  C   UNL     1      -6.934  13.255 -11.356  1.00  0.00     0.029 A 
ATOM     58  N   UNL     1      -7.063  12.711  -9.204  1.00  0.00    -0.354 N 
ATOM     59  N   UNL     1      -7.495  13.246  -6.338  1.00  0.00    -0.248 NA
ATOM     60  C   UNL     1      -7.882  14.754  -4.597  1.00  0.00     0.031 C 
ATOM     61  C   UNL     1      -7.271  14.401 -10.627  1.00  0.00     0.029 A 
ATOM     62  C   UNL     1      -7.362  14.059  -9.287  1.00  0.00     0.049 A 
ATOM     63  H   UNL     1      -7.043  12.187  -8.370  1.00  0.00     0.167 HD
ATOM     64  C   UNL     1      -7.722  14.508  -6.872  1.00  0.00     0.074 A 
ATOM     65  C   UNL     1      -8.000  15.389  -5.755  1.00  0.00     0.031 C 
ATOM     66  C   UNL     1      -7.687  14.907  -8.168  1.00  0.00     0.034 A 
BRANCH  53  67
ATOM     67  C   UNL     1      -6.144  10.445 -12.167  1.00  0.00     0.023 A 
ATOM     68  C   UNL     1      -7.082   9.673 -12.885  1.00  0.00     0.012 A 
ATOM     69  C   UNL     1      -4.965  10.869 -12.809  1.00  0.00     0.148 A 
ATOM     70  C   UNL     1      -6.835   9.297 -14.204  1.00  0.00     0.002 A 
ATOM     71  C   UNL     1      -4.745  10.526 -14.139  1.00  0.00     0.091 A 
ATOM     72  F   UNL     1      -4.074  11.583 -12.106  1.00  0.00    -0.205 F 
ATOM     73  C   UNL     1      -5.672   9.731 -14.833  1.00  0.00     0.022 A 
BRANCH  71  74
ATOM     74  S   UNL     1      -3.313  11.095 -15.063  1.00  0.00     0.127 S 
ATOM     75  O   UNL     1      -2.540   9.862 -15.198  1.00  0.00    -0.237 OA
ATOM     76  O   UNL     1      -3.919  11.573 -16.306  1.00  0.00    -0.237 OA
ATOM     77  O   UNL     1      -2.698  12.134 -14.250  1.00  0.00    -0.744 OA
ENDBRANCH  71  74
ENDBRANCH  53  67
BRANCH  54  78
ATOM     78  C   UNL     1      -7.735  12.663  -2.533  1.00  0.00     0.023 A 
ATOM     79  C   UNL     1      -9.019  13.058  -2.108  1.00  0.00     0.012 A 
ATOM     80  C   UNL     1      -6.701  12.557  -1.582  1.00  0.00     0.148 A 
ATOM     81  C   UNL     1      -9.262  13.373  -0.770  1.00  0.00     0.002 A 
ATOM     82  C   UNL     1      -6.963  12.821  -0.242  1.00  0.00     0.091 A 
ATOM     83  F   UNL     1      -5.484  12.189  -2.006  1.00  0.00    -0.205 F 
ATOM     84  C   UNL     1      -8.238  13.245   0.164  1.00  0.00     0.022 A 
BRANCH  82  85
ATOM     85  S   UNL     1      -5.739  12.553   1.047  1.00  0.00     0.127 S 
ATOM     86  O   UNL     1      -5.373  13.921   1.401  1.00  0.00    -0.237 OA
ATOM     87  O   UNL     1      -6.516  11.841   2.062  1.00  0.00    -0.237 OA
ATOM     88  O   UNL     1      -4.690  11.753   0.429  1.00  0.00    -0.744 OA
ENDBRANCH  82  85
ENDBRANCH  54  78
BRANCH  66  89
ATOM     89  C   UNL     1      -7.980  16.355  -8.455  1.00  0.00     0.023 A 
ATOM     90  C   UNL     1      -7.023  17.337  -8.135  1.00  0.00     0.012 A 
ATOM     91  C   UNL     1      -9.170  16.731  -9.109  1.00  0.00     0.148 A 
ATOM     92  C   UNL     1      -7.259  18.678  -8.435  1.00  0.00     0.002 A 
ATOM     93  C   UNL     1      -9.376  18.062  -9.447  1.00  0.00     0.091 A 
ATOM     94  F   UNL     1     -10.077  15.782  -9.385  1.00  0.00    -0.205 F 
ATOM     95  C   UNL     1      -8.428  19.038  -9.101  1.00  0.00     0.022 A 
BRANCH  93  96
ATOM     96  S   UNL     1     -10.806  18.601 -10.391  1.00  0.00     0.127 S 
ATOM     97  O   UNL     1     -11.610  19.260  -9.363  1.00  0.00    -0.237 OA
ATOM     98  O   UNL     1     -10.209  19.507 -11.372  1.00  0.00    -0.237 OA
ATOM     99  O   UNL     1     -11.386  17.393 -10.962  1.00  0.00    -0.744 OA
ENDBRANCH  93  96
ENDBRANCH  66  89
ENDBRANCH  40  41
ENDBRANCH  32  35
ENDBRANCH  30  31
ENDBRANCH   1  30
TORSDOF 16
