REMARK SMILES Cc1ccc2c(CC(=O)N3CCC(C(=O)NCCCNC(=O)c4ccc(-c5c6nc(c(-c7cccc(S(=O)(=O)[O-])c7F)c7ccc([nH]7)c(-c7cccc(S(=O)(=O)[O-])c7F)c7nc(c(-c8cccc(S(=O)(=O)[O-])c8F)c8ccc5[nH]8)C=C7)C=C6)cc4)CC3)coc2c1
REMARK SMILES IDX 18 1 17 2 16 3 14 4 15 5 13 7 8 8 9 9 10 10 11 11 87 12
REMARK SMILES IDX 12 13 86 14 7 15 6 16 1 17 2 18 3 19 91 20 4 21 90 22 5 23
REMARK SMILES IDX 89 24 88 25 19 26 20 27 21 28 22 30 23 31 24 32 85 33 25 34
REMARK SMILES IDX 84 35 26 36 27 37 28 38 78 39 29 40 83 41 77 42 79 43 30 44
REMARK SMILES IDX 82 45 76 46 75 47 31 49 63 50 43 51 62 52 44 53 47 54 61 55
REMARK SMILES IDX 80 56 45 57 46 58 60 60 81 61 48 62 32 63 33 64 41 65 34 66
REMARK SMILES IDX 36 67 42 68 35 69 37 70 38 71 39 72 40 73 64 74 65 75 73 76
REMARK SMILES IDX 66 77 68 78 74 79 67 80 69 81 70 82 71 83 72 84 49 85 50 86
REMARK SMILES IDX 58 87 51 88 53 89 59 90 52 91 54 92 55 93 56 94 57 95
REMARK H PARENT 16 6 20 29 79 48 47 59
REMARK Flexibility Score: inf
ROOT
ATOM      1  C   UNL     1       0.391  10.214   4.774  1.00  0.00     0.042 C 
ENDROOT
BRANCH   1   2
ATOM      2  C   UNL     1       0.897   8.784   4.578  1.00  0.00     0.117 C 
BRANCH   2   3
ATOM      3  N   UNL     1       0.945   8.038   5.829  1.00  0.00    -0.356 N 
ATOM      4  C   UNL     1       0.254   6.954   6.268  1.00  0.00     0.223 C 
ATOM      5  O   UNL     1       0.508   6.536   7.402  1.00  0.00    -0.275 OA
ATOM      6  H   UNL     1       1.600   8.384   6.476  1.00  0.00     0.163 HD
BRANCH   4   7
ATOM      7  C   UNL     1      -0.778   6.243   5.407  1.00  0.00     0.082 C 
ATOM      8  C   UNL     1      -2.033   6.791   1.705  1.00  0.00     0.227 C 
ATOM      9  O   UNL     1      -2.234   8.009   1.751  1.00  0.00    -0.275 OA
ATOM     10  N   UNL     1      -2.098   6.025   2.867  1.00  0.00    -0.342 N 
ATOM     11  C   UNL     1      -2.867   6.535   3.993  1.00  0.00     0.120 C 
ATOM     12  C   UNL     1      -1.143   4.990   3.232  1.00  0.00     0.120 C 
ATOM     13  C   UNL     1      -1.970   7.145   5.059  1.00  0.00     0.035 C 
ATOM     14  C   UNL     1      -0.114   5.549   4.210  1.00  0.00     0.035 C 
BRANCH   8  15
ATOM     15  C   UNL     1      -1.945   6.086   0.350  1.00  0.00     0.139 C 
BRANCH  15  16
ATOM     16  C   UNL     1      -0.694   5.332   0.077  1.00  0.00     0.008 A 
ATOM     17  C   UNL     1       1.024  -0.102   0.011  1.00  0.00     0.044 C 
ATOM     18  C   UNL     1       0.492   1.302  -0.027  1.00  0.00    -0.047 A 
ATOM     19  C   UNL     1      -0.891   1.516   0.062  1.00  0.00     0.004 A 
ATOM     20  C   UNL     1       1.371   2.391  -0.153  1.00  0.00     0.051 A 
ATOM     21  C   UNL     1      -1.431   2.810   0.066  1.00  0.00     0.012 A 
ATOM     22  C   UNL     1       0.804   3.664  -0.142  1.00  0.00     0.134 A 
ATOM     23  C   UNL     1      -0.557   3.909  -0.020  1.00  0.00     0.024 A 
ATOM     24  O   UNL     1       1.488   4.838  -0.215  1.00  0.00    -0.464 OA
ATOM     25  C   UNL     1       0.578   5.841  -0.101  1.00  0.00     0.200 A 
ENDBRANCH  15  16
ENDBRANCH   8  15
ENDBRANCH   4   7
ENDBRANCH   2   3
ENDBRANCH   1   2
BRANCH   1  26
ATOM     26  C   UNL     1       1.238  11.049   5.734  1.00  0.00     0.118 C 
BRANCH  26  27
ATOM     27  N   UNL     1       2.640  11.114   5.379  1.00  0.00    -0.352 N 
ATOM     28  C   UNL     1       3.403  11.952   4.616  1.00  0.00     0.251 C 
ATOM     29  H   UNL     1       3.167  10.386   5.782  1.00  0.00     0.163 HD
ATOM     30  O   UNL     1       4.621  11.764   4.677  1.00  0.00    -0.269 OA
BRANCH  28  31
ATOM     31  C   UNL     1       2.877  12.985   3.684  1.00  0.00     0.039 A 
ATOM     32  C   UNL     1       1.528  13.266   3.464  1.00  0.00     0.014 A 
ATOM     33  C   UNL     1       3.840  13.634   2.889  1.00  0.00     0.014 A 
ATOM     34  C   UNL     1       1.145  14.045   2.380  1.00  0.00     0.010 A 
ATOM     35  C   UNL     1       3.465  14.436   1.821  1.00  0.00     0.010 A 
ATOM     36  C   UNL     1       2.115  14.570   1.524  1.00  0.00    -0.014 A 
BRANCH  36  37
ATOM     37  C   UNL     1       1.659  15.261   0.326  1.00  0.00     0.031 A 
ATOM     38  C   UNL     1       0.819  16.468   0.567  1.00  0.00     0.074 A 
ATOM     39  C   UNL     1       2.008  14.864  -0.914  1.00  0.00     0.049 A 
ATOM     40  N   UNL     1      -0.426  16.648   0.263  1.00  0.00    -0.248 NA
ATOM     41  C   UNL     1       1.411  17.562   1.350  1.00  0.00     0.031 C 
ATOM     42  C   UNL     1       3.009  13.870  -1.314  1.00  0.00     0.029 A 
ATOM     43  N   UNL     1       1.596  15.372  -2.105  1.00  0.00    -0.354 N 
ATOM     44  C   UNL     1      -0.727  17.954   0.649  1.00  0.00     0.074 A 
ATOM     45  C   UNL     1       0.394  18.420   1.426  1.00  0.00     0.031 C 
ATOM     46  C   UNL     1       3.300  14.034  -2.626  1.00  0.00     0.029 A 
ATOM     47  C   UNL     1       2.402  15.027  -3.184  1.00  0.00     0.049 A 
ATOM     48  H   UNL     1       0.794  15.937  -2.196  1.00  0.00     0.167 HD
ATOM     49  C   UNL     1      -1.800  18.636   0.161  1.00  0.00     0.034 A 
ATOM     50  C   UNL     1       2.362  15.589  -4.417  1.00  0.00     0.034 A 
ATOM     51  C   UNL     1      -2.758  17.771  -0.467  1.00  0.00     0.049 A 
ATOM     52  C   UNL     1       1.016  16.195  -4.561  1.00  0.00     0.074 A 
ATOM     53  C   UNL     1      -3.574  16.745  -0.035  1.00  0.00     0.029 A 
ATOM     54  N   UNL     1      -2.708  17.659  -1.834  1.00  0.00    -0.354 N 
ATOM     55  N   UNL     1      -0.088  15.500  -4.589  1.00  0.00    -0.248 NA
ATOM     56  C   UNL     1       0.866  17.605  -4.242  1.00  0.00     0.031 C 
ATOM     57  C   UNL     1      -3.551  15.792  -1.095  1.00  0.00     0.029 A 
ATOM     58  C   UNL     1      -2.766  16.320  -2.122  1.00  0.00     0.049 A 
ATOM     59  H   UNL     1      -2.643  18.397  -2.482  1.00  0.00     0.167 HD
ATOM     60  C   UNL     1      -1.000  16.268  -3.878  1.00  0.00     0.074 A 
ATOM     61  C   UNL     1      -0.384  17.590  -3.771  1.00  0.00     0.031 C 
ATOM     62  C   UNL     1      -2.035  15.693  -3.200  1.00  0.00     0.034 A 
BRANCH  49  63
ATOM     63  C   UNL     1      -1.853  20.130  -0.006  1.00  0.00     0.023 A 
ATOM     64  C   UNL     1      -3.108  20.743  -0.207  1.00  0.00     0.012 A 
ATOM     65  C   UNL     1      -0.702  20.919  -0.233  1.00  0.00     0.148 A 
ATOM     66  C   UNL     1      -3.211  22.075  -0.625  1.00  0.00     0.002 A 
ATOM     67  C   UNL     1      -0.810  22.259  -0.586  1.00  0.00     0.091 A 
ATOM     68  F   UNL     1       0.505  20.342  -0.231  1.00  0.00    -0.205 F 
ATOM     69  C   UNL     1      -2.062  22.837  -0.803  1.00  0.00     0.022 A 
BRANCH  67  70
ATOM     70  S   UNL     1       0.646  23.289  -0.806  1.00  0.00     0.127 S 
ATOM     71  O   UNL     1       0.703  23.399  -2.266  1.00  0.00    -0.237 OA
ATOM     72  O   UNL     1       0.251  24.518  -0.112  1.00  0.00    -0.237 OA
ATOM     73  O   UNL     1       1.732  22.568  -0.172  1.00  0.00    -0.744 OA
ENDBRANCH  67  70
ENDBRANCH  49  63
BRANCH  50  74
ATOM     74  C   UNL     1       3.471  15.925  -5.346  1.00  0.00     0.023 A 
ATOM     75  C   UNL     1       3.166  16.293  -6.673  1.00  0.00     0.012 A 
ATOM     76  C   UNL     1       4.776  16.187  -4.870  1.00  0.00     0.148 A 
ATOM     77  C   UNL     1       4.105  16.952  -7.478  1.00  0.00     0.002 A 
ATOM     78  C   UNL     1       5.709  16.834  -5.677  1.00  0.00     0.091 A 
ATOM     79  F   UNL     1       5.074  15.896  -3.598  1.00  0.00    -0.205 F 
ATOM     80  C   UNL     1       5.371  17.234  -6.976  1.00  0.00     0.022 A 
BRANCH  78  81
ATOM     81  S   UNL     1       7.359  17.245  -5.090  1.00  0.00     0.127 S 
ATOM     82  O   UNL     1       8.195  16.839  -6.221  1.00  0.00    -0.237 OA
ATOM     83  O   UNL     1       7.259  18.688  -4.892  1.00  0.00    -0.237 OA
ATOM     84  O   UNL     1       7.559  16.450  -3.885  1.00  0.00    -0.744 OA
ENDBRANCH  78  81
ENDBRANCH  50  74
BRANCH  62  85
ATOM     85  C   UNL     1      -2.260  14.212  -3.375  1.00  0.00     0.023 A 
ATOM     86  C   UNL     1      -1.360  13.260  -2.847  1.00  0.00     0.012 A 
ATOM     87  C   UNL     1      -3.493  13.773  -3.883  1.00  0.00     0.148 A 
ATOM     88  C   UNL     1      -1.683  11.900  -2.828  1.00  0.00     0.002 A 
ATOM     89  C   UNL     1      -3.825  12.424  -3.832  1.00  0.00     0.091 A 
ATOM     90  F   UNL     1      -4.341  14.696  -4.361  1.00  0.00    -0.205 F 
ATOM     91  C   UNL     1      -2.922  11.484  -3.308  1.00  0.00     0.022 A 
BRANCH  89  92
ATOM     92  S   UNL     1      -5.442  11.825  -4.330  1.00  0.00     0.127 S 
ATOM     93  O   UNL     1      -5.121  11.020  -5.507  1.00  0.00    -0.237 OA
ATOM     94  O   UNL     1      -5.862  11.054  -3.159  1.00  0.00    -0.237 OA
ATOM     95  O   UNL     1      -6.252  13.009  -4.590  1.00  0.00    -0.744 OA
ENDBRANCH  89  92
ENDBRANCH  62  85
ENDBRANCH  36  37
ENDBRANCH  28  31
ENDBRANCH  26  27
ENDBRANCH   1  26
TORSDOF 15
