REMARK SMILES C[C@H]1CC[C@](C[NH3+])(C(=O)NCCCNC(=O)c2ccc(-c3c4nc(c(-c5cccc(S(=O)(=O)[O-])c5F)c5ccc([nH]5)c(-c5cccc(S(=O)(=O)[O-])c5F)c5nc(c(-c6cccc(S(=O)(=O)[O-])c6F)c6ccc3[nH]6)C=C5)C=C4)cc2)C1
REMARK SMILES IDX 12 1 11 2 10 3 8 4 9 5 5 7 1 8 2 9 3 10 80 11 4 12 6 13 7 14
REMARK SMILES IDX 13 18 14 19 15 20 16 22 17 23 18 24 79 25 19 26 78 27 20 28
REMARK SMILES IDX 21 29 22 30 72 31 23 32 77 33 71 34 73 35 24 36 76 37 70 38
REMARK SMILES IDX 69 39 25 41 57 42 37 43 56 44 38 45 41 46 55 47 74 48 39 49
REMARK SMILES IDX 40 50 54 52 75 53 42 54 26 55 27 56 35 57 28 58 30 59 36 60
REMARK SMILES IDX 29 61 31 62 32 63 33 64 34 65 58 66 59 67 67 68 60 69 62 70
REMARK SMILES IDX 68 71 61 72 63 73 64 74 65 75 66 76 43 77 44 78 52 79 45 80
REMARK SMILES IDX 47 81 53 82 46 83 48 84 49 85 50 86 51 87
REMARK H PARENT 10 6 7 15 7 16 7 17 14 21 73 40 41 51
REMARK Flexibility Score: inf
ROOT
ATOM      1  C   UNL     1      -1.095   4.847  -0.755  1.00  0.00     0.042 C 
ENDROOT
BRANCH   1   2
ATOM      2  C   UNL     1      -1.909   3.566  -0.778  1.00  0.00     0.117 C 
BRANCH   2   3
ATOM      3  N   UNL     1      -1.419   2.593  -1.743  1.00  0.00    -0.355 N 
ATOM      4  C   UNL     1      -1.256   1.241  -1.651  1.00  0.00     0.231 C 
ATOM      5  O   UNL     1      -0.965   0.665  -2.703  1.00  0.00    -0.274 OA
ATOM      6  H   UNL     1      -1.161   2.977  -2.612  1.00  0.00     0.163 HD
BRANCH   4   7
ATOM      7  C   UNL     1      -1.425   0.490  -0.306  1.00  0.00     0.098 C 
ATOM      8  C   UNL     1       1.863   0.066   1.628  1.00  0.00     0.007 C 
ATOM      9  C   UNL     1       0.840   0.003   0.505  1.00  0.00    -0.013 C 
ATOM     10  C   UNL     1       0.103  -1.322   0.436  1.00  0.00     0.005 C 
ATOM     11  C   UNL     1      -0.316   0.990   0.671  1.00  0.00     0.026 C 
ATOM     12  C   UNL     1      -1.082  -1.029  -0.480  1.00  0.00     0.023 C 
BRANCH   7  13
ATOM     13  C   UNL     1      -2.858   0.764   0.250  1.00  0.00     0.275 C 
BRANCH  13  14
ATOM     14  N   UNL     1      -3.767  -0.375   0.388  1.00  0.00    -0.357 N 
ATOM     15  H   UNL     1      -3.972  -0.760  -0.533  1.00  0.00     0.344 HD
ATOM     16  H   UNL     1      -4.634  -0.067   0.828  1.00  0.00     0.344 HD
ATOM     17  H   UNL     1      -3.328  -1.091   0.967  1.00  0.00     0.344 HD
ENDBRANCH  13  14
ENDBRANCH   7  13
ENDBRANCH   4   7
ENDBRANCH   2   3
ENDBRANCH   1   2
BRANCH   1  18
ATOM     18  C   UNL     1      -1.090   5.615  -2.067  1.00  0.00     0.118 C 
BRANCH  18  19
ATOM     19  N   UNL     1      -2.412   6.085  -2.469  1.00  0.00    -0.352 N 
ATOM     20  C   UNL     1      -2.885   7.366  -2.632  1.00  0.00     0.251 C 
ATOM     21  H   UNL     1      -3.067   5.374  -2.650  1.00  0.00     0.163 HD
ATOM     22  O   UNL     1      -4.084   7.548  -2.833  1.00  0.00    -0.269 OA
BRANCH  20  23
ATOM     23  C   UNL     1      -1.964   8.521  -2.542  1.00  0.00     0.039 A 
ATOM     24  C   UNL     1      -2.373   9.668  -1.856  1.00  0.00     0.014 A 
ATOM     25  C   UNL     1      -0.697   8.474  -3.126  1.00  0.00     0.014 A 
ATOM     26  C   UNL     1      -1.481  10.733  -1.692  1.00  0.00     0.010 A 
ATOM     27  C   UNL     1       0.223   9.482  -2.865  1.00  0.00     0.010 A 
ATOM     28  C   UNL     1      -0.162  10.632  -2.162  1.00  0.00    -0.014 A 
BRANCH  28  29
ATOM     29  C   UNL     1       0.831  11.719  -1.955  1.00  0.00     0.031 A 
ATOM     30  C   UNL     1       1.477  12.381  -3.145  1.00  0.00     0.074 A 
ATOM     31  C   UNL     1       1.223  12.046  -0.707  1.00  0.00     0.049 A 
ATOM     32  N   UNL     1       2.425  13.282  -3.176  1.00  0.00    -0.248 NA
ATOM     33  C   UNL     1       1.024  11.946  -4.477  1.00  0.00     0.031 C 
ATOM     34  C   UNL     1       0.733  11.427   0.526  1.00  0.00     0.029 A 
ATOM     35  N   UNL     1       2.144  12.965  -0.271  1.00  0.00    -0.354 N 
ATOM     36  C   UNL     1       2.709  13.486  -4.521  1.00  0.00     0.074 A 
ATOM     37  C   UNL     1       1.870  12.581  -5.273  1.00  0.00     0.031 C 
ATOM     38  C   UNL     1       1.345  11.994   1.578  1.00  0.00     0.029 A 
ATOM     39  C   UNL     1       2.295  12.992   1.096  1.00  0.00     0.049 A 
ATOM     40  H   UNL     1       2.651  13.550  -0.880  1.00  0.00     0.167 HD
ATOM     41  C   UNL     1       3.562  14.374  -5.087  1.00  0.00     0.034 A 
ATOM     42  C   UNL     1       3.107  13.735   1.873  1.00  0.00     0.034 A 
ATOM     43  C   UNL     1       4.356  15.310  -4.339  1.00  0.00     0.049 A 
ATOM     44  C   UNL     1       4.017  14.743   1.224  1.00  0.00     0.074 A 
ATOM     45  C   UNL     1       5.189  16.306  -4.815  1.00  0.00     0.029 A 
ATOM     46  N   UNL     1       4.414  15.366  -2.955  1.00  0.00    -0.354 N 
ATOM     47  N   UNL     1       4.165  15.023  -0.049  1.00  0.00    -0.248 NA
ATOM     48  C   UNL     1       4.843  15.566   2.119  1.00  0.00     0.031 C 
ATOM     49  C   UNL     1       5.767  16.952  -3.717  1.00  0.00     0.029 A 
ATOM     50  C   UNL     1       5.270  16.378  -2.558  1.00  0.00     0.049 A 
ATOM     51  H   UNL     1       3.918  14.774  -2.344  1.00  0.00     0.167 HD
ATOM     52  C   UNL     1       5.065  16.081  -0.105  1.00  0.00     0.074 A 
ATOM     53  C   UNL     1       5.417  16.401   1.264  1.00  0.00     0.031 C 
ATOM     54  C   UNL     1       5.564  16.723  -1.190  1.00  0.00     0.034 A 
BRANCH  41  55
ATOM     55  C   UNL     1       3.631  14.409  -6.593  1.00  0.00     0.023 A 
ATOM     56  C   UNL     1       2.527  14.888  -7.329  1.00  0.00     0.012 A 
ATOM     57  C   UNL     1       4.790  14.000  -7.279  1.00  0.00     0.148 A 
ATOM     58  C   UNL     1       2.555  14.913  -8.722  1.00  0.00     0.002 A 
ATOM     59  C   UNL     1       4.830  14.075  -8.667  1.00  0.00     0.091 A 
ATOM     60  F   UNL     1       5.824  13.527  -6.568  1.00  0.00    -0.205 F 
ATOM     61  C   UNL     1       3.709  14.516  -9.390  1.00  0.00     0.022 A 
BRANCH  59  62
ATOM     62  S   UNL     1       6.299  13.666  -9.617  1.00  0.00     0.127 S 
ATOM     63  O   UNL     1       5.910  12.396 -10.229  1.00  0.00    -0.237 OA
ATOM     64  O   UNL     1       6.387  14.790 -10.549  1.00  0.00    -0.237 OA
ATOM     65  O   UNL     1       7.389  13.590  -8.654  1.00  0.00    -0.744 OA
ENDBRANCH  59  62
ENDBRANCH  41  55
BRANCH  42  66
ATOM     66  C   UNL     1       3.033  13.617   3.358  1.00  0.00     0.023 A 
ATOM     67  C   UNL     1       2.482  14.679   4.103  1.00  0.00     0.012 A 
ATOM     68  C   UNL     1       3.474  12.462   4.031  1.00  0.00     0.148 A 
ATOM     69  C   UNL     1       2.401  14.607   5.494  1.00  0.00     0.002 A 
ATOM     70  C   UNL     1       3.341  12.375   5.413  1.00  0.00     0.091 A 
ATOM     71  F   UNL     1       4.001  11.467   3.305  1.00  0.00    -0.205 F 
ATOM     72  C   UNL     1       2.822  13.452   6.147  1.00  0.00     0.022 A 
BRANCH  70  73
ATOM     73  S   UNL     1       3.738  10.881   6.329  1.00  0.00     0.127 S 
ATOM     74  O   UNL     1       4.909  11.301   7.093  1.00  0.00    -0.237 OA
ATOM     75  O   UNL     1       2.523  10.684   7.121  1.00  0.00    -0.237 OA
ATOM     76  O   UNL     1       3.974   9.853   5.324  1.00  0.00    -0.744 OA
ENDBRANCH  70  73
ENDBRANCH  42  66
BRANCH  54  77
ATOM     77  C   UNL     1       6.504  17.876  -0.952  1.00  0.00     0.023 A 
ATOM     78  C   UNL     1       7.816  17.634  -0.501  1.00  0.00     0.012 A 
ATOM     79  C   UNL     1       6.107  19.194  -1.252  1.00  0.00     0.148 A 
ATOM     80  C   UNL     1       8.709  18.690  -0.321  1.00  0.00     0.002 A 
ATOM     81  C   UNL     1       7.018  20.235  -1.120  1.00  0.00     0.091 A 
ATOM     82  F   UNL     1       4.848  19.406  -1.662  1.00  0.00    -0.205 F 
ATOM     83  C   UNL     1       8.315  19.987  -0.642  1.00  0.00     0.022 A 
BRANCH  81  84
ATOM     84  S   UNL     1       6.629  21.920  -1.605  1.00  0.00     0.127 S 
ATOM     85  O   UNL     1       6.498  22.581  -0.308  1.00  0.00    -0.237 OA
ATOM     86  O   UNL     1       7.816  22.305  -2.369  1.00  0.00    -0.237 OA
ATOM     87  O   UNL     1       5.406  21.839  -2.392  1.00  0.00    -0.744 OA
ENDBRANCH  81  84
ENDBRANCH  54  77
ENDBRANCH  28  29
ENDBRANCH  20  23
ENDBRANCH  18  19
ENDBRANCH   1  18
TORSDOF 15
