REMARK SMILES O=C(NCCCNC(=O)c1ccc2nc(-c3cc(F)cc(Br)c3)[nH]c2c1)c1ccc(-c2c3nc(c(-c4cccc(S(=O)(=O)[O-])c4F)c4ccc([nH]4)c(-c4cccc(S(=O)(=O)[O-])c4F)c4nc(c(-c5cccc(S(=O)(=O)[O-])c5F)c5ccc2[nH]5)C=C4)C=C3)cc1
REMARK SMILES IDX 4 1 3 2 1 3 2 4 27 6 28 7 89 8 29 9 88 10 30 11 31 12 32 13
REMARK SMILES IDX 82 14 33 15 87 16 81 17 83 18 34 19 86 20 80 21 79 22 35 24
REMARK SMILES IDX 67 25 47 26 66 27 48 28 51 29 65 30 84 31 49 32 50 33 64 35
REMARK SMILES IDX 85 36 52 37 36 38 37 39 45 40 38 41 40 42 46 43 39 44 41 45
REMARK SMILES IDX 42 46 43 47 44 48 68 49 69 50 77 51 70 52 72 53 78 54 71 55
REMARK SMILES IDX 73 56 74 57 75 58 76 59 53 60 54 61 62 62 55 63 57 64 63 65
REMARK SMILES IDX 56 66 58 67 59 68 60 69 61 70 5 71 6 72 7 73 8 74 9 76 10 77
REMARK SMILES IDX 11 78 26 79 12 80 25 81 13 82 24 83 14 84 15 85 16 87 17 88
REMARK SMILES IDX 23 89 18 90 21 91 19 92 20 93 22 94
REMARK H PARENT 3 5 83 23 51 34 7 75 24 86
REMARK Flexibility Score: inf
ROOT
ATOM      1  C   UNL     1       4.480   0.554  -1.227  1.00  0.00     0.118 C 
ENDROOT
BRANCH   1   2
ATOM      2  N   UNL     1       3.052   0.564  -0.934  1.00  0.00    -0.352 N 
ATOM      3  O   UNL     1       1.129  -0.002   0.083  1.00  0.00    -0.269 OA
ATOM      4  C   UNL     1       2.357   0.030   0.126  1.00  0.00     0.251 C 
ATOM      5  H   UNL     1       2.497   1.028  -1.602  1.00  0.00     0.163 HD
BRANCH   4   6
ATOM      6  C   UNL     1       3.078  -0.528   1.291  1.00  0.00     0.039 A 
ATOM      7  C   UNL     1       4.209   0.109   1.800  1.00  0.00     0.014 A 
ATOM      8  C   UNL     1       2.615  -1.702   1.894  1.00  0.00     0.014 A 
ATOM      9  C   UNL     1       4.981  -0.519   2.768  1.00  0.00     0.010 A 
ATOM     10  C   UNL     1       3.330  -2.273   2.955  1.00  0.00     0.010 A 
ATOM     11  C   UNL     1       4.544  -1.710   3.373  1.00  0.00    -0.014 A 
BRANCH  11  12
ATOM     12  C   UNL     1       5.352  -2.280   4.484  1.00  0.00     0.031 A 
ATOM     13  C   UNL     1       5.976  -3.646   4.391  1.00  0.00     0.074 A 
ATOM     14  C   UNL     1       5.559  -1.517   5.577  1.00  0.00     0.049 A 
ATOM     15  N   UNL     1       6.779  -4.237   5.239  1.00  0.00    -0.248 NA
ATOM     16  C   UNL     1       5.657  -4.459   3.207  1.00  0.00     0.031 C 
ATOM     17  C   UNL     1       4.955  -0.201   5.808  1.00  0.00     0.029 A 
ATOM     18  N   UNL     1       6.343  -1.719   6.683  1.00  0.00    -0.354 N 
ATOM     19  C   UNL     1       7.037  -5.497   4.712  1.00  0.00     0.074 A 
ATOM     20  C   UNL     1       6.292  -5.593   3.475  1.00  0.00     0.031 C 
ATOM     21  C   UNL     1       5.428   0.306   6.954  1.00  0.00     0.029 A 
ATOM     22  C   UNL     1       6.324  -0.665   7.568  1.00  0.00     0.049 A 
ATOM     23  H   UNL     1       6.868  -2.539   6.831  1.00  0.00     0.167 HD
ATOM     24  C   UNL     1       7.839  -6.474   5.201  1.00  0.00     0.034 A 
ATOM     25  C   UNL     1       6.953  -0.496   8.746  1.00  0.00     0.034 A 
ATOM     26  C   UNL     1       8.606  -6.360   6.415  1.00  0.00     0.049 A 
ATOM     27  C   UNL     1       7.879  -1.572   9.232  1.00  0.00     0.074 A 
ATOM     28  C   UNL     1       9.472  -7.283   6.977  1.00  0.00     0.029 A 
ATOM     29  N   UNL     1       8.605  -5.255   7.253  1.00  0.00    -0.354 N 
ATOM     30  N   UNL     1       8.196  -2.706   8.657  1.00  0.00    -0.248 NA
ATOM     31  C   UNL     1       8.556  -1.335  10.514  1.00  0.00     0.031 C 
ATOM     32  C   UNL     1       9.991  -6.738   8.156  1.00  0.00     0.029 A 
ATOM     33  C   UNL     1       9.458  -5.470   8.324  1.00  0.00     0.049 A 
ATOM     34  H   UNL     1       8.076  -4.438   7.109  1.00  0.00     0.167 HD
ATOM     35  C   UNL     1       9.116  -3.314   9.500  1.00  0.00     0.074 A 
ATOM     36  C   UNL     1       9.338  -2.401  10.604  1.00  0.00     0.031 C 
ATOM     37  C   UNL     1       9.701  -4.532   9.389  1.00  0.00     0.034 A 
BRANCH  24  38
ATOM     38  C   UNL     1       7.981  -7.739   4.394  1.00  0.00     0.023 A 
ATOM     39  C   UNL     1       8.767  -7.723   3.224  1.00  0.00     0.012 A 
ATOM     40  C   UNL     1       7.413  -8.954   4.827  1.00  0.00     0.148 A 
ATOM     41  C   UNL     1       8.968  -8.889   2.485  1.00  0.00     0.002 A 
ATOM     42  C   UNL     1       7.648 -10.120   4.106  1.00  0.00     0.091 A 
ATOM     43  F   UNL     1       6.653  -8.947   5.931  1.00  0.00    -0.205 F 
ATOM     44  C   UNL     1       8.418 -10.088   2.931  1.00  0.00     0.022 A 
BRANCH  42  45
ATOM     45  S   UNL     1       7.044 -11.728   4.635  1.00  0.00     0.127 S 
ATOM     46  O   UNL     1       5.987 -11.982   3.657  1.00  0.00    -0.237 OA
ATOM     47  O   UNL     1       8.231 -12.570   4.481  1.00  0.00    -0.237 OA
ATOM     48  O   UNL     1       6.597 -11.555   6.010  1.00  0.00    -0.744 OA
ENDBRANCH  42  45
ENDBRANCH  24  38
BRANCH  25  49
ATOM     49  C   UNL     1       6.757   0.767   9.511  1.00  0.00     0.023 A 
ATOM     50  C   UNL     1       7.818   1.684   9.630  1.00  0.00     0.012 A 
ATOM     51  C   UNL     1       5.505   1.091  10.067  1.00  0.00     0.148 A 
ATOM     52  C   UNL     1       7.642   2.889  10.310  1.00  0.00     0.002 A 
ATOM     53  C   UNL     1       5.318   2.321  10.686  1.00  0.00     0.091 A 
ATOM     54  F   UNL     1       4.509   0.199   9.964  1.00  0.00    -0.205 F 
ATOM     55  C   UNL     1       6.389   3.216  10.824  1.00  0.00     0.022 A 
BRANCH  53  56
ATOM     56  S   UNL     1       3.690   2.865  11.217  1.00  0.00     0.127 S 
ATOM     57  O   UNL     1       3.711   2.533  12.639  1.00  0.00    -0.237 OA
ATOM     58  O   UNL     1       3.725   4.297  10.917  1.00  0.00    -0.237 OA
ATOM     59  O   UNL     1       2.754   2.111  10.393  1.00  0.00    -0.744 OA
ENDBRANCH  53  56
ENDBRANCH  25  49
BRANCH  37  60
ATOM     60  C   UNL     1      10.640  -4.943  10.490  1.00  0.00     0.023 A 
ATOM     61  C   UNL     1      10.115  -5.313  11.745  1.00  0.00     0.012 A 
ATOM     62  C   UNL     1      12.030  -5.004  10.275  1.00  0.00     0.148 A 
ATOM     63  C   UNL     1      10.962  -5.703  12.780  1.00  0.00     0.002 A 
ATOM     64  C   UNL     1      12.865  -5.435  11.300  1.00  0.00     0.091 A 
ATOM     65  F   UNL     1      12.513  -4.625   9.083  1.00  0.00    -0.205 F 
ATOM     66  C   UNL     1      12.335  -5.774  12.555  1.00  0.00     0.022 A 
BRANCH  64  67
ATOM     67  S   UNL     1      14.635  -5.632  11.066  1.00  0.00     0.127 S 
ATOM     68  O   UNL     1      15.157  -4.420  11.695  1.00  0.00    -0.237 OA
ATOM     69  O   UNL     1      14.915  -6.868  11.798  1.00  0.00    -0.237 OA
ATOM     70  O   UNL     1      14.833  -5.732   9.626  1.00  0.00    -0.744 OA
ENDBRANCH  64  67
ENDBRANCH  37  60
ENDBRANCH  11  12
ENDBRANCH   4   6
ENDBRANCH   1   2
BRANCH   1  71
ATOM     71  C   UNL     1       4.829  -0.273  -2.455  1.00  0.00     0.042 C 
BRANCH  71  72
ATOM     72  C   UNL     1       4.277   0.290  -3.756  1.00  0.00     0.118 C 
BRANCH  72  73
ATOM     73  N   UNL     1       4.819   1.608  -4.056  1.00  0.00    -0.352 N 
ATOM     74  C   UNL     1       5.662   1.997  -5.064  1.00  0.00     0.251 C 
ATOM     75  H   UNL     1       4.539   2.326  -3.444  1.00  0.00     0.163 HD
ATOM     76  O   UNL     1       6.189   3.106  -5.038  1.00  0.00    -0.269 OA
BRANCH  74  77
ATOM     77  C   UNL     1       5.941   1.085  -6.193  1.00  0.00     0.042 A 
ATOM     78  C   UNL     1       4.885   0.466  -6.875  1.00  0.00     0.016 A 
ATOM     79  C   UNL     1       7.276   0.918  -6.594  1.00  0.00     0.042 A 
ATOM     80  C   UNL     1       5.137  -0.394  -7.949  1.00  0.00     0.031 A 
ATOM     81  C   UNL     1       7.492   0.064  -7.678  1.00  0.00     0.067 A 
ATOM     82  C   UNL     1       6.464  -0.583  -8.354  1.00  0.00     0.089 A 
ATOM     83  N   UNL     1       8.629  -0.339  -8.332  1.00  0.00    -0.338 N 
ATOM     84  N   UNL     1       6.955  -1.327  -9.391  1.00  0.00    -0.229 NA
ATOM     85  C   UNL     1       8.264  -1.172  -9.365  1.00  0.00     0.138 A 
ATOM     86  H   UNL     1       9.549  -0.076  -8.101  1.00  0.00     0.168 HD
BRANCH  85  87
ATOM     87  C   UNL     1       9.194  -1.742 -10.331  1.00  0.00     0.021 A 
ATOM     88  C   UNL     1      10.428  -2.275  -9.947  1.00  0.00     0.051 A 
ATOM     89  C   UNL     1       8.820  -1.786 -11.684  1.00  0.00     0.027 A 
ATOM     90  C   UNL     1      11.263  -2.835 -10.911  1.00  0.00     0.125 A 
ATOM     91  C   UNL     1       9.676  -2.340 -12.635  1.00  0.00     0.021 A 
ATOM     92  F   UNL     1      12.438  -3.357 -10.535  1.00  0.00    -0.207 F 
ATOM     93  C   UNL     1      10.903  -2.871 -12.253  1.00  0.00     0.055 A 
ATOM     94  Br  UNL     1       9.162  -2.369 -14.453  1.00  0.00    -0.051 Br
ENDBRANCH  85  87
ENDBRANCH  74  77
ENDBRANCH  72  73
ENDBRANCH  71  72
ENDBRANCH   1  71
TORSDOF 14
