REMARK SMILES O=C(CCC(=O)Nc1ccc(C(=O)N2CCOCC2)cc1)NCCCNC(=O)c1ccc(-c2c3nc(c(-c4cccc(S(=O)(=O)[O-])c4F)c4ccc([nH]4)c(-c4cccc(S(=O)(=O)[O-])c4F)c4nc(c(-c5cccc(S(=O)(=O)[O-])c5F)c5ccc2[nH]5)C=C4)C=C3)cc1
REMARK SMILES IDX 23 1 22 2 1 3 2 4 3 6 4 7 5 8 6 9 7 10 8 12 9 13 21 14 10 15
REMARK SMILES IDX 20 16 11 17 12 18 13 19 14 20 15 21 19 22 16 23 18 24 17 25
REMARK SMILES IDX 24 26 25 27 26 28 27 29 28 31 29 32 30 33 91 34 31 35 90 36
REMARK SMILES IDX 32 37 33 38 34 39 84 40 35 41 89 42 83 43 85 44 36 45 88 46
REMARK SMILES IDX 82 47 81 48 37 50 69 51 49 52 68 53 50 54 53 55 67 56 86 57
REMARK SMILES IDX 51 58 52 59 66 61 87 62 54 63 38 64 39 65 47 66 40 67 42 68
REMARK SMILES IDX 48 69 41 70 43 71 44 72 45 73 46 74 70 75 71 76 79 77 72 78
REMARK SMILES IDX 74 79 80 80 73 81 75 82 76 83 77 84 78 85 55 86 56 87 64 88
REMARK SMILES IDX 57 89 59 90 65 91 58 92 60 93 61 94 62 95 63 96
REMARK H PARENT 22 5 7 11 26 30 85 49 53 60
REMARK Flexibility Score: inf
ROOT
ATOM      1  C   UNL     1       2.229   0.592  -2.214  1.00  0.00     0.117 C 
ENDROOT
BRANCH   1   2
ATOM      2  N   UNL     1       3.178   0.792  -1.140  1.00  0.00    -0.356 N 
ATOM      3  O   UNL     1       1.613   1.185   0.504  1.00  0.00    -0.275 OA
ATOM      4  C   UNL     1       2.775   0.992   0.161  1.00  0.00     0.220 C 
ATOM      5  H   UNL     1       4.141   0.784  -1.346  1.00  0.00     0.163 HD
BRANCH   4   6
ATOM      6  C   UNL     1       3.894   0.875   1.168  1.00  0.00     0.110 C 
BRANCH   6   7
ATOM      7  C   UNL     1       4.137  -0.555   1.643  1.00  0.00     0.110 C 
BRANCH   7   8
ATOM      8  C   UNL     1       4.628  -1.497   0.563  1.00  0.00     0.224 C 
ATOM      9  O   UNL     1       5.840  -1.522   0.313  1.00  0.00    -0.275 OA
ATOM     10  N   UNL     1       3.835  -2.290  -0.211  1.00  0.00    -0.326 N 
ATOM     11  H   UNL     1       4.353  -2.916  -0.767  1.00  0.00     0.169 HD
BRANCH  10  12
ATOM     12  C   UNL     1       2.446  -2.421  -0.398  1.00  0.00     0.041 A 
ATOM     13  C   UNL     1       2.022  -3.049  -1.585  1.00  0.00     0.027 A 
ATOM     14  C   UNL     1       1.478  -1.880   0.435  1.00  0.00     0.027 A 
ATOM     15  C   UNL     1       0.681  -2.977  -2.004  1.00  0.00     0.016 A 
ATOM     16  C   UNL     1       0.151  -1.788   0.017  1.00  0.00     0.016 A 
ATOM     17  C   UNL     1      -0.241  -2.279  -1.228  1.00  0.00     0.040 A 
BRANCH  17  18
ATOM     18  C   UNL     1      -1.666  -2.143  -1.623  1.00  0.00     0.254 C 
ATOM     19  O   UNL     1      -2.257  -3.116  -2.077  1.00  0.00    -0.269 OA
ATOM     20  N   UNL     1      -2.283  -0.962  -1.252  1.00  0.00    -0.334 N 
ATOM     21  C   UNL     1      -1.842   0.368  -1.684  1.00  0.00     0.148 C 
ATOM     22  C   UNL     1      -3.565  -0.983  -0.568  1.00  0.00     0.148 C 
ATOM     23  C   UNL     1      -1.937   1.389  -0.542  1.00  0.00     0.181 C 
ATOM     24  C   UNL     1      -3.528   0.034   0.581  1.00  0.00     0.181 C 
ATOM     25  O   UNL     1      -3.230   1.352   0.093  1.00  0.00    -0.378 OA
ENDBRANCH  17  18
ENDBRANCH  10  12
ENDBRANCH   7   8
ENDBRANCH   6   7
ENDBRANCH   4   6
ENDBRANCH   1   2
BRANCH   1  26
ATOM     26  C   UNL     1       2.601   1.253  -3.524  1.00  0.00     0.042 C 
BRANCH  26  27
ATOM     27  C   UNL     1       3.986   0.912  -4.048  1.00  0.00     0.118 C 
BRANCH  27  28
ATOM     28  N   UNL     1       4.209  -0.496  -4.365  1.00  0.00    -0.352 N 
ATOM     29  C   UNL     1       4.928  -1.014  -5.427  1.00  0.00     0.251 C 
ATOM     30  H   UNL     1       3.802  -1.151  -3.753  1.00  0.00     0.163 HD
ATOM     31  O   UNL     1       5.019  -2.227  -5.592  1.00  0.00    -0.269 OA
BRANCH  29  32
ATOM     32  C   UNL     1       5.529  -0.069  -6.394  1.00  0.00     0.039 A 
ATOM     33  C   UNL     1       5.162  -0.145  -7.740  1.00  0.00     0.014 A 
ATOM     34  C   UNL     1       6.300   0.998  -5.929  1.00  0.00     0.014 A 
ATOM     35  C   UNL     1       5.453   0.925  -8.592  1.00  0.00     0.010 A 
ATOM     36  C   UNL     1       6.492   2.101  -6.750  1.00  0.00     0.010 A 
ATOM     37  C   UNL     1       6.050   2.091  -8.084  1.00  0.00    -0.014 A 
BRANCH  37  38
ATOM     38  C   UNL     1       6.188   3.337  -8.889  1.00  0.00     0.031 A 
ATOM     39  C   UNL     1       7.544   3.972  -9.050  1.00  0.00     0.074 A 
ATOM     40  C   UNL     1       5.089   3.983  -9.333  1.00  0.00     0.049 A 
ATOM     41  N   UNL     1       7.853   5.154  -9.517  1.00  0.00    -0.248 NA
ATOM     42  C   UNL     1       8.700   3.194  -8.575  1.00  0.00     0.031 C 
ATOM     43  C   UNL     1       3.706   3.526  -9.170  1.00  0.00     0.029 A 
ATOM     44  N   UNL     1       4.959   5.190  -9.979  1.00  0.00    -0.354 N 
ATOM     45  C   UNL     1       9.223   5.287  -9.327  1.00  0.00     0.074 A 
ATOM     46  C   UNL     1       9.681   4.078  -8.680  1.00  0.00     0.031 C 
ATOM     47  C   UNL     1       2.873   4.435  -9.703  1.00  0.00     0.029 A 
ATOM     48  C   UNL     1       3.652   5.559 -10.210  1.00  0.00     0.049 A 
ATOM     49  H   UNL     1       5.729   5.740 -10.251  1.00  0.00     0.167 HD
ATOM     50  C   UNL     1      10.035   6.309  -9.687  1.00  0.00     0.034 A 
ATOM     51  C   UNL     1       3.137   6.679 -10.756  1.00  0.00     0.034 A 
ATOM     52  C   UNL     1       9.595   7.468 -10.413  1.00  0.00     0.049 A 
ATOM     53  C   UNL     1       4.072   7.758 -11.235  1.00  0.00     0.074 A 
ATOM     54  C   UNL     1      10.357   8.508 -10.914  1.00  0.00     0.029 A 
ATOM     55  N   UNL     1       8.279   7.731 -10.758  1.00  0.00    -0.354 N 
ATOM     56  N   UNL     1       5.380   7.801 -11.171  1.00  0.00    -0.248 NA
ATOM     57  C   UNL     1       3.464   8.928 -11.889  1.00  0.00     0.031 C 
ATOM     58  C   UNL     1       9.500   9.401 -11.566  1.00  0.00     0.029 A 
ATOM     59  C   UNL     1       8.207   8.911 -11.476  1.00  0.00     0.049 A 
ATOM     60  H   UNL     1       7.509   7.163 -10.525  1.00  0.00     0.167 HD
ATOM     61  C   UNL     1       5.754   8.976 -11.815  1.00  0.00     0.074 A 
ATOM     62  C   UNL     1       4.536   9.611 -12.270  1.00  0.00     0.031 C 
ATOM     63  C   UNL     1       6.995   9.488 -11.996  1.00  0.00     0.034 A 
BRANCH  50  64
ATOM     64  C   UNL     1      11.500   6.183  -9.365  1.00  0.00     0.023 A 
ATOM     65  C   UNL     1      12.292   5.272 -10.094  1.00  0.00     0.012 A 
ATOM     66  C   UNL     1      12.103   6.994  -8.385  1.00  0.00     0.148 A 
ATOM     67  C   UNL     1      13.653   5.143  -9.826  1.00  0.00     0.002 A 
ATOM     68  C   UNL     1      13.470   6.891  -8.154  1.00  0.00     0.091 A 
ATOM     69  F   UNL     1      11.330   7.838  -7.685  1.00  0.00    -0.205 F 
ATOM     70  C   UNL     1      14.244   5.959  -8.865  1.00  0.00     0.022 A 
BRANCH  68  71
ATOM     71  S   UNL     1      14.334   7.955  -6.993  1.00  0.00     0.127 S 
ATOM     72  O   UNL     1      14.556   7.047  -5.869  1.00  0.00    -0.237 OA
ATOM     73  O   UNL     1      15.544   8.310  -7.737  1.00  0.00    -0.237 OA
ATOM     74  O   UNL     1      13.436   9.072  -6.734  1.00  0.00    -0.744 OA
ENDBRANCH  68  71
ENDBRANCH  50  64
BRANCH  51  75
ATOM     75  C   UNL     1       1.665   6.803 -10.957  1.00  0.00     0.023 A 
ATOM     76  C   UNL     1       1.144   6.721 -12.264  1.00  0.00     0.012 A 
ATOM     77  C   UNL     1       0.778   6.970  -9.876  1.00  0.00     0.148 A 
ATOM     78  C   UNL     1      -0.227   6.832 -12.494  1.00  0.00     0.002 A 
ATOM     79  C   UNL     1      -0.592   7.028 -10.107  1.00  0.00     0.091 A 
ATOM     80  F   UNL     1       1.291   7.061  -8.641  1.00  0.00    -0.205 F 
ATOM     81  C   UNL     1      -1.096   6.975 -11.416  1.00  0.00     0.022 A 
BRANCH  79  82
ATOM     82  S   UNL     1      -1.789   7.081  -8.768  1.00  0.00     0.127 S 
ATOM     83  O   UNL     1      -2.216   8.476  -8.801  1.00  0.00    -0.237 OA
ATOM     84  O   UNL     1      -2.795   6.117  -9.217  1.00  0.00    -0.237 OA
ATOM     85  O   UNL     1      -1.056   6.665  -7.579  1.00  0.00    -0.744 OA
ENDBRANCH  79  82
ENDBRANCH  51  75
BRANCH  63  86
ATOM     86  C   UNL     1       7.125  10.772 -12.770  1.00  0.00     0.023 A 
ATOM     87  C   UNL     1       6.797  11.995 -12.153  1.00  0.00     0.012 A 
ATOM     88  C   UNL     1       7.679  10.773 -14.065  1.00  0.00     0.148 A 
ATOM     89  C   UNL     1       7.006  13.201 -12.822  1.00  0.00     0.002 A 
ATOM     90  C   UNL     1       7.924  11.980 -14.708  1.00  0.00     0.091 A 
ATOM     91  F   UNL     1       7.964   9.595 -14.639  1.00  0.00    -0.205 F 
ATOM     92  C   UNL     1       7.582  13.194 -14.091  1.00  0.00     0.022 A 
BRANCH  90  93
ATOM     93  S   UNL     1       8.748  12.069 -16.302  1.00  0.00     0.127 S 
ATOM     94  O   UNL     1       7.641  12.415 -17.191  1.00  0.00    -0.237 OA
ATOM     95  O   UNL     1       9.720  13.143 -16.091  1.00  0.00    -0.237 OA
ATOM     96  O   UNL     1       9.340  10.756 -16.521  1.00  0.00    -0.744 OA
ENDBRANCH  90  93
ENDBRANCH  63  86
ENDBRANCH  37  38
ENDBRANCH  29  32
ENDBRANCH  27  28
ENDBRANCH  26  27
ENDBRANCH   1  26
TORSDOF 17
