REMARK SMILES CCOc1cc2c(cc1OCC)[C@@H](C(=O)NCCCNC(=O)c1ccc(-c3c4nc(c(-c5cccc(S(=O)(=O)[O-])c5F)c5ccc([nH]5)c(-c5cccc(S(=O)(=O)[O-])c5F)c5nc(c(-c6cccc(S(=O)(=O)[O-])c6F)c6ccc3[nH]6)C=C5)C=C4)cc1)[C@H](c1ccc(F)cc1Cl)N(C)C2=O
REMARK SMILES IDX 18 1 17 2 16 3 14 4 15 5 13 7 4 8 5 9 9 10 6 11 8 12 7 13
REMARK SMILES IDX 97 14 95 15 98 16 86 17 96 18 3 19 2 20 1 21 10 22 11 23
REMARK SMILES IDX 12 24 87 25 88 26 93 27 89 28 92 29 94 30 90 31 91 32 19 33
REMARK SMILES IDX 20 34 21 35 22 37 23 38 24 39 85 40 25 41 84 42 26 43 27 44
REMARK SMILES IDX 28 45 78 46 29 47 83 48 77 49 79 50 30 51 82 52 76 53 75 54
REMARK SMILES IDX 31 56 63 57 43 58 62 59 44 60 47 61 61 62 80 63 45 64 46 65
REMARK SMILES IDX 60 67 81 68 48 69 32 70 33 71 41 72 34 73 36 74 42 75 35 76
REMARK SMILES IDX 37 77 38 78 39 79 40 80 64 81 65 82 73 83 66 84 68 85 74 86
REMARK SMILES IDX 67 87 69 88 70 89 71 90 72 91 49 92 50 93 58 94 51 95 53 96
REMARK SMILES IDX 59 97 52 98 54 99 55 100 56 101 57 102
REMARK H PARENT 16 6 20 36 79 55 47 66
REMARK Flexibility Score: inf
ROOT
ATOM      1  C   UNL     1       7.210   1.166  -0.074  1.00  0.00     0.042 C 
ENDROOT
BRANCH   1   2
ATOM      2  C   UNL     1       6.549   1.251  -1.445  1.00  0.00     0.117 C 
BRANCH   2   3
ATOM      3  N   UNL     1       7.321   0.536  -2.452  1.00  0.00    -0.355 N 
ATOM      4  C   UNL     1       7.321  -0.743  -2.906  1.00  0.00     0.230 C 
ATOM      5  O   UNL     1       8.229  -1.016  -3.706  1.00  0.00    -0.274 OA
ATOM      6  H   UNL     1       7.988   1.104  -2.901  1.00  0.00     0.163 HD
BRANCH   4   7
ATOM      7  C   UNL     1       6.340  -1.856  -2.530  1.00  0.00     0.136 C 
ATOM      8  C   UNL     1       2.157  -0.988  -1.990  1.00  0.00     0.161 A 
ATOM      9  C   UNL     1       3.009  -1.142  -0.890  1.00  0.00     0.064 A 
ATOM     10  C   UNL     1       2.657  -1.134  -3.292  1.00  0.00     0.161 A 
ATOM     11  C   UNL     1       4.368  -1.375  -1.070  1.00  0.00     0.048 A 
ATOM     12  C   UNL     1       4.032  -1.359  -3.461  1.00  0.00     0.056 A 
ATOM     13  C   UNL     1       4.891  -1.485  -2.360  1.00  0.00    -0.016 A 
ATOM     14  C   UNL     1       5.267  -1.443   0.117  1.00  0.00     0.254 C 
ATOM     15  N   UNL     1       6.512  -2.038  -0.082  1.00  0.00    -0.333 N 
ATOM     16  O   UNL     1       4.895  -0.940   1.169  1.00  0.00    -0.269 OA
ATOM     17  C   UNL     1       6.806  -2.744  -1.327  1.00  0.00     0.134 C 
ATOM     18  C   UNL     1       7.494  -2.087   0.997  1.00  0.00     0.147 C 
BRANCH   8  19
ATOM     19  O   UNL     1       0.826  -0.799  -1.734  1.00  0.00    -0.490 OA
BRANCH  19  20
ATOM     20  C   UNL     1       0.536   0.504  -1.206  1.00  0.00     0.226 C 
ATOM     21  C   UNL     1       0.512   0.514   0.314  1.00  0.00     0.049 C 
ENDBRANCH  19  20
ENDBRANCH   8  19
BRANCH  10  22
ATOM     22  O   UNL     1       1.993  -1.116  -4.487  1.00  0.00    -0.490 OA
BRANCH  22  23
ATOM     23  C   UNL     1       0.578  -0.979  -4.532  1.00  0.00     0.226 C 
ATOM     24  C   UNL     1      -0.135  -2.290  -4.244  1.00  0.00     0.049 C 
ENDBRANCH  22  23
ENDBRANCH  10  22
BRANCH  17  25
ATOM     25  C   UNL     1       6.212  -4.183  -1.417  1.00  0.00    -0.005 A 
ATOM     26  C   UNL     1       6.501  -4.892  -2.613  1.00  0.00     0.010 A 
ATOM     27  C   UNL     1       5.392  -4.856  -0.476  1.00  0.00     0.049 A 
ATOM     28  C   UNL     1       5.920  -6.129  -2.906  1.00  0.00     0.040 A 
ATOM     29  C   UNL     1       4.818  -6.102  -0.777  1.00  0.00     0.060 A 
ATOM     30  Cl  UNL     1       4.997  -4.321   1.117  1.00  0.00    -0.084 Cl
ATOM     31  C   UNL     1       5.068  -6.713  -1.990  1.00  0.00     0.124 A 
ATOM     32  F   UNL     1       4.489  -7.887  -2.272  1.00  0.00    -0.207 F 
ENDBRANCH  17  25
ENDBRANCH   4   7
ENDBRANCH   2   3
ENDBRANCH   1   2
BRANCH   1  33
ATOM     33  C   UNL     1       7.929   2.430   0.363  1.00  0.00     0.118 C 
BRANCH  33  34
ATOM     34  N   UNL     1       7.005   3.483   0.756  1.00  0.00    -0.352 N 
ATOM     35  C   UNL     1       6.840   4.124   1.962  1.00  0.00     0.251 C 
ATOM     36  H   UNL     1       6.398   3.787   0.043  1.00  0.00     0.163 HD
ATOM     37  O   UNL     1       5.861   4.854   2.111  1.00  0.00    -0.269 OA
BRANCH  35  38
ATOM     38  C   UNL     1       7.806   3.953   3.077  1.00  0.00     0.039 A 
ATOM     39  C   UNL     1       7.329   3.997   4.393  1.00  0.00     0.014 A 
ATOM     40  C   UNL     1       9.176   3.806   2.854  1.00  0.00     0.014 A 
ATOM     41  C   UNL     1       8.214   3.851   5.468  1.00  0.00     0.010 A 
ATOM     42  C   UNL     1      10.040   3.556   3.919  1.00  0.00     0.010 A 
ATOM     43  C   UNL     1       9.576   3.603   5.240  1.00  0.00    -0.014 A 
BRANCH  43  44
ATOM     44  C   UNL     1      10.534   3.416   6.364  1.00  0.00     0.031 A 
ATOM     45  C   UNL     1      11.711   4.346   6.520  1.00  0.00     0.074 A 
ATOM     46  C   UNL     1      10.400   2.359   7.191  1.00  0.00     0.049 A 
ATOM     47  N   UNL     1      12.689   4.302   7.388  1.00  0.00    -0.248 NA
ATOM     48  C   UNL     1      11.826   5.453   5.554  1.00  0.00     0.031 C 
ATOM     49  C   UNL     1       9.359   1.334   7.093  1.00  0.00     0.029 A 
ATOM     50  N   UNL     1      11.164   1.953   8.258  1.00  0.00    -0.354 N 
ATOM     51  C   UNL     1      13.555   5.334   7.043  1.00  0.00     0.074 A 
ATOM     52  C   UNL     1      13.004   5.971   5.867  1.00  0.00     0.031 C 
ATOM     53  C   UNL     1       9.548   0.420   8.058  1.00  0.00     0.029 A 
ATOM     54  C   UNL     1      10.739   0.773   8.824  1.00  0.00     0.049 A 
ATOM     55  H   UNL     1      11.941   2.459   8.588  1.00  0.00     0.167 HD
ATOM     56  C   UNL     1      14.690   5.736   7.662  1.00  0.00     0.034 A 
ATOM     57  C   UNL     1      11.256   0.049   9.836  1.00  0.00     0.034 A 
ATOM     58  C   UNL     1      15.199   5.144   8.869  1.00  0.00     0.049 A 
ATOM     59  C   UNL     1      12.477   0.560  10.552  1.00  0.00     0.074 A 
ATOM     60  C   UNL     1      16.273   5.554   9.640  1.00  0.00     0.029 A 
ATOM     61  N   UNL     1      14.677   4.015   9.477  1.00  0.00    -0.354 N 
ATOM     62  N   UNL     1      13.180   1.641  10.315  1.00  0.00    -0.248 NA
ATOM     63  C   UNL     1      12.954  -0.225  11.700  1.00  0.00     0.031 C 
ATOM     64  C   UNL     1      16.418   4.653  10.699  1.00  0.00     0.029 A 
ATOM     65  C   UNL     1      15.414   3.703  10.606  1.00  0.00     0.049 A 
ATOM     66  H   UNL     1      13.896   3.509   9.154  1.00  0.00     0.167 HD
ATOM     67  C   UNL     1      14.159   1.683  11.302  1.00  0.00     0.074 A 
ATOM     68  C   UNL     1      13.943   0.533  12.154  1.00  0.00     0.031 C 
ATOM     69  C   UNL     1      15.156   2.585  11.477  1.00  0.00     0.034 A 
BRANCH  56  70
ATOM     70  C   UNL     1      15.440   6.907   7.077  1.00  0.00     0.023 A 
ATOM     71  C   UNL     1      14.897   8.204   7.175  1.00  0.00     0.012 A 
ATOM     72  C   UNL     1      16.713   6.733   6.500  1.00  0.00     0.148 A 
ATOM     73  C   UNL     1      15.593   9.305   6.677  1.00  0.00     0.002 A 
ATOM     74  C   UNL     1      17.421   7.840   6.048  1.00  0.00     0.091 A 
ATOM     75  F   UNL     1      17.204   5.490   6.398  1.00  0.00    -0.205 F 
ATOM     76  C   UNL     1      16.858   9.125   6.125  1.00  0.00     0.022 A 
BRANCH  74  77
ATOM     77  S   UNL     1      19.092   7.725   5.397  1.00  0.00     0.127 S 
ATOM     78  O   UNL     1      18.879   8.035   3.984  1.00  0.00    -0.237 OA
ATOM     79  O   UNL     1      19.788   8.768   6.152  1.00  0.00    -0.237 OA
ATOM     80  O   UNL     1      19.541   6.369   5.677  1.00  0.00    -0.744 OA
ENDBRANCH  74  77
ENDBRANCH  56  70
BRANCH  57  81
ATOM     81  C   UNL     1      10.587  -1.211  10.269  1.00  0.00     0.023 A 
ATOM     82  C   UNL     1       9.926  -1.257  11.512  1.00  0.00     0.012 A 
ATOM     83  C   UNL     1      10.583  -2.356   9.448  1.00  0.00     0.148 A 
ATOM     84  C   UNL     1       9.305  -2.429  11.946  1.00  0.00     0.002 A 
ATOM     85  C   UNL     1       9.914  -3.502   9.861  1.00  0.00     0.091 A 
ATOM     86  F   UNL     1      11.229  -2.298   8.275  1.00  0.00    -0.205 F 
ATOM     87  C   UNL     1       9.290  -3.547  11.117  1.00  0.00     0.022 A 
BRANCH  85  88
ATOM     88  S   UNL     1       9.734  -4.942   8.802  1.00  0.00     0.127 S 
ATOM     89  O   UNL     1      10.642  -5.894   9.436  1.00  0.00    -0.237 OA
ATOM     90  O   UNL     1       8.312  -5.253   8.951  1.00  0.00    -0.237 OA
ATOM     91  O   UNL     1      10.113  -4.495   7.468  1.00  0.00    -0.744 OA
ENDBRANCH  85  88
ENDBRANCH  57  81
BRANCH  69  92
ATOM     92  C   UNL     1      16.073   2.395  12.656  1.00  0.00     0.023 A 
ATOM     93  C   UNL     1      17.018   1.350  12.649  1.00  0.00     0.012 A 
ATOM     94  C   UNL     1      16.050   3.301  13.735  1.00  0.00     0.148 A 
ATOM     95  C   UNL     1      17.903   1.189  13.715  1.00  0.00     0.002 A 
ATOM     96  C   UNL     1      16.969   3.165  14.768  1.00  0.00     0.091 A 
ATOM     97  F   UNL     1      15.132   4.278  13.730  1.00  0.00    -0.205 F 
ATOM     98  C   UNL     1      17.887   2.103  14.766  1.00  0.00     0.022 A 
BRANCH  96  99
ATOM     99  S   UNL     1      17.089   4.353  16.111  1.00  0.00     0.127 S 
ATOM    100  O   UNL     1      16.534   3.593  17.230  1.00  0.00    -0.237 OA
ATOM    101  O   UNL     1      18.531   4.589  16.189  1.00  0.00    -0.237 OA
ATOM    102  O   UNL     1      16.309   5.510  15.694  1.00  0.00    -0.744 OA
ENDBRANCH  96  99
ENDBRANCH  69  92
ENDBRANCH  43  44
ENDBRANCH  35  38
ENDBRANCH  33  34
ENDBRANCH   1  33
TORSDOF 18
