REMARK SMILES C[C@H](NC(=O)c1cccc(NC(=O)c2ccccc2C(=O)NCCCNC(=O)c2ccc(-c3c4nc(c(-c5cccc(S(=O)(=O)[O-])c5F)c5ccc([nH]5)c(-c5cccc(S(=O)(=O)[O-])c5F)c5nc(c(-c6cccc(S(=O)(=O)[O-])c6F)c6ccc3[nH]6)C=C5)C=C4)cc2)c1)c1ccccc1
REMARK SMILES IDX 23 1 22 2 20 3 21 4 19 6 14 7 15 8 16 9 18 10 17 11 12 12
REMARK SMILES IDX 11 13 13 15 10 16 6 17 7 18 92 19 8 20 9 21 4 22 3 23 5 25
REMARK SMILES IDX 2 26 1 27 93 28 94 29 98 30 95 31 97 32 96 33 24 34 25 35
REMARK SMILES IDX 26 36 27 37 28 39 29 40 30 41 91 42 31 43 90 44 32 45 33 46
REMARK SMILES IDX 34 47 84 48 35 49 89 50 83 51 85 52 36 53 88 54 82 55 81 56
REMARK SMILES IDX 37 58 69 59 49 60 68 61 50 62 53 63 67 64 86 65 51 66 52 67
REMARK SMILES IDX 66 69 87 70 54 71 38 72 39 73 47 74 40 75 42 76 48 77 41 78
REMARK SMILES IDX 43 79 44 80 45 81 46 82 70 83 71 84 79 85 72 86 74 87 80 88
REMARK SMILES IDX 73 89 75 90 76 91 77 92 78 93 55 94 56 95 64 96 57 97 59 98
REMARK SMILES IDX 65 99 58 100 60 101 61 102 62 103 63 104
REMARK H PARENT 22 5 11 14 3 24 26 38 85 57 53 68
REMARK Flexibility Score: inf
ROOT
ATOM      1  C   UNL     1      -0.246  -5.226  -3.322  1.00  0.00     0.118 C 
ENDROOT
BRANCH   1   2
ATOM      2  N   UNL     1       0.452  -5.278  -2.053  1.00  0.00    -0.352 N 
ATOM      3  C   UNL     1       1.700  -5.753  -1.750  1.00  0.00     0.252 C 
ATOM      4  O   UNL     1       2.090  -5.649  -0.585  1.00  0.00    -0.269 OA
ATOM      5  H   UNL     1      -0.050  -4.913  -1.289  1.00  0.00     0.163 HD
BRANCH   3   6
ATOM      6  C   UNL     1       2.565  -6.463  -2.731  1.00  0.00     0.052 A 
ATOM      7  C   UNL     1       2.858  -6.072  -4.047  1.00  0.00     0.052 A 
ATOM      8  C   UNL     1       3.634  -6.920  -4.864  1.00  0.00     0.014 A 
ATOM      9  C   UNL     1       4.195  -8.092  -4.361  1.00  0.00     0.001 A 
ATOM     10  C   UNL     1       3.177  -7.631  -2.227  1.00  0.00     0.014 A 
ATOM     11  C   UNL     1       3.989  -8.434  -3.031  1.00  0.00     0.001 A 
BRANCH   7  12
ATOM     12  C   UNL     1       2.398  -4.840  -4.721  1.00  0.00     0.256 C 
ATOM     13  N   UNL     1       2.448  -3.592  -4.155  1.00  0.00    -0.322 N 
ATOM     14  H   UNL     1       1.943  -2.909  -4.653  1.00  0.00     0.170 HD
ATOM     15  O   UNL     1       1.883  -4.957  -5.835  1.00  0.00    -0.269 OA
BRANCH  13  16
ATOM     16  C   UNL     1       3.078  -3.102  -3.007  1.00  0.00     0.042 A 
ATOM     17  C   UNL     1       3.046  -1.470  -1.230  1.00  0.00     0.041 A 
ATOM     18  C   UNL     1       4.160  -2.068  -0.640  1.00  0.00     0.014 A 
ATOM     19  C   UNL     1       2.524  -1.956  -2.430  1.00  0.00     0.040 A 
ATOM     20  C   UNL     1       4.740  -3.179  -1.245  1.00  0.00     0.003 A 
ATOM     21  C   UNL     1       4.205  -3.691  -2.430  1.00  0.00     0.026 A 
BRANCH  17  22
ATOM     22  C   UNL     1       2.427  -0.304  -0.580  1.00  0.00     0.251 C 
ATOM     23  N   UNL     1       1.218  -0.448   0.050  1.00  0.00    -0.346 N 
ATOM     24  H   UNL     1       0.787   0.387   0.346  1.00  0.00     0.164 HD
ATOM     25  O   UNL     1       3.017   0.771  -0.589  1.00  0.00    -0.269 OA
BRANCH  23  26
ATOM     26  C   UNL     1       0.481  -1.680   0.342  1.00  0.00     0.109 C 
ATOM     27  C   UNL     1       1.081  -2.307   1.609  1.00  0.00     0.036 C 
BRANCH  26  28
ATOM     28  C   UNL     1      -1.026  -1.461   0.485  1.00  0.00    -0.026 A 
ATOM     29  C   UNL     1      -1.659  -0.255   0.140  1.00  0.00     0.006 A 
ATOM     30  C   UNL     1      -1.845  -2.515   0.935  1.00  0.00     0.006 A 
ATOM     31  C   UNL     1      -3.039  -0.090   0.298  1.00  0.00     0.000 A 
ATOM     32  C   UNL     1      -3.225  -2.352   1.089  1.00  0.00     0.000 A 
ATOM     33  C   UNL     1      -3.820  -1.134   0.782  1.00  0.00     0.000 A 
ENDBRANCH  26  28
ENDBRANCH  23  26
ENDBRANCH  17  22
ENDBRANCH  13  16
ENDBRANCH   7  12
ENDBRANCH   3   6
ENDBRANCH   1   2
BRANCH   1  34
ATOM     34  C   UNL     1      -1.755  -5.292  -3.215  1.00  0.00     0.042 C 
BRANCH  34  35
ATOM     35  C   UNL     1      -2.402  -4.172  -2.412  1.00  0.00     0.118 C 
BRANCH  35  36
ATOM     36  N   UNL     1      -2.068  -2.817  -2.847  1.00  0.00    -0.352 N 
ATOM     37  C   UNL     1      -2.873  -1.800  -3.317  1.00  0.00     0.251 C 
ATOM     38  H   UNL     1      -1.111  -2.593  -2.797  1.00  0.00     0.163 HD
ATOM     39  O   UNL     1      -2.370  -0.739  -3.683  1.00  0.00    -0.269 OA
BRANCH  37  40
ATOM     40  C   UNL     1      -4.332  -2.009  -3.437  1.00  0.00     0.039 A 
ATOM     41  C   UNL     1      -4.984  -1.668  -4.625  1.00  0.00     0.014 A 
ATOM     42  C   UNL     1      -5.039  -2.626  -2.408  1.00  0.00     0.014 A 
ATOM     43  C   UNL     1      -6.303  -2.088  -4.833  1.00  0.00     0.010 A 
ATOM     44  C   UNL     1      -6.302  -3.139  -2.657  1.00  0.00     0.010 A 
ATOM     45  C   UNL     1      -6.941  -2.898  -3.881  1.00  0.00    -0.014 A 
BRANCH  45  46
ATOM     46  C   UNL     1      -8.237  -3.577  -4.139  1.00  0.00     0.031 A 
ATOM     47  C   UNL     1      -9.393  -3.370  -3.197  1.00  0.00     0.074 A 
ATOM     48  C   UNL     1      -8.309  -4.520  -5.102  1.00  0.00     0.049 A 
ATOM     49  N   UNL     1     -10.529  -4.011  -3.131  1.00  0.00    -0.248 NA
ATOM     50  C   UNL     1      -9.224  -2.341  -2.156  1.00  0.00     0.031 C 
ATOM     51  C   UNL     1      -7.218  -4.896  -6.006  1.00  0.00     0.029 A 
ATOM     52  N   UNL     1      -9.329  -5.370  -5.451  1.00  0.00    -0.354 N 
ATOM     53  C   UNL     1     -11.184  -3.507  -2.014  1.00  0.00     0.074 A 
ATOM     54  C   UNL     1     -10.302  -2.533  -1.409  1.00  0.00     0.031 C 
ATOM     55  C   UNL     1      -7.626  -5.897  -6.802  1.00  0.00     0.029 A 
ATOM     56  C   UNL     1      -8.992  -6.261  -6.445  1.00  0.00     0.049 A 
ATOM     57  H   UNL     1     -10.218  -5.346  -5.029  1.00  0.00     0.167 HD
ATOM     58  C   UNL     1     -12.422  -3.801  -1.552  1.00  0.00     0.034 A 
ATOM     59  C   UNL     1      -9.698  -7.266  -6.999  1.00  0.00     0.034 A 
ATOM     60  C   UNL     1     -13.322  -4.711  -2.206  1.00  0.00     0.049 A 
ATOM     61  C   UNL     1     -11.102  -7.517  -6.521  1.00  0.00     0.074 A 
ATOM     62  C   UNL     1     -14.646  -4.975  -1.906  1.00  0.00     0.029 A 
ATOM     63  N   UNL     1     -12.990  -5.503  -3.294  1.00  0.00    -0.354 N 
ATOM     64  N   UNL     1     -11.773  -6.899  -5.579  1.00  0.00    -0.248 NA
ATOM     65  C   UNL     1     -11.858  -8.580  -7.199  1.00  0.00     0.031 C 
ATOM     66  C   UNL     1     -15.113  -5.936  -2.808  1.00  0.00     0.029 A 
ATOM     67  C   UNL     1     -14.081  -6.263  -3.675  1.00  0.00     0.049 A 
ATOM     68  H   UNL     1     -12.109  -5.521  -3.732  1.00  0.00     0.167 HD
ATOM     69  C   UNL     1     -13.036  -7.478  -5.568  1.00  0.00     0.074 A 
ATOM     70  C   UNL     1     -13.044  -8.481  -6.614  1.00  0.00     0.031 C 
ATOM     71  C   UNL     1     -14.087  -7.218  -4.753  1.00  0.00     0.034 A 
BRANCH  58  72
ATOM     72  C   UNL     1     -12.905  -3.070  -0.328  1.00  0.00     0.023 A 
ATOM     73  C   UNL     1     -13.222  -1.699  -0.423  1.00  0.00     0.012 A 
ATOM     74  C   UNL     1     -13.094  -3.739   0.897  1.00  0.00     0.148 A 
ATOM     75  C   UNL     1     -13.681  -0.996   0.689  1.00  0.00     0.002 A 
ATOM     76  C   UNL     1     -13.593  -3.040   1.991  1.00  0.00     0.091 A 
ATOM     77  F   UNL     1     -12.766  -5.037   0.976  1.00  0.00    -0.205 F 
ATOM     78  C   UNL     1     -13.876  -1.668   1.892  1.00  0.00     0.022 A 
BRANCH  76  79
ATOM     79  S   UNL     1     -13.948  -3.830   3.565  1.00  0.00     0.127 S 
ATOM     80  O   UNL     1     -12.863  -3.321   4.402  1.00  0.00    -0.237 OA
ATOM     81  O   UNL     1     -15.271  -3.293   3.889  1.00  0.00    -0.237 OA
ATOM     82  O   UNL     1     -13.923  -5.263   3.308  1.00  0.00    -0.744 OA
ENDBRANCH  76  79
ENDBRANCH  58  72
BRANCH  59  83
ATOM     83  C   UNL     1      -9.116  -8.054  -8.123  1.00  0.00     0.023 A 
ATOM     84  C   UNL     1      -9.614  -7.855  -9.425  1.00  0.00     0.012 A 
ATOM     85  C   UNL     1      -8.055  -8.959  -7.926  1.00  0.00     0.148 A 
ATOM     86  C   UNL     1      -9.086  -8.560 -10.507  1.00  0.00     0.002 A 
ATOM     87  C   UNL     1      -7.499  -9.622  -9.016  1.00  0.00     0.091 A 
ATOM     88  F   UNL     1      -7.601  -9.145  -6.678  1.00  0.00    -0.205 F 
ATOM     89  C   UNL     1      -8.022  -9.435 -10.305  1.00  0.00     0.022 A 
BRANCH  87  90
ATOM     90  S   UNL     1      -6.046 -10.669  -8.865  1.00  0.00     0.127 S 
ATOM     91  O   UNL     1      -6.623 -12.004  -9.003  1.00  0.00    -0.237 OA
ATOM     92  O   UNL     1      -5.233 -10.229 -10.000  1.00  0.00    -0.237 OA
ATOM     93  O   UNL     1      -5.473 -10.355  -7.563  1.00  0.00    -0.744 OA
ENDBRANCH  87  90
ENDBRANCH  59  83
BRANCH  71  94
ATOM     94  C   UNL     1     -15.347  -8.014  -4.960  1.00  0.00     0.023 A 
ATOM     95  C   UNL     1     -15.400  -9.350  -4.519  1.00  0.00     0.012 A 
ATOM     96  C   UNL     1     -16.502  -7.411  -5.495  1.00  0.00     0.148 A 
ATOM     97  C   UNL     1     -16.582 -10.082  -4.623  1.00  0.00     0.002 A 
ATOM     98  C   UNL     1     -17.688  -8.132  -5.554  1.00  0.00     0.091 A 
ATOM     99  F   UNL     1     -16.421  -6.143  -5.923  1.00  0.00    -0.205 F 
ATOM    100  C   UNL     1     -17.727  -9.470  -5.128  1.00  0.00     0.022 A 
BRANCH  98 101
ATOM    101  S   UNL     1     -19.235  -7.401  -6.101  1.00  0.00     0.127 S 
ATOM    102  O   UNL     1     -19.444  -8.071  -7.384  1.00  0.00    -0.237 OA
ATOM    103  O   UNL     1     -20.160  -7.808  -5.043  1.00  0.00    -0.237 OA
ATOM    104  O   UNL     1     -18.997  -5.966  -6.178  1.00  0.00    -0.744 OA
ENDBRANCH  98 101
ENDBRANCH  71  94
ENDBRANCH  45  46
ENDBRANCH  37  40
ENDBRANCH  35  36
ENDBRANCH  34  35
ENDBRANCH   1  34
TORSDOF 18
