REMARK SMILES Cc1ccccc1S(=O)(=O)Nc1ccc(N2CCOCC2)cc1C(=O)NCCCNC(=O)c1ccc(-c2c3nc(c(-c4cccc(S(=O)(=O)[O-])c4F)c4ccc([nH]4)c(-c4cccc(S(=O)(=O)[O-])c4F)c4nc(c(-c5cccc(S(=O)(=O)[O-])c5F)c5ccc2[nH]5)C=C4)C=C3)cc1
REMARK SMILES IDX 28 1 27 2 26 3 24 4 25 5 23 7 12 8 13 9 14 10 22 11 15 12
REMARK SMILES IDX 11 13 8 15 9 16 10 17 7 18 1 19 2 20 3 21 4 22 6 23 5 24
REMARK SMILES IDX 16 25 17 26 21 27 18 28 20 29 19 30 29 31 30 32 31 33 32 35
REMARK SMILES IDX 33 36 34 37 95 38 35 39 94 40 36 41 37 42 38 43 88 44 39 45
REMARK SMILES IDX 93 46 87 47 89 48 40 49 92 50 86 51 85 52 41 54 73 55 53 56
REMARK SMILES IDX 72 57 54 58 57 59 71 60 90 61 55 62 56 63 70 65 91 66 58 67
REMARK SMILES IDX 42 68 43 69 51 70 44 71 46 72 52 73 45 74 47 75 48 76 49 77
REMARK SMILES IDX 50 78 74 79 75 80 83 81 76 82 78 83 84 84 77 85 79 86 80 87
REMARK SMILES IDX 81 88 82 89 59 90 60 91 68 92 61 93 63 94 69 95 62 96 64 97
REMARK SMILES IDX 65 98 66 99 67 100
REMARK H PARENT 26 6 11 14 30 34 89 53 57 64
REMARK Flexibility Score: inf
ROOT
ATOM      1  C   UNL     1       0.906  -2.809  -2.230  1.00  0.00     0.042 C 
ENDROOT
BRANCH   1   2
ATOM      2  C   UNL     1       2.128  -2.082  -2.731  1.00  0.00     0.118 C 
BRANCH   2   3
ATOM      3  N   UNL     1       1.928  -0.664  -3.004  1.00  0.00    -0.352 N 
ATOM      4  C   UNL     1       2.604   0.456  -2.550  1.00  0.00     0.253 C 
ATOM      5  O   UNL     1       2.341   1.551  -3.015  1.00  0.00    -0.269 OA
ATOM      6  H   UNL     1       1.184  -0.469  -3.617  1.00  0.00     0.163 HD
BRANCH   4   7
ATOM      7  C   UNL     1       3.623   0.319  -1.473  1.00  0.00     0.066 A 
ATOM      8  C   UNL     1       3.609   1.157  -0.354  1.00  0.00     0.062 A 
ATOM      9  C   UNL     1       4.482   0.874   0.692  1.00  0.00     0.030 A 
ATOM     10  C   UNL     1       5.190  -0.342   0.698  1.00  0.00     0.028 A 
ATOM     11  C   UNL     1       4.524  -0.752  -1.533  1.00  0.00     0.042 A 
ATOM     12  C   UNL     1       5.152  -1.232  -0.386  1.00  0.00     0.038 A 
BRANCH   8  13
ATOM     13  N   UNL     1       2.779   2.306  -0.306  1.00  0.00    -0.279 N 
ATOM     14  H   UNL     1       2.989   3.053  -0.911  1.00  0.00     0.180 HD
BRANCH  13  15
ATOM     15  S   UNL     1       1.464   2.468   0.716  1.00  0.00     0.262 S 
ATOM     16  O   UNL     1       0.812   3.684   0.298  1.00  0.00    -0.201 OA
ATOM     17  O   UNL     1       1.945   2.373   2.088  1.00  0.00    -0.201 OA
BRANCH  15  18
ATOM     18  C   UNL     1       0.352   1.096   0.394  1.00  0.00     0.090 A 
ATOM     19  C   UNL     1       1.727  -0.655   1.723  1.00  0.00     0.046 C 
ATOM     20  C   UNL     1       0.515  -0.178   0.980  1.00  0.00    -0.031 A 
ATOM     21  C   UNL     1      -0.511  -1.132   0.822  1.00  0.00     0.005 A 
ATOM     22  C   UNL     1      -1.682  -0.836   0.129  1.00  0.00     0.000 A 
ATOM     23  C   UNL     1      -0.833   1.381  -0.315  1.00  0.00     0.022 A 
ATOM     24  C   UNL     1      -1.842   0.420  -0.442  1.00  0.00     0.001 A 
ENDBRANCH  15  18
ENDBRANCH  13  15
ENDBRANCH   8  13
BRANCH  12  25
ATOM     25  N   UNL     1       5.599  -2.537  -0.302  1.00  0.00    -0.367 N 
ATOM     26  C   UNL     1       5.965  -3.373  -1.465  1.00  0.00     0.145 C 
ATOM     27  C   UNL     1       5.602  -3.265   0.986  1.00  0.00     0.145 C 
ATOM     28  C   UNL     1       5.193  -4.704  -1.458  1.00  0.00     0.181 C 
ATOM     29  C   UNL     1       4.904  -4.636   0.866  1.00  0.00     0.181 C 
ATOM     30  O   UNL     1       5.410  -5.411  -0.228  1.00  0.00    -0.378 OA
ENDBRANCH  12  25
ENDBRANCH   4   7
ENDBRANCH   2   3
ENDBRANCH   1   2
BRANCH   1  31
ATOM     31  C   UNL     1      -0.128  -3.037  -3.307  1.00  0.00     0.118 C 
BRANCH  31  32
ATOM     32  N   UNL     1       0.241  -4.195  -4.123  1.00  0.00    -0.352 N 
ATOM     33  C   UNL     1      -0.522  -5.175  -4.729  1.00  0.00     0.251 C 
ATOM     34  H   UNL     1       1.210  -4.295  -4.266  1.00  0.00     0.163 HD
ATOM     35  O   UNL     1       0.038  -6.125  -5.266  1.00  0.00    -0.269 OA
BRANCH  33  36
ATOM     36  C   UNL     1      -1.976  -4.951  -4.881  1.00  0.00     0.039 A 
ATOM     37  C   UNL     1      -2.419  -4.799  -6.199  1.00  0.00     0.014 A 
ATOM     38  C   UNL     1      -2.688  -4.406  -3.824  1.00  0.00     0.014 A 
ATOM     39  C   UNL     1      -3.343  -3.804  -6.483  1.00  0.00     0.010 A 
ATOM     40  C   UNL     1      -3.490  -3.325  -4.110  1.00  0.00     0.010 A 
ATOM     41  C   UNL     1      -3.744  -2.975  -5.444  1.00  0.00    -0.014 A 
BRANCH  41  42
ATOM     42  C   UNL     1      -4.469  -1.731  -5.613  1.00  0.00     0.031 A 
ATOM     43  C   UNL     1      -5.919  -1.746  -5.321  1.00  0.00     0.074 A 
ATOM     44  C   UNL     1      -3.812  -0.567  -5.832  1.00  0.00     0.049 A 
ATOM     45  N   UNL     1      -6.707  -0.755  -5.540  1.00  0.00    -0.248 NA
ATOM     46  C   UNL     1      -6.604  -2.919  -4.784  1.00  0.00     0.031 C 
ATOM     47  C   UNL     1      -4.336   0.779  -5.600  1.00  0.00     0.029 A 
ATOM     48  N   UNL     1      -2.589  -0.320  -6.469  1.00  0.00    -0.354 N 
ATOM     49  C   UNL     1      -7.907  -1.032  -4.927  1.00  0.00     0.074 A 
ATOM     50  C   UNL     1      -7.829  -2.428  -4.580  1.00  0.00     0.031 C 
ATOM     51  C   UNL     1      -3.633   1.653  -6.334  1.00  0.00     0.029 A 
ATOM     52  C   UNL     1      -2.792   0.864  -7.211  1.00  0.00     0.049 A 
ATOM     53  H   UNL     1      -1.765  -0.857  -6.411  1.00  0.00     0.167 HD
ATOM     54  C   UNL     1      -8.751   0.007  -4.680  1.00  0.00     0.034 A 
ATOM     55  C   UNL     1      -2.829   0.924  -8.581  1.00  0.00     0.034 A 
ATOM     56  C   UNL     1      -8.297   1.220  -5.385  1.00  0.00     0.049 A 
ATOM     57  C   UNL     1      -4.123   1.510  -9.153  1.00  0.00     0.074 A 
ATOM     58  C   UNL     1      -7.651   2.389  -5.021  1.00  0.00     0.029 A 
ATOM     59  N   UNL     1      -8.275   1.190  -6.768  1.00  0.00    -0.354 N 
ATOM     60  N   UNL     1      -5.138   1.907  -8.434  1.00  0.00    -0.248 NA
ATOM     61  C   UNL     1      -4.409   1.611 -10.588  1.00  0.00     0.031 C 
ATOM     62  C   UNL     1      -7.217   3.043  -6.217  1.00  0.00     0.029 A 
ATOM     63  C   UNL     1      -7.627   2.287  -7.301  1.00  0.00     0.049 A 
ATOM     64  H   UNL     1      -8.675   0.471  -7.309  1.00  0.00     0.167 HD
ATOM     65  C   UNL     1      -6.223   2.137  -9.242  1.00  0.00     0.074 A 
ATOM     66  C   UNL     1      -5.701   1.985 -10.590  1.00  0.00     0.031 C 
ATOM     67  C   UNL     1      -7.481   2.364  -8.750  1.00  0.00     0.034 A 
BRANCH  54  68
ATOM     68  C   UNL     1      -9.889   0.030  -3.672  1.00  0.00     0.023 A 
ATOM     69  C   UNL     1     -10.492   1.286  -3.426  1.00  0.00     0.012 A 
ATOM     70  C   UNL     1     -10.356  -1.038  -2.870  1.00  0.00     0.148 A 
ATOM     71  C   UNL     1     -11.437   1.486  -2.412  1.00  0.00     0.002 A 
ATOM     72  C   UNL     1     -11.298  -0.844  -1.856  1.00  0.00     0.091 A 
ATOM     73  F   UNL     1      -9.899  -2.272  -3.055  1.00  0.00    -0.205 F 
ATOM     74  C   UNL     1     -11.832   0.422  -1.616  1.00  0.00     0.022 A 
BRANCH  72  75
ATOM     75  S   UNL     1     -11.842  -2.178  -0.769  1.00  0.00     0.127 S 
ATOM     76  O   UNL     1     -11.400  -1.699   0.542  1.00  0.00    -0.237 OA
ATOM     77  O   UNL     1     -13.291  -2.169  -0.962  1.00  0.00    -0.237 OA
ATOM     78  O   UNL     1     -11.173  -3.390  -1.225  1.00  0.00    -0.744 OA
ENDBRANCH  72  75
ENDBRANCH  54  68
BRANCH  55  79
ATOM     79  C   UNL     1      -2.007  -0.133  -9.241  1.00  0.00     0.023 A 
ATOM     80  C   UNL     1      -0.619  -0.133  -8.966  1.00  0.00     0.012 A 
ATOM     81  C   UNL     1      -2.595  -1.295  -9.769  1.00  0.00     0.148 A 
ATOM     82  C   UNL     1       0.123  -1.312  -9.041  1.00  0.00     0.002 A 
ATOM     83  C   UNL     1      -1.842  -2.463  -9.861  1.00  0.00     0.091 A 
ATOM     84  F   UNL     1      -3.889  -1.266 -10.111  1.00  0.00    -0.205 F 
ATOM     85  C   UNL     1      -0.501  -2.486  -9.447  1.00  0.00     0.022 A 
BRANCH  83  86
ATOM     86  S   UNL     1      -2.582  -4.016 -10.383  1.00  0.00     0.127 S 
ATOM     87  O   UNL     1      -2.249  -4.035 -11.804  1.00  0.00    -0.237 OA
ATOM     88  O   UNL     1      -1.862  -4.995  -9.568  1.00  0.00    -0.237 OA
ATOM     89  O   UNL     1      -3.992  -3.887 -10.048  1.00  0.00    -0.744 OA
ENDBRANCH  83  86
ENDBRANCH  55  79
BRANCH  67  90
ATOM     90  C   UNL     1      -8.698   2.660  -9.611  1.00  0.00     0.023 A 
ATOM     91  C   UNL     1      -8.587   3.467 -10.760  1.00  0.00     0.012 A 
ATOM     92  C   UNL     1     -10.011   2.272  -9.230  1.00  0.00     0.148 A 
ATOM     93  C   UNL     1      -9.707   3.820 -11.525  1.00  0.00     0.002 A 
ATOM     94  C   UNL     1     -11.129   2.701  -9.940  1.00  0.00     0.091 A 
ATOM     95  F   UNL     1     -10.188   1.444  -8.195  1.00  0.00    -0.205 F 
ATOM     96  C   UNL     1     -10.979   3.451 -11.106  1.00  0.00     0.022 A 
BRANCH  94  97
ATOM     97  S   UNL     1     -12.811   2.415  -9.361  1.00  0.00     0.127 S 
ATOM     98  O   UNL     1     -13.361   3.773  -9.368  1.00  0.00    -0.237 OA
ATOM     99  O   UNL     1     -13.341   1.539 -10.404  1.00  0.00    -0.237 OA
ATOM    100  O   UNL     1     -12.691   1.821  -8.039  1.00  0.00    -0.744 OA
ENDBRANCH  94  97
ENDBRANCH  67  90
ENDBRANCH  41  42
ENDBRANCH  33  36
ENDBRANCH  31  32
ENDBRANCH   1  31
TORSDOF 17
