REMARK SMILES Cn1ncc(C(=O)NCCCNC(=O)c2ccc(-c3c4nc(c(-c5cccc(S(=O)(=O)[O-])c5F)c5ccc([nH]5)c(-c5cccc(S(=O)(=O)[O-])c5F)c5nc(c(-c6cccc(S(=O)(=O)[O-])c6F)c6ccc3[nH]6)C=C5)C=C4)cc2)c1C(=O)Nc1ccccn1
REMARK SMILES IDX 10 1 9 2 8 3 6 4 7 5 5 7 1 8 2 9 3 10 78 11 4 12 79 13 80 14
REMARK SMILES IDX 81 15 82 17 83 18 87 19 84 20 86 21 85 22 11 23 12 24 13 25
REMARK SMILES IDX 14 27 15 28 16 29 77 30 17 31 76 32 18 33 19 34 20 35 70 36
REMARK SMILES IDX 21 37 75 38 69 39 71 40 22 41 74 42 68 43 67 44 23 46 55 47
REMARK SMILES IDX 35 48 54 49 36 50 39 51 53 52 72 53 37 54 38 55 52 57 73 58
REMARK SMILES IDX 40 59 24 60 25 61 33 62 26 63 28 64 34 65 27 66 29 67 30 68
REMARK SMILES IDX 31 69 32 70 56 71 57 72 65 73 58 74 60 75 66 76 59 77 61 78
REMARK SMILES IDX 62 79 63 80 64 81 41 82 42 83 50 84 43 85 45 86 51 87 44 88
REMARK SMILES IDX 46 89 47 90 48 91 49 92
REMARK H PARENT 8 6 81 16 12 26 71 45 39 56
REMARK Flexibility Score: inf
ROOT
ATOM      1  C   UNL     1       1.484  -4.701  -1.386  1.00  0.00     0.042 C 
ENDROOT
BRANCH   1   2
ATOM      2  C   UNL     1       1.382  -3.784  -0.183  1.00  0.00     0.118 C 
BRANCH   2   3
ATOM      3  N   UNL     1       2.450  -2.819  -0.084  1.00  0.00    -0.352 N 
ATOM      4  C   UNL     1       2.469  -1.456   0.015  1.00  0.00     0.255 C 
ATOM      5  O   UNL     1       3.597  -0.953   0.026  1.00  0.00    -0.269 OA
ATOM      6  H   UNL     1       3.347  -3.225  -0.088  1.00  0.00     0.163 HD
BRANCH   4   7
ATOM      7  C   UNL     1       1.297  -0.584   0.072  1.00  0.00     0.090 A 
ATOM      8  C   UNL     1      -1.749   1.054   1.113  1.00  0.00     0.174 C 
ATOM      9  N   UNL     1      -0.544   0.561   0.486  1.00  0.00    -0.262 N 
ATOM     10  N   UNL     1       0.280   1.478  -0.046  1.00  0.00    -0.180 NA
ATOM     11  C   UNL     1      -0.038  -0.721   0.477  1.00  0.00     0.139 A 
ATOM     12  C   UNL     1       1.404   0.798  -0.246  1.00  0.00     0.149 A 
BRANCH  11  13
ATOM     13  C   UNL     1      -0.720  -1.870   1.017  1.00  0.00     0.275 C 
ATOM     14  O   UNL     1      -0.282  -2.481   1.993  1.00  0.00    -0.267 OA
ATOM     15  N   UNL     1      -1.795  -2.422   0.344  1.00  0.00    -0.305 N 
ATOM     16  H   UNL     1      -1.743  -3.371   0.087  1.00  0.00     0.171 HD
BRANCH  15  17
ATOM     17  C   UNL     1      -2.946  -1.716   0.006  1.00  0.00     0.132 A 
ATOM     18  C   UNL     1      -3.069  -0.984  -1.163  1.00  0.00     0.047 A 
ATOM     19  N   UNL     1      -3.924  -1.814   0.930  1.00  0.00    -0.239 NA
ATOM     20  C   UNL     1      -4.250  -0.263  -1.357  1.00  0.00     0.005 A 
ATOM     21  C   UNL     1      -5.048  -1.102   0.722  1.00  0.00     0.113 A 
ATOM     22  C   UNL     1      -5.250  -0.305  -0.388  1.00  0.00     0.020 A 
ENDBRANCH  15  17
ENDBRANCH  11  13
ENDBRANCH   4   7
ENDBRANCH   2   3
ENDBRANCH   1   2
BRANCH   1  23
ATOM     23  C   UNL     1       2.640  -5.682  -1.341  1.00  0.00     0.118 C 
BRANCH  23  24
ATOM     24  N   UNL     1       2.519  -6.668  -0.271  1.00  0.00    -0.352 N 
ATOM     25  C   UNL     1       2.200  -8.006  -0.319  1.00  0.00     0.251 C 
ATOM     26  H   UNL     1       2.693  -6.318   0.632  1.00  0.00     0.163 HD
ATOM     27  O   UNL     1       1.991  -8.620   0.726  1.00  0.00    -0.269 OA
BRANCH  25  28
ATOM     28  C   UNL     1       2.076  -8.700  -1.619  1.00  0.00     0.039 A 
ATOM     29  C   UNL     1       1.021  -9.594  -1.826  1.00  0.00     0.014 A 
ATOM     30  C   UNL     1       2.992  -8.458  -2.642  1.00  0.00     0.014 A 
ATOM     31  C   UNL     1       0.831 -10.162  -3.090  1.00  0.00     0.010 A 
ATOM     32  C   UNL     1       2.732  -8.924  -3.923  1.00  0.00     0.010 A 
ATOM     33  C   UNL     1       1.654  -9.789  -4.163  1.00  0.00    -0.014 A 
BRANCH  33  34
ATOM     34  C   UNL     1       1.433 -10.278  -5.549  1.00  0.00     0.031 A 
ATOM     35  C   UNL     1       2.538 -11.012  -6.263  1.00  0.00     0.074 A 
ATOM     36  C   UNL     1       0.304  -9.944  -6.207  1.00  0.00     0.049 A 
ATOM     37  N   UNL     1       2.616 -11.367  -7.518  1.00  0.00    -0.248 NA
ATOM     38  C   UNL     1       3.733 -11.349  -5.471  1.00  0.00     0.031 C 
ATOM     39  C   UNL     1      -0.806  -9.166  -5.652  1.00  0.00     0.029 A 
ATOM     40  N   UNL     1      -0.079 -10.183  -7.505  1.00  0.00    -0.354 N 
ATOM     41  C   UNL     1       3.885 -11.913  -7.678  1.00  0.00     0.074 A 
ATOM     42  C   UNL     1       4.555 -11.809  -6.402  1.00  0.00     0.031 C 
ATOM     43  C   UNL     1      -1.741  -8.992  -6.599  1.00  0.00     0.029 A 
ATOM     44  C   UNL     1      -1.284  -9.608  -7.840  1.00  0.00     0.049 A 
ATOM     45  H   UNL     1       0.458 -10.714  -8.136  1.00  0.00     0.167 HD
ATOM     46  C   UNL     1       4.433 -12.480  -8.778  1.00  0.00     0.034 A 
ATOM     47  C   UNL     1      -1.938  -9.568  -9.017  1.00  0.00     0.034 A 
ATOM     48  C   UNL     1       3.735 -12.643 -10.024  1.00  0.00     0.049 A 
ATOM     49  C   UNL     1      -1.334 -10.259 -10.210  1.00  0.00     0.074 A 
ATOM     50  C   UNL     1       4.159 -13.297 -11.166  1.00  0.00     0.029 A 
ATOM     51  N   UNL     1       2.467 -12.150 -10.288  1.00  0.00    -0.354 N 
ATOM     52  N   UNL     1      -0.195 -10.903 -10.300  1.00  0.00    -0.248 NA
ATOM     53  C   UNL     1      -2.117 -10.249 -11.454  1.00  0.00     0.031 C 
ATOM     54  C   UNL     1       3.153 -13.182 -12.130  1.00  0.00     0.029 A 
ATOM     55  C   UNL     1       2.093 -12.480 -11.578  1.00  0.00     0.049 A 
ATOM     56  H   UNL     1       1.915 -11.641  -9.652  1.00  0.00     0.167 HD
ATOM     57  C   UNL     1      -0.143 -11.409 -11.594  1.00  0.00     0.074 A 
ATOM     58  C   UNL     1      -1.372 -11.008 -12.248  1.00  0.00     0.031 C 
ATOM     59  C   UNL     1       0.838 -12.128 -12.191  1.00  0.00     0.034 A 
BRANCH  46  60
ATOM     60  C   UNL     1       5.835 -13.019  -8.666  1.00  0.00     0.023 A 
ATOM     61  C   UNL     1       6.079 -14.172  -7.891  1.00  0.00     0.012 A 
ATOM     62  C   UNL     1       6.901 -12.420  -9.366  1.00  0.00     0.148 A 
ATOM     63  C   UNL     1       7.366 -14.697  -7.782  1.00  0.00     0.002 A 
ATOM     64  C   UNL     1       8.172 -12.978  -9.291  1.00  0.00     0.091 A 
ATOM     65  F   UNL     1       6.655 -11.313 -10.080  1.00  0.00    -0.205 F 
ATOM     66  C   UNL     1       8.409 -14.107  -8.490  1.00  0.00     0.022 A 
BRANCH  64  67
ATOM     67  S   UNL     1       9.566 -12.343 -10.230  1.00  0.00     0.127 S 
ATOM     68  O   UNL     1      10.385 -11.747  -9.176  1.00  0.00    -0.237 OA
ATOM     69  O   UNL     1      10.121 -13.562 -10.818  1.00  0.00    -0.237 OA
ATOM     70  O   UNL     1       9.007 -11.405 -11.194  1.00  0.00    -0.744 OA
ENDBRANCH  64  67
ENDBRANCH  46  60
BRANCH  47  71
ATOM     71  C   UNL     1      -3.272  -8.906  -9.108  1.00  0.00     0.023 A 
ATOM     72  C   UNL     1      -4.423  -9.699  -9.282  1.00  0.00     0.012 A 
ATOM     73  C   UNL     1      -3.414  -7.510  -8.991  1.00  0.00     0.148 A 
ATOM     74  C   UNL     1      -5.686  -9.113  -9.372  1.00  0.00     0.002 A 
ATOM     75  C   UNL     1      -4.680  -6.936  -9.025  1.00  0.00     0.091 A 
ATOM     76  F   UNL     1      -2.307  -6.769  -8.834  1.00  0.00    -0.205 F 
ATOM     77  C   UNL     1      -5.816  -7.734  -9.234  1.00  0.00     0.022 A 
BRANCH  75  78
ATOM     78  S   UNL     1      -4.956  -5.187  -8.722  1.00  0.00     0.127 S 
ATOM     79  O   UNL     1      -5.330  -4.707 -10.050  1.00  0.00    -0.237 OA
ATOM     80  O   UNL     1      -6.047  -5.215  -7.747  1.00  0.00    -0.237 OA
ATOM     81  O   UNL     1      -3.697  -4.676  -8.195  1.00  0.00    -0.744 OA
ENDBRANCH  75  78
ENDBRANCH  47  71
BRANCH  59  82
ATOM     82  C   UNL     1       0.616 -12.580 -13.609  1.00  0.00     0.023 A 
ATOM     83  C   UNL     1       0.704 -11.652 -14.664  1.00  0.00     0.012 A 
ATOM     84  C   UNL     1       0.422 -13.945 -13.899  1.00  0.00     0.148 A 
ATOM     85  C   UNL     1       0.579 -12.072 -15.988  1.00  0.00     0.002 A 
ATOM     86  C   UNL     1       0.348 -14.364 -15.222  1.00  0.00     0.091 A 
ATOM     87  F   UNL     1       0.324 -14.808 -12.878  1.00  0.00    -0.205 F 
ATOM     88  C   UNL     1       0.416 -13.428 -16.267  1.00  0.00     0.022 A 
BRANCH  86  89
ATOM     89  S   UNL     1       0.240 -16.097 -15.679  1.00  0.00     0.127 S 
ATOM     90  O   UNL     1      -1.130 -16.187 -16.182  1.00  0.00    -0.237 OA
ATOM     91  O   UNL     1       1.276 -16.212 -16.706  1.00  0.00    -0.237 OA
ATOM     92  O   UNL     1       0.507 -16.853 -14.463  1.00  0.00    -0.744 OA
ENDBRANCH  86  89
ENDBRANCH  59  82
ENDBRANCH  33  34
ENDBRANCH  25  28
ENDBRANCH  23  24
ENDBRANCH   1  23
TORSDOF 15
