REMARK SMILES CN(C)C(=O)c1cccc(NCc2cc(C(=O)NCCCNC(=O)c3ccc(-c4c5nc(c(-c6cccc(S(=O)(=O)[O-])c6F)c6ccc([nH]6)c(-c6cccc(S(=O)(=O)[O-])c6F)c6nc(c(-c7cccc(S(=O)(=O)[O-])c7F)c7ccc4[nH]7)C=C6)C=C5)cc3)cs2)c1
REMARK SMILES IDX 19 1 18 2 16 3 17 4 15 6 13 7 14 8 89 9 88 10 12 11 11 12
REMARK SMILES IDX 10 14 6 15 7 16 90 17 8 18 9 19 4 20 1 21 2 22 3 23 5 24
REMARK SMILES IDX 20 25 21 26 22 27 23 28 24 30 25 31 26 32 87 33 27 34 86 35
REMARK SMILES IDX 28 36 29 37 30 38 80 39 31 40 85 41 79 42 81 43 32 44 84 45
REMARK SMILES IDX 78 46 77 47 33 49 65 50 45 51 64 52 46 53 49 54 63 55 82 56
REMARK SMILES IDX 47 57 48 58 62 60 83 61 50 62 34 63 35 64 43 65 36 66 38 67
REMARK SMILES IDX 44 68 37 69 39 70 40 71 41 72 42 73 66 74 67 75 75 76 68 77
REMARK SMILES IDX 70 78 76 79 69 80 71 81 72 82 73 83 74 84 51 85 52 86 60 87
REMARK SMILES IDX 53 88 55 89 61 90 54 91 56 92 57 93 58 94 59 95
REMARK H PARENT 18 5 11 13 22 29 81 48 49 59
REMARK Flexibility Score: inf
ROOT
ATOM      1  C   UNL     1      -7.806   0.304   9.359  1.00  0.00     0.118 C 
ENDROOT
BRANCH   1   2
ATOM      2  N   UNL     1      -7.501   1.701   9.600  1.00  0.00    -0.352 N 
ATOM      3  C   UNL     1      -6.466   2.495   9.171  1.00  0.00     0.252 C 
ATOM      4  O   UNL     1      -6.532   3.694   9.436  1.00  0.00    -0.269 OA
ATOM      5  H   UNL     1      -8.153   2.163  10.174  1.00  0.00     0.163 HD
BRANCH   3   6
ATOM      6  C   UNL     1      -5.366   1.946   8.375  1.00  0.00     0.050 A 
ATOM      7  C   UNL     1      -3.924   0.427   7.290  1.00  0.00     0.024 A 
ATOM      8  C   UNL     1      -4.878   0.602   8.274  1.00  0.00     0.031 A 
ATOM      9  S   UNL     1      -3.427   1.930   6.653  1.00  0.00    -0.146 S 
ATOM     10  C   UNL     1      -4.581   2.774   7.588  1.00  0.00     0.079 A 
BRANCH   7  11
ATOM     11  C   UNL     1      -3.359  -0.891   6.830  1.00  0.00     0.159 C 
BRANCH  11  12
ATOM     12  N   UNL     1      -2.728  -0.901   5.524  1.00  0.00    -0.380 N 
ATOM     13  H   UNL     1      -3.314  -0.766   4.744  1.00  0.00     0.160 HD
BRANCH  12  14
ATOM     14  C   UNL     1      -1.385  -1.083   5.274  1.00  0.00     0.035 A 
ATOM     15  C   UNL     1       0.413  -1.186   3.622  1.00  0.00     0.042 A 
ATOM     16  C   UNL     1       1.335  -1.502   4.619  1.00  0.00     0.014 A 
ATOM     17  C   UNL     1      -0.940  -1.021   3.946  1.00  0.00     0.039 A 
ATOM     18  C   UNL     1       0.908  -1.603   5.938  1.00  0.00     0.003 A 
ATOM     19  C   UNL     1      -0.437  -1.386   6.257  1.00  0.00     0.026 A 
BRANCH  15  20
ATOM     20  C   UNL     1       0.888  -1.108   2.219  1.00  0.00     0.253 C 
ATOM     21  C   UNL     1       0.891  -0.088   0.016  1.00  0.00     0.146 C 
ATOM     22  N   UNL     1       0.493  -0.040   1.411  1.00  0.00    -0.345 N 
ATOM     23  C   UNL     1      -0.182   1.164   1.875  1.00  0.00     0.146 C 
ATOM     24  O   UNL     1       1.635  -1.999   1.816  1.00  0.00    -0.269 OA
ENDBRANCH  15  20
ENDBRANCH  12  14
ENDBRANCH  11  12
ENDBRANCH   7  11
ENDBRANCH   3   6
ENDBRANCH   1   2
BRANCH   1  25
ATOM     25  C   UNL     1      -7.420  -0.569  10.551  1.00  0.00     0.042 C 
BRANCH  25  26
ATOM     26  C   UNL     1      -8.400  -0.462  11.716  1.00  0.00     0.118 C 
BRANCH  26  27
ATOM     27  N   UNL     1      -9.722  -0.955  11.355  1.00  0.00    -0.352 N 
ATOM     28  C   UNL     1     -10.496  -1.930  11.926  1.00  0.00     0.251 C 
ATOM     29  H   UNL     1     -10.126  -0.516  10.572  1.00  0.00     0.163 HD
ATOM     30  O   UNL     1     -11.470  -2.351  11.305  1.00  0.00    -0.269 OA
BRANCH  28  31
ATOM     31  C   UNL     1     -10.181  -2.471  13.266  1.00  0.00     0.039 A 
ATOM     32  C   UNL     1     -10.444  -3.821  13.518  1.00  0.00     0.014 A 
ATOM     33  C   UNL     1      -9.700  -1.651  14.291  1.00  0.00     0.014 A 
ATOM     34  C   UNL     1     -10.196  -4.351  14.785  1.00  0.00     0.010 A 
ATOM     35  C   UNL     1      -9.373  -2.201  15.528  1.00  0.00     0.010 A 
ATOM     36  C   UNL     1      -9.639  -3.550  15.796  1.00  0.00    -0.014 A 
BRANCH  36  37
ATOM     37  C   UNL     1      -9.335  -4.120  17.133  1.00  0.00     0.031 A 
ATOM     38  C   UNL     1     -10.036  -3.609  18.363  1.00  0.00     0.074 A 
ATOM     39  C   UNL     1      -8.390  -5.074  17.241  1.00  0.00     0.049 A 
ATOM     40  N   UNL     1      -9.915  -4.005  19.604  1.00  0.00    -0.248 NA
ATOM     41  C   UNL     1     -10.976  -2.490  18.183  1.00  0.00     0.031 C 
ATOM     42  C   UNL     1      -7.585  -5.594  16.133  1.00  0.00     0.029 A 
ATOM     43  N   UNL     1      -7.938  -5.769  18.334  1.00  0.00    -0.354 N 
ATOM     44  C   UNL     1     -10.740  -3.172  20.353  1.00  0.00     0.074 A 
ATOM     45  C   UNL     1     -11.319  -2.217  19.433  1.00  0.00     0.031 C 
ATOM     46  C   UNL     1      -6.760  -6.545  16.597  1.00  0.00     0.029 A 
ATOM     47  C   UNL     1      -6.954  -6.682  18.037  1.00  0.00     0.049 A 
ATOM     48  H   UNL     1      -8.286  -5.628  19.244  1.00  0.00     0.167 HD
ATOM     49  C   UNL     1     -11.018  -3.218  21.678  1.00  0.00     0.034 A 
ATOM     50  C   UNL     1      -6.288  -7.539  18.834  1.00  0.00     0.034 A 
ATOM     51  C   UNL     1     -10.458  -4.187  22.582  1.00  0.00     0.049 A 
ATOM     52  C   UNL     1      -6.639  -7.593  20.295  1.00  0.00     0.074 A 
ATOM     53  C   UNL     1     -10.722  -4.365  23.928  1.00  0.00     0.029 A 
ATOM     54  N   UNL     1      -9.511  -5.139  22.233  1.00  0.00    -0.354 N 
ATOM     55  N   UNL     1      -7.531  -6.897  20.957  1.00  0.00    -0.248 NA
ATOM     56  C   UNL     1      -5.922  -8.583  21.110  1.00  0.00     0.031 C 
ATOM     57  C   UNL     1      -9.914  -5.406  24.399  1.00  0.00     0.029 A 
ATOM     58  C   UNL     1      -9.175  -5.903  23.338  1.00  0.00     0.049 A 
ATOM     59  H   UNL     1      -9.133  -5.254  21.331  1.00  0.00     0.167 HD
ATOM     60  C   UNL     1      -7.513  -7.392  22.256  1.00  0.00     0.074 A 
ATOM     61  C   UNL     1      -6.536  -8.462  22.279  1.00  0.00     0.031 C 
ATOM     62  C   UNL     1      -8.233  -6.994  23.334  1.00  0.00     0.034 A 
BRANCH  49  63
ATOM     63  C   UNL     1     -12.008  -2.215  22.217  1.00  0.00     0.023 A 
ATOM     64  C   UNL     1     -13.367  -2.310  21.849  1.00  0.00     0.012 A 
ATOM     65  C   UNL     1     -11.609  -1.204  23.113  1.00  0.00     0.148 A 
ATOM     66  C   UNL     1     -14.302  -1.390  22.324  1.00  0.00     0.002 A 
ATOM     67  C   UNL     1     -12.555  -0.321  23.622  1.00  0.00     0.091 A 
ATOM     68  F   UNL     1     -10.312  -1.113  23.439  1.00  0.00    -0.205 F 
ATOM     69  C   UNL     1     -13.897  -0.403  23.217  1.00  0.00     0.022 A 
BRANCH  67  70
ATOM     70  S   UNL     1     -12.152   0.935  24.842  1.00  0.00     0.127 S 
ATOM     71  O   UNL     1     -12.258   2.160  24.050  1.00  0.00    -0.237 OA
ATOM     72  O   UNL     1     -13.215   0.756  25.831  1.00  0.00    -0.237 OA
ATOM     73  O   UNL     1     -10.816   0.614  25.322  1.00  0.00    -0.744 OA
ENDBRANCH  67  70
ENDBRANCH  49  63
BRANCH  50  74
ATOM     74  C   UNL     1      -5.286  -8.474  18.249  1.00  0.00     0.023 A 
ATOM     75  C   UNL     1      -5.578  -9.851  18.191  1.00  0.00     0.012 A 
ATOM     76  C   UNL     1      -4.067  -8.007  17.723  1.00  0.00     0.148 A 
ATOM     77  C   UNL     1      -4.658 -10.751  17.652  1.00  0.00     0.002 A 
ATOM     78  C   UNL     1      -3.180  -8.901  17.136  1.00  0.00     0.091 A 
ATOM     79  F   UNL     1      -3.807  -6.694  17.793  1.00  0.00    -0.205 F 
ATOM     80  C   UNL     1      -3.464 -10.276  17.116  1.00  0.00     0.022 A 
BRANCH  78  81
ATOM     81  S   UNL     1      -1.681  -8.366  16.302  1.00  0.00     0.127 S 
ATOM     82  O   UNL     1      -0.644  -8.888  17.189  1.00  0.00    -0.237 OA
ATOM     83  O   UNL     1      -1.794  -9.050  15.014  1.00  0.00    -0.237 OA
ATOM     84  O   UNL     1      -1.772  -6.915  16.222  1.00  0.00    -0.744 OA
ENDBRANCH  78  81
ENDBRANCH  50  74
BRANCH  62  85
ATOM     85  C   UNL     1      -8.029  -7.750  24.622  1.00  0.00     0.023 A 
ATOM     86  C   UNL     1      -6.820  -7.622  25.335  1.00  0.00     0.012 A 
ATOM     87  C   UNL     1      -9.058  -8.556  25.147  1.00  0.00     0.148 A 
ATOM     88  C   UNL     1      -6.621  -8.321  26.524  1.00  0.00     0.002 A 
ATOM     89  C   UNL     1      -8.873  -9.206  26.361  1.00  0.00     0.091 A 
ATOM     90  F   UNL     1     -10.194  -8.683  24.446  1.00  0.00    -0.205 F 
ATOM     91  C   UNL     1      -7.650  -9.103  27.043  1.00  0.00     0.022 A 
BRANCH  89  92
ATOM     92  S   UNL     1     -10.180 -10.151  27.152  1.00  0.00     0.127 S 
ATOM     93  O   UNL     1      -9.733 -11.525  26.925  1.00  0.00    -0.237 OA
ATOM     94  O   UNL     1     -10.091  -9.702  28.542  1.00  0.00    -0.237 OA
ATOM     95  O   UNL     1     -11.413  -9.773  26.474  1.00  0.00    -0.744 OA
ENDBRANCH  89  92
ENDBRANCH  62  85
ENDBRANCH  36  37
ENDBRANCH  28  31
ENDBRANCH  26  27
ENDBRANCH  25  26
ENDBRANCH   1  25
TORSDOF 17
