REMARK SMILES O=C(C[C@H](c1ccsc1)n1cccc1)NCCCNC(=O)c1ccc(-c2c3nc(c(-c4cccc(S(=O)(=O)[O-])c4F)c4ccc([nH]4)c(-c4cccc(S(=O)(=O)[O-])c4F)c4nc(c(-c5cccc(S(=O)(=O)[O-])c5F)c5ccc2[nH]5)C=C4)C=C3)cc1
REMARK SMILES IDX 17 1 16 2 15 3 1 4 2 5 3 7 4 8 10 9 11 10 14 11 12 12 13 13
REMARK SMILES IDX 5 14 6 15 9 16 7 17 8 18 18 19 19 20 20 21 21 23 22 24 23 25
REMARK SMILES IDX 84 26 24 27 83 28 25 29 26 30 27 31 77 32 28 33 82 34 76 35
REMARK SMILES IDX 78 36 29 37 81 38 75 39 74 40 30 42 62 43 42 44 61 45 43 46
REMARK SMILES IDX 46 47 60 48 79 49 44 50 45 51 59 53 80 54 47 55 31 56 32 57
REMARK SMILES IDX 40 58 33 59 35 60 41 61 34 62 36 63 37 64 38 65 39 66 63 67
REMARK SMILES IDX 64 68 72 69 65 70 67 71 73 72 66 73 68 74 69 75 70 76 71 77
REMARK SMILES IDX 48 78 49 79 57 80 50 81 52 82 58 83 51 84 53 85 54 86 55 87
REMARK SMILES IDX 56 88
REMARK H PARENT 15 6 19 22 78 41 46 52
REMARK Flexibility Score: inf
ROOT
ATOM      1  C   UNL     1       2.461  -1.096  -3.843  1.00  0.00     0.042 C 
ENDROOT
BRANCH   1   2
ATOM      2  C   UNL     1       2.759  -0.154  -2.677  1.00  0.00     0.117 C 
BRANCH   2   3
ATOM      3  N   UNL     1       3.449  -0.811  -1.583  1.00  0.00    -0.356 N 
ATOM      4  O   UNL     1       5.080   0.792  -1.349  1.00  0.00    -0.275 OA
ATOM      5  C   UNL     1       4.525  -0.230  -0.951  1.00  0.00     0.222 C 
ATOM      6  H   UNL     1       3.139  -1.697  -1.285  1.00  0.00     0.163 HD
BRANCH   5   7
ATOM      7  C   UNL     1       4.968  -0.914   0.322  1.00  0.00     0.130 C 
BRANCH   7   8
ATOM      8  C   UNL     1       3.952  -0.846   1.474  1.00  0.00     0.127 C 
BRANCH   8   9
ATOM      9  N   UNL     1       4.644  -0.743   2.777  1.00  0.00    -0.346 N 
ATOM     10  C   UNL     1       5.048   0.400   3.424  1.00  0.00     0.086 A 
ATOM     11  C   UNL     1       5.070  -1.830   3.507  1.00  0.00     0.086 A 
ATOM     12  C   UNL     1       5.700   0.039   4.583  1.00  0.00     0.019 A 
ATOM     13  C   UNL     1       5.721  -1.372   4.631  1.00  0.00     0.019 A 
ENDBRANCH   8   9
BRANCH   8  14
ATOM     14  C   UNL     1       2.829   0.175   1.343  1.00  0.00    -0.014 A 
ATOM     15  C   UNL     1       2.980   1.577   1.048  1.00  0.00     0.017 A 
ATOM     16  C   UNL     1       1.483  -0.148   1.424  1.00  0.00     0.070 A 
ATOM     17  C   UNL     1       1.777   2.232   0.912  1.00  0.00     0.065 A 
ATOM     18  S   UNL     1       0.451   1.185   1.144  1.00  0.00    -0.152 S 
ENDBRANCH   8  14
ENDBRANCH   7   8
ENDBRANCH   5   7
ENDBRANCH   2   3
ENDBRANCH   1   2
BRANCH   1  19
ATOM     19  C   UNL     1       1.334  -2.095  -3.557  1.00  0.00     0.118 C 
BRANCH  19  20
ATOM     20  N   UNL     1       0.029  -1.446  -3.535  1.00  0.00    -0.352 N 
ATOM     21  C   UNL     1      -1.227  -2.005  -3.508  1.00  0.00     0.251 C 
ATOM     22  H   UNL     1       0.050  -0.462  -3.542  1.00  0.00     0.163 HD
ATOM     23  O   UNL     1      -2.195  -1.298  -3.786  1.00  0.00    -0.269 OA
BRANCH  21  24
ATOM     24  C   UNL     1      -1.439  -3.437  -3.194  1.00  0.00     0.039 A 
ATOM     25  C   UNL     1      -2.337  -4.161  -3.992  1.00  0.00     0.014 A 
ATOM     26  C   UNL     1      -0.823  -4.057  -2.104  1.00  0.00     0.014 A 
ATOM     27  C   UNL     1      -2.535  -5.526  -3.767  1.00  0.00     0.010 A 
ATOM     28  C   UNL     1      -1.027  -5.421  -1.872  1.00  0.00     0.010 A 
ATOM     29  C   UNL     1      -1.840  -6.172  -2.735  1.00  0.00    -0.014 A 
BRANCH  29  30
ATOM     30  C   UNL     1      -1.733  -7.661  -2.753  1.00  0.00     0.031 A 
ATOM     31  C   UNL     1      -0.650  -8.149  -3.747  1.00  0.00     0.074 A 
ATOM     32  C   UNL     1      -2.548  -8.391  -1.931  1.00  0.00     0.049 A 
ATOM     33  N   UNL     1      -0.501  -9.303  -4.332  1.00  0.00    -0.248 NA
ATOM     34  C   UNL     1       0.364  -7.174  -4.242  1.00  0.00     0.031 C 
ATOM     35  C   UNL     1      -3.547  -7.806  -1.015  1.00  0.00     0.029 A 
ATOM     36  N   UNL     1      -2.710  -9.747  -1.684  1.00  0.00    -0.354 N 
ATOM     37  C   UNL     1       0.731  -9.255  -5.034  1.00  0.00     0.074 A 
ATOM     38  C   UNL     1       1.130  -7.886  -5.068  1.00  0.00     0.031 C 
ATOM     39  C   UNL     1      -4.242  -8.774  -0.377  1.00  0.00     0.029 A 
ATOM     40  C   UNL     1      -3.742 -10.082  -0.768  1.00  0.00     0.049 A 
ATOM     41  H   UNL     1      -2.147 -10.431  -2.114  1.00  0.00     0.167 HD
ATOM     42  C   UNL     1       1.435 -10.364  -5.405  1.00  0.00     0.034 A 
ATOM     43  C   UNL     1      -4.183 -11.314  -0.351  1.00  0.00     0.034 A 
ATOM     44  C   UNL     1       0.730 -11.532  -5.007  1.00  0.00     0.049 A 
ATOM     45  C   UNL     1      -3.205 -12.294  -0.839  1.00  0.00     0.074 A 
ATOM     46  C   UNL     1      -0.369 -12.187  -5.489  1.00  0.00     0.029 A 
ATOM     47  N   UNL     1       1.044 -12.006  -3.759  1.00  0.00    -0.354 N 
ATOM     48  N   UNL     1      -2.020 -12.463  -0.330  1.00  0.00    -0.248 NA
ATOM     49  C   UNL     1      -3.543 -13.131  -1.998  1.00  0.00     0.031 C 
ATOM     50  C   UNL     1      -0.918 -12.808  -4.351  1.00  0.00     0.029 A 
ATOM     51  C   UNL     1      -0.080 -12.594  -3.249  1.00  0.00     0.049 A 
ATOM     52  H   UNL     1       1.919 -11.935  -3.312  1.00  0.00     0.167 HD
ATOM     53  C   UNL     1      -1.378 -13.143  -1.333  1.00  0.00     0.074 A 
ATOM     54  C   UNL     1      -2.404 -13.811  -2.098  1.00  0.00     0.031 C 
ATOM     55  C   UNL     1      -0.209 -12.647  -1.812  1.00  0.00     0.034 A 
BRANCH  42  56
ATOM     56  C   UNL     1       2.853 -10.591  -5.888  1.00  0.00     0.023 A 
ATOM     57  C   UNL     1       3.105 -11.873  -6.462  1.00  0.00     0.012 A 
ATOM     58  C   UNL     1       3.973  -9.811  -5.557  1.00  0.00     0.148 A 
ATOM     59  C   UNL     1       4.386 -12.408  -6.578  1.00  0.00     0.002 A 
ATOM     60  C   UNL     1       5.262 -10.329  -5.731  1.00  0.00     0.091 A 
ATOM     61  F   UNL     1       3.801  -8.612  -4.991  1.00  0.00    -0.205 F 
ATOM     62  C   UNL     1       5.468 -11.637  -6.199  1.00  0.00     0.022 A 
BRANCH  60  63
ATOM     63  S   UNL     1       6.744  -9.380  -5.367  1.00  0.00     0.127 S 
ATOM     64  O   UNL     1       7.134  -9.899  -4.069  1.00  0.00    -0.237 OA
ATOM     65  O   UNL     1       7.630  -9.760  -6.471  1.00  0.00    -0.237 OA
ATOM     66  O   UNL     1       6.321  -7.978  -5.416  1.00  0.00    -0.744 OA
ENDBRANCH  60  63
ENDBRANCH  42  56
BRANCH  43  67
ATOM     67  C   UNL     1      -5.365 -11.881   0.417  1.00  0.00     0.023 A 
ATOM     68  C   UNL     1      -6.263 -11.108   1.165  1.00  0.00     0.012 A 
ATOM     69  C   UNL     1      -5.679 -13.277   0.340  1.00  0.00     0.148 A 
ATOM     70  C   UNL     1      -7.439 -11.666   1.711  1.00  0.00     0.002 A 
ATOM     71  C   UNL     1      -6.894 -13.801   0.769  1.00  0.00     0.091 A 
ATOM     72  F   UNL     1      -4.772 -14.142  -0.125  1.00  0.00    -0.205 F 
ATOM     73  C   UNL     1      -7.779 -12.996   1.474  1.00  0.00     0.022 A 
BRANCH  71  74
ATOM     74  S   UNL     1      -7.431 -15.463   0.308  1.00  0.00     0.127 S 
ATOM     75  O   UNL     1      -7.818 -16.036   1.596  1.00  0.00    -0.237 OA
ATOM     76  O   UNL     1      -8.545 -15.168  -0.593  1.00  0.00    -0.237 OA
ATOM     77  O   UNL     1      -6.290 -16.105  -0.332  1.00  0.00    -0.744 OA
ENDBRANCH  71  74
ENDBRANCH  43  67
BRANCH  55  78
ATOM     78  C   UNL     1       0.620 -11.884  -0.784  1.00  0.00     0.023 A 
ATOM     79  C   UNL     1       1.069 -12.612   0.337  1.00  0.00     0.012 A 
ATOM     80  C   UNL     1       0.881 -10.492  -0.804  1.00  0.00     0.148 A 
ATOM     81  C   UNL     1       1.736 -11.991   1.396  1.00  0.00     0.002 A 
ATOM     82  C   UNL     1       1.548  -9.869   0.257  1.00  0.00     0.091 A 
ATOM     83  F   UNL     1       0.462  -9.778  -1.848  1.00  0.00    -0.205 F 
ATOM     84  C   UNL     1       1.978 -10.623   1.357  1.00  0.00     0.022 A 
BRANCH  82  85
ATOM     85  S   UNL     1       1.884  -8.097   0.336  1.00  0.00     0.127 S 
ATOM     86  O   UNL     1       1.097  -7.673   1.495  1.00  0.00    -0.237 OA
ATOM     87  O   UNL     1       3.329  -8.058   0.553  1.00  0.00    -0.237 OA
ATOM     88  O   UNL     1       1.440  -7.527  -0.931  1.00  0.00    -0.744 OA
ENDBRANCH  82  85
ENDBRANCH  55  78
ENDBRANCH  29  30
ENDBRANCH  21  24
ENDBRANCH  19  20
ENDBRANCH   1  19
TORSDOF 16
