REMARK SMILES O=C(NCCCNC(=O)[C@@H]1CC[C@@H](CNC(=O)N2CC[NH2+]CC2)O1)c1ccc(-c2c3nc(c(-c4cccc(S(=O)(=O)[O-])c4F)c4ccc([nH]4)c(-c4cccc(S(=O)(=O)[O-])c4F)c4nc(c(-c5cccc(S(=O)(=O)[O-])c5F)c5ccc2[nH]5)C=C4)C=C3)cc1
REMARK SMILES IDX 4 1 3 2 1 3 2 4 25 6 26 7 87 8 27 9 86 10 28 11 29 12 30 13
REMARK SMILES IDX 80 14 31 15 85 16 79 17 81 18 32 19 84 20 78 21 77 22 33 24
REMARK SMILES IDX 65 25 45 26 64 27 46 28 49 29 63 30 82 31 47 32 48 33 62 35
REMARK SMILES IDX 83 36 50 37 34 38 35 39 43 40 36 41 38 42 44 43 37 44 39 45
REMARK SMILES IDX 40 46 41 47 42 48 66 49 67 50 75 51 68 52 70 53 76 54 69 55
REMARK SMILES IDX 71 56 72 57 73 58 74 59 51 60 52 61 60 62 53 63 55 64 61 65
REMARK SMILES IDX 54 66 56 67 57 68 58 69 59 70 5 71 6 72 7 73 8 74 9 76 10 77
REMARK SMILES IDX 11 78 24 79 12 80 13 81 14 82 15 83 16 84 17 86 18 87 19 88
REMARK SMILES IDX 23 89 20 90 22 91 21 92
REMARK H PARENT 3 5 81 23 49 34 7 75 15 85 21 93 21 94
REMARK Flexibility Score: inf
ROOT
ATOM      1  C   UNL     1       4.570  -1.109  -0.948  1.00  0.00     0.118 C 
ENDROOT
BRANCH   1   2
ATOM      2  N   UNL     1       3.160  -0.744  -0.936  1.00  0.00    -0.352 N 
ATOM      3  O   UNL     1       1.241   0.154  -0.190  1.00  0.00    -0.269 OA
ATOM      4  C   UNL     1       2.467   0.107  -0.108  1.00  0.00     0.251 C 
ATOM      5  H   UNL     1       2.616  -1.177  -1.633  1.00  0.00     0.163 HD
BRANCH   4   6
ATOM      6  C   UNL     1       3.178   0.931   0.895  1.00  0.00     0.039 A 
ATOM      7  C   UNL     1       4.375   1.576   0.584  1.00  0.00     0.014 A 
ATOM      8  C   UNL     1       2.626   1.071   2.173  1.00  0.00     0.014 A 
ATOM      9  C   UNL     1       5.105   2.205   1.589  1.00  0.00     0.010 A 
ATOM     10  C   UNL     1       3.318   1.782   3.159  1.00  0.00     0.010 A 
ATOM     11  C   UNL     1       4.589   2.311   2.891  1.00  0.00    -0.014 A 
BRANCH  11  12
ATOM     12  C   UNL     1       5.391   2.999   3.938  1.00  0.00     0.031 A 
ATOM     13  C   UNL     1       5.889   2.259   5.152  1.00  0.00     0.074 A 
ATOM     14  C   UNL     1       5.696   4.302   3.777  1.00  0.00     0.049 A 
ATOM     15  N   UNL     1       6.671   2.687   6.111  1.00  0.00    -0.248 NA
ATOM     16  C   UNL     1       5.449   0.865   5.323  1.00  0.00     0.031 C 
ATOM     17  C   UNL     1       5.228   5.144   2.673  1.00  0.00     0.029 A 
ATOM     18  N   UNL     1       6.476   5.144   4.528  1.00  0.00    -0.354 N 
ATOM     19  C   UNL     1       6.782   1.638   7.016  1.00  0.00     0.074 A 
ATOM     20  C   UNL     1       5.979   0.552   6.498  1.00  0.00     0.031 C 
ATOM     21  C   UNL     1       5.763   6.368   2.797  1.00  0.00     0.029 A 
ATOM     22  C   UNL     1       6.578   6.412   4.005  1.00  0.00     0.049 A 
ATOM     23  H   UNL     1       6.920   4.867   5.362  1.00  0.00     0.167 HD
ATOM     24  C   UNL     1       7.502   1.575   8.162  1.00  0.00     0.034 A 
ATOM     25  C   UNL     1       7.257   7.489   4.444  1.00  0.00     0.034 A 
ATOM     26  C   UNL     1       8.345   2.636   8.648  1.00  0.00     0.049 A 
ATOM     27  C   UNL     1       8.094   7.371   5.686  1.00  0.00     0.074 A 
ATOM     28  C   UNL     1       9.174   2.636   9.757  1.00  0.00     0.029 A 
ATOM     29  N   UNL     1       8.466   3.885   8.060  1.00  0.00    -0.354 N 
ATOM     30  N   UNL     1       8.302   6.321   6.442  1.00  0.00    -0.248 NA
ATOM     31  C   UNL     1       8.816   8.576   6.116  1.00  0.00     0.031 C 
ATOM     32  C   UNL     1       9.788   3.891   9.845  1.00  0.00     0.029 A 
ATOM     33  C   UNL     1       9.351   4.667   8.784  1.00  0.00     0.049 A 
ATOM     34  H   UNL     1       7.991   4.174   7.247  1.00  0.00     0.167 HD
ATOM     35  C   UNL     1       9.201   6.729   7.420  1.00  0.00     0.074 A 
ATOM     36  C   UNL     1       9.518   8.116   7.143  1.00  0.00     0.031 C 
ATOM     37  C   UNL     1       9.703   6.026   8.464  1.00  0.00     0.034 A 
BRANCH  24  38
ATOM     38  C   UNL     1       7.455   0.294   8.954  1.00  0.00     0.023 A 
ATOM     39  C   UNL     1       8.158  -0.836   8.488  1.00  0.00     0.012 A 
ATOM     40  C   UNL     1       6.781   0.226  10.189  1.00  0.00     0.148 A 
ATOM     41  C   UNL     1       8.169  -2.020   9.225  1.00  0.00     0.002 A 
ATOM     42  C   UNL     1       6.828  -0.946  10.936  1.00  0.00     0.091 A 
ATOM     43  F   UNL     1       6.098   1.302  10.606  1.00  0.00    -0.205 F 
ATOM     44  C   UNL     1       7.513  -2.072  10.452  1.00  0.00     0.022 A 
BRANCH  42  45
ATOM     45  S   UNL     1       6.076  -1.082  12.563  1.00  0.00     0.127 S 
ATOM     46  O   UNL     1       4.875  -1.862  12.269  1.00  0.00    -0.237 OA
ATOM     47  O   UNL     1       7.100  -1.804  13.320  1.00  0.00    -0.237 OA
ATOM     48  O   UNL     1       5.848   0.285  13.010  1.00  0.00    -0.744 OA
ENDBRANCH  42  45
ENDBRANCH  24  38
BRANCH  25  49
ATOM     49  C   UNL     1       7.232   8.749   3.649  1.00  0.00     0.023 A 
ATOM     50  C   UNL     1       8.395   9.156   2.966  1.00  0.00     0.012 A 
ATOM     51  C   UNL     1       6.059   9.517   3.526  1.00  0.00     0.148 A 
ATOM     52  C   UNL     1       8.394  10.316   2.191  1.00  0.00     0.002 A 
ATOM     53  C   UNL     1       6.049  10.640   2.708  1.00  0.00     0.091 A 
ATOM     54  F   UNL     1       4.968   9.124   4.200  1.00  0.00    -0.205 F 
ATOM     55  C   UNL     1       7.219  11.050   2.052  1.00  0.00     0.022 A 
BRANCH  53  56
ATOM     56  S   UNL     1       4.542  11.554   2.363  1.00  0.00     0.127 S 
ATOM     57  O   UNL     1       4.713  12.739   3.199  1.00  0.00    -0.237 OA
ATOM     58  O   UNL     1       4.651  11.794   0.923  1.00  0.00    -0.237 OA
ATOM     59  O   UNL     1       3.454  10.660   2.736  1.00  0.00    -0.744 OA
ENDBRANCH  53  56
ENDBRANCH  25  49
BRANCH  37  60
ATOM     60  C   UNL     1      10.672   6.732   9.374  1.00  0.00     0.023 A 
ATOM     61  C   UNL     1      10.197   7.703  10.278  1.00  0.00     0.012 A 
ATOM     62  C   UNL     1      12.038   6.392   9.378  1.00  0.00     0.148 A 
ATOM     63  C   UNL     1      11.074   8.348  11.150  1.00  0.00     0.002 A 
ATOM     64  C   UNL     1      12.899   7.008  10.280  1.00  0.00     0.091 A 
ATOM     65  F   UNL     1      12.477   5.483   8.495  1.00  0.00    -0.205 F 
ATOM     66  C   UNL     1      12.421   7.993  11.159  1.00  0.00     0.022 A 
BRANCH  64  67
ATOM     67  S   UNL     1      14.628   6.538  10.414  1.00  0.00     0.127 S 
ATOM     68  O   UNL     1      15.285   7.592   9.644  1.00  0.00    -0.237 OA
ATOM     69  O   UNL     1      14.863   6.602  11.858  1.00  0.00    -0.237 OA
ATOM     70  O   UNL     1      14.714   5.196   9.854  1.00  0.00    -0.744 OA
ENDBRANCH  64  67
ENDBRANCH  37  60
ENDBRANCH  11  12
ENDBRANCH   4   6
ENDBRANCH   1   2
BRANCH   1  71
ATOM     71  C   UNL     1       4.803  -2.610  -0.801  1.00  0.00     0.042 C 
BRANCH  71  72
ATOM     72  C   UNL     1       4.225  -3.446  -1.937  1.00  0.00     0.117 C 
BRANCH  72  73
ATOM     73  N   UNL     1       4.797  -3.091  -3.223  1.00  0.00    -0.354 N 
ATOM     74  C   UNL     1       5.788  -3.724  -3.921  1.00  0.00     0.249 C 
ATOM     75  H   UNL     1       4.421  -2.288  -3.650  1.00  0.00     0.163 HD
ATOM     76  O   UNL     1       6.178  -3.216  -4.973  1.00  0.00    -0.272 OA
BRANCH  74  77
ATOM     77  C   UNL     1       6.397  -5.008  -3.338  1.00  0.00     0.207 C 
ATOM     78  C   UNL     1       7.531  -5.566  -4.187  1.00  0.00     0.045 C 
ATOM     79  O   UNL     1       5.418  -6.059  -3.223  1.00  0.00    -0.363 OA
ATOM     80  C   UNL     1       7.449  -7.042  -3.904  1.00  0.00     0.037 C 
ATOM     81  C   UNL     1       5.948  -7.257  -3.815  1.00  0.00     0.138 C 
BRANCH  81  82
ATOM     82  C   UNL     1       5.590  -8.470  -2.952  1.00  0.00     0.149 C 
BRANCH  82  83
ATOM     83  N   UNL     1       4.218  -8.912  -3.169  1.00  0.00    -0.335 N 
ATOM     84  C   UNL     1       3.734  -9.838  -4.029  1.00  0.00     0.317 C 
ATOM     85  H   UNL     1       3.543  -8.470  -2.605  1.00  0.00     0.165 HD
ATOM     86  O   UNL     1       2.594  -9.677  -4.466  1.00  0.00    -0.249 OA
ATOM     87  N   UNL     1       4.522 -10.879  -4.424  1.00  0.00    -0.314 N 
ATOM     88  C   UNL     1       4.241 -11.548  -5.691  1.00  0.00     0.182 C 
ATOM     89  C   UNL     1       5.515 -11.577  -3.608  1.00  0.00     0.182 C 
ATOM     90  C   UNL     1       5.552 -11.764  -6.474  1.00  0.00     0.282 C 
ATOM     91  C   UNL     1       6.818 -11.761  -4.409  1.00  0.00     0.282 C 
ATOM     92  N   UNL     1       6.602 -12.460  -5.695  1.00  0.00    -0.343 N 
ATOM     93  H   UNL     1       7.472 -12.466  -6.228  1.00  0.00     0.346 HD
ATOM     94  H   UNL     1       6.306 -13.419  -5.512  1.00  0.00     0.346 HD
ENDBRANCH  82  83
ENDBRANCH  81  82
ENDBRANCH  74  77
ENDBRANCH  72  73
ENDBRANCH  71  72
ENDBRANCH   1  71
TORSDOF 15
