REMARK SMILES Cc1cccc(N2C(=O)/C(=C/c3cccn3-c3cccc(C(=O)NCCCNC(=O)c4ccc(-c5c6nc(c(-c7cccc(S(=O)(=O)[O-])c7F)c7ccc([nH]7)c(-c7cccc(S(=O)(=O)[O-])c7F)c7nc(c(-c8cccc(S(=O)(=O)[O-])c8F)c8ccc5[nH]8)C=C7)C=C6)cc4)c3)C(O)=NC2=S)c1C
REMARK SMILES IDX 26 1 25 2 24 3 22 4 23 5 21 7 17 8 18 9 94 10 19 11 20 12
REMARK SMILES IDX 16 13 12 14 13 15 14 16 15 17 11 18 7 19 8 20 98 21 9 22
REMARK SMILES IDX 10 23 97 24 99 25 95 26 6 27 1 28 2 29 3 30 100 31 4 32
REMARK SMILES IDX 101 33 5 34 96 35 27 37 28 38 29 39 30 41 31 42 32 43 93 44
REMARK SMILES IDX 33 45 92 46 34 47 35 48 36 49 86 50 37 51 91 52 85 53 87 54
REMARK SMILES IDX 38 55 90 56 84 57 83 58 39 60 71 61 51 62 70 63 52 64 55 65
REMARK SMILES IDX 69 66 88 67 53 68 54 69 68 71 89 72 56 73 40 74 41 75 49 76
REMARK SMILES IDX 42 77 44 78 50 79 43 80 45 81 46 82 47 83 48 84 72 85 73 86
REMARK SMILES IDX 81 87 74 88 76 89 82 90 75 91 77 92 78 93 79 94 80 95 57 96
REMARK SMILES IDX 58 97 66 98 59 99 61 100 67 101 60 102 62 103 63 104 64 105
REMARK SMILES IDX 65 106
REMARK H PARENT 24 6 96 36 28 40 87 59 55 70
REMARK Flexibility Score: inf
ROOT
ATOM      1  C   UNL     1       2.861  -6.317  -1.698  1.00  0.00     0.042 C 
ENDROOT
BRANCH   1   2
ATOM      2  C   UNL     1       2.424  -5.021  -2.389  1.00  0.00     0.118 C 
BRANCH   2   3
ATOM      3  N   UNL     1       2.818  -4.933  -3.783  1.00  0.00    -0.352 N 
ATOM      4  C   UNL     1       2.271  -5.295  -4.986  1.00  0.00     0.251 C 
ATOM      5  O   UNL     1       2.856  -4.905  -5.999  1.00  0.00    -0.269 OA
ATOM      6  H   UNL     1       3.698  -4.506  -3.891  1.00  0.00     0.163 HD
BRANCH   4   7
ATOM      7  C   UNL     1       1.055  -6.141  -5.167  1.00  0.00     0.041 A 
ATOM      8  C   UNL     1      -0.912  -7.353  -4.385  1.00  0.00     0.046 A 
ATOM      9  C   UNL     1      -1.103  -7.897  -5.659  1.00  0.00     0.026 A 
ATOM     10  C   UNL     1       0.160  -6.480  -4.156  1.00  0.00     0.040 A 
ATOM     11  C   UNL     1      -0.243  -7.537  -6.696  1.00  0.00     0.003 A 
ATOM     12  C   UNL     1       0.825  -6.669  -6.449  1.00  0.00     0.014 A 
BRANCH   8  13
ATOM     13  N   UNL     1      -1.710  -7.782  -3.282  1.00  0.00    -0.317 N 
ATOM     14  C   UNL     1      -2.075  -7.081  -2.120  1.00  0.00     0.047 A 
ATOM     15  C   UNL     1      -2.683  -7.984  -1.261  1.00  0.00     0.028 A 
ATOM     16  C   UNL     1      -2.667  -9.253  -1.870  1.00  0.00     0.020 A 
ATOM     17  C   UNL     1      -2.116  -9.095  -3.119  1.00  0.00     0.092 A 
BRANCH  14  18
ATOM     18  C   UNL     1      -1.894  -5.672  -2.001  1.00  0.00     0.046 C 
ATOM     19  N   UNL     1      -0.707  -2.871   0.033  1.00  0.00    -0.251 N 
ATOM     20  C   UNL     1      -1.224  -3.530  -1.088  1.00  0.00     0.270 C 
ATOM     21  C   UNL     1      -0.364  -3.546   1.221  1.00  0.00     0.210 C 
ATOM     22  O   UNL     1      -1.657  -2.966  -2.095  1.00  0.00    -0.268 OA
ATOM     23  C   UNL     1      -1.251  -5.030  -1.000  1.00  0.00     0.104 C 
ATOM     24  N   UNL     1      -0.118  -4.894   1.153  1.00  0.00    -0.184 NA
ATOM     25  S   UNL     1      -0.290  -2.804   2.750  1.00  0.00    -0.038 S 
ATOM     26  C   UNL     1      -0.528  -5.577   0.152  1.00  0.00     0.226 C 
BRANCH  19  27
ATOM     27  C   UNL     1      -0.652  -1.435  -0.027  1.00  0.00     0.055 A 
ATOM     28  C   UNL     1       1.833   1.500  -0.009  1.00  0.00     0.044 C 
ATOM     29  C   UNL     1       0.568   0.681  -0.021  1.00  0.00    -0.046 A 
ATOM     30  C   UNL     1      -0.662   1.360  -0.022  1.00  0.00     0.004 A 
ATOM     31  C   UNL     1       0.584  -0.736  -0.039  1.00  0.00    -0.024 A 
ATOM     32  C   UNL     1      -1.867   0.664  -0.049  1.00  0.00     0.002 A 
ATOM     33  C   UNL     1       1.890  -1.493  -0.106  1.00  0.00     0.047 C 
ATOM     34  C   UNL     1      -1.863  -0.727  -0.058  1.00  0.00     0.027 A 
ENDBRANCH  19  27
BRANCH  26  35
ATOM     35  O   UNL     1      -0.188  -6.872   0.160  1.00  0.00    -0.493 OA
ATOM     36  H   UNL     1      -0.455  -7.431  -0.543  1.00  0.00     0.295 HD
ENDBRANCH  26  35
ENDBRANCH  14  18
ENDBRANCH   8  13
ENDBRANCH   4   7
ENDBRANCH   2   3
ENDBRANCH   1   2
BRANCH   1  37
ATOM     37  C   UNL     1       4.035  -6.063  -0.753  1.00  0.00     0.118 C 
BRANCH  37  38
ATOM     38  N   UNL     1       3.645  -5.141   0.311  1.00  0.00    -0.352 N 
ATOM     39  C   UNL     1       4.404  -4.369   1.160  1.00  0.00     0.251 C 
ATOM     40  H   UNL     1       2.673  -5.057   0.443  1.00  0.00     0.163 HD
ATOM     41  O   UNL     1       3.859  -3.790   2.085  1.00  0.00    -0.269 OA
BRANCH  39  42
ATOM     42  C   UNL     1       5.867  -4.268   0.996  1.00  0.00     0.039 A 
ATOM     43  C   UNL     1       6.650  -4.319   2.158  1.00  0.00     0.014 A 
ATOM     44  C   UNL     1       6.461  -4.096  -0.255  1.00  0.00     0.014 A 
ATOM     45  C   UNL     1       8.033  -4.278   2.055  1.00  0.00     0.010 A 
ATOM     46  C   UNL     1       7.839  -4.118  -0.368  1.00  0.00     0.010 A 
ATOM     47  C   UNL     1       8.620  -4.211   0.786  1.00  0.00    -0.014 A 
BRANCH  47  48
ATOM     48  C   UNL     1      10.083  -4.356   0.663  1.00  0.00     0.031 A 
ATOM     49  C   UNL     1      10.500  -5.843   0.889  1.00  0.00     0.074 A 
ATOM     50  C   UNL     1      10.750  -3.188   0.394  1.00  0.00     0.049 A 
ATOM     51  N   UNL     1      11.505  -6.369   1.534  1.00  0.00    -0.248 NA
ATOM     52  C   UNL     1       9.561  -6.910   0.432  1.00  0.00     0.031 C 
ATOM     53  C   UNL     1      10.113  -1.866   0.143  1.00  0.00     0.029 A 
ATOM     54  N   UNL     1      12.076  -2.851   0.260  1.00  0.00    -0.354 N 
ATOM     55  C   UNL     1      11.431  -7.782   1.351  1.00  0.00     0.074 A 
ATOM     56  C   UNL     1      10.136  -8.054   0.811  1.00  0.00     0.031 C 
ATOM     57  C   UNL     1      11.036  -0.894  -0.030  1.00  0.00     0.029 A 
ATOM     58  C   UNL     1      12.357  -1.467   0.104  1.00  0.00     0.049 A 
ATOM     59  H   UNL     1      12.789  -3.530   0.271  1.00  0.00     0.167 HD
ATOM     60  C   UNL     1      12.510  -8.618   1.475  1.00  0.00     0.034 A 
ATOM     61  C   UNL     1      13.570  -0.829   0.170  1.00  0.00     0.034 A 
ATOM     62  C   UNL     1      13.671  -7.829   1.711  1.00  0.00     0.049 A 
ATOM     63  C   UNL     1      14.520  -1.918   0.416  1.00  0.00     0.074 A 
ATOM     64  C   UNL     1      14.332  -7.343   2.803  1.00  0.00     0.029 A 
ATOM     65  N   UNL     1      14.227  -7.299   0.575  1.00  0.00    -0.354 N 
ATOM     66  N   UNL     1      14.896  -2.790  -0.466  1.00  0.00    -0.248 NA
ATOM     67  C   UNL     1      14.896  -2.182   1.804  1.00  0.00     0.031 C 
ATOM     68  C   UNL     1      15.133  -6.294   2.296  1.00  0.00     0.029 A 
ATOM     69  C   UNL     1      14.880  -6.150   0.928  1.00  0.00     0.049 A 
ATOM     70  H   UNL     1      14.166  -7.678  -0.332  1.00  0.00     0.167 HD
ATOM     71  C   UNL     1      15.266  -3.868   0.304  1.00  0.00     0.074 A 
ATOM     72  C   UNL     1      15.490  -3.357   1.641  1.00  0.00     0.031 C 
ATOM     73  C   UNL     1      14.983  -5.136  -0.091  1.00  0.00     0.034 A 
BRANCH  60  74
ATOM     74  C   UNL     1      12.816 -10.075   1.125  1.00  0.00     0.023 A 
ATOM     75  C   UNL     1      14.019 -10.591   1.701  1.00  0.00     0.012 A 
ATOM     76  C   UNL     1      12.250 -10.826   0.080  1.00  0.00     0.148 A 
ATOM     77  C   UNL     1      14.714 -11.677   1.171  1.00  0.00     0.002 A 
ATOM     78  C   UNL     1      12.923 -11.958  -0.411  1.00  0.00     0.091 A 
ATOM     79  F   UNL     1      11.113 -10.412  -0.486  1.00  0.00    -0.205 F 
ATOM     80  C   UNL     1      14.172 -12.351   0.097  1.00  0.00     0.022 A 
BRANCH  78  81
ATOM     81  S   UNL     1      12.277 -13.001  -1.728  1.00  0.00     0.127 S 
ATOM     82  O   UNL     1      13.142 -12.649  -2.850  1.00  0.00    -0.237 OA
ATOM     83  O   UNL     1      12.506 -14.345  -1.189  1.00  0.00    -0.237 OA
ATOM     84  O   UNL     1      10.870 -12.647  -1.856  1.00  0.00    -0.744 OA
ENDBRANCH  78  81
ENDBRANCH  60  74
BRANCH  61  85
ATOM     85  C   UNL     1      14.087   0.590   0.278  1.00  0.00     0.023 A 
ATOM     86  C   UNL     1      13.372   1.724  -0.131  1.00  0.00     0.012 A 
ATOM     87  C   UNL     1      15.359   0.844   0.883  1.00  0.00     0.148 A 
ATOM     88  C   UNL     1      13.846   3.026   0.142  1.00  0.00     0.002 A 
ATOM     89  C   UNL     1      15.770   2.121   1.254  1.00  0.00     0.091 A 
ATOM     90  F   UNL     1      16.215  -0.165   1.076  1.00  0.00    -0.205 F 
ATOM     91  C   UNL     1      15.016   3.225   0.875  1.00  0.00     0.022 A 
BRANCH  89  92
ATOM     92  S   UNL     1      17.182   2.389   2.349  1.00  0.00     0.127 S 
ATOM     93  O   UNL     1      18.040   3.257   1.545  1.00  0.00    -0.237 OA
ATOM     94  O   UNL     1      16.547   3.043   3.493  1.00  0.00    -0.237 OA
ATOM     95  O   UNL     1      17.731   1.071   2.640  1.00  0.00    -0.744 OA
ENDBRANCH  89  92
ENDBRANCH  61  85
BRANCH  73  96
ATOM     96  C   UNL     1      14.462  -5.247  -1.540  1.00  0.00     0.023 A 
ATOM     97  C   UNL     1      15.357  -4.951  -2.581  1.00  0.00     0.012 A 
ATOM     98  C   UNL     1      13.111  -5.490  -1.911  1.00  0.00     0.148 A 
ATOM     99  C   UNL     1      14.934  -4.888  -3.915  1.00  0.00     0.002 A 
ATOM    100  C   UNL     1      12.680  -5.409  -3.240  1.00  0.00     0.091 A 
ATOM    101  F   UNL     1      12.243  -5.818  -0.960  1.00  0.00    -0.205 F 
ATOM    102  C   UNL     1      13.600  -5.112  -4.246  1.00  0.00     0.022 A 
BRANCH 100 103
ATOM    103  S   UNL     1      10.954  -5.592  -3.759  1.00  0.00     0.127 S 
ATOM    104  O   UNL     1      10.740  -4.396  -4.578  1.00  0.00    -0.237 OA
ATOM    105  O   UNL     1      10.988  -6.838  -4.519  1.00  0.00    -0.237 OA
ATOM    106  O   UNL     1      10.150  -5.623  -2.542  1.00  0.00    -0.744 OA
ENDBRANCH 100 103
ENDBRANCH  73  96
ENDBRANCH  47  48
ENDBRANCH  39  42
ENDBRANCH  37  38
ENDBRANCH   1  37
TORSDOF 17
