REMARK SMILES Cc1ccc(/C=C2/SC(=O)N(CC(=O)NCCCNC(=O)c3ccc(-c4c5nc(c(-c6cccc(S(=O)(=O)[O-])c6F)c6ccc([nH]6)c(-c6cccc(S(=O)(=O)[O-])c6F)c6nc(c(-c7cccc(S(=O)(=O)[O-])c7F)c7ccc4[nH]7)C=C6)C=C5)cc3)C2=O)cc1
REMARK SMILES IDX 17 1 16 2 15 3 13 4 14 5 12 7 11 8 6 9 7 10 8 11 85 12 9 13
REMARK SMILES IDX 86 14 10 15 5 16 1 17 2 18 3 19 88 20 4 21 87 22 18 23 19 24
REMARK SMILES IDX 20 25 21 27 22 28 23 29 84 30 24 31 83 32 25 33 26 34 27 35
REMARK SMILES IDX 77 36 28 37 82 38 76 39 78 40 29 41 81 42 75 43 74 44 30 46
REMARK SMILES IDX 62 47 42 48 61 49 43 50 46 51 60 52 79 53 44 54 45 55 59 57
REMARK SMILES IDX 80 58 47 59 31 60 32 61 40 62 33 63 35 64 41 65 34 66 36 67
REMARK SMILES IDX 37 68 38 69 39 70 63 71 64 72 72 73 65 74 67 75 73 76 66 77
REMARK SMILES IDX 68 78 69 79 70 80 71 81 48 82 49 83 57 84 50 85 52 86 58 87
REMARK SMILES IDX 51 88 53 89 54 90 55 91 56 92
REMARK H PARENT 15 6 19 26 78 45 46 56
REMARK Flexibility Score: inf
ROOT
ATOM      1  C   UNL     1      -5.345   4.382  -2.184  1.00  0.00     0.042 C 
ENDROOT
BRANCH   1   2
ATOM      2  C   UNL     1      -4.987   4.620  -3.639  1.00  0.00     0.117 C 
BRANCH   2   3
ATOM      3  N   UNL     1      -3.567   4.461  -3.885  1.00  0.00    -0.354 N 
ATOM      4  C   UNL     1      -2.893   3.383  -4.385  1.00  0.00     0.240 C 
ATOM      5  O   UNL     1      -1.724   3.547  -4.736  1.00  0.00    -0.273 OA
ATOM      6  H   UNL     1      -3.009   5.240  -3.659  1.00  0.00     0.163 HD
BRANCH   4   7
ATOM      7  C   UNL     1      -3.600   2.040  -4.595  1.00  0.00     0.229 C 
BRANCH   7   8
ATOM      8  N   UNL     1      -4.037   1.442  -3.347  1.00  0.00    -0.259 N 
ATOM      9  C   UNL     1      -3.218   0.032  -0.096  1.00  0.00     0.029 C 
ATOM     10  C   UNL     1      -3.797   0.430  -1.238  1.00  0.00     0.083 C 
ATOM     11  S   UNL     1      -5.506   0.472  -1.474  1.00  0.00    -0.022 SA
ATOM     12  C   UNL     1      -3.115   0.912  -2.477  1.00  0.00     0.268 C 
ATOM     13  C   UNL     1      -5.355   1.217  -3.060  1.00  0.00     0.294 C 
ATOM     14  O   UNL     1      -1.923   0.805  -2.717  1.00  0.00    -0.268 OA
ATOM     15  O   UNL     1      -6.313   1.463  -3.763  1.00  0.00    -0.261 OA
BRANCH   9  16
ATOM     16  C   UNL     1      -1.768   0.012   0.102  1.00  0.00    -0.024 A 
ATOM     17  C   UNL     1       2.535  -0.046   0.087  1.00  0.00     0.044 C 
ATOM     18  C   UNL     1       1.037  -0.025   0.153  1.00  0.00    -0.051 A 
ATOM     19  C   UNL     1       0.314  -1.222   0.084  1.00  0.00     0.004 A 
ATOM     20  C   UNL     1       0.345   1.186   0.256  1.00  0.00     0.004 A 
ATOM     21  C   UNL     1      -1.082  -1.205   0.059  1.00  0.00     0.008 A 
ATOM     22  C   UNL     1      -1.051   1.205   0.239  1.00  0.00     0.008 A 
ENDBRANCH   9  16
ENDBRANCH   7   8
ENDBRANCH   4   7
ENDBRANCH   2   3
ENDBRANCH   1   2
BRANCH   1  23
ATOM     23  C   UNL     1      -5.030   5.559  -1.282  1.00  0.00     0.118 C 
BRANCH  23  24
ATOM     24  N   UNL     1      -6.077   6.569  -1.285  1.00  0.00    -0.352 N 
ATOM     25  C   UNL     1      -6.372   7.563  -0.366  1.00  0.00     0.251 C 
ATOM     26  H   UNL     1      -6.672   6.543  -2.068  1.00  0.00     0.163 HD
ATOM     27  O   UNL     1      -7.439   8.159  -0.476  1.00  0.00    -0.269 OA
BRANCH  25  28
ATOM     28  C   UNL     1      -5.330   8.028   0.591  1.00  0.00     0.039 A 
ATOM     29  C   UNL     1      -5.099   9.409   0.581  1.00  0.00     0.014 A 
ATOM     30  C   UNL     1      -4.320   7.162   0.974  1.00  0.00     0.014 A 
ATOM     31  C   UNL     1      -3.793   9.871   0.546  1.00  0.00     0.010 A 
ATOM     32  C   UNL     1      -3.035   7.577   0.754  1.00  0.00     0.010 A 
ATOM     33  C   UNL     1      -2.787   8.926   0.473  1.00  0.00    -0.014 A 
BRANCH  33  34
ATOM     34  C   UNL     1      -1.386   9.207   0.279  1.00  0.00     0.031 A 
ATOM     35  C   UNL     1      -0.566   9.236   1.502  1.00  0.00     0.074 A 
ATOM     36  C   UNL     1      -0.882   9.075  -0.966  1.00  0.00     0.049 A 
ATOM     37  N   UNL     1       0.692   9.466   1.525  1.00  0.00    -0.248 NA
ATOM     38  C   UNL     1      -1.133   9.001   2.830  1.00  0.00     0.031 C 
ATOM     39  C   UNL     1       0.474   8.709  -1.351  1.00  0.00     0.029 A 
ATOM     40  N   UNL     1      -1.485   9.375  -2.175  1.00  0.00    -0.354 N 
ATOM     41  C   UNL     1       1.151   9.134   2.784  1.00  0.00     0.074 A 
ATOM     42  C   UNL     1      -0.031   8.934   3.578  1.00  0.00     0.031 C 
ATOM     43  C   UNL     1       0.667   9.023  -2.645  1.00  0.00     0.029 A 
ATOM     44  C   UNL     1      -0.497   9.778  -3.079  1.00  0.00     0.049 A 
ATOM     45  H   UNL     1      -2.449   9.315  -2.368  1.00  0.00     0.167 HD
ATOM     46  C   UNL     1       2.488   8.934   2.929  1.00  0.00     0.034 A 
ATOM     47  C   UNL     1      -0.443  11.085  -3.492  1.00  0.00     0.034 A 
ATOM     48  C   UNL     1       3.175   9.340   1.692  1.00  0.00     0.049 A 
ATOM     49  C   UNL     1       0.778  11.822  -2.962  1.00  0.00     0.074 A 
ATOM     50  C   UNL     1       3.605   8.631   0.583  1.00  0.00     0.029 A 
ATOM     51  N   UNL     1       3.147  10.681   1.320  1.00  0.00    -0.354 N 
ATOM     52  N   UNL     1       1.506  11.408  -1.958  1.00  0.00    -0.248 NA
ATOM     53  C   UNL     1       1.313  13.044  -3.557  1.00  0.00     0.031 C 
ATOM     54  C   UNL     1       3.728   9.552  -0.496  1.00  0.00     0.029 A 
ATOM     55  C   UNL     1       3.414  10.820  -0.033  1.00  0.00     0.049 A 
ATOM     56  H   UNL     1       2.963  11.428   1.933  1.00  0.00     0.167 HD
ATOM     57  C   UNL     1       2.532  12.283  -1.721  1.00  0.00     0.074 A 
ATOM     58  C   UNL     1       2.390  13.268  -2.782  1.00  0.00     0.031 C 
ATOM     59  C   UNL     1       3.395  12.137  -0.665  1.00  0.00     0.034 A 
BRANCH  46  60
ATOM     60  C   UNL     1       3.179   8.154   4.035  1.00  0.00     0.023 A 
ATOM     61  C   UNL     1       4.519   7.775   3.782  1.00  0.00     0.012 A 
ATOM     62  C   UNL     1       2.632   7.689   5.257  1.00  0.00     0.148 A 
ATOM     63  C   UNL     1       5.250   6.946   4.638  1.00  0.00     0.002 A 
ATOM     64  C   UNL     1       3.360   6.853   6.114  1.00  0.00     0.091 A 
ATOM     65  F   UNL     1       1.407   8.056   5.628  1.00  0.00    -0.205 F 
ATOM     66  C   UNL     1       4.666   6.473   5.801  1.00  0.00     0.022 A 
BRANCH  64  67
ATOM     67  S   UNL     1       2.681   6.184   7.647  1.00  0.00     0.127 S 
ATOM     68  O   UNL     1       2.801   4.741   7.429  1.00  0.00    -0.237 OA
ATOM     69  O   UNL     1       3.594   6.722   8.654  1.00  0.00    -0.237 OA
ATOM     70  O   UNL     1       1.308   6.666   7.740  1.00  0.00    -0.744 OA
ENDBRANCH  64  67
ENDBRANCH  46  60
BRANCH  47  71
ATOM     71  C   UNL     1      -1.812  11.656  -3.709  1.00  0.00     0.023 A 
ATOM     72  C   UNL     1      -2.583  11.025  -4.720  1.00  0.00     0.012 A 
ATOM     73  C   UNL     1      -2.479  12.386  -2.707  1.00  0.00     0.148 A 
ATOM     74  C   UNL     1      -3.971  10.937  -4.611  1.00  0.00     0.002 A 
ATOM     75  C   UNL     1      -3.872  12.318  -2.624  1.00  0.00     0.091 A 
ATOM     76  F   UNL     1      -1.749  13.072  -1.819  1.00  0.00    -0.205 F 
ATOM     77  C   UNL     1      -4.609  11.542  -3.535  1.00  0.00     0.022 A 
BRANCH  75  78
ATOM     78  S   UNL     1      -4.795  13.122  -1.306  1.00  0.00     0.127 S 
ATOM     79  O   UNL     1      -5.245  14.344  -1.966  1.00  0.00    -0.237 OA
ATOM     80  O   UNL     1      -5.858  12.156  -1.027  1.00  0.00    -0.237 OA
ATOM     81  O   UNL     1      -3.844  13.296  -0.218  1.00  0.00    -0.744 OA
ENDBRANCH  75  78
ENDBRANCH  47  71
BRANCH  59  82
ATOM     82  C   UNL     1       4.326  13.221  -0.143  1.00  0.00     0.023 A 
ATOM     83  C   UNL     1       4.154  14.579  -0.474  1.00  0.00     0.012 A 
ATOM     84  C   UNL     1       5.318  12.934   0.833  1.00  0.00     0.148 A 
ATOM     85  C   UNL     1       4.967  15.585   0.059  1.00  0.00     0.002 A 
ATOM     86  C   UNL     1       6.030  13.953   1.461  1.00  0.00     0.091 A 
ATOM     87  F   UNL     1       5.603  11.664   1.153  1.00  0.00    -0.205 F 
ATOM     88  C   UNL     1       5.889  15.276   1.046  1.00  0.00     0.022 A 
BRANCH  86  89
ATOM     89  S   UNL     1       7.016  13.633   2.932  1.00  0.00     0.127 S 
ATOM     90  O   UNL     1       8.362  13.521   2.375  1.00  0.00    -0.237 OA
ATOM     91  O   UNL     1       6.784  14.839   3.729  1.00  0.00    -0.237 OA
ATOM     92  O   UNL     1       6.455  12.420   3.511  1.00  0.00    -0.744 OA
ENDBRANCH  86  89
ENDBRANCH  59  82
ENDBRANCH  33  34
ENDBRANCH  25  28
ENDBRANCH  23  24
ENDBRANCH   1  23
TORSDOF 15
