REMARK SMILES Cc1ccc(S(=O)(=O)/C=C/C(=O)NCCCNC(=O)c2ccc(-c3c4nc(c(-c5cccc(S(=O)(=O)[O-])c5F)c5ccc([nH]5)c(-c5cccc(S(=O)(=O)[O-])c5F)c5nc(c(-c6cccc(S(=O)(=O)[O-])c6F)c6ccc3[nH]6)C=C5)C=C4)cc2)cc1
REMARK SMILES IDX 15 1 14 2 13 3 11 4 12 5 10 7 9 8 6 9 7 10 8 11 5 12 1 13
REMARK SMILES IDX 2 14 3 15 84 16 4 17 83 18 16 19 17 20 18 21 19 23 20 24
REMARK SMILES IDX 21 25 82 26 22 27 81 28 23 29 24 30 25 31 75 32 26 33 80 34
REMARK SMILES IDX 74 35 76 36 27 37 79 38 73 39 72 40 28 42 60 43 40 44 59 45
REMARK SMILES IDX 41 46 44 47 58 48 77 49 42 50 43 51 57 53 78 54 45 55 29 56
REMARK SMILES IDX 30 57 38 58 31 59 33 60 39 61 32 62 34 63 35 64 36 65 37 66
REMARK SMILES IDX 61 67 62 68 70 69 63 70 65 71 71 72 64 73 66 74 67 75 68 76
REMARK SMILES IDX 69 77 46 78 47 79 55 80 48 81 50 82 56 83 49 84 51 85 52 86
REMARK SMILES IDX 53 87 54 88
REMARK H PARENT 13 6 17 22 76 41 44 52
REMARK Flexibility Score: inf
ROOT
ATOM      1  C   UNL     1      -7.008   2.676   0.324  1.00  0.00     0.042 C 
ENDROOT
BRANCH   1   2
ATOM      2  C   UNL     1      -6.318   3.269  -0.900  1.00  0.00     0.118 C 
BRANCH   2   3
ATOM      3  N   UNL     1      -5.243   4.182  -0.526  1.00  0.00    -0.352 N 
ATOM      4  C   UNL     1      -3.917   3.902  -0.391  1.00  0.00     0.244 C 
ATOM      5  O   UNL     1      -3.079   4.746  -0.103  1.00  0.00    -0.270 OA
ATOM      6  H   UNL     1      -5.508   5.114  -0.350  1.00  0.00     0.163 HD
BRANCH   4   7
ATOM      7  C   UNL     1      -3.501   2.516  -0.635  1.00  0.00     0.083 C 
ATOM      8  C   UNL     1      -3.648   1.622   0.351  1.00  0.00     0.117 C 
BRANCH   8   9
ATOM      9  S   UNL     1      -3.187  -0.013   0.066  1.00  0.00     0.200 S 
ATOM     10  O   UNL     1      -3.545  -0.378  -1.287  1.00  0.00    -0.219 OA
ATOM     11  O   UNL     1      -3.648  -0.814   1.192  1.00  0.00    -0.219 OA
BRANCH   9  12
ATOM     12  C   UNL     1      -1.410  -0.052   0.137  1.00  0.00     0.071 A 
ATOM     13  C   UNL     1       2.875  -0.311   0.013  1.00  0.00     0.044 C 
ATOM     14  C   UNL     1       1.379  -0.220   0.067  1.00  0.00    -0.051 A 
ATOM     15  C   UNL     1       0.599  -1.366  -0.129  1.00  0.00     0.005 A 
ATOM     16  C   UNL     1       0.751   1.002   0.335  1.00  0.00     0.005 A 
ATOM     17  C   UNL     1      -0.793  -1.284  -0.101  1.00  0.00     0.021 A 
ATOM     18  C   UNL     1      -0.641   1.090   0.376  1.00  0.00     0.021 A 
ENDBRANCH   9  12
ENDBRANCH   8   9
ENDBRANCH   4   7
ENDBRANCH   2   3
ENDBRANCH   1   2
BRANCH   1  19
ATOM     19  C   UNL     1      -8.066   3.609   0.889  1.00  0.00     0.118 C 
BRANCH  19  20
ATOM     20  N   UNL     1      -9.394   3.392   0.336  1.00  0.00    -0.352 N 
ATOM     21  C   UNL     1     -10.567   4.104   0.529  1.00  0.00     0.251 C 
ATOM     22  H   UNL     1      -9.471   2.619  -0.269  1.00  0.00     0.163 HD
ATOM     23  O   UNL     1     -11.610   3.640   0.093  1.00  0.00    -0.269 OA
BRANCH  21  24
ATOM     24  C   UNL     1     -10.522   5.463   1.131  1.00  0.00     0.039 A 
ATOM     25  C   UNL     1     -11.324   6.468   0.569  1.00  0.00     0.014 A 
ATOM     26  C   UNL     1      -9.566   5.796   2.082  1.00  0.00     0.014 A 
ATOM     27  C   UNL     1     -10.995   7.809   0.768  1.00  0.00     0.010 A 
ATOM     28  C   UNL     1      -9.163   7.106   2.186  1.00  0.00     0.010 A 
ATOM     29  C   UNL     1      -9.842   8.107   1.482  1.00  0.00    -0.014 A 
BRANCH  29  30
ATOM     30  C   UNL     1      -9.228   9.418   1.609  1.00  0.00     0.031 A 
ATOM     31  C   UNL     1      -9.376  10.155   2.878  1.00  0.00     0.074 A 
ATOM     32  C   UNL     1      -8.280   9.775   0.714  1.00  0.00     0.049 A 
ATOM     33  N   UNL     1      -8.867  11.316   3.097  1.00  0.00    -0.248 NA
ATOM     34  C   UNL     1     -10.151   9.640   3.999  1.00  0.00     0.031 C 
ATOM     35  C   UNL     1      -7.174  10.702   0.923  1.00  0.00     0.029 A 
ATOM     36  N   UNL     1      -8.267   9.536  -0.663  1.00  0.00    -0.354 N 
ATOM     37  C   UNL     1      -9.013  11.592   4.437  1.00  0.00     0.074 A 
ATOM     38  C   UNL     1      -9.906  10.571   4.926  1.00  0.00     0.031 C 
ATOM     39  C   UNL     1      -6.777  11.175  -0.266  1.00  0.00     0.029 A 
ATOM     40  C   UNL     1      -7.739  10.706  -1.247  1.00  0.00     0.049 A 
ATOM     41  H   UNL     1      -8.564   8.721  -1.128  1.00  0.00     0.167 HD
ATOM     42  C   UNL     1      -8.260  12.595   4.971  1.00  0.00     0.034 A 
ATOM     43  C   UNL     1      -8.440  11.504  -2.107  1.00  0.00     0.034 A 
ATOM     44  C   UNL     1      -7.614  13.381   3.906  1.00  0.00     0.049 A 
ATOM     45  C   UNL     1      -8.596  12.943  -1.628  1.00  0.00     0.074 A 
ATOM     46  C   UNL     1      -6.342  13.468   3.366  1.00  0.00     0.029 A 
ATOM     47  N   UNL     1      -8.436  14.093   3.054  1.00  0.00    -0.354 N 
ATOM     48  N   UNL     1      -8.073  13.431  -0.536  1.00  0.00    -0.248 NA
ATOM     49  C   UNL     1      -9.453  13.917  -2.308  1.00  0.00     0.031 C 
ATOM     50  C   UNL     1      -6.432  14.209   2.146  1.00  0.00     0.029 A 
ATOM     51  C   UNL     1      -7.750  14.592   1.965  1.00  0.00     0.049 A 
ATOM     52  H   UNL     1      -9.399  14.229   3.207  1.00  0.00     0.167 HD
ATOM     53  C   UNL     1      -8.654  14.643  -0.260  1.00  0.00     0.074 A 
ATOM     54  C   UNL     1      -9.462  14.935  -1.431  1.00  0.00     0.031 C 
ATOM     55  C   UNL     1      -8.514  15.288   0.937  1.00  0.00     0.034 A 
BRANCH  42  56
ATOM     56  C   UNL     1      -7.966  12.836   6.442  1.00  0.00     0.023 A 
ATOM     57  C   UNL     1      -7.014  13.839   6.743  1.00  0.00     0.012 A 
ATOM     58  C   UNL     1      -8.464  12.115   7.553  1.00  0.00     0.148 A 
ATOM     59  C   UNL     1      -6.547  14.075   8.041  1.00  0.00     0.002 A 
ATOM     60  C   UNL     1      -8.005  12.351   8.851  1.00  0.00     0.091 A 
ATOM     61  F   UNL     1      -9.376  11.162   7.385  1.00  0.00    -0.205 F 
ATOM     62  C   UNL     1      -7.037  13.325   9.098  1.00  0.00     0.022 A 
BRANCH  60  63
ATOM     63  S   UNL     1      -8.582  11.399  10.272  1.00  0.00     0.127 S 
ATOM     64  O   UNL     1      -7.358  10.715  10.692  1.00  0.00    -0.237 OA
ATOM     65  O   UNL     1      -9.039  12.444  11.187  1.00  0.00    -0.237 OA
ATOM     66  O   UNL     1      -9.633  10.514   9.784  1.00  0.00    -0.744 OA
ENDBRANCH  60  63
ENDBRANCH  42  56
BRANCH  43  67
ATOM     67  C   UNL     1      -9.463  10.755  -2.893  1.00  0.00     0.023 A 
ATOM     68  C   UNL     1      -8.992   9.778  -3.800  1.00  0.00     0.012 A 
ATOM     69  C   UNL     1     -10.803  10.703  -2.468  1.00  0.00     0.148 A 
ATOM     70  C   UNL     1      -9.797   8.700  -4.170  1.00  0.00     0.002 A 
ATOM     71  C   UNL     1     -11.598   9.623  -2.841  1.00  0.00     0.091 A 
ATOM     72  F   UNL     1     -11.248  11.649  -1.633  1.00  0.00    -0.205 F 
ATOM     73  C   UNL     1     -11.088   8.606  -3.662  1.00  0.00     0.022 A 
BRANCH  71  74
ATOM     74  S   UNL     1     -13.248   9.394  -2.163  1.00  0.00     0.127 S 
ATOM     75  O   UNL     1     -14.080   9.903  -3.248  1.00  0.00    -0.237 OA
ATOM     76  O   UNL     1     -13.300   7.946  -1.966  1.00  0.00    -0.237 OA
ATOM     77  O   UNL     1     -13.254  10.162  -0.927  1.00  0.00    -0.744 OA
ENDBRANCH  71  74
ENDBRANCH  43  67
BRANCH  55  78
ATOM     78  C   UNL     1      -9.125  16.642   1.234  1.00  0.00     0.023 A 
ATOM     79  C   UNL     1      -9.062  17.673   0.275  1.00  0.00     0.012 A 
ATOM     80  C   UNL     1      -9.628  16.983   2.515  1.00  0.00     0.148 A 
ATOM     81  C   UNL     1      -9.506  18.969   0.563  1.00  0.00     0.002 A 
ATOM     82  C   UNL     1      -9.966  18.295   2.828  1.00  0.00     0.091 A 
ATOM     83  F   UNL     1      -9.835  16.023   3.424  1.00  0.00    -0.205 F 
ATOM     84  C   UNL     1      -9.932  19.287   1.847  1.00  0.00     0.022 A 
BRANCH  82  85
ATOM     85  S   UNL     1     -10.326  18.816   4.513  1.00  0.00     0.127 S 
ATOM     86  O   UNL     1      -9.449  19.980   4.659  1.00  0.00    -0.237 OA
ATOM     87  O   UNL     1     -11.750  19.133   4.431  1.00  0.00    -0.237 OA
ATOM     88  O   UNL     1      -9.973  17.688   5.363  1.00  0.00    -0.744 OA
ENDBRANCH  82  85
ENDBRANCH  55  78
ENDBRANCH  29  30
ENDBRANCH  21  24
ENDBRANCH  19  20
ENDBRANCH   1  19
TORSDOF 15
