REMARK SMILES CS(=O)(=O)c1ccc(/C=C(/C(=O)NCCCNC(=O)c2ccc(-c3c4nc(c(-c5cccc(S(=O)(=O)[O-])c5F)c5ccc([nH]5)c(-c5cccc(S(=O)(=O)[O-])c5F)c5nc(c(-c6cccc(S(=O)(=O)[O-])c6F)c6ccc3[nH]6)C=C5)C=C4)cc2)c2cccc(-c3ccc(S(C)(=O)=O)cc3)c2)cc1
REMARK SMILES IDX 15 1 14 2 13 3 11 4 12 5 10 7 9 8 8 9 5 10 6 11 100 12 7 13
REMARK SMILES IDX 99 14 2 15 1 16 3 17 4 18 83 19 84 20 98 21 85 22 87 23
REMARK SMILES IDX 86 24 88 25 89 26 97 27 90 28 96 29 91 30 92 31 93 32 94 33
REMARK SMILES IDX 95 34 16 35 17 36 18 37 19 39 20 40 21 41 82 42 22 43 81 44
REMARK SMILES IDX 23 45 24 46 25 47 75 48 26 49 80 50 74 51 76 52 27 53 79 54
REMARK SMILES IDX 73 55 72 56 28 58 60 59 40 60 59 61 41 62 44 63 58 64 77 65
REMARK SMILES IDX 42 66 43 67 57 69 78 70 45 71 29 72 30 73 38 74 31 75 33 76
REMARK SMILES IDX 39 77 32 78 34 79 35 80 36 81 37 82 61 83 62 84 70 85 63 86
REMARK SMILES IDX 65 87 71 88 64 89 66 90 67 91 68 92 69 93 46 94 47 95 55 96
REMARK SMILES IDX 48 97 50 98 56 99 49 100 51 101 52 102 53 103 54 104
REMARK H PARENT 13 6 17 38 76 57 44 68
REMARK Flexibility Score: inf
ROOT
ATOM      1  C   UNL     1       1.149   8.886   4.649  1.00  0.00     0.042 C 
ENDROOT
BRANCH   1   2
ATOM      2  C   UNL     1       2.420   8.046   4.788  1.00  0.00     0.118 C 
BRANCH   2   3
ATOM      3  N   UNL     1       2.416   7.291   6.028  1.00  0.00    -0.352 N 
ATOM      4  C   UNL     1       2.181   5.992   6.347  1.00  0.00     0.251 C 
ATOM      5  O   UNL     1       2.296   5.707   7.542  1.00  0.00    -0.269 OA
ATOM      6  H   UNL     1       2.632   7.845   6.813  1.00  0.00     0.163 HD
BRANCH   4   7
ATOM      7  C   UNL     1       1.892   4.913   5.326  1.00  0.00     0.047 C 
ATOM      8  C   UNL     1       1.183   5.168   4.201  1.00  0.00     0.022 C 
BRANCH   8   9
ATOM      9  C   UNL     1       0.882   4.283   3.052  1.00  0.00    -0.025 A 
ATOM     10  C   UNL     1       0.483   2.683   0.774  1.00  0.00     0.067 A 
ATOM     11  C   UNL     1       0.216   2.165   2.043  1.00  0.00     0.021 A 
ATOM     12  C   UNL     1       0.896   4.007   0.627  1.00  0.00     0.021 A 
ATOM     13  C   UNL     1       0.398   2.974   3.173  1.00  0.00     0.009 A 
ATOM     14  C   UNL     1       1.092   4.799   1.762  1.00  0.00     0.009 A 
BRANCH  10  15
ATOM     15  S   UNL     1       0.293   1.661  -0.668  1.00  0.00     0.175 S 
ATOM     16  C   UNL     1       1.154   0.157  -0.296  1.00  0.00     0.163 C 
ATOM     17  O   UNL     1       1.016   2.299  -1.753  1.00  0.00    -0.224 OA
ATOM     18  O   UNL     1      -1.118   1.352  -0.786  1.00  0.00    -0.224 OA
ENDBRANCH  10  15
ENDBRANCH   8   9
BRANCH   7  19
ATOM     19  C   UNL     1       2.260   3.518   5.692  1.00  0.00    -0.012 A 
ATOM     20  C   UNL     1       1.655   2.927   6.813  1.00  0.00     0.009 A 
ATOM     21  C   UNL     1       3.091   2.732   4.881  1.00  0.00     0.017 A 
ATOM     22  C   UNL     1       1.856   1.582   7.109  1.00  0.00     0.001 A 
ATOM     23  C   UNL     1       3.239   1.353   5.121  1.00  0.00    -0.018 A 
ATOM     24  C   UNL     1       2.631   0.798   6.260  1.00  0.00     0.009 A 
BRANCH  23  25
ATOM     25  C   UNL     1       3.894   0.494   4.126  1.00  0.00    -0.018 A 
ATOM     26  C   UNL     1       3.166  -0.552   3.527  1.00  0.00     0.010 A 
ATOM     27  C   UNL     1       5.208   0.729   3.695  1.00  0.00     0.010 A 
ATOM     28  C   UNL     1       3.725  -1.333   2.518  1.00  0.00     0.021 A 
ATOM     29  C   UNL     1       5.781  -0.053   2.688  1.00  0.00     0.021 A 
ATOM     30  C   UNL     1       5.034  -1.079   2.107  1.00  0.00     0.067 A 
BRANCH  30  31
ATOM     31  S   UNL     1       5.713  -2.050   0.786  1.00  0.00     0.175 S 
ATOM     32  C   UNL     1       5.847  -3.675   1.484  1.00  0.00     0.163 C 
ATOM     33  O   UNL     1       4.716  -2.085  -0.264  1.00  0.00    -0.224 OA
ATOM     34  O   UNL     1       7.060  -1.572   0.527  1.00  0.00    -0.224 OA
ENDBRANCH  30  31
ENDBRANCH  23  25
ENDBRANCH   7  19
ENDBRANCH   4   7
ENDBRANCH   2   3
ENDBRANCH   1   2
BRANCH   1  35
ATOM     35  C   UNL     1       1.042  10.021   5.670  1.00  0.00     0.118 C 
BRANCH  35  36
ATOM     36  N   UNL     1       2.055  11.046   5.465  1.00  0.00    -0.352 N 
ATOM     37  C   UNL     1       1.913  12.392   5.231  1.00  0.00     0.251 C 
ATOM     38  H   UNL     1       2.985  10.725   5.498  1.00  0.00     0.163 HD
ATOM     39  O   UNL     1       2.891  13.044   4.874  1.00  0.00    -0.269 OA
BRANCH  37  40
ATOM     40  C   UNL     1       0.603  13.058   5.401  1.00  0.00     0.039 A 
ATOM     41  C   UNL     1       0.211  14.020   4.464  1.00  0.00     0.014 A 
ATOM     42  C   UNL     1      -0.215  12.782   6.500  1.00  0.00     0.014 A 
ATOM     43  C   UNL     1      -1.020  14.668   4.603  1.00  0.00     0.010 A 
ATOM     44  C   UNL     1      -1.469  13.381   6.602  1.00  0.00     0.010 A 
ATOM     45  C   UNL     1      -1.881  14.336   5.661  1.00  0.00    -0.014 A 
BRANCH  45  46
ATOM     46  C   UNL     1      -3.221  14.965   5.791  1.00  0.00     0.031 A 
ATOM     47  C   UNL     1      -3.550  15.825   6.981  1.00  0.00     0.074 A 
ATOM     48  C   UNL     1      -4.178  14.676   4.888  1.00  0.00     0.049 A 
ATOM     49  N   UNL     1      -4.681  16.402   7.294  1.00  0.00    -0.248 NA
ATOM     50  C   UNL     1      -2.476  16.038   7.965  1.00  0.00     0.031 C 
ATOM     51  C   UNL     1      -4.011  13.781   3.742  1.00  0.00     0.029 A 
ATOM     52  N   UNL     1      -5.489  15.075   4.813  1.00  0.00    -0.354 N 
ATOM     53  C   UNL     1      -4.471  17.009   8.526  1.00  0.00     0.074 A 
ATOM     54  C   UNL     1      -3.111  16.705   8.917  1.00  0.00     0.031 C 
ATOM     55  C   UNL     1      -5.177  13.690   3.084  1.00  0.00     0.029 A 
ATOM     56  C   UNL     1      -6.178  14.502   3.771  1.00  0.00     0.049 A 
ATOM     57  H   UNL     1      -5.896  15.711   5.444  1.00  0.00     0.167 HD
ATOM     58  C   UNL     1      -5.322  17.773   9.254  1.00  0.00     0.034 A 
ATOM     59  C   UNL     1      -7.472  14.609   3.410  1.00  0.00     0.034 A 
ATOM     60  C   UNL     1      -6.655  18.115   8.836  1.00  0.00     0.049 A 
ATOM     61  C   UNL     1      -8.378  15.520   4.191  1.00  0.00     0.074 A 
ATOM     62  C   UNL     1      -7.552  18.977   9.442  1.00  0.00     0.029 A 
ATOM     63  N   UNL     1      -7.287  17.606   7.712  1.00  0.00    -0.354 N 
ATOM     64  N   UNL     1      -8.107  16.236   5.255  1.00  0.00    -0.248 NA
ATOM     65  C   UNL     1      -9.755  15.670   3.700  1.00  0.00     0.031 C 
ATOM     66  C   UNL     1      -8.734  18.975   8.692  1.00  0.00     0.029 A 
ATOM     67  C   UNL     1      -8.567  18.125   7.610  1.00  0.00     0.049 A 
ATOM     68  H   UNL     1      -6.885  16.968   7.079  1.00  0.00     0.167 HD
ATOM     69  C   UNL     1      -9.268  16.942   5.547  1.00  0.00     0.074 A 
ATOM     70  C   UNL     1     -10.239  16.583   4.533  1.00  0.00     0.031 C 
ATOM     71  C   UNL     1      -9.511  17.796   6.572  1.00  0.00     0.034 A 
BRANCH  58  72
ATOM     72  C   UNL     1      -4.808  18.337  10.554  1.00  0.00     0.023 A 
ATOM     73  C   UNL     1      -3.841  19.364  10.530  1.00  0.00     0.012 A 
ATOM     74  C   UNL     1      -5.299  17.881  11.792  1.00  0.00     0.148 A 
ATOM     75  C   UNL     1      -3.338  19.896  11.717  1.00  0.00     0.002 A 
ATOM     76  C   UNL     1      -4.824  18.447  12.971  1.00  0.00     0.091 A 
ATOM     77  F   UNL     1      -6.200  16.888  11.801  1.00  0.00    -0.205 F 
ATOM     78  C   UNL     1      -3.835  19.444  12.936  1.00  0.00     0.022 A 
BRANCH  76  79
ATOM     79  S   UNL     1      -5.464  17.980  14.584  1.00  0.00     0.127 S 
ATOM     80  O   UNL     1      -4.424  17.072  15.064  1.00  0.00    -0.237 OA
ATOM     81  O   UNL     1      -5.521  19.264  15.284  1.00  0.00    -0.237 OA
ATOM     82  O   UNL     1      -6.765  17.376  14.330  1.00  0.00    -0.744 OA
ENDBRANCH  76  79
ENDBRANCH  58  72
BRANCH  59  83
ATOM     83  C   UNL     1      -7.953  13.884   2.202  1.00  0.00     0.023 A 
ATOM     84  C   UNL     1      -8.214  14.606   1.022  1.00  0.00     0.012 A 
ATOM     85  C   UNL     1      -8.072  12.480   2.192  1.00  0.00     0.148 A 
ATOM     86  C   UNL     1      -8.601  13.945  -0.144  1.00  0.00     0.002 A 
ATOM     87  C   UNL     1      -8.406  11.824   1.013  1.00  0.00     0.091 A 
ATOM     88  F   UNL     1      -7.826  11.815   3.329  1.00  0.00    -0.205 F 
ATOM     89  C   UNL     1      -8.685  12.555  -0.152  1.00  0.00     0.022 A 
BRANCH  87  90
ATOM     90  S   UNL     1      -8.400  10.033   0.870  1.00  0.00     0.127 S 
ATOM     91  O   UNL     1      -9.820   9.743   0.689  1.00  0.00    -0.237 OA
ATOM     92  O   UNL     1      -7.572   9.831  -0.320  1.00  0.00    -0.237 OA
ATOM     93  O   UNL     1      -7.808   9.540   2.106  1.00  0.00    -0.744 OA
ENDBRANCH  87  90
ENDBRANCH  59  83
BRANCH  71  94
ATOM     94  C   UNL     1     -10.879  18.422   6.649  1.00  0.00     0.023 A 
ATOM     95  C   UNL     1     -11.978  17.645   7.065  1.00  0.00     0.012 A 
ATOM     96  C   UNL     1     -11.062  19.794   6.388  1.00  0.00     0.148 A 
ATOM     97  C   UNL     1     -13.243  18.216   7.194  1.00  0.00     0.002 A 
ATOM     98  C   UNL     1     -12.317  20.367   6.562  1.00  0.00     0.091 A 
ATOM     99  F   UNL     1     -10.009  20.514   5.972  1.00  0.00    -0.205 F 
ATOM    100  C   UNL     1     -13.410  19.579   6.955  1.00  0.00     0.022 A 
BRANCH  98 101
ATOM    101  S   UNL     1     -12.601  22.131   6.366  1.00  0.00     0.127 S 
ATOM    102  O   UNL     1     -13.287  22.181   5.076  1.00  0.00    -0.237 OA
ATOM    103  O   UNL     1     -13.447  22.442   7.519  1.00  0.00    -0.237 OA
ATOM    104  O   UNL     1     -11.284  22.753   6.402  1.00  0.00    -0.744 OA
ENDBRANCH  98 101
ENDBRANCH  71  94
ENDBRANCH  45  46
ENDBRANCH  37  40
ENDBRANCH  35  36
ENDBRANCH   1  35
TORSDOF 18
