REMARK SMILES O=C(C[C@H]1C[N@@H+](CCSc2ccccc2F)CCO1)NCCCNC(=O)c1ccc(-c2c3nc(c(-c4cccc(S(=O)(=O)[O-])c4F)c4ccc([nH]4)c(-c4cccc(S(=O)(=O)[O-])c4F)c4nc(c(-c5cccc(S(=O)(=O)[O-])c5F)c5ccc2[nH]5)C=C4)C=C3)cc1
REMARK SMILES IDX 21 1 20 2 1 3 2 4 3 6 4 7 5 8 19 9 6 10 18 11 17 12 7 14
REMARK SMILES IDX 8 15 9 16 10 17 11 18 15 19 12 20 14 21 16 22 13 23 22 24
REMARK SMILES IDX 23 25 24 26 25 27 26 29 27 30 28 31 89 32 29 33 88 34 30 35
REMARK SMILES IDX 31 36 32 37 82 38 33 39 87 40 81 41 83 42 34 43 86 44 80 45
REMARK SMILES IDX 79 46 35 48 67 49 47 50 66 51 48 52 51 53 65 54 84 55 49 56
REMARK SMILES IDX 50 57 64 59 85 60 52 61 36 62 37 63 45 64 38 65 40 66 46 67
REMARK SMILES IDX 39 68 41 69 42 70 43 71 44 72 68 73 69 74 77 75 70 76 72 77
REMARK SMILES IDX 78 78 71 79 73 80 74 81 75 82 76 83 53 84 54 85 62 86 55 87
REMARK SMILES IDX 57 88 63 89 56 90 58 91 59 92 60 93 61 94
REMARK H PARENT 20 5 6 13 24 28 83 47 51 58
REMARK Flexibility Score: inf
ROOT
ATOM      1  C   UNL     1       4.451   1.596  -3.078  1.00  0.00     0.117 C 
ENDROOT
BRANCH   1   2
ATOM      2  N   UNL     1       3.581   0.711  -2.330  1.00  0.00    -0.356 N 
ATOM      3  O   UNL     1       2.844  -0.507  -4.129  1.00  0.00    -0.275 OA
ATOM      4  C   UNL     1       2.844  -0.288  -2.922  1.00  0.00     0.222 C 
ATOM      5  H   UNL     1       3.515   0.830  -1.355  1.00  0.00     0.163 HD
BRANCH   4   6
ATOM      6  C   UNL     1       1.987  -1.076  -1.965  1.00  0.00     0.138 C 
BRANCH   6   7
ATOM      7  C   UNL     1       2.705  -2.009  -0.990  1.00  0.00     0.182 C 
ATOM      8  C   UNL     1       3.052  -3.413  -1.555  1.00  0.00     0.295 C 
ATOM      9  O   UNL     1       3.752  -1.372  -0.239  1.00  0.00    -0.366 OA
ATOM     10  N   UNL     1       4.421  -3.620  -2.033  1.00  0.00    -0.330 N 
ATOM     11  C   UNL     1       5.071  -1.628  -0.732  1.00  0.00     0.222 C 
ATOM     12  C   UNL     1       5.323  -3.105  -1.023  1.00  0.00     0.291 C 
ATOM     13  H   UNL     1       4.593  -4.621  -2.126  1.00  0.00     0.348 HD
BRANCH  10  14
ATOM     14  C   UNL     1       4.701  -3.303  -3.444  1.00  0.00     0.273 C 
BRANCH  14  15
ATOM     15  C   UNL     1       5.683  -2.202  -3.969  1.00  0.00     0.136 C 
BRANCH  15  16
ATOM     16  S   UNL     1       7.528  -2.421  -3.920  1.00  0.00    -0.117 SA
BRANCH  16  17
ATOM     17  C   UNL     1       8.056  -1.773  -2.332  1.00  0.00     0.043 A 
ATOM     18  C   UNL     1       7.957  -0.423  -1.971  1.00  0.00     0.018 A 
ATOM     19  C   UNL     1       8.582  -2.668  -1.386  1.00  0.00     0.136 A 
ATOM     20  C   UNL     1       8.257  -0.018  -0.657  1.00  0.00     0.001 A 
ATOM     21  C   UNL     1       8.833  -2.280  -0.070  1.00  0.00     0.040 A 
ATOM     22  F   UNL     1       8.729  -3.967  -1.691  1.00  0.00    -0.206 F 
ATOM     23  C   UNL     1       8.655  -0.953   0.302  1.00  0.00     0.003 A 
ENDBRANCH  16  17
ENDBRANCH  15  16
ENDBRANCH  14  15
ENDBRANCH  10  14
ENDBRANCH   6   7
ENDBRANCH   4   6
ENDBRANCH   1   2
BRANCH   1  24
ATOM     24  C   UNL     1       3.760   2.883  -3.504  1.00  0.00     0.042 C 
BRANCH  24  25
ATOM     25  C   UNL     1       3.255   3.733  -2.345  1.00  0.00     0.118 C 
BRANCH  25  26
ATOM     26  N   UNL     1       4.321   4.249  -1.499  1.00  0.00    -0.352 N 
ATOM     27  C   UNL     1       4.484   5.504  -0.959  1.00  0.00     0.251 C 
ATOM     28  H   UNL     1       5.031   3.604  -1.280  1.00  0.00     0.163 HD
ATOM     29  O   UNL     1       5.520   5.766  -0.361  1.00  0.00    -0.269 OA
BRANCH  27  30
ATOM     30  C   UNL     1       3.431   6.538  -1.115  1.00  0.00     0.039 A 
ATOM     31  C   UNL     1       3.822   7.861  -1.341  1.00  0.00     0.014 A 
ATOM     32  C   UNL     1       2.073   6.227  -1.013  1.00  0.00     0.014 A 
ATOM     33  C   UNL     1       2.854   8.857  -1.499  1.00  0.00     0.010 A 
ATOM     34  C   UNL     1       1.110   7.202  -1.265  1.00  0.00     0.010 A 
ATOM     35  C   UNL     1       1.487   8.534  -1.482  1.00  0.00    -0.014 A 
BRANCH  35  36
ATOM     36  C   UNL     1       0.452   9.588  -1.653  1.00  0.00     0.031 A 
ATOM     37  C   UNL     1      -0.531   9.876  -0.547  1.00  0.00     0.074 A 
ATOM     38  C   UNL     1       0.370  10.266  -2.815  1.00  0.00     0.049 A 
ATOM     39  N   UNL     1      -1.477  10.778  -0.504  1.00  0.00    -0.248 NA
ATOM     40  C   UNL     1      -0.461   9.031   0.659  1.00  0.00     0.031 C 
ATOM     41  C   UNL     1       1.207  10.025  -3.992  1.00  0.00     0.029 A 
ATOM     42  N   UNL     1      -0.459  11.290  -3.203  1.00  0.00    -0.354 N 
ATOM     43  C   UNL     1      -2.127  10.591   0.711  1.00  0.00     0.074 A 
ATOM     44  C   UNL     1      -1.502   9.461   1.357  1.00  0.00     0.031 C 
ATOM     45  C   UNL     1       0.868  10.893  -4.958  1.00  0.00     0.029 A 
ATOM     46  C   UNL     1      -0.228  11.735  -4.484  1.00  0.00     0.049 A 
ATOM     47  H   UNL     1      -1.154  11.671  -2.618  1.00  0.00     0.167 HD
ATOM     48  C   UNL     1      -3.126  11.320   1.259  1.00  0.00     0.034 A 
ATOM     49  C   UNL     1      -0.826  12.710  -5.198  1.00  0.00     0.034 A 
ATOM     50  C   UNL     1      -3.706  12.479   0.640  1.00  0.00     0.049 A 
ATOM     51  C   UNL     1      -1.916  13.526  -4.556  1.00  0.00     0.074 A 
ATOM     52  C   UNL     1      -4.647  13.346   1.163  1.00  0.00     0.029 A 
ATOM     53  N   UNL     1      -3.410  12.927  -0.637  1.00  0.00    -0.354 N 
ATOM     54  N   UNL     1      -2.393  13.445  -3.337  1.00  0.00    -0.248 NA
ATOM     55  C   UNL     1      -2.533  14.584  -5.371  1.00  0.00     0.031 C 
ATOM     56  C   UNL     1      -4.950  14.297   0.187  1.00  0.00     0.029 A 
ATOM     57  C   UNL     1      -4.172  14.043  -0.931  1.00  0.00     0.049 A 
ATOM     58  H   UNL     1      -2.756  12.512  -1.245  1.00  0.00     0.167 HD
ATOM     59  C   UNL     1      -3.349  14.450  -3.233  1.00  0.00     0.074 A 
ATOM     60  C   UNL     1      -3.367  15.144  -4.503  1.00  0.00     0.031 C 
ATOM     61  C   UNL     1      -4.150  14.755  -2.183  1.00  0.00     0.034 A 
BRANCH  48  62
ATOM     62  C   UNL     1      -3.618  10.937   2.630  1.00  0.00     0.023 A 
ATOM     63  C   UNL     1      -2.798  11.172   3.753  1.00  0.00     0.012 A 
ATOM     64  C   UNL     1      -4.924  10.444   2.820  1.00  0.00     0.148 A 
ATOM     65  C   UNL     1      -3.259  10.900   5.039  1.00  0.00     0.002 A 
ATOM     66  C   UNL     1      -5.394  10.221   4.108  1.00  0.00     0.091 A 
ATOM     67  F   UNL     1      -5.682  10.212   1.739  1.00  0.00    -0.205 F 
ATOM     68  C   UNL     1      -4.560  10.438   5.218  1.00  0.00     0.022 A 
BRANCH  66  69
ATOM     69  S   UNL     1      -7.081   9.711   4.454  1.00  0.00     0.127 S 
ATOM     70  O   UNL     1      -6.876   8.369   5.000  1.00  0.00    -0.237 OA
ATOM     71  O   UNL     1      -7.508  10.709   5.435  1.00  0.00    -0.237 OA
ATOM     72  O   UNL     1      -7.788   9.761   3.182  1.00  0.00    -0.744 OA
ENDBRANCH  66  69
ENDBRANCH  48  62
BRANCH  49  73
ATOM     73  C   UNL     1      -0.349  13.009  -6.579  1.00  0.00     0.023 A 
ATOM     74  C   UNL     1       0.347  14.207  -6.829  1.00  0.00     0.012 A 
ATOM     75  C   UNL     1      -0.527  12.087  -7.630  1.00  0.00     0.148 A 
ATOM     76  C   UNL     1       0.844  14.489  -8.102  1.00  0.00     0.002 A 
ATOM     77  C   UNL     1       0.020  12.348  -8.880  1.00  0.00     0.091 A 
ATOM     78  F   UNL     1      -1.203  10.958  -7.374  1.00  0.00    -0.205 F 
ATOM     79  C   UNL     1       0.693  13.555  -9.123  1.00  0.00     0.022 A 
BRANCH  77  80
ATOM     80  S   UNL     1      -0.004  11.146 -10.216  1.00  0.00     0.127 S 
ATOM     81  O   UNL     1      -0.859  11.807 -11.198  1.00  0.00    -0.237 OA
ATOM     82  O   UNL     1       1.412  11.075 -10.579  1.00  0.00    -0.237 OA
ATOM     83  O   UNL     1      -0.539   9.921  -9.637  1.00  0.00    -0.744 OA
ENDBRANCH  77  80
ENDBRANCH  49  73
BRANCH  61  84
ATOM     84  C   UNL     1      -5.131  15.888  -2.332  1.00  0.00     0.023 A 
ATOM     85  C   UNL     1      -6.298  15.694  -3.096  1.00  0.00     0.012 A 
ATOM     86  C   UNL     1      -4.980  17.071  -1.581  1.00  0.00     0.148 A 
ATOM     87  C   UNL     1      -7.300  16.663  -3.113  1.00  0.00     0.002 A 
ATOM     88  C   UNL     1      -6.005  18.009  -1.563  1.00  0.00     0.091 A 
ATOM     89  F   UNL     1      -3.857  17.235  -0.868  1.00  0.00    -0.205 F 
ATOM     90  C   UNL     1      -7.162  17.810  -2.334  1.00  0.00     0.022 A 
BRANCH  88  91
ATOM     91  S   UNL     1      -5.971  19.464  -0.509  1.00  0.00     0.127 S 
ATOM     92  O   UNL     1      -5.972  20.545  -1.494  1.00  0.00    -0.237 OA
ATOM     93  O   UNL     1      -7.216  19.325   0.245  1.00  0.00    -0.237 OA
ATOM     94  O   UNL     1      -4.757  19.359   0.289  1.00  0.00    -0.744 OA
ENDBRANCH  88  91
ENDBRANCH  61  84
ENDBRANCH  35  36
ENDBRANCH  27  30
ENDBRANCH  25  26
ENDBRANCH  24  25
ENDBRANCH   1  24
TORSDOF 18
