REMARK SMILES O=C(NCCCNC(=O)[C@H](CO)NC(=O)[C@H]1CC(=O)N(CC(F)(F)F)C1)c1ccc(-c2c3nc(c(-c4cccc(S(=O)(=O)[O-])c4F)c4ccc([nH]4)c(-c4cccc(S(=O)(=O)[O-])c4F)c4nc(c(-c5cccc(S(=O)(=O)[O-])c5F)c5ccc2[nH]5)C=C4)C=C3)cc1
REMARK SMILES IDX 5 1 4 2 3 3 1 4 2 5 27 7 28 8 89 9 29 10 88 11 30 12 31 13
REMARK SMILES IDX 32 14 82 15 33 16 87 17 81 18 83 19 34 20 86 21 80 22 79 23
REMARK SMILES IDX 35 25 67 26 47 27 66 28 48 29 51 30 65 31 84 32 49 33 50 34
REMARK SMILES IDX 64 36 85 37 52 38 36 39 37 40 45 41 38 42 40 43 46 44 39 45
REMARK SMILES IDX 41 46 42 47 43 48 44 49 68 50 69 51 77 52 70 53 72 54 78 55
REMARK SMILES IDX 71 56 73 57 74 58 75 59 76 60 53 61 54 62 62 63 55 64 57 65
REMARK SMILES IDX 63 66 56 67 58 68 59 69 60 70 61 71 6 72 7 73 8 74 9 76
REMARK SMILES IDX 10 77 13 78 14 79 15 81 16 82 17 83 26 84 18 85 20 86 19 87
REMARK SMILES IDX 21 88 22 89 23 90 24 91 25 92 11 93 12 94
REMARK H PARENT 3 6 83 24 51 35 7 75 13 80 12 95
REMARK Flexibility Score: inf
ROOT
ATOM      1  C   UNL     1      11.626  -8.779   0.594  1.00  0.00     0.042 C 
ENDROOT
BRANCH   1   2
ATOM      2  C   UNL     1      12.264  -9.453   1.801  1.00  0.00     0.118 C 
BRANCH   2   3
ATOM      3  N   UNL     1      13.546 -10.074   1.488  1.00  0.00    -0.352 N 
ATOM      4  O   UNL     1      15.782 -10.253   1.323  1.00  0.00    -0.269 OA
ATOM      5  C   UNL     1      14.820  -9.715   1.863  1.00  0.00     0.251 C 
ATOM      6  H   UNL     1      13.491 -10.875   0.918  1.00  0.00     0.163 HD
BRANCH   5   7
ATOM      7  C   UNL     1      15.019  -8.667   2.886  1.00  0.00     0.039 A 
ATOM      8  C   UNL     1      14.208  -8.625   4.019  1.00  0.00     0.014 A 
ATOM      9  C   UNL     1      16.015  -7.704   2.704  1.00  0.00     0.014 A 
ATOM     10  C   UNL     1      14.242  -7.515   4.850  1.00  0.00     0.010 A 
ATOM     11  C   UNL     1      16.132  -6.651   3.616  1.00  0.00     0.010 A 
ATOM     12  C   UNL     1      15.211  -6.516   4.666  1.00  0.00    -0.014 A 
BRANCH  12  13
ATOM     13  C   UNL     1      15.257  -5.373   5.614  1.00  0.00     0.031 A 
ATOM     14  C   UNL     1      15.066  -3.956   5.140  1.00  0.00     0.074 A 
ATOM     15  C   UNL     1      15.450  -5.626   6.923  1.00  0.00     0.049 A 
ATOM     16  N   UNL     1      15.034  -2.853   5.844  1.00  0.00    -0.248 NA
ATOM     17  C   UNL     1      14.902  -3.744   3.693  1.00  0.00     0.031 C 
ATOM     18  C   UNL     1      15.677  -6.955   7.499  1.00  0.00     0.029 A 
ATOM     19  N   UNL     1      15.477  -4.789   8.008  1.00  0.00    -0.354 N 
ATOM     20  C   UNL     1      14.901  -1.816   4.928  1.00  0.00     0.074 A 
ATOM     21  C   UNL     1      14.863  -2.421   3.614  1.00  0.00     0.031 C 
ATOM     22  C   UNL     1      15.775  -6.849   8.831  1.00  0.00     0.029 A 
ATOM     23  C   UNL     1      15.688  -5.442   9.200  1.00  0.00     0.049 A 
ATOM     24  H   UNL     1      15.358  -3.814   7.941  1.00  0.00     0.167 HD
ATOM     25  C   UNL     1      14.810  -0.484   5.160  1.00  0.00     0.034 A 
ATOM     26  C   UNL     1      15.813  -4.964  10.451  1.00  0.00     0.034 A 
ATOM     27  C   UNL     1      14.816   0.107   6.472  1.00  0.00     0.049 A 
ATOM     28  C   UNL     1      15.691  -3.486  10.678  1.00  0.00     0.074 A 
ATOM     29  C   UNL     1      14.658   1.439   6.817  1.00  0.00     0.029 A 
ATOM     30  N   UNL     1      15.004  -0.590   7.656  1.00  0.00    -0.354 N 
ATOM     31  N   UNL     1      15.446  -2.536   9.810  1.00  0.00    -0.248 NA
ATOM     32  C   UNL     1      15.834  -3.017  12.063  1.00  0.00     0.031 C 
ATOM     33  C   UNL     1      14.791   1.551   8.205  1.00  0.00     0.029 A 
ATOM     34  C   UNL     1      14.983   0.284   8.731  1.00  0.00     0.049 A 
ATOM     35  H   UNL     1      15.134  -1.563   7.723  1.00  0.00     0.167 HD
ATOM     36  C   UNL     1      15.362  -1.361  10.547  1.00  0.00     0.074 A 
ATOM     37  C   UNL     1      15.568  -1.725  11.934  1.00  0.00     0.031 C 
ATOM     38  C   UNL     1      15.140  -0.096  10.112  1.00  0.00     0.034 A 
BRANCH  25  39
ATOM     39  C   UNL     1      14.692   0.433   3.967  1.00  0.00     0.023 A 
ATOM     40  C   UNL     1      13.505   0.457   3.207  1.00  0.00     0.012 A 
ATOM     41  C   UNL     1      15.742   1.310   3.630  1.00  0.00     0.148 A 
ATOM     42  C   UNL     1      13.381   1.307   2.107  1.00  0.00     0.002 A 
ATOM     43  C   UNL     1      15.593   2.189   2.563  1.00  0.00     0.091 A 
ATOM     44  F   UNL     1      16.872   1.263   4.350  1.00  0.00    -0.205 F 
ATOM     45  C   UNL     1      14.420   2.179   1.792  1.00  0.00     0.022 A 
BRANCH  43  46
ATOM     46  S   UNL     1      16.841   3.408   2.132  1.00  0.00     0.127 S 
ATOM     47  O   UNL     1      17.383   2.849   0.894  1.00  0.00    -0.237 OA
ATOM     48  O   UNL     1      16.040   4.619   1.953  1.00  0.00    -0.237 OA
ATOM     49  O   UNL     1      17.764   3.452   3.257  1.00  0.00    -0.744 OA
ENDBRANCH  43  46
ENDBRANCH  25  39
BRANCH  26  50
ATOM     50  C   UNL     1      16.016  -5.906  11.587  1.00  0.00     0.023 A 
ATOM     51  C   UNL     1      14.987  -6.084  12.531  1.00  0.00     0.012 A 
ATOM     52  C   UNL     1      17.203  -6.653  11.713  1.00  0.00     0.148 A 
ATOM     53  C   UNL     1      15.149  -6.967  13.599  1.00  0.00     0.002 A 
ATOM     54  C   UNL     1      17.334  -7.574  12.744  1.00  0.00     0.091 A 
ATOM     55  F   UNL     1      18.172  -6.464  10.806  1.00  0.00    -0.205 F 
ATOM     56  C   UNL     1      16.316  -7.719  13.699  1.00  0.00     0.022 A 
BRANCH  54  57
ATOM     57  S   UNL     1      18.742  -8.681  12.876  1.00  0.00     0.127 S 
ATOM     58  O   UNL     1      19.395  -8.191  14.087  1.00  0.00    -0.237 OA
ATOM     59  O   UNL     1      18.087  -9.983  13.011  1.00  0.00    -0.237 OA
ATOM     60  O   UNL     1      19.494  -8.512  11.640  1.00  0.00    -0.744 OA
ENDBRANCH  54  57
ENDBRANCH  26  50
BRANCH  38  61
ATOM     61  C   UNL     1      15.045   0.988  11.154  1.00  0.00     0.023 A 
ATOM     62  C   UNL     1      16.194   1.405  11.854  1.00  0.00     0.012 A 
ATOM     63  C   UNL     1      13.814   1.629  11.399  1.00  0.00     0.148 A 
ATOM     64  C   UNL     1      16.110   2.415  12.813  1.00  0.00     0.002 A 
ATOM     65  C   UNL     1      13.750   2.672  12.314  1.00  0.00     0.091 A 
ATOM     66  F   UNL     1      12.727   1.203  10.739  1.00  0.00    -0.205 F 
ATOM     67  C   UNL     1      14.893   3.056  13.033  1.00  0.00     0.022 A 
BRANCH  65  68
ATOM     68  S   UNL     1      12.249   3.620  12.583  1.00  0.00     0.127 S 
ATOM     69  O   UNL     1      11.824   3.138  13.896  1.00  0.00    -0.237 OA
ATOM     70  O   UNL     1      12.744   4.997  12.570  1.00  0.00    -0.237 OA
ATOM     71  O   UNL     1      11.361   3.288  11.477  1.00  0.00    -0.744 OA
ENDBRANCH  65  68
ENDBRANCH  38  61
ENDBRANCH  12  13
ENDBRANCH   5   7
ENDBRANCH   2   3
ENDBRANCH   1   2
BRANCH   1  72
ATOM     72  C   UNL     1      11.303  -9.739  -0.539  1.00  0.00     0.117 C 
BRANCH  72  73
ATOM     73  N   UNL     1      10.361 -10.765  -0.127  1.00  0.00    -0.354 N 
ATOM     74  C   UNL     1       9.099 -11.043  -0.552  1.00  0.00     0.244 C 
ATOM     75  H   UNL     1      10.693 -11.363   0.581  1.00  0.00     0.163 HD
ATOM     76  O   UNL     1       8.482 -11.934   0.036  1.00  0.00    -0.273 OA
BRANCH  74  77
ATOM     77  C   UNL     1       8.433 -10.239  -1.675  1.00  0.00     0.197 C 
BRANCH  77  78
ATOM     78  N   UNL     1       8.106  -8.908  -1.153  1.00  0.00    -0.342 N 
ATOM     79  C   UNL     1       6.912  -8.328  -0.873  1.00  0.00     0.226 C 
ATOM     80  H   UNL     1       8.888  -8.337  -0.976  1.00  0.00     0.164 HD
ATOM     81  O   UNL     1       6.941  -7.285  -0.214  1.00  0.00    -0.275 OA
BRANCH  79  82
ATOM     82  C   UNL     1       5.585  -8.863  -1.374  1.00  0.00     0.107 C 
ATOM     83  C   UNL     1       5.514  -8.926  -2.899  1.00  0.00     0.115 C 
ATOM     84  C   UNL     1       5.202 -10.236  -0.846  1.00  0.00     0.133 C 
ATOM     85  C   UNL     1       5.000 -10.303  -3.202  1.00  0.00     0.223 C 
ATOM     86  N   UNL     1       4.821 -10.987  -2.018  1.00  0.00    -0.333 N 
ATOM     87  O   UNL     1       4.780 -10.749  -4.318  1.00  0.00    -0.275 OA
BRANCH  86  88
ATOM     88  C   UNL     1       4.448 -12.403  -1.974  1.00  0.00     0.234 C 
BRANCH  88  89
ATOM     89  C   UNL     1       5.623 -13.375  -1.855  1.00  0.00     0.406 C 
ATOM     90  F   UNL     1       6.111 -13.383  -0.597  1.00  0.00    -0.169 F 
ATOM     91  F   UNL     1       5.231 -14.638  -2.143  1.00  0.00    -0.169 F 
ATOM     92  F   UNL     1       6.638 -13.059  -2.694  1.00  0.00    -0.169 F 
ENDBRANCH  88  89
ENDBRANCH  86  88
ENDBRANCH  79  82
ENDBRANCH  77  78
BRANCH  77  93
ATOM     93  C   UNL     1       9.257 -10.231  -2.968  1.00  0.00     0.191 C 
BRANCH  93  94
ATOM     94  O   UNL     1       8.470 -10.663  -4.079  1.00  0.00    -0.394 OA
ATOM     95  H   UNL     1       8.161 -11.569  -3.923  1.00  0.00     0.210 HD
ENDBRANCH  93  94
ENDBRANCH  77  93
ENDBRANCH  74  77
ENDBRANCH  72  73
ENDBRANCH   1  72
TORSDOF 19
