REMARK SMILES O=C(NCCCNC(=O)c1ccccc1/N=C/c1coc2ccccc2c1=O)c1ccc(-c2c3nc(c(-c4cccc(S(=O)(=O)[O-])c4F)c4ccc([nH]4)c(-c4cccc(S(=O)(=O)[O-])c4F)c4nc(c(-c5cccc(S(=O)(=O)[O-])c5F)c5ccc2[nH]5)C=C4)C=C3)cc1
REMARK SMILES IDX 4 1 3 2 1 3 2 4 29 6 30 7 91 8 31 9 90 10 32 11 33 12 34 13
REMARK SMILES IDX 84 14 35 15 89 16 83 17 85 18 36 19 88 20 82 21 81 22 37 24
REMARK SMILES IDX 69 25 49 26 68 27 50 28 53 29 67 30 86 31 51 32 52 33 66 35
REMARK SMILES IDX 87 36 54 37 38 38 39 39 47 40 40 41 42 42 48 43 41 44 43 45
REMARK SMILES IDX 44 46 45 47 46 48 70 49 71 50 79 51 72 52 74 53 80 54 73 55
REMARK SMILES IDX 75 56 76 57 77 58 78 59 55 60 56 61 64 62 57 63 59 64 65 65
REMARK SMILES IDX 58 66 60 67 61 68 62 69 63 70 5 71 6 72 7 73 8 74 9 76 10 77
REMARK SMILES IDX 11 78 15 79 12 80 14 81 13 82 16 83 17 84 18 85 19 86 27 87
REMARK SMILES IDX 20 88 26 89 28 90 21 91 25 92 22 93 24 94 23 95
REMARK H PARENT 3 5 85 23 53 34 7 75
REMARK Flexibility Score: inf
ROOT
ATOM      1  C   UNL     1       5.091   0.892  -0.718  1.00  0.00     0.118 C 
ENDROOT
BRANCH   1   2
ATOM      2  N   UNL     1       3.646   0.805  -0.858  1.00  0.00    -0.352 N 
ATOM      3  O   UNL     1       1.565  -0.018  -0.497  1.00  0.00    -0.269 OA
ATOM      4  C   UNL     1       2.775  -0.112  -0.302  1.00  0.00     0.251 C 
ATOM      5  H   UNL     1       3.232   1.494  -1.427  1.00  0.00     0.163 HD
BRANCH   4   6
ATOM      6  C   UNL     1       3.292  -1.272   0.467  1.00  0.00     0.039 A 
ATOM      7  C   UNL     1       4.306  -1.139   1.415  1.00  0.00     0.014 A 
ATOM      8  C   UNL     1       2.768  -2.540   0.190  1.00  0.00     0.014 A 
ATOM      9  C   UNL     1       4.928  -2.277   1.924  1.00  0.00     0.010 A 
ATOM     10  C   UNL     1       3.335  -3.679   0.772  1.00  0.00     0.010 A 
ATOM     11  C   UNL     1       4.465  -3.563   1.591  1.00  0.00    -0.014 A 
BRANCH  11  12
ATOM     12  C   UNL     1       5.196  -4.752   2.107  1.00  0.00     0.031 A 
ATOM     13  C   UNL     1       5.917  -5.692   1.175  1.00  0.00     0.074 A 
ATOM     14  C   UNL     1       5.277  -4.942   3.438  1.00  0.00     0.049 A 
ATOM     15  N   UNL     1       6.711  -6.690   1.471  1.00  0.00    -0.248 NA
ATOM     16  C   UNL     1       5.722  -5.497  -0.272  1.00  0.00     0.031 C 
ATOM     17  C   UNL     1       4.585  -4.133   4.443  1.00  0.00     0.029 A 
ATOM     18  N   UNL     1       6.005  -5.841   4.177  1.00  0.00    -0.354 N 
ATOM     19  C   UNL     1       7.073  -7.266   0.259  1.00  0.00     0.074 A 
ATOM     20  C   UNL     1       6.413  -6.508  -0.782  1.00  0.00     0.031 C 
ATOM     21  C   UNL     1       4.985  -4.515   5.664  1.00  0.00     0.029 A 
ATOM     22  C   UNL     1       5.936  -5.615   5.532  1.00  0.00     0.049 A 
ATOM     23  H   UNL     1       6.524  -6.575   3.777  1.00  0.00     0.167 HD
ATOM     24  C   UNL     1       7.898  -8.315   0.028  1.00  0.00     0.034 A 
ATOM     25  C   UNL     1       6.590  -6.201   6.554  1.00  0.00     0.034 A 
ATOM     26  C   UNL     1       8.615  -9.027   1.052  1.00  0.00     0.049 A 
ATOM     27  C   UNL     1       7.575  -7.297   6.265  1.00  0.00     0.074 A 
ATOM     28  C   UNL     1       9.498 -10.083   0.909  1.00  0.00     0.029 A 
ATOM     29  N   UNL     1       8.547  -8.743   2.406  1.00  0.00    -0.354 N 
ATOM     30  N   UNL     1       7.973  -7.760   5.105  1.00  0.00    -0.248 NA
ATOM     31  C   UNL     1       8.211  -7.942   7.423  1.00  0.00     0.031 C 
ATOM     32  C   UNL     1       9.980 -10.425   2.178  1.00  0.00     0.029 A 
ATOM     33  C   UNL     1       9.381  -9.594   3.110  1.00  0.00     0.049 A 
ATOM     34  H   UNL     1       7.989  -8.039   2.808  1.00  0.00     0.167 HD
ATOM     35  C   UNL     1       8.898  -8.756   5.392  1.00  0.00     0.074 A 
ATOM     36  C   UNL     1       9.037  -8.798   6.834  1.00  0.00     0.031 C 
ATOM     37  C   UNL     1       9.543  -9.589   4.540  1.00  0.00     0.034 A 
BRANCH  24  38
ATOM     38  C   UNL     1       8.135  -8.716  -1.401  1.00  0.00     0.023 A 
ATOM     39  C   UNL     1       9.112  -8.028  -2.146  1.00  0.00     0.012 A 
ATOM     40  C   UNL     1       7.453  -9.800  -1.985  1.00  0.00     0.148 A 
ATOM     41  C   UNL     1       9.403  -8.409  -3.456  1.00  0.00     0.002 A 
ATOM     42  C   UNL     1       7.762 -10.186  -3.285  1.00  0.00     0.091 A 
ATOM     43  F   UNL     1       6.502 -10.421  -1.272  1.00  0.00    -0.205 F 
ATOM     44  C   UNL     1       8.736  -9.492  -4.022  1.00  0.00     0.022 A 
BRANCH  42  45
ATOM     45  S   UNL     1       6.976 -11.604  -4.061  1.00  0.00     0.127 S 
ATOM     46  O   UNL     1       5.876 -10.973  -4.787  1.00  0.00    -0.237 OA
ATOM     47  O   UNL     1       8.041 -12.134  -4.914  1.00  0.00    -0.237 OA
ATOM     48  O   UNL     1       6.598 -12.483  -2.963  1.00  0.00    -0.744 OA
ENDBRANCH  42  45
ENDBRANCH  24  38
BRANCH  25  49
ATOM     49  C   UNL     1       6.407  -5.672   7.933  1.00  0.00     0.023 A 
ATOM     50  C   UNL     1       7.447  -4.930   8.524  1.00  0.00     0.012 A 
ATOM     51  C   UNL     1       5.190  -5.810   8.621  1.00  0.00     0.148 A 
ATOM     52  C   UNL     1       7.276  -4.338   9.777  1.00  0.00     0.002 A 
ATOM     53  C   UNL     1       5.008  -5.172   9.845  1.00  0.00     0.091 A 
ATOM     54  F   UNL     1       4.205  -6.527   8.058  1.00  0.00    -0.205 F 
ATOM     55  C   UNL     1       6.051  -4.445  10.432  1.00  0.00     0.022 A 
BRANCH  53  56
ATOM     56  S   UNL     1       3.385  -5.180  10.611  1.00  0.00     0.127 S 
ATOM     57  O   UNL     1       3.268  -6.552  11.091  1.00  0.00    -0.237 OA
ATOM     58  O   UNL     1       3.510  -4.173  11.667  1.00  0.00    -0.237 OA
ATOM     59  O   UNL     1       2.499  -4.787   9.520  1.00  0.00    -0.744 OA
ENDBRANCH  53  56
ENDBRANCH  25  49
BRANCH  37  60
ATOM     60  C   UNL     1      10.424 -10.644   5.145  1.00  0.00     0.023 A 
ATOM     61  C   UNL     1       9.826 -11.826   5.625  1.00  0.00     0.012 A 
ATOM     62  C   UNL     1      11.822 -10.508   5.186  1.00  0.00     0.148 A 
ATOM     63  C   UNL     1      10.609 -12.853   6.150  1.00  0.00     0.002 A 
ATOM     64  C   UNL     1      12.598 -11.547   5.692  1.00  0.00     0.091 A 
ATOM     65  F   UNL     1      12.378  -9.370   4.744  1.00  0.00    -0.205 F 
ATOM     66  C   UNL     1      11.996 -12.718   6.177  1.00  0.00     0.022 A 
BRANCH  64  67
ATOM     67  S   UNL     1      14.390 -11.421   5.690  1.00  0.00     0.127 S 
ATOM     68  O   UNL     1      14.641 -10.566   6.848  1.00  0.00    -0.237 OA
ATOM     69  O   UNL     1      14.822 -12.810   5.860  1.00  0.00    -0.237 OA
ATOM     70  O   UNL     1      14.709 -10.855   4.386  1.00  0.00    -0.744 OA
ENDBRANCH  64  67
ENDBRANCH  37  60
ENDBRANCH  11  12
ENDBRANCH   4   6
ENDBRANCH   1   2
BRANCH   1  71
ATOM     71  C   UNL     1       5.860   1.315  -1.964  1.00  0.00     0.042 C 
BRANCH  71  72
ATOM     72  C   UNL     1       5.602   2.723  -2.475  1.00  0.00     0.118 C 
BRANCH  72  73
ATOM     73  N   UNL     1       5.839   3.774  -1.501  1.00  0.00    -0.352 N 
ATOM     74  C   UNL     1       6.195   5.078  -1.744  1.00  0.00     0.253 C 
ATOM     75  H   UNL     1       5.733   3.522  -0.555  1.00  0.00     0.163 HD
ATOM     76  O   UNL     1       6.277   5.890  -0.830  1.00  0.00    -0.269 OA
BRANCH  74  77
ATOM     77  C   UNL     1       6.517   5.513  -3.114  1.00  0.00     0.065 A 
ATOM     78  C   UNL     1       7.862   5.819  -3.374  1.00  0.00     0.016 A 
ATOM     79  C   UNL     1       5.557   5.611  -4.127  1.00  0.00     0.076 A 
ATOM     80  C   UNL     1       8.267   6.179  -4.661  1.00  0.00     0.001 A 
ATOM     81  C   UNL     1       5.989   5.978  -5.412  1.00  0.00     0.029 A 
ATOM     82  C   UNL     1       7.328   6.256  -5.683  1.00  0.00     0.002 A 
BRANCH  79  83
ATOM     83  N   UNL     1       4.231   5.196  -4.069  1.00  0.00    -0.255 NA
ATOM     84  C   UNL     1       3.394   5.447  -3.115  1.00  0.00     0.127 C 
BRANCH  84  85
ATOM     85  C   UNL     1       2.055   4.839  -3.303  1.00  0.00     0.076 A 
ATOM     86  C   UNL     1       1.298   5.588  -4.125  1.00  0.00     0.209 A 
ATOM     87  C   UNL     1       2.011   3.377  -3.571  1.00  0.00     0.201 A 
ATOM     88  O   UNL     1       0.633   5.077  -5.233  1.00  0.00    -0.463 OA
ATOM     89  C   UNL     1       1.939   3.066  -5.007  1.00  0.00     0.065 A 
ATOM     90  O   UNL     1       2.201   2.540  -2.701  1.00  0.00    -0.288 OA
ATOM     91  C   UNL     1       1.281   4.001  -5.809  1.00  0.00     0.137 A 
ATOM     92  C   UNL     1       2.691   2.033  -5.564  1.00  0.00     0.016 A 
ATOM     93  C   UNL     1       1.373   3.916  -7.193  1.00  0.00     0.048 A 
ATOM     94  C   UNL     1       2.811   1.968  -6.951  1.00  0.00     0.001 A 
ATOM     95  C   UNL     1       2.160   2.908  -7.761  1.00  0.00     0.004 A 
ENDBRANCH  84  85
ENDBRANCH  79  83
ENDBRANCH  74  77
ENDBRANCH  72  73
ENDBRANCH  71  72
ENDBRANCH   1  71
TORSDOF 15
