REMARK SMILES CC(C)(C)C(=O)N1CCCC[C@@H]1C(=O)NCCCNC(=O)c1ccc(-c2c3nc(c(-c4cccc(S(=O)(=O)[O-])c4F)c4ccc([nH]4)c(-c4cccc(S(=O)(=O)[O-])c4F)c4nc(c(-c5cccc(S(=O)(=O)[O-])c5F)c5ccc2[nH]5)C=C4)C=C3)cc1
REMARK SMILES IDX 17 1 16 2 15 3 13 4 14 5 12 7 7 8 8 9 9 10 11 11 10 12 5 13
REMARK SMILES IDX 6 14 2 15 1 16 3 17 4 18 18 19 19 20 20 21 21 23 22 24 23 25
REMARK SMILES IDX 84 26 24 27 83 28 25 29 26 30 27 31 77 32 28 33 82 34 76 35
REMARK SMILES IDX 78 36 29 37 81 38 75 39 74 40 30 42 62 43 42 44 61 45 43 46
REMARK SMILES IDX 46 47 60 48 79 49 44 50 45 51 59 53 80 54 47 55 31 56 32 57
REMARK SMILES IDX 40 58 33 59 35 60 41 61 34 62 36 63 37 64 38 65 39 66 63 67
REMARK SMILES IDX 64 68 72 69 65 70 67 71 73 72 66 73 68 74 69 75 70 76 71 77
REMARK SMILES IDX 48 78 49 79 57 80 50 81 52 82 58 83 51 84 53 85 54 86 55 87
REMARK SMILES IDX 56 88
REMARK H PARENT 15 6 19 22 78 41 46 52
REMARK Flexibility Score: inf
ROOT
ATOM      1  C   UNL     1      -2.062   4.035  -2.348  1.00  0.00     0.042 C 
ENDROOT
BRANCH   1   2
ATOM      2  C   UNL     1      -1.292   2.731  -2.418  1.00  0.00     0.117 C 
BRANCH   2   3
ATOM      3  N   UNL     1      -2.160   1.604  -2.718  1.00  0.00    -0.354 N 
ATOM      4  C   UNL     1      -1.946   0.537  -3.536  1.00  0.00     0.242 C 
ATOM      5  O   UNL     1      -2.870  -0.270  -3.676  1.00  0.00    -0.273 OA
ATOM      6  H   UNL     1      -3.032   1.613  -2.261  1.00  0.00     0.163 HD
BRANCH   4   7
ATOM      7  C   UNL     1      -0.680   0.426  -4.405  1.00  0.00     0.174 C 
ATOM      8  N   UNL     1       0.629   0.792  -3.807  1.00  0.00    -0.330 N 
ATOM      9  C   UNL     1       1.690   1.099  -4.772  1.00  0.00     0.120 C 
ATOM     10  C   UNL     1       1.296   2.190  -5.747  1.00  0.00     0.022 C 
ATOM     11  C   UNL     1      -1.052   1.361  -5.605  1.00  0.00     0.035 C 
ATOM     12  C   UNL     1       0.085   1.736  -6.540  1.00  0.00     0.004 C 
BRANCH   8  13
ATOM     13  C   UNL     1       1.073   0.661  -2.498  1.00  0.00     0.228 C 
ATOM     14  O   UNL     1       1.894   1.503  -2.099  1.00  0.00    -0.274 OA
BRANCH  13  15
ATOM     15  C   UNL     1       0.749  -0.545  -1.567  1.00  0.00     0.041 C 
ATOM     16  C   UNL     1       1.461  -0.271  -0.212  1.00  0.00     0.021 C 
ATOM     17  C   UNL     1       1.363  -1.808  -2.185  1.00  0.00     0.021 C 
ATOM     18  C   UNL     1      -0.708  -0.824  -1.209  1.00  0.00     0.021 C 
ENDBRANCH  13  15
ENDBRANCH   8  13
ENDBRANCH   4   7
ENDBRANCH   2   3
ENDBRANCH   1   2
BRANCH   1  19
ATOM     19  C   UNL     1      -3.041   4.100  -1.190  1.00  0.00     0.118 C 
BRANCH  19  20
ATOM     20  N   UNL     1      -2.387   4.145   0.112  1.00  0.00    -0.352 N 
ATOM     21  C   UNL     1      -2.596   5.034   1.144  1.00  0.00     0.251 C 
ATOM     22  H   UNL     1      -1.708   3.451   0.274  1.00  0.00     0.163 HD
ATOM     23  O   UNL     1      -1.878   5.025   2.129  1.00  0.00    -0.269 OA
BRANCH  21  24
ATOM     24  C   UNL     1      -3.689   6.023   1.016  1.00  0.00     0.039 A 
ATOM     25  C   UNL     1      -3.409   7.372   1.237  1.00  0.00     0.014 A 
ATOM     26  C   UNL     1      -4.961   5.618   0.604  1.00  0.00     0.014 A 
ATOM     27  C   UNL     1      -4.393   8.327   0.973  1.00  0.00     0.010 A 
ATOM     28  C   UNL     1      -5.904   6.575   0.254  1.00  0.00     0.010 A 
ATOM     29  C   UNL     1      -5.634   7.939   0.441  1.00  0.00    -0.014 A 
BRANCH  29  30
ATOM     30  C   UNL     1      -6.660   8.942   0.060  1.00  0.00     0.031 A 
ATOM     31  C   UNL     1      -8.007   8.934   0.730  1.00  0.00     0.074 A 
ATOM     32  C   UNL     1      -6.418   9.789  -0.961  1.00  0.00     0.049 A 
ATOM     33  N   UNL     1      -9.048   9.688   0.494  1.00  0.00    -0.248 NA
ATOM     34  C   UNL     1      -8.225   7.923   1.779  1.00  0.00     0.031 C 
ATOM     35  C   UNL     1      -5.191   9.825  -1.759  1.00  0.00     0.029 A 
ATOM     36  N   UNL     1      -7.207  10.762  -1.522  1.00  0.00    -0.354 N 
ATOM     37  C   UNL     1     -10.054   9.216   1.328  1.00  0.00     0.074 A 
ATOM     38  C   UNL     1      -9.511   8.087   2.049  1.00  0.00     0.031 C 
ATOM     39  C   UNL     1      -5.306  10.773  -2.702  1.00  0.00     0.029 A 
ATOM     40  C   UNL     1      -6.623  11.394  -2.595  1.00  0.00     0.049 A 
ATOM     41  H   UNL     1      -8.105  10.986  -1.189  1.00  0.00     0.167 HD
ATOM     42  C   UNL     1     -11.306   9.699   1.505  1.00  0.00     0.034 A 
ATOM     43  C   UNL     1      -7.095  12.363  -3.404  1.00  0.00     0.034 A 
ATOM     44  C   UNL     1     -11.822  10.858   0.829  1.00  0.00     0.049 A 
ATOM     45  C   UNL     1      -8.462  12.932  -3.140  1.00  0.00     0.074 A 
ATOM     46  C   UNL     1     -13.030  11.501   1.024  1.00  0.00     0.029 A 
ATOM     47  N   UNL     1     -11.161  11.543  -0.179  1.00  0.00    -0.354 N 
ATOM     48  N   UNL     1      -9.331  12.595  -2.218  1.00  0.00    -0.248 NA
ATOM     49  C   UNL     1      -8.900  14.039  -4.002  1.00  0.00     0.031 C 
ATOM     50  C   UNL     1     -13.110  12.564   0.117  1.00  0.00     0.029 A 
ATOM     51  C   UNL     1     -11.941  12.595  -0.627  1.00  0.00     0.049 A 
ATOM     52  H   UNL     1     -10.268  11.315  -0.526  1.00  0.00     0.167 HD
ATOM     53  C   UNL     1     -10.405  13.464  -2.369  1.00  0.00     0.074 A 
ATOM     54  C   UNL     1     -10.067  14.359  -3.457  1.00  0.00     0.031 C 
ATOM     55  C   UNL     1     -11.573  13.507  -1.680  1.00  0.00     0.034 A 
BRANCH  42  56
ATOM     56  C   UNL     1     -12.183   9.007   2.515  1.00  0.00     0.023 A 
ATOM     57  C   UNL     1     -11.892   9.129   3.889  1.00  0.00     0.012 A 
ATOM     58  C   UNL     1     -13.314   8.271   2.112  1.00  0.00     0.148 A 
ATOM     59  C   UNL     1     -12.686   8.495   4.844  1.00  0.00     0.002 A 
ATOM     60  C   UNL     1     -14.128   7.680   3.073  1.00  0.00     0.091 A 
ATOM     61  F   UNL     1     -13.563   8.143   0.801  1.00  0.00    -0.205 F 
ATOM     62  C   UNL     1     -13.808   7.781   4.437  1.00  0.00     0.022 A 
BRANCH  60  63
ATOM     63  S   UNL     1     -15.639   6.806   2.651  1.00  0.00     0.127 S 
ATOM     64  O   UNL     1     -15.240   5.414   2.847  1.00  0.00    -0.237 OA
ATOM     65  O   UNL     1     -16.581   7.316   3.649  1.00  0.00    -0.237 OA
ATOM     66  O   UNL     1     -15.949   7.185   1.279  1.00  0.00    -0.744 OA
ENDBRANCH  60  63
ENDBRANCH  42  56
BRANCH  43  67
ATOM     67  C   UNL     1      -6.229  12.905  -4.489  1.00  0.00     0.023 A 
ATOM     68  C   UNL     1      -5.683  14.196  -4.356  1.00  0.00     0.012 A 
ATOM     69  C   UNL     1      -5.899  12.132  -5.619  1.00  0.00     0.148 A 
ATOM     70  C   UNL     1      -4.843  14.718  -5.341  1.00  0.00     0.002 A 
ATOM     71  C   UNL     1      -5.018  12.636  -6.569  1.00  0.00     0.091 A 
ATOM     72  F   UNL     1      -6.437  10.909  -5.730  1.00  0.00    -0.205 F 
ATOM     73  C   UNL     1      -4.501  13.935  -6.440  1.00  0.00     0.022 A 
BRANCH  71  74
ATOM     74  S   UNL     1      -4.416  11.650  -7.945  1.00  0.00     0.127 S 
ATOM     75  O   UNL     1      -5.066  12.295  -9.083  1.00  0.00    -0.237 OA
ATOM     76  O   UNL     1      -2.970  11.863  -7.859  1.00  0.00    -0.237 OA
ATOM     77  O   UNL     1      -4.838  10.284  -7.666  1.00  0.00    -0.744 OA
ENDBRANCH  71  74
ENDBRANCH  43  67
BRANCH  55  78
ATOM     78  C   UNL     1     -12.572  14.565  -2.065  1.00  0.00     0.023 A 
ATOM     79  C   UNL     1     -13.297  14.436  -3.266  1.00  0.00     0.012 A 
ATOM     80  C   UNL     1     -12.851  15.642  -1.200  1.00  0.00     0.148 A 
ATOM     81  C   UNL     1     -14.264  15.378  -3.615  1.00  0.00     0.002 A 
ATOM     82  C   UNL     1     -13.850  16.550  -1.532  1.00  0.00     0.091 A 
ATOM     83  F   UNL     1     -12.138  15.758  -0.071  1.00  0.00    -0.205 F 
ATOM     84  C   UNL     1     -14.549  16.427  -2.743  1.00  0.00     0.022 A 
BRANCH  82  85
ATOM     85  S   UNL     1     -14.349  17.875  -0.426  1.00  0.00     0.127 S 
ATOM     86  O   UNL     1     -13.776  19.047  -1.087  1.00  0.00    -0.237 OA
ATOM     87  O   UNL     1     -15.809  17.796  -0.484  1.00  0.00    -0.237 OA
ATOM     88  O   UNL     1     -13.779  17.547   0.874  1.00  0.00    -0.744 OA
ENDBRANCH  82  85
ENDBRANCH  55  78
ENDBRANCH  29  30
ENDBRANCH  21  24
ENDBRANCH  19  20
ENDBRANCH   1  19
TORSDOF 15
