REMARK SMILES COC(=O)c1ccc(C)c(NC(=O)[C@H]2CC=CC[C@H]2C(=O)NCCCNC(=O)c2ccc(-c3c4nc(c(-c5cccc(S(=O)(=O)[O-])c5F)c5ccc([nH]5)c(-c5cccc(S(=O)(=O)[O-])c5F)c5nc(c(-c6cccc(S(=O)(=O)[O-])c6F)c6ccc3[nH]6)C=C5)C=C4)cc2)c1
REMARK SMILES IDX 23 1 22 2 20 3 21 4 19 6 14 7 15 8 16 9 18 10 17 11 12 12
REMARK SMILES IDX 11 13 13 15 10 16 5 17 6 18 92 19 7 20 8 21 9 22 3 23 4 24
REMARK SMILES IDX 2 25 1 26 24 27 25 28 26 29 27 30 28 32 29 33 30 34 91 35
REMARK SMILES IDX 31 36 90 37 32 38 33 39 34 40 84 41 35 42 89 43 83 44 85 45
REMARK SMILES IDX 36 46 88 47 82 48 81 49 37 51 69 52 49 53 68 54 50 55 53 56
REMARK SMILES IDX 67 57 86 58 51 59 52 60 66 62 87 63 54 64 38 65 39 66 47 67
REMARK SMILES IDX 40 68 42 69 48 70 41 71 43 72 44 73 45 74 46 75 70 76 71 77
REMARK SMILES IDX 79 78 72 79 74 80 80 81 73 82 75 83 76 84 77 85 78 86 55 87
REMARK SMILES IDX 56 88 64 89 57 90 59 91 65 92 58 93 60 94 61 95 62 96 63 97
REMARK H PARENT 22 5 11 14 26 31 85 50 53 61
REMARK Flexibility Score: inf
ROOT
ATOM      1  C   UNL     1       5.752  -1.265   2.692  1.00  0.00     0.117 C 
ENDROOT
BRANCH   1   2
ATOM      2  N   UNL     1       6.913  -2.066   3.018  1.00  0.00    -0.356 N 
ATOM      3  C   UNL     1       8.013  -2.402   2.312  1.00  0.00     0.224 C 
ATOM      4  O   UNL     1       8.732  -3.277   2.812  1.00  0.00    -0.275 OA
ATOM      5  H   UNL     1       6.896  -2.437   3.930  1.00  0.00     0.163 HD
BRANCH   3   6
ATOM      6  C   UNL     1       8.446  -1.762   0.998  1.00  0.00     0.095 C 
ATOM      7  C   UNL     1       7.683  -2.110  -0.299  1.00  0.00     0.095 C 
ATOM      8  C   UNL     1       8.665  -1.849  -1.478  1.00  0.00     0.041 C 
ATOM      9  C   UNL     1       9.434  -0.550  -1.343  1.00  0.00    -0.030 C 
ATOM     10  C   UNL     1       8.880  -0.298   1.099  1.00  0.00     0.041 C 
ATOM     11  C   UNL     1       9.503   0.159  -0.201  1.00  0.00    -0.030 C 
BRANCH   7  12
ATOM     12  C   UNL     1       6.466  -1.267  -0.615  1.00  0.00     0.228 C 
ATOM     13  N   UNL     1       5.293  -1.655  -1.146  1.00  0.00    -0.326 N 
ATOM     14  H   UNL     1       4.898  -0.876  -1.601  1.00  0.00     0.169 HD
ATOM     15  O   UNL     1       6.509  -0.032  -0.480  1.00  0.00    -0.274 OA
BRANCH  13  16
ATOM     16  C   UNL     1       4.407  -2.740  -1.306  1.00  0.00     0.044 A 
ATOM     17  C   UNL     1       1.962  -3.033  -1.611  1.00  0.00     0.062 A 
ATOM     18  C   UNL     1       2.094  -4.381  -1.311  1.00  0.00     0.016 A 
ATOM     19  C   UNL     1       3.124  -2.263  -1.679  1.00  0.00     0.042 A 
ATOM     20  C   UNL     1       3.363  -4.909  -1.050  1.00  0.00     0.006 A 
ATOM     21  C   UNL     1       4.533  -4.104  -1.023  1.00  0.00    -0.027 A 
ATOM     22  C   UNL     1       5.793  -4.824  -0.662  1.00  0.00     0.046 C 
BRANCH  17  23
ATOM     23  C   UNL     1       0.601  -2.447  -1.827  1.00  0.00     0.337 C 
ATOM     24  O   UNL     1      -0.399  -3.148  -1.869  1.00  0.00    -0.246 OA
BRANCH  23  25
ATOM     25  O   UNL     1       0.611  -1.144  -2.220  1.00  0.00    -0.465 OA
ATOM     26  C   UNL     1       0.786  -0.155  -1.192  1.00  0.00     0.282 C 
ENDBRANCH  23  25
ENDBRANCH  17  23
ENDBRANCH  13  16
ENDBRANCH   7  12
ENDBRANCH   3   6
ENDBRANCH   1   2
BRANCH   1  27
ATOM     27  C   UNL     1       4.636  -2.150   2.142  1.00  0.00     0.042 C 
BRANCH  27  28
ATOM     28  C   UNL     1       3.390  -2.240   3.022  1.00  0.00     0.118 C 
BRANCH  28  29
ATOM     29  N   UNL     1       2.271  -1.599   2.326  1.00  0.00    -0.352 N 
ATOM     30  C   UNL     1       1.059  -2.075   1.883  1.00  0.00     0.251 C 
ATOM     31  H   UNL     1       2.414  -0.643   2.140  1.00  0.00     0.163 HD
ATOM     32  O   UNL     1       0.284  -1.314   1.309  1.00  0.00    -0.269 OA
BRANCH  30  33
ATOM     33  C   UNL     1       0.623  -3.434   2.212  1.00  0.00     0.039 A 
ATOM     34  C   UNL     1      -0.515  -3.498   3.020  1.00  0.00     0.014 A 
ATOM     35  C   UNL     1       1.484  -4.517   2.076  1.00  0.00     0.014 A 
ATOM     36  C   UNL     1      -0.571  -4.471   4.000  1.00  0.00     0.010 A 
ATOM     37  C   UNL     1       1.398  -5.523   3.011  1.00  0.00     0.010 A 
ATOM     38  C   UNL     1       0.483  -5.371   4.066  1.00  0.00    -0.014 A 
BRANCH  38  39
ATOM     39  C   UNL     1       0.948  -5.896   5.338  1.00  0.00     0.031 A 
ATOM     40  C   UNL     1       0.481  -7.171   5.885  1.00  0.00     0.074 A 
ATOM     41  C   UNL     1       1.995  -5.253   5.908  1.00  0.00     0.049 A 
ATOM     42  N   UNL     1       0.708  -7.537   7.103  1.00  0.00    -0.248 NA
ATOM     43  C   UNL     1      -0.335  -8.115   5.128  1.00  0.00     0.031 C 
ATOM     44  C   UNL     1       3.008  -5.848   6.766  1.00  0.00     0.029 A 
ATOM     45  N   UNL     1       2.286  -3.879   5.920  1.00  0.00    -0.354 N 
ATOM     46  C   UNL     1       0.463  -8.886   7.128  1.00  0.00     0.074 A 
ATOM     47  C   UNL     1      -0.386  -9.136   5.990  1.00  0.00     0.031 C 
ATOM     48  C   UNL     1       3.676  -4.868   7.388  1.00  0.00     0.029 A 
ATOM     49  C   UNL     1       2.998  -3.616   7.101  1.00  0.00     0.049 A 
ATOM     50  H   UNL     1       2.037  -3.223   5.229  1.00  0.00     0.167 HD
ATOM     51  C   UNL     1       1.211  -9.672   7.949  1.00  0.00     0.034 A 
ATOM     52  C   UNL     1       2.666  -2.676   8.030  1.00  0.00     0.034 A 
ATOM     53  C   UNL     1       1.953  -8.892   8.950  1.00  0.00     0.049 A 
ATOM     54  C   UNL     1       2.393  -3.269   9.403  1.00  0.00     0.074 A 
ATOM     55  C   UNL     1       3.297  -8.666   9.187  1.00  0.00     0.029 A 
ATOM     56  N   UNL     1       1.262  -8.023   9.792  1.00  0.00    -0.354 N 
ATOM     57  N   UNL     1       2.593  -4.517   9.723  1.00  0.00    -0.248 NA
ATOM     58  C   UNL     1       1.787  -2.514  10.502  1.00  0.00     0.031 C 
ATOM     59  C   UNL     1       3.405  -7.559  10.077  1.00  0.00     0.029 A 
ATOM     60  C   UNL     1       2.129  -7.146  10.424  1.00  0.00     0.049 A 
ATOM     61  H   UNL     1       0.286  -8.031   9.921  1.00  0.00     0.167 HD
ATOM     62  C   UNL     1       1.917  -4.794  10.883  1.00  0.00     0.074 A 
ATOM     63  C   UNL     1       1.558  -3.486  11.402  1.00  0.00     0.031 C 
ATOM     64  C   UNL     1       1.591  -6.070  11.255  1.00  0.00     0.034 A 
BRANCH  51  65
ATOM     65  C   UNL     1       1.448 -11.151   7.710  1.00  0.00     0.023 A 
ATOM     66  C   UNL     1       2.068 -11.888   8.740  1.00  0.00     0.012 A 
ATOM     67  C   UNL     1       1.210 -11.852   6.499  1.00  0.00     0.148 A 
ATOM     68  C   UNL     1       2.416 -13.237   8.585  1.00  0.00     0.002 A 
ATOM     69  C   UNL     1       1.464 -13.219   6.381  1.00  0.00     0.091 A 
ATOM     70  F   UNL     1       0.850 -11.192   5.393  1.00  0.00    -0.205 F 
ATOM     71  C   UNL     1       2.088 -13.913   7.417  1.00  0.00     0.022 A 
BRANCH  69  72
ATOM     72  S   UNL     1       0.960 -14.149   4.922  1.00  0.00     0.127 S 
ATOM     73  O   UNL     1       2.218 -14.291   4.193  1.00  0.00    -0.237 OA
ATOM     74  O   UNL     1       0.445 -15.391   5.499  1.00  0.00    -0.237 OA
ATOM     75  O   UNL     1      -0.059 -13.333   4.269  1.00  0.00    -0.744 OA
ENDBRANCH  69  72
ENDBRANCH  51  65
BRANCH  52  76
ATOM     76  C   UNL     1       2.018  -1.455   7.491  1.00  0.00     0.023 A 
ATOM     77  C   UNL     1       2.841  -0.497   6.860  1.00  0.00     0.012 A 
ATOM     78  C   UNL     1       0.629  -1.377   7.315  1.00  0.00     0.148 A 
ATOM     79  C   UNL     1       2.296   0.474   6.016  1.00  0.00     0.002 A 
ATOM     80  C   UNL     1       0.096  -0.424   6.451  1.00  0.00     0.091 A 
ATOM     81  F   UNL     1      -0.147  -2.306   7.890  1.00  0.00    -0.205 F 
ATOM     82  C   UNL     1       0.923   0.495   5.790  1.00  0.00     0.022 A 
BRANCH  80  83
ATOM     83  S   UNL     1      -1.659  -0.454   6.085  1.00  0.00     0.127 S 
ATOM     84  O   UNL     1      -1.867   0.798   5.359  1.00  0.00    -0.237 OA
ATOM     85  O   UNL     1      -1.774  -1.659   5.274  1.00  0.00    -0.237 OA
ATOM     86  O   UNL     1      -2.275  -0.494   7.406  1.00  0.00    -0.744 OA
ENDBRANCH  80  83
ENDBRANCH  52  76
BRANCH  64  87
ATOM     87  C   UNL     1       0.660  -6.411  12.400  1.00  0.00     0.023 A 
ATOM     88  C   UNL     1      -0.410  -5.575  12.780  1.00  0.00     0.012 A 
ATOM     89  C   UNL     1       0.745  -7.672  13.039  1.00  0.00     0.148 A 
ATOM     90  C   UNL     1      -1.308  -5.938  13.790  1.00  0.00     0.002 A 
ATOM     91  C   UNL     1      -0.209  -8.069  13.975  1.00  0.00     0.091 A 
ATOM     92  F   UNL     1       1.765  -8.495  12.748  1.00  0.00    -0.205 F 
ATOM     93  C   UNL     1      -1.220  -7.194  14.376  1.00  0.00     0.022 A 
BRANCH  91  94
ATOM     94  S   UNL     1      -0.238  -9.765  14.572  1.00  0.00     0.127 S 
ATOM     95  O   UNL     1       0.740  -9.730  15.656  1.00  0.00    -0.237 OA
ATOM     96  O   UNL     1      -1.625  -9.932  15.012  1.00  0.00    -0.237 OA
ATOM     97  O   UNL     1       0.113 -10.565  13.405  1.00  0.00    -0.744 OA
ENDBRANCH  91  94
ENDBRANCH  64  87
ENDBRANCH  38  39
ENDBRANCH  30  33
ENDBRANCH  28  29
ENDBRANCH  27  28
ENDBRANCH   1  27
TORSDOF 17
