REMARK SMILES C[C@@H](NC(=O)[C@H]1CC=CC[C@@H]1C(=O)NCCCNC(=O)c1ccc(-c2c3nc(c(-c4cccc(S(=O)(=O)[O-])c4F)c4ccc([nH]4)c(-c4cccc(S(=O)(=O)[O-])c4F)c4nc(c(-c5cccc(S(=O)(=O)[O-])c5F)c5ccc2[nH]5)C=C4)C=C3)cc1)c1ccc(-n2ccnc2)cc1
REMARK SMILES IDX 15 1 14 2 12 3 13 4 11 6 6 7 7 8 8 9 10 10 9 11 4 12 3 13
REMARK SMILES IDX 5 15 2 16 1 17 84 18 85 19 94 20 86 21 93 22 87 23 88 24
REMARK SMILES IDX 89 25 92 26 90 27 91 28 16 29 17 30 18 31 19 32 20 34 21 35
REMARK SMILES IDX 22 36 83 37 23 38 82 39 24 40 25 41 26 42 76 43 27 44 81 45
REMARK SMILES IDX 75 46 77 47 28 48 80 49 74 50 73 51 29 53 61 54 41 55 60 56
REMARK SMILES IDX 42 57 45 58 59 59 78 60 43 61 44 62 58 64 79 65 46 66 30 67
REMARK SMILES IDX 31 68 39 69 32 70 34 71 40 72 33 73 35 74 36 75 37 76 38 77
REMARK SMILES IDX 62 78 63 79 71 80 64 81 66 82 72 83 65 84 67 85 68 86 69 87
REMARK SMILES IDX 70 88 47 89 48 90 56 91 49 92 51 93 57 94 50 95 52 96 53 97
REMARK SMILES IDX 54 98 55 99
REMARK H PARENT 14 5 3 14 18 33 77 52 45 63
REMARK Flexibility Score: inf
ROOT
ATOM      1  C   UNL     1      -3.694  -5.655  -0.995  1.00  0.00     0.117 C 
ENDROOT
BRANCH   1   2
ATOM      2  N   UNL     1      -4.101  -4.509  -1.773  1.00  0.00    -0.356 N 
ATOM      3  C   UNL     1      -3.411  -3.462  -2.265  1.00  0.00     0.224 C 
ATOM      4  O   UNL     1      -3.946  -2.868  -3.210  1.00  0.00    -0.275 OA
ATOM      5  H   UNL     1      -5.063  -4.490  -1.984  1.00  0.00     0.163 HD
BRANCH   3   6
ATOM      6  C   UNL     1      -2.066  -2.946  -1.731  1.00  0.00     0.095 C 
ATOM      7  C   UNL     1      -1.170  -3.646  -0.147  1.00  0.00     0.095 C 
ATOM      8  C   UNL     1      -1.392  -2.733   1.483  1.00  0.00     0.041 C 
ATOM      9  C   UNL     1      -1.716  -0.949   1.574  1.00  0.00    -0.030 C 
ATOM     10  C   UNL     1      -2.243  -0.939  -1.666  1.00  0.00     0.041 C 
ATOM     11  C   UNL     1      -2.044  -0.126   0.347  1.00  0.00    -0.030 C 
BRANCH   7  12
ATOM     12  C   UNL     1       0.569  -3.561  -0.322  1.00  0.00     0.224 C 
ATOM     13  N   UNL     1       1.348  -2.366  -0.517  1.00  0.00    -0.349 N 
ATOM     14  H   UNL     1       2.303  -2.578  -0.405  1.00  0.00     0.164 HD
ATOM     15  O   UNL     1       1.201  -4.625  -0.273  1.00  0.00    -0.275 OA
BRANCH  13  16
ATOM     16  C   UNL     1       1.179  -0.728  -0.871  1.00  0.00     0.109 C 
ATOM     17  C   UNL     1       1.967   0.035   0.184  1.00  0.00     0.036 C 
BRANCH  16  18
ATOM     18  C   UNL     1      -0.263  -0.231  -0.902  1.00  0.00    -0.026 A 
ATOM     19  C   UNL     1      -1.279   1.092  -1.359  1.00  0.00     0.008 A 
ATOM     20  C   UNL     1      -1.064  -1.589  -0.406  1.00  0.00     0.008 A 
ATOM     21  C   UNL     1      -3.070   1.044  -1.224  1.00  0.00     0.027 A 
ATOM     22  C   UNL     1      -2.985  -1.775  -0.123  1.00  0.00     0.027 A 
ATOM     23  C   UNL     1      -3.950  -0.348  -0.549  1.00  0.00     0.046 A 
BRANCH  23  24
ATOM     24  N   UNL     1      -5.342  -0.477  -0.571  1.00  0.00    -0.306 N 
ATOM     25  C   UNL     1      -6.081  -1.349   0.187  1.00  0.00     0.113 A 
ATOM     26  C   UNL     1      -6.214   0.135  -1.430  1.00  0.00     0.204 A 
ATOM     27  C   UNL     1      -7.371  -1.234  -0.272  1.00  0.00     0.131 A 
ATOM     28  N   UNL     1      -7.445  -0.311  -1.282  1.00  0.00    -0.245 NA
ENDBRANCH  23  24
ENDBRANCH  16  18
ENDBRANCH  13  16
ENDBRANCH   7  12
ENDBRANCH   3   6
ENDBRANCH   1   2
BRANCH   1  29
ATOM     29  C   UNL     1      -4.046  -5.559   0.486  1.00  0.00     0.042 C 
BRANCH  29  30
ATOM     30  C   UNL     1      -5.528  -5.340   0.776  1.00  0.00     0.118 C 
BRANCH  30  31
ATOM     31  N   UNL     1      -6.347  -6.407   0.230  1.00  0.00    -0.352 N 
ATOM     32  C   UNL     1      -6.916  -7.485   0.856  1.00  0.00     0.251 C 
ATOM     33  H   UNL     1      -6.519  -6.347  -0.737  1.00  0.00     0.163 HD
ATOM     34  O   UNL     1      -7.231  -8.463   0.182  1.00  0.00    -0.269 OA
BRANCH  32  35
ATOM     35  C   UNL     1      -7.170  -7.476   2.314  1.00  0.00     0.039 A 
ATOM     36  C   UNL     1      -7.065  -8.678   3.018  1.00  0.00     0.014 A 
ATOM     37  C   UNL     1      -7.600  -6.320   2.974  1.00  0.00     0.014 A 
ATOM     38  C   UNL     1      -7.369  -8.715   4.380  1.00  0.00     0.010 A 
ATOM     39  C   UNL     1      -7.822  -6.340   4.351  1.00  0.00     0.010 A 
ATOM     40  C   UNL     1      -7.731  -7.542   5.065  1.00  0.00    -0.014 A 
BRANCH  40  41
ATOM     41  C   UNL     1      -8.003  -7.579   6.525  1.00  0.00     0.031 A 
ATOM     42  C   UNL     1      -9.365  -7.233   7.068  1.00  0.00     0.074 A 
ATOM     43  C   UNL     1      -7.002  -7.901   7.368  1.00  0.00     0.049 A 
ATOM     44  N   UNL     1      -9.783  -7.247   8.308  1.00  0.00    -0.248 NA
ATOM     45  C   UNL     1     -10.386  -6.796   6.101  1.00  0.00     0.031 C 
ATOM     46  C   UNL     1      -5.619  -8.170   6.968  1.00  0.00     0.029 A 
ATOM     47  N   UNL     1      -6.987  -8.044   8.732  1.00  0.00    -0.354 N 
ATOM     48  C   UNL     1     -11.101  -6.807   8.274  1.00  0.00     0.074 A 
ATOM     49  C   UNL     1     -11.403  -6.491   6.895  1.00  0.00     0.031 C 
ATOM     50  C   UNL     1      -4.894  -8.462   8.059  1.00  0.00     0.029 A 
ATOM     51  C   UNL     1      -5.749  -8.368   9.237  1.00  0.00     0.049 A 
ATOM     52  H   UNL     1      -7.785  -7.926   9.295  1.00  0.00     0.167 HD
ATOM     53  C   UNL     1     -11.990  -6.705   9.291  1.00  0.00     0.034 A 
ATOM     54  C   UNL     1      -5.345  -8.559  10.507  1.00  0.00     0.034 A 
ATOM     55  C   UNL     1     -11.690  -7.040  10.659  1.00  0.00     0.049 A 
ATOM     56  C   UNL     1      -6.360  -8.469  11.613  1.00  0.00     0.074 A 
ATOM     57  C   UNL     1     -12.538  -7.035  11.752  1.00  0.00     0.029 A 
ATOM     58  N   UNL     1     -10.443  -7.428  11.124  1.00  0.00    -0.354 N 
ATOM     59  N   UNL     1      -7.641  -8.200  11.537  1.00  0.00    -0.248 NA
ATOM     60  C   UNL     1      -5.882  -8.749  12.973  1.00  0.00     0.031 C 
ATOM     61  C   UNL     1     -11.795  -7.388  12.884  1.00  0.00     0.029 A 
ATOM     62  C   UNL     1     -10.494  -7.653  12.490  1.00  0.00     0.049 A 
ATOM     63  H   UNL     1      -9.638  -7.528  10.566  1.00  0.00     0.167 HD
ATOM     64  C   UNL     1      -8.128  -8.304  12.835  1.00  0.00     0.074 A 
ATOM     65  C   UNL     1      -7.010  -8.698  13.668  1.00  0.00     0.031 C 
ATOM     66  C   UNL     1      -9.381  -8.077  13.300  1.00  0.00     0.034 A 
BRANCH  53  67
ATOM     67  C   UNL     1     -13.392  -6.257   8.960  1.00  0.00     0.023 A 
ATOM     68  C   UNL     1     -14.245  -7.118   8.238  1.00  0.00     0.012 A 
ATOM     69  C   UNL     1     -13.892  -5.024   9.424  1.00  0.00     0.148 A 
ATOM     70  C   UNL     1     -15.559  -6.747   7.955  1.00  0.00     0.002 A 
ATOM     71  C   UNL     1     -15.217  -4.681   9.179  1.00  0.00     0.091 A 
ATOM     72  F   UNL     1     -13.063  -4.211  10.095  1.00  0.00    -0.205 F 
ATOM     73  C   UNL     1     -16.047  -5.535   8.435  1.00  0.00     0.022 A 
BRANCH  71  74
ATOM     74  S   UNL     1     -15.970  -3.182   9.821  1.00  0.00     0.127 S 
ATOM     75  O   UNL     1     -16.234  -2.435   8.592  1.00  0.00    -0.237 OA
ATOM     76  O   UNL     1     -17.165  -3.701  10.487  1.00  0.00    -0.237 OA
ATOM     77  O   UNL     1     -14.985  -2.584  10.711  1.00  0.00    -0.744 OA
ENDBRANCH  71  74
ENDBRANCH  53  67
BRANCH  54  78
ATOM     78  C   UNL     1      -3.921  -8.890  10.796  1.00  0.00     0.023 A 
ATOM     79  C   UNL     1      -3.580 -10.165  11.287  1.00  0.00     0.012 A 
ATOM     80  C   UNL     1      -2.901  -7.946  10.569  1.00  0.00     0.148 A 
ATOM     81  C   UNL     1      -2.254 -10.479  11.588  1.00  0.00     0.002 A 
ATOM     82  C   UNL     1      -1.576  -8.286  10.811  1.00  0.00     0.091 A 
ATOM     83  F   UNL     1      -3.246  -6.735  10.110  1.00  0.00    -0.205 F 
ATOM     84  C   UNL     1      -1.252  -9.544  11.341  1.00  0.00     0.022 A 
BRANCH  82  85
ATOM     85  S   UNL     1      -0.214  -7.195  10.389  1.00  0.00     0.127 S 
ATOM     86  O   UNL     1       0.253  -6.776  11.708  1.00  0.00    -0.237 OA
ATOM     87  O   UNL     1       0.686  -8.099   9.673  1.00  0.00    -0.237 OA
ATOM     88  O   UNL     1      -0.793  -6.146   9.560  1.00  0.00    -0.744 OA
ENDBRANCH  82  85
ENDBRANCH  54  78
BRANCH  66  89
ATOM     89  C   UNL     1      -9.615  -8.276  14.776  1.00  0.00     0.023 A 
ATOM     90  C   UNL     1      -9.044  -7.384  15.706  1.00  0.00     0.012 A 
ATOM     91  C   UNL     1     -10.428  -9.329  15.239  1.00  0.00     0.148 A 
ATOM     92  C   UNL     1      -9.234  -7.568  17.075  1.00  0.00     0.002 A 
ATOM     93  C   UNL     1     -10.660  -9.472  16.601  1.00  0.00     0.091 A 
ATOM     94  F   UNL     1     -10.951 -10.177  14.341  1.00  0.00    -0.205 F 
ATOM     95  C   UNL     1     -10.050  -8.605  17.521  1.00  0.00     0.022 A 
BRANCH  93  96
ATOM     96  S   UNL     1     -11.773 -10.717  17.262  1.00  0.00     0.127 S 
ATOM     97  O   UNL     1     -10.837 -11.653  17.883  1.00  0.00    -0.237 OA
ATOM     98  O   UNL     1     -12.577  -9.942  18.208  1.00  0.00    -0.237 OA
ATOM     99  O   UNL     1     -12.515 -11.239  16.123  1.00  0.00    -0.744 OA
ENDBRANCH  93  96
ENDBRANCH  66  89
ENDBRANCH  40  41
ENDBRANCH  32  35
ENDBRANCH  30  31
ENDBRANCH  29  30
ENDBRANCH   1  29
TORSDOF 17
