REMARK SMILES CSc1ccc(/C=C2\C(C)=C(CC(=O)NCCCNC(=O)c3ccc(-c4c5nc(c(-c6cccc(S(=O)(=O)[O-])c6F)c6ccc([nH]6)c(-c6cccc(S(=O)(=O)[O-])c6F)c6nc(c(-c7cccc(S(=O)(=O)[O-])c7F)c7ccc4[nH]7)C=C6)C=C5)cc3)c3cc(F)ccc32)cc1
REMARK SMILES IDX 17 1 16 2 15 3 13 4 14 5 12 7 11 8 7 9 8 10 9 11 91 12 10 13
REMARK SMILES IDX 85 14 90 15 86 16 89 17 87 18 88 19 6 20 3 21 4 22 93 23
REMARK SMILES IDX 5 24 92 25 2 26 1 27 18 28 19 29 20 30 21 32 22 33 23 34
REMARK SMILES IDX 84 35 24 36 83 37 25 38 26 39 27 40 77 41 28 42 82 43 76 44
REMARK SMILES IDX 78 45 29 46 81 47 75 48 74 49 30 51 62 52 42 53 61 54 43 55
REMARK SMILES IDX 46 56 60 57 79 58 44 59 45 60 59 62 80 63 47 64 31 65 32 66
REMARK SMILES IDX 40 67 33 68 35 69 41 70 34 71 36 72 37 73 38 74 39 75 63 76
REMARK SMILES IDX 64 77 72 78 65 79 67 80 73 81 66 82 68 83 69 84 70 85 71 86
REMARK SMILES IDX 48 87 49 88 57 89 50 90 52 91 58 92 51 93 53 94 54 95 55 96
REMARK SMILES IDX 56 97
REMARK H PARENT 15 6 19 31 78 50 46 61
REMARK Flexibility Score: inf
ROOT
ATOM      1  C   UNL     1      -2.116  -3.162   7.869  1.00  0.00     0.042 C 
ENDROOT
BRANCH   1   2
ATOM      2  C   UNL     1      -1.065  -3.200   8.971  1.00  0.00     0.117 C 
BRANCH   2   3
ATOM      3  N   UNL     1      -0.665  -4.555   9.307  1.00  0.00    -0.356 N 
ATOM      4  C   UNL     1       0.308  -5.331   8.747  1.00  0.00     0.224 C 
ATOM      5  O   UNL     1       0.410  -6.503   9.116  1.00  0.00    -0.275 OA
ATOM      6  H   UNL     1      -1.167  -4.973  10.043  1.00  0.00     0.163 HD
BRANCH   4   7
ATOM      7  C   UNL     1       1.249  -4.740   7.715  1.00  0.00     0.136 C 
BRANCH   7   8
ATOM      8  C   UNL     1       0.676  -4.852   6.315  1.00  0.00    -0.027 C 
ATOM      9  C   UNL     1       2.425  -2.398   4.564  1.00  0.00     0.017 C 
ATOM     10  C   UNL     1       1.781  -3.534   4.868  1.00  0.00    -0.014 C 
ATOM     11  C   UNL     1       0.486  -3.738   5.548  1.00  0.00    -0.039 C 
ATOM     12  C   UNL     1       2.254  -4.894   4.565  1.00  0.00    -0.010 A 
ATOM     13  C   UNL     1      -0.652  -3.795   4.513  1.00  0.00     0.045 C 
ATOM     14  C   UNL     1       1.487  -5.715   5.414  1.00  0.00    -0.011 A 
ATOM     15  C   UNL     1       2.865  -5.392   3.427  1.00  0.00     0.012 A 
ATOM     16  C   UNL     1       1.297  -7.057   5.138  1.00  0.00     0.048 A 
ATOM     17  C   UNL     1       2.663  -6.743   3.132  1.00  0.00     0.040 A 
ATOM     18  C   UNL     1       1.883  -7.552   3.977  1.00  0.00     0.123 A 
ATOM     19  F   UNL     1       1.622  -8.812   3.603  1.00  0.00    -0.207 F 
BRANCH   9  20
ATOM     20  C   UNL     1       1.938  -0.999   4.543  1.00  0.00    -0.025 A 
ATOM     21  C   UNL     1       1.173   1.308   3.179  1.00  0.00     0.007 A 
ATOM     22  C   UNL     1       0.199   0.444   3.667  1.00  0.00     0.015 A 
ATOM     23  C   UNL     1       2.496   1.160   3.590  1.00  0.00     0.015 A 
ATOM     24  C   UNL     1       0.586  -0.691   4.374  1.00  0.00     0.009 A 
ATOM     25  C   UNL     1       2.880   0.004   4.275  1.00  0.00     0.009 A 
BRANCH  21  26
ATOM     26  S   UNL     1       0.787   2.369   1.802  1.00  0.00    -0.130 SA
ATOM     27  C   UNL     1       0.707   1.051   0.531  1.00  0.00     0.091 C 
ENDBRANCH  21  26
ENDBRANCH   9  20
ENDBRANCH   7   8
ENDBRANCH   4   7
ENDBRANCH   2   3
ENDBRANCH   1   2
BRANCH   1  28
ATOM     28  C   UNL     1      -3.392  -3.928   8.180  1.00  0.00     0.118 C 
BRANCH  28  29
ATOM     29  N   UNL     1      -4.130  -3.329   9.277  1.00  0.00    -0.352 N 
ATOM     30  C   UNL     1      -5.283  -2.587   9.260  1.00  0.00     0.251 C 
ATOM     31  H   UNL     1      -3.743  -3.479  10.170  1.00  0.00     0.163 HD
ATOM     32  O   UNL     1      -5.593  -1.944  10.260  1.00  0.00    -0.269 OA
BRANCH  30  33
ATOM     33  C   UNL     1      -6.150  -2.552   8.059  1.00  0.00     0.039 A 
ATOM     34  C   UNL     1      -6.776  -1.349   7.716  1.00  0.00     0.014 A 
ATOM     35  C   UNL     1      -6.406  -3.705   7.313  1.00  0.00     0.014 A 
ATOM     36  C   UNL     1      -7.630  -1.298   6.611  1.00  0.00     0.010 A 
ATOM     37  C   UNL     1      -7.191  -3.634   6.165  1.00  0.00     0.010 A 
ATOM     38  C   UNL     1      -7.832  -2.437   5.817  1.00  0.00    -0.014 A 
BRANCH  38  39
ATOM     39  C   UNL     1      -8.732  -2.409   4.636  1.00  0.00     0.031 A 
ATOM     40  C   UNL     1      -9.968  -3.268   4.607  1.00  0.00     0.074 A 
ATOM     41  C   UNL     1      -8.385  -1.690   3.550  1.00  0.00     0.049 A 
ATOM     42  N   UNL     1     -10.836  -3.432   3.642  1.00  0.00    -0.248 NA
ATOM     43  C   UNL     1     -10.247  -4.077   5.805  1.00  0.00     0.031 C 
ATOM     44  C   UNL     1      -7.161  -0.897   3.419  1.00  0.00     0.029 A 
ATOM     45  N   UNL     1      -9.010  -1.541   2.338  1.00  0.00    -0.354 N 
ATOM     46  C   UNL     1     -11.730  -4.395   4.095  1.00  0.00     0.074 A 
ATOM     47  C   UNL     1     -11.285  -4.800   5.410  1.00  0.00     0.031 C 
ATOM     48  C   UNL     1      -7.119  -0.355   2.192  1.00  0.00     0.029 A 
ATOM     49  C   UNL     1      -8.302  -0.773   1.444  1.00  0.00     0.049 A 
ATOM     50  H   UNL     1      -9.882  -1.946   2.128  1.00  0.00     0.167 HD
ATOM     51  C   UNL     1     -12.840  -4.877   3.486  1.00  0.00     0.034 A 
ATOM     52  C   UNL     1      -8.571  -0.445   0.165  1.00  0.00     0.034 A 
ATOM     53  C   UNL     1     -13.321  -4.414   2.213  1.00  0.00     0.049 A 
ATOM     54  C   UNL     1      -9.862  -0.909  -0.451  1.00  0.00     0.074 A 
ATOM     55  C   UNL     1     -14.502  -4.737   1.570  1.00  0.00     0.029 A 
ATOM     56  N   UNL     1     -12.644  -3.529   1.388  1.00  0.00    -0.354 N 
ATOM     57  N   UNL     1     -10.795  -1.670   0.069  1.00  0.00    -0.248 NA
ATOM     58  C   UNL     1     -10.161  -0.437  -1.811  1.00  0.00     0.031 C 
ATOM     59  C   UNL     1     -14.536  -4.052   0.350  1.00  0.00     0.029 A 
ATOM     60  C   UNL     1     -13.378  -3.298   0.238  1.00  0.00     0.049 A 
ATOM     61  H   UNL     1     -11.770  -3.124   1.591  1.00  0.00     0.167 HD
ATOM     62  C   UNL     1     -11.802  -1.749  -0.887  1.00  0.00     0.074 A 
ATOM     63  C   UNL     1     -11.375  -0.937  -2.009  1.00  0.00     0.031 C 
ATOM     64  C   UNL     1     -12.964  -2.445  -0.847  1.00  0.00     0.034 A 
BRANCH  51  65
ATOM     65  C   UNL     1     -13.649  -5.910   4.224  1.00  0.00     0.023 A 
ATOM     66  C   UNL     1     -14.418  -5.520   5.340  1.00  0.00     0.012 A 
ATOM     67  C   UNL     1     -13.689  -7.250   3.793  1.00  0.00     0.148 A 
ATOM     68  C   UNL     1     -15.184  -6.453   6.038  1.00  0.00     0.002 A 
ATOM     69  C   UNL     1     -14.487  -8.167   4.469  1.00  0.00     0.091 A 
ATOM     70  F   UNL     1     -12.932  -7.611   2.747  1.00  0.00    -0.205 F 
ATOM     71  C   UNL     1     -15.226  -7.773   5.596  1.00  0.00     0.022 A 
BRANCH  69  72
ATOM     72  S   UNL     1     -14.661  -9.871   3.926  1.00  0.00     0.127 S 
ATOM     73  O   UNL     1     -13.788 -10.571   4.867  1.00  0.00    -0.237 OA
ATOM     74  O   UNL     1     -16.090 -10.118   4.124  1.00  0.00    -0.237 OA
ATOM     75  O   UNL     1     -14.235  -9.887   2.535  1.00  0.00    -0.744 OA
ENDBRANCH  69  72
ENDBRANCH  51  65
BRANCH  52  76
ATOM     76  C   UNL     1      -7.629   0.440  -0.576  1.00  0.00     0.023 A 
ATOM     77  C   UNL     1      -7.986   1.780  -0.815  1.00  0.00     0.012 A 
ATOM     78  C   UNL     1      -6.357  -0.015  -0.976  1.00  0.00     0.148 A 
ATOM     79  C   UNL     1      -7.101   2.648  -1.456  1.00  0.00     0.002 A 
ATOM     80  C   UNL     1      -5.459   0.869  -1.566  1.00  0.00     0.091 A 
ATOM     81  F   UNL     1      -6.040  -1.298  -0.753  1.00  0.00    -0.205 F 
ATOM     82  C   UNL     1      -5.834   2.197  -1.819  1.00  0.00     0.022 A 
BRANCH  80  83
ATOM     83  S   UNL     1      -3.763   0.400  -1.935  1.00  0.00     0.127 S 
ATOM     84  O   UNL     1      -3.812   0.206  -3.382  1.00  0.00    -0.237 OA
ATOM     85  O   UNL     1      -3.011   1.578  -1.498  1.00  0.00    -0.237 OA
ATOM     86  O   UNL     1      -3.506  -0.791  -1.139  1.00  0.00    -0.744 OA
ENDBRANCH  80  83
ENDBRANCH  52  76
BRANCH  64  87
ATOM     87  C   UNL     1     -13.872  -2.359  -2.045  1.00  0.00     0.023 A 
ATOM     88  C   UNL     1     -13.537  -3.063  -3.218  1.00  0.00     0.012 A 
ATOM     89  C   UNL     1     -15.093  -1.660  -1.980  1.00  0.00     0.148 A 
ATOM     90  C   UNL     1     -14.393  -3.053  -4.318  1.00  0.00     0.002 A 
ATOM     91  C   UNL     1     -15.961  -1.689  -3.066  1.00  0.00     0.091 A 
ATOM     92  F   UNL     1     -15.384  -0.979  -0.862  1.00  0.00    -0.205 F 
ATOM     93  C   UNL     1     -15.609  -2.377  -4.239  1.00  0.00     0.022 A 
BRANCH  91  94
ATOM     94  S   UNL     1     -17.585  -0.922  -3.011  1.00  0.00     0.127 S 
ATOM     95  O   UNL     1     -17.361   0.306  -3.771  1.00  0.00    -0.237 OA
ATOM     96  O   UNL     1     -18.424  -1.913  -3.688  1.00  0.00    -0.237 OA
ATOM     97  O   UNL     1     -17.890  -0.743  -1.598  1.00  0.00    -0.744 OA
ENDBRANCH  91  94
ENDBRANCH  64  87
ENDBRANCH  38  39
ENDBRANCH  30  33
ENDBRANCH  28  29
ENDBRANCH   1  28
TORSDOF 16
