REMARK SMILES O=C(COc1ccccc1Br)Nc1cccc(C(=O)Nc2ccc(C(=O)NCCCNC(=O)c3ccc(-c4c5nc(c(-c6cccc(S(=O)(=O)[O-])c6F)c6ccc([nH]6)c(-c6cccc(S(=O)(=O)[O-])c6F)c6nc(c(-c7cccc(S(=O)(=O)[O-])c7F)c7ccc4[nH]7)C=C6)C=C5)cc3)cc2)c1
REMARK SMILES IDX 25 1 26 2 27 3 24 5 21 6 22 7 98 8 23 9 97 10 20 11 18 12
REMARK SMILES IDX 19 13 17 15 13 16 14 17 99 18 15 19 16 20 12 21 1 22 2 23
REMARK SMILES IDX 3 25 4 26 5 27 6 28 10 29 7 30 9 31 11 32 8 33 28 34 29 35
REMARK SMILES IDX 30 36 31 37 32 38 33 40 34 41 35 42 96 43 36 44 95 45 37 46
REMARK SMILES IDX 38 47 39 48 89 49 40 50 94 51 88 52 90 53 41 54 93 55 87 56
REMARK SMILES IDX 86 57 42 59 74 60 54 61 73 62 55 63 58 64 72 65 91 66 56 67
REMARK SMILES IDX 57 68 71 70 92 71 59 72 43 73 44 74 52 75 45 76 47 77 53 78
REMARK SMILES IDX 46 79 48 80 49 81 50 82 51 83 75 84 76 85 84 86 77 87 79 88
REMARK SMILES IDX 85 89 78 90 80 91 81 92 82 93 83 94 60 95 61 96 69 97 62 98
REMARK SMILES IDX 64 99 70 100 63 101 65 102 66 103 67 104 68 105
REMARK H PARENT 27 4 20 14 12 24 31 39 90 58 58 69
REMARK Flexibility Score: inf
ROOT
ATOM      1  C   UNL     1       2.027   3.879   0.350  1.00  0.00     0.251 C 
ATOM      2  O   UNL     1       1.492   4.513   1.260  1.00  0.00    -0.269 OA
ATOM      3  N   UNL     1       3.317   3.450   0.551  1.00  0.00    -0.352 N 
ATOM      4  H   UNL     1       3.704   3.746   1.407  1.00  0.00     0.163 HD
ENDROOT
BRANCH   1   5
ATOM      5  C   UNL     1       1.237   3.535  -0.863  1.00  0.00     0.039 A 
ATOM      6  C   UNL     1      -0.318   2.441  -2.915  1.00  0.00     0.041 A 
ATOM      7  C   UNL     1      -0.929   2.831  -1.724  1.00  0.00     0.027 A 
ATOM      8  C   UNL     1       1.018   2.773  -3.150  1.00  0.00     0.027 A 
ATOM      9  C   UNL     1      -0.143   3.345  -0.689  1.00  0.00     0.016 A 
ATOM     10  C   UNL     1       1.786   3.352  -2.133  1.00  0.00     0.016 A 
BRANCH   6  11
ATOM     11  N   UNL     1      -1.051   1.618  -3.783  1.00  0.00    -0.322 N 
ATOM     12  C   UNL     1      -0.658   0.445  -4.408  1.00  0.00     0.255 C 
ATOM     13  O   UNL     1      -1.380  -0.051  -5.274  1.00  0.00    -0.269 OA
ATOM     14  H   UNL     1      -1.971   1.913  -3.975  1.00  0.00     0.170 HD
BRANCH  12  15
ATOM     15  C   UNL     1       0.561  -0.306  -3.977  1.00  0.00     0.042 A 
ATOM     16  C   UNL     1       2.211  -0.891  -2.284  1.00  0.00     0.042 A 
ATOM     17  C   UNL     1       2.884  -1.674  -3.226  1.00  0.00     0.026 A 
ATOM     18  C   UNL     1       1.022  -0.270  -2.654  1.00  0.00     0.040 A 
ATOM     19  C   UNL     1       2.367  -1.827  -4.515  1.00  0.00     0.003 A 
ATOM     20  C   UNL     1       1.214  -1.135  -4.895  1.00  0.00     0.014 A 
BRANCH  16  21
ATOM     21  N   UNL     1       2.755  -0.801  -0.990  1.00  0.00    -0.323 N 
ATOM     22  O   UNL     1       1.154   0.446   0.178  1.00  0.00    -0.271 OA
ATOM     23  C   UNL     1       2.183  -0.220   0.133  1.00  0.00     0.262 C 
ATOM     24  H   UNL     1       3.647  -1.199  -0.865  1.00  0.00     0.170 HD
BRANCH  23  25
ATOM     25  C   UNL     1       2.988  -0.485   1.400  1.00  0.00     0.329 C 
BRANCH  25  26
ATOM     26  O   UNL     1       3.672  -1.740   1.290  1.00  0.00    -0.483 OA
BRANCH  26  27
ATOM     27  C   UNL     1       3.144  -2.644   2.171  1.00  0.00     0.134 A 
ATOM     28  C   UNL     1       3.674  -2.663   3.463  1.00  0.00     0.047 A 
ATOM     29  C   UNL     1       2.146  -3.553   1.805  1.00  0.00     0.060 A 
ATOM     30  C   UNL     1       3.174  -3.563   4.402  1.00  0.00     0.004 A 
ATOM     31  C   UNL     1       1.638  -4.439   2.754  1.00  0.00     0.019 A 
ATOM     32  Br  UNL     1       1.446  -3.680   0.051  1.00  0.00    -0.047 Br
ATOM     33  C   UNL     1       2.150  -4.442   4.051  1.00  0.00     0.001 A 
ENDBRANCH  26  27
ENDBRANCH  25  26
ENDBRANCH  23  25
ENDBRANCH  16  21
ENDBRANCH  12  15
ENDBRANCH   6  11
ENDBRANCH   1   5
BRANCH   3  34
ATOM     34  C   UNL     1       4.219   2.646  -0.254  1.00  0.00     0.118 C 
BRANCH  34  35
ATOM     35  C   UNL     1       5.332   3.492  -0.856  1.00  0.00     0.042 C 
BRANCH  35  36
ATOM     36  C   UNL     1       6.340   3.962   0.188  1.00  0.00     0.118 C 
BRANCH  36  37
ATOM     37  N   UNL     1       7.141   2.865   0.728  1.00  0.00    -0.352 N 
ATOM     38  C   UNL     1       8.506   2.682   0.701  1.00  0.00     0.251 C 
ATOM     39  H   UNL     1       6.630   2.153   1.176  1.00  0.00     0.163 HD
ATOM     40  O   UNL     1       8.986   1.611   1.036  1.00  0.00    -0.269 OA
BRANCH  38  41
ATOM     41  C   UNL     1       9.376   3.790   0.251  1.00  0.00     0.039 A 
ATOM     42  C   UNL     1      10.412   3.528  -0.649  1.00  0.00     0.014 A 
ATOM     43  C   UNL     1       9.148   5.089   0.708  1.00  0.00     0.014 A 
ATOM     44  C   UNL     1      11.176   4.588  -1.148  1.00  0.00     0.010 A 
ATOM     45  C   UNL     1       9.845   6.147   0.142  1.00  0.00     0.010 A 
ATOM     46  C   UNL     1      10.873   5.909  -0.783  1.00  0.00    -0.014 A 
BRANCH  46  47
ATOM     47  C   UNL     1      11.615   7.073  -1.329  1.00  0.00     0.031 A 
ATOM     48  C   UNL     1      12.347   7.990  -0.387  1.00  0.00     0.074 A 
ATOM     49  C   UNL     1      11.518   7.380  -2.638  1.00  0.00     0.049 A 
ATOM     50  N   UNL     1      12.912   9.144  -0.627  1.00  0.00    -0.248 NA
ATOM     51  C   UNL     1      12.415   7.572   1.024  1.00  0.00     0.031 C 
ATOM     52  C   UNL     1      10.774   6.611  -3.637  1.00  0.00     0.029 A 
ATOM     53  N   UNL     1      12.014   8.448  -3.344  1.00  0.00    -0.354 N 
ATOM     54  C   UNL     1      13.347   9.615   0.606  1.00  0.00     0.074 A 
ATOM     55  C   UNL     1      12.953   8.638   1.597  1.00  0.00     0.031 C 
ATOM     56  C   UNL     1      10.857   7.234  -4.823  1.00  0.00     0.029 A 
ATOM     57  C   UNL     1      11.626   8.463  -4.663  1.00  0.00     0.049 A 
ATOM     58  H   UNL     1      12.592   9.137  -2.943  1.00  0.00     0.167 HD
ATOM     59  C   UNL     1      14.037  10.745   0.886  1.00  0.00     0.034 A 
ATOM     60  C   UNL     1      11.851   9.374  -5.631  1.00  0.00     0.034 A 
ATOM     61  C   UNL     1      14.477  11.680  -0.112  1.00  0.00     0.049 A 
ATOM     62  C   UNL     1      12.674  10.593  -5.308  1.00  0.00     0.074 A 
ATOM     63  C   UNL     1      15.267  12.804   0.051  1.00  0.00     0.029 A 
ATOM     64  N   UNL     1      14.167  11.599  -1.460  1.00  0.00    -0.354 N 
ATOM     65  N   UNL     1      13.203  10.950  -4.163  1.00  0.00    -0.248 NA
ATOM     66  C   UNL     1      12.963  11.515  -6.416  1.00  0.00     0.031 C 
ATOM     67  C   UNL     1      15.417  13.414  -1.199  1.00  0.00     0.029 A 
ATOM     68  C   UNL     1      14.746  12.653  -2.143  1.00  0.00     0.049 A 
ATOM     69  H   UNL     1      13.615  10.895  -1.871  1.00  0.00     0.167 HD
ATOM     70  C   UNL     1      13.922  12.111  -4.420  1.00  0.00     0.074 A 
ATOM     71  C   UNL     1      13.770  12.392  -5.832  1.00  0.00     0.031 C 
ATOM     72  C   UNL     1      14.637  12.880  -3.562  1.00  0.00     0.034 A 
BRANCH  59  73
ATOM     73  C   UNL     1      14.400  11.003   2.326  1.00  0.00     0.023 A 
ATOM     74  C   UNL     1      15.359  10.187   2.961  1.00  0.00     0.012 A 
ATOM     75  C   UNL     1      13.822  12.071   3.040  1.00  0.00     0.148 A 
ATOM     76  C   UNL     1      15.703  10.399   4.295  1.00  0.00     0.002 A 
ATOM     77  C   UNL     1      14.207  12.308   4.355  1.00  0.00     0.091 A 
ATOM     78  F   UNL     1      12.896  12.824   2.429  1.00  0.00    -0.205 F 
ATOM     79  C   UNL     1      15.135  11.464   4.988  1.00  0.00     0.022 A 
BRANCH  77  80
ATOM     80  S   UNL     1      13.597  13.704   5.304  1.00  0.00     0.127 S 
ATOM     81  O   UNL     1      12.689  13.048   6.244  1.00  0.00    -0.237 OA
ATOM     82  O   UNL     1      14.823  14.228   5.907  1.00  0.00    -0.237 OA
ATOM     83  O   UNL     1      12.966  14.597   4.342  1.00  0.00    -0.744 OA
ENDBRANCH  77  80
ENDBRANCH  59  73
BRANCH  60  84
ATOM     84  C   UNL     1      11.350   9.129  -7.013  1.00  0.00     0.023 A 
ATOM     85  C   UNL     1      12.268   8.808  -8.031  1.00  0.00     0.012 A 
ATOM     86  C   UNL     1       9.975   9.166  -7.314  1.00  0.00     0.148 A 
ATOM     87  C   UNL     1      11.830   8.558  -9.332  1.00  0.00     0.002 A 
ATOM     88  C   UNL     1       9.540   8.862  -8.600  1.00  0.00     0.091 A 
ATOM     89  F   UNL     1       9.117   9.479  -6.332  1.00  0.00    -0.205 F 
ATOM     90  C   UNL     1      10.467   8.575  -9.614  1.00  0.00     0.022 A 
BRANCH  88  91
ATOM     91  S   UNL     1       7.800   8.728  -9.026  1.00  0.00     0.127 S 
ATOM     92  O   UNL     1       7.619   9.877  -9.910  1.00  0.00    -0.237 OA
ATOM     93  O   UNL     1       7.754   7.425  -9.690  1.00  0.00    -0.237 OA
ATOM     94  O   UNL     1       7.079   8.784  -7.762  1.00  0.00    -0.744 OA
ENDBRANCH  88  91
ENDBRANCH  60  84
BRANCH  72  95
ATOM     95  C   UNL     1      15.366  14.072  -4.124  1.00  0.00     0.023 A 
ATOM     96  C   UNL     1      14.649  15.224  -4.499  1.00  0.00     0.012 A 
ATOM     97  C   UNL     1      16.774  14.081  -4.181  1.00  0.00     0.148 A 
ATOM     98  C   UNL     1      15.323  16.361  -4.946  1.00  0.00     0.002 A 
ATOM     99  C   UNL     1      17.440  15.233  -4.579  1.00  0.00     0.091 A 
ATOM    100  F   UNL     1      17.434  12.965  -3.837  1.00  0.00    -0.205 F 
ATOM    101  C   UNL     1      16.716  16.370  -4.972  1.00  0.00     0.022 A 
BRANCH  99 102
ATOM    102  S   UNL     1      19.231  15.369  -4.545  1.00  0.00     0.127 S 
ATOM    103  O   UNL     1      19.556  15.363  -5.971  1.00  0.00    -0.237 OA
ATOM    104  O   UNL     1      19.431  16.656  -3.879  1.00  0.00    -0.237 OA
ATOM    105  O   UNL     1      19.708  14.217  -3.791  1.00  0.00    -0.744 OA
ENDBRANCH  99 102
ENDBRANCH  72  95
ENDBRANCH  46  47
ENDBRANCH  38  41
ENDBRANCH  36  37
ENDBRANCH  35  36
ENDBRANCH  34  35
ENDBRANCH   3  34
TORSDOF 19
