REMARK SMILES CCC(CC)C[N@H+]1[C@@H]2CC[C@H]1C[C@H](CC(=O)NCCCNC(=O)c1ccc(-c3c4nc(c(-c5cccc(S(=O)(=O)[O-])c5F)c5ccc([nH]5)c(-c5cccc(S(=O)(=O)[O-])c5F)c5nc(c(-c6cccc(S(=O)(=O)[O-])c6F)c6ccc3[nH]6)C=C5)C=C4)cc1)C2
REMARK SMILES IDX 18 1 17 2 15 3 16 4 14 6 13 7 7 8 8 9 11 10 9 12 87 13 10 14
REMARK SMILES IDX 12 15 6 16 3 17 2 18 1 19 4 20 5 21 19 22 20 23 21 24 22 25
REMARK SMILES IDX 23 27 24 28 25 29 86 30 26 31 85 32 27 33 28 34 29 35 79 36
REMARK SMILES IDX 30 37 84 38 78 39 80 40 31 41 83 42 77 43 76 44 32 46 64 47
REMARK SMILES IDX 44 48 63 49 45 50 48 51 62 52 81 53 46 54 47 55 61 57 82 58
REMARK SMILES IDX 49 59 33 60 34 61 42 62 35 63 37 64 43 65 36 66 38 67 39 68
REMARK SMILES IDX 40 69 41 70 65 71 66 72 74 73 67 74 69 75 75 76 68 77 70 78
REMARK SMILES IDX 71 79 72 80 73 81 50 82 51 83 59 84 52 85 54 86 60 87 53 88
REMARK SMILES IDX 55 89 56 90 57 91 58 92
REMARK H PARENT 17 5 7 11 21 26 80 45 48 56
REMARK Flexibility Score: inf
ROOT
ATOM      1  C   UNL     1      -3.285  -2.985  -5.551  1.00  0.00     0.117 C 
ENDROOT
BRANCH   1   2
ATOM      2  N   UNL     1      -2.803  -3.383  -6.870  1.00  0.00    -0.356 N 
ATOM      3  C   UNL     1      -1.597  -3.859  -7.297  1.00  0.00     0.220 C 
ATOM      4  O   UNL     1      -1.496  -4.184  -8.483  1.00  0.00    -0.275 OA
ATOM      5  H   UNL     1      -3.473  -3.292  -7.585  1.00  0.00     0.163 HD
BRANCH   3   6
ATOM      6  C   UNL     1      -0.405  -3.994  -6.362  1.00  0.00     0.104 C 
BRANCH   6   7
ATOM      7  C   UNL     1       0.541  -2.769  -6.383  1.00  0.00     0.010 C 
ATOM      8  N   UNL     1       1.444  -1.107  -4.079  1.00  0.00    -0.330 N 
ATOM      9  C   UNL     1       2.441  -1.839  -4.876  1.00  0.00     0.184 C 
ATOM     10  C   UNL     1       0.615  -0.482  -5.118  1.00  0.00     0.184 C 
ATOM     11  H   UNL     1       1.883  -0.438  -3.446  1.00  0.00     0.348 HD
ATOM     12  C   UNL     1       2.871  -0.762  -5.887  1.00  0.00     0.071 C 
ATOM     13  C   UNL     1       1.843  -3.065  -5.604  1.00  0.00     0.069 C 
ATOM     14  C   UNL     1       1.657   0.151  -6.028  1.00  0.00     0.071 C 
ATOM     15  C   UNL     1      -0.204  -1.538  -5.856  1.00  0.00     0.069 C 
BRANCH   8  16
ATOM     16  C   UNL     1       0.700  -1.881  -3.081  1.00  0.00     0.266 C 
BRANCH  16  17
ATOM     17  C   UNL     1       1.167  -1.600  -1.636  1.00  0.00     0.044 C 
BRANCH  17  18
ATOM     18  C   UNL     1       0.753  -0.172  -1.214  1.00  0.00     0.006 C 
ATOM     19  C   UNL     1       1.173   0.205   0.198  1.00  0.00     0.004 C 
ENDBRANCH  17  18
BRANCH  17  20
ATOM     20  C   UNL     1       0.641  -2.702  -0.683  1.00  0.00     0.006 C 
ATOM     21  C   UNL     1      -0.876  -2.809  -0.580  1.00  0.00     0.004 C 
ENDBRANCH  17  20
ENDBRANCH  16  17
ENDBRANCH   8  16
ENDBRANCH   6   7
ENDBRANCH   3   6
ENDBRANCH   1   2
BRANCH   1  22
ATOM     22  C   UNL     1      -3.493  -1.473  -5.414  1.00  0.00     0.042 C 
BRANCH  22  23
ATOM     23  C   UNL     1      -4.664  -0.911  -6.204  1.00  0.00     0.118 C 
BRANCH  23  24
ATOM     24  N   UNL     1      -5.886  -0.915  -5.420  1.00  0.00    -0.352 N 
ATOM     25  C   UNL     1      -6.590   0.143  -4.894  1.00  0.00     0.251 C 
ATOM     26  H   UNL     1      -6.266  -1.805  -5.240  1.00  0.00     0.163 HD
ATOM     27  O   UNL     1      -7.441  -0.081  -4.036  1.00  0.00    -0.269 OA
BRANCH  25  28
ATOM     28  C   UNL     1      -6.338   1.539  -5.339  1.00  0.00     0.039 A 
ATOM     29  C   UNL     1      -6.437   2.576  -4.403  1.00  0.00     0.014 A 
ATOM     30  C   UNL     1      -6.080   1.847  -6.677  1.00  0.00     0.014 A 
ATOM     31  C   UNL     1      -6.247   3.905  -4.800  1.00  0.00     0.010 A 
ATOM     32  C   UNL     1      -5.808   3.162  -7.055  1.00  0.00     0.010 A 
ATOM     33  C   UNL     1      -5.915   4.210  -6.129  1.00  0.00    -0.014 A 
BRANCH  33  34
ATOM     34  C   UNL     1      -5.722   5.612  -6.592  1.00  0.00     0.031 A 
ATOM     35  C   UNL     1      -6.633   6.183  -7.651  1.00  0.00     0.074 A 
ATOM     36  C   UNL     1      -4.681   6.340  -6.141  1.00  0.00     0.049 A 
ATOM     37  N   UNL     1      -6.557   7.327  -8.279  1.00  0.00    -0.248 NA
ATOM     38  C   UNL     1      -7.762   5.340  -8.081  1.00  0.00     0.031 C 
ATOM     39  C   UNL     1      -3.693   5.887  -5.161  1.00  0.00     0.029 A 
ATOM     40  N   UNL     1      -4.261   7.604  -6.476  1.00  0.00    -0.354 N 
ATOM     41  C   UNL     1      -7.590   7.321  -9.210  1.00  0.00     0.074 A 
ATOM     42  C   UNL     1      -8.264   6.048  -9.083  1.00  0.00     0.031 C 
ATOM     43  C   UNL     1      -2.778   6.853  -4.980  1.00  0.00     0.029 A 
ATOM     44  C   UNL     1      -3.092   7.980  -5.854  1.00  0.00     0.049 A 
ATOM     45  H   UNL     1      -4.750   8.187  -7.101  1.00  0.00     0.167 HD
ATOM     46  C   UNL     1      -7.963   8.294 -10.075  1.00  0.00     0.034 A 
ATOM     47  C   UNL     1      -2.350   9.098  -5.983  1.00  0.00     0.034 A 
ATOM     48  C   UNL     1      -7.332   9.583 -10.157  1.00  0.00     0.049 A 
ATOM     49  C   UNL     1      -2.813  10.185  -6.917  1.00  0.00     0.074 A 
ATOM     50  C   UNL     1      -7.689  10.667 -10.938  1.00  0.00     0.029 A 
ATOM     51  N   UNL     1      -6.214   9.963  -9.431  1.00  0.00    -0.354 N 
ATOM     52  N   UNL     1      -3.872  10.213  -7.689  1.00  0.00    -0.248 NA
ATOM     53  C   UNL     1      -2.000  11.410  -6.971  1.00  0.00     0.031 C 
ATOM     54  C   UNL     1      -6.777  11.699 -10.697  1.00  0.00     0.029 A 
ATOM     55  C   UNL     1      -5.867  11.265  -9.746  1.00  0.00     0.049 A 
ATOM     56  H   UNL     1      -5.737   9.391  -8.787  1.00  0.00     0.167 HD
ATOM     57  C   UNL     1      -3.878  11.469  -8.283  1.00  0.00     0.074 A 
ATOM     58  C   UNL     1      -2.723  12.179  -7.776  1.00  0.00     0.031 C 
ATOM     59  C   UNL     1      -4.757  11.985  -9.178  1.00  0.00     0.034 A 
BRANCH  46  60
ATOM     60  C   UNL     1      -9.147   8.026 -10.969  1.00  0.00     0.023 A 
ATOM     61  C   UNL     1     -10.443   7.987 -10.414  1.00  0.00     0.012 A 
ATOM     62  C   UNL     1      -8.988   7.877 -12.361  1.00  0.00     0.148 A 
ATOM     63  C   UNL     1     -11.557   7.768 -11.223  1.00  0.00     0.002 A 
ATOM     64  C   UNL     1     -10.107   7.704 -13.167  1.00  0.00     0.091 A 
ATOM     65  F   UNL     1      -7.748   7.897 -12.869  1.00  0.00    -0.205 F 
ATOM     66  C   UNL     1     -11.390   7.637 -12.599  1.00  0.00     0.022 A 
BRANCH  64  67
ATOM     67  S   UNL     1     -10.006   7.608 -14.958  1.00  0.00     0.127 S 
ATOM     68  O   UNL     1     -10.293   6.194 -15.195  1.00  0.00    -0.237 OA
ATOM     69  O   UNL     1     -11.067   8.524 -15.377  1.00  0.00    -0.237 OA
ATOM     70  O   UNL     1      -8.660   8.040 -15.307  1.00  0.00    -0.744 OA
ENDBRANCH  64  67
ENDBRANCH  46  60
BRANCH  47  71
ATOM     71  C   UNL     1      -1.121   9.275  -5.157  1.00  0.00     0.023 A 
ATOM     72  C   UNL     1      -1.121  10.223  -4.115  1.00  0.00     0.012 A 
ATOM     73  C   UNL     1       0.031   8.496  -5.375  1.00  0.00     0.148 A 
ATOM     74  C   UNL     1       0.014  10.415  -3.326  1.00  0.00     0.002 A 
ATOM     75  C   UNL     1       1.140   8.653  -4.551  1.00  0.00     0.091 A 
ATOM     76  F   UNL     1       0.017   7.608  -6.380  1.00  0.00    -0.205 F 
ATOM     77  C   UNL     1       1.140   9.623  -3.537  1.00  0.00     0.022 A 
BRANCH  75  78
ATOM     78  S   UNL     1       2.585   7.592  -4.666  1.00  0.00     0.127 S 
ATOM     79  O   UNL     1       3.576   8.497  -5.239  1.00  0.00    -0.237 OA
ATOM     80  O   UNL     1       2.810   7.235  -3.266  1.00  0.00    -0.237 OA
ATOM     81  O   UNL     1       2.181   6.474  -5.512  1.00  0.00    -0.744 OA
ENDBRANCH  75  78
ENDBRANCH  47  71
BRANCH  59  82
ATOM     82  C   UNL     1      -4.554  13.406  -9.630  1.00  0.00     0.023 A 
ATOM     83  C   UNL     1      -3.522  13.716 -10.536  1.00  0.00     0.012 A 
ATOM     84  C   UNL     1      -5.456  14.414  -9.235  1.00  0.00     0.148 A 
ATOM     85  C   UNL     1      -3.376  15.014 -11.025  1.00  0.00     0.002 A 
ATOM     86  C   UNL     1      -5.334  15.694  -9.763  1.00  0.00     0.091 A 
ATOM     87  F   UNL     1      -6.420  14.101  -8.358  1.00  0.00    -0.205 F 
ATOM     88  C   UNL     1      -4.289  15.998 -10.650  1.00  0.00     0.022 A 
BRANCH  86  89
ATOM     89  S   UNL     1      -6.522  16.996  -9.415  1.00  0.00     0.127 S 
ATOM     90  O   UNL     1      -5.744  17.885  -8.553  1.00  0.00    -0.237 OA
ATOM     91  O   UNL     1      -6.798  17.528 -10.749  1.00  0.00    -0.237 OA
ATOM     92  O   UNL     1      -7.658  16.345  -8.777  1.00  0.00    -0.744 OA
ENDBRANCH  86  89
ENDBRANCH  59  82
ENDBRANCH  33  34
ENDBRANCH  25  28
ENDBRANCH  23  24
ENDBRANCH  22  23
ENDBRANCH   1  22
TORSDOF 18
