REMARK SMILES O=C(NCCCNC(=O)c1cc(Cl)cc(Cl)c1NC(=S)NC(=O)c1cccc2ccccc12)c1ccc(-c2c3nc(c(-c4cccc(S(=O)(=O)[O-])c4F)c4ccc([nH]4)c(-c4cccc(S(=O)(=O)[O-])c4F)c4nc(c(-c5cccc(S(=O)(=O)[O-])c5F)c5ccc2[nH]5)C=C4)C=C3)cc1
REMARK SMILES IDX 5 1 4 2 3 3 1 4 2 5 34 7 35 8 96 9 36 10 95 11 37 12 38 13
REMARK SMILES IDX 39 14 89 15 40 16 94 17 88 18 90 19 41 20 93 21 87 22 86 23
REMARK SMILES IDX 42 25 74 26 54 27 73 28 55 29 58 30 72 31 91 32 56 33 57 34
REMARK SMILES IDX 71 36 92 37 59 38 43 39 44 40 52 41 45 42 47 43 53 44 46 45
REMARK SMILES IDX 48 46 49 47 50 48 51 49 75 50 76 51 84 52 77 53 79 54 85 55
REMARK SMILES IDX 78 56 80 57 81 58 82 59 83 60 60 61 61 62 69 63 62 64 64 65
REMARK SMILES IDX 70 66 63 67 65 68 66 69 67 70 68 71 6 72 7 73 8 74 9 76
REMARK SMILES IDX 10 77 11 78 17 79 12 80 15 81 13 82 14 83 16 84 18 85 19 87
REMARK SMILES IDX 20 88 21 89 22 90 23 92 24 93 25 94 33 95 26 96 28 97 32 98
REMARK SMILES IDX 27 99 29 100 31 101 30 102
REMARK H PARENT 3 6 90 24 58 35 7 75 18 86 21 91
REMARK Flexibility Score: inf
ROOT
ATOM      1  C   UNL     1       5.353   1.637   1.655  1.00  0.00     0.042 C 
ENDROOT
BRANCH   1   2
ATOM      2  C   UNL     1       4.942   0.175   1.497  1.00  0.00     0.118 C 
BRANCH   2   3
ATOM      3  N   UNL     1       3.512   0.013   1.287  1.00  0.00    -0.352 N 
ATOM      4  O   UNL     1       1.554  -0.042   0.217  1.00  0.00    -0.269 OA
ATOM      5  C   UNL     1       2.773  -0.190   0.148  1.00  0.00     0.251 C 
ATOM      6  H   UNL     1       2.976   0.058   2.111  1.00  0.00     0.163 HD
BRANCH   5   7
ATOM      7  C   UNL     1       3.394  -0.569  -1.145  1.00  0.00     0.039 A 
ATOM      8  C   UNL     1       4.461  -1.466  -1.221  1.00  0.00     0.014 A 
ATOM      9  C   UNL     1       2.813  -0.097  -2.330  1.00  0.00     0.014 A 
ATOM     10  C   UNL     1       5.013  -1.798  -2.459  1.00  0.00     0.010 A 
ATOM     11  C   UNL     1       3.322  -0.485  -3.576  1.00  0.00     0.010 A 
ATOM     12  C   UNL     1       4.444  -1.321  -3.651  1.00  0.00    -0.014 A 
BRANCH  12  13
ATOM     13  C   UNL     1       4.993  -1.778  -4.955  1.00  0.00     0.031 A 
ATOM     14  C   UNL     1       5.705  -0.832  -5.881  1.00  0.00     0.074 A 
ATOM     15  C   UNL     1       4.873  -3.077  -5.293  1.00  0.00     0.049 A 
ATOM     16  N   UNL     1       6.360  -1.104  -6.981  1.00  0.00    -0.248 NA
ATOM     17  C   UNL     1       5.678   0.598  -5.537  1.00  0.00     0.031 C 
ATOM     18  C   UNL     1       4.155  -4.085  -4.510  1.00  0.00     0.029 A 
ATOM     19  N   UNL     1       5.370  -3.778  -6.363  1.00  0.00    -0.354 N 
ATOM     20  C   UNL     1       6.800   0.116  -7.475  1.00  0.00     0.074 A 
ATOM     21  C   UNL     1       6.333   1.135  -6.559  1.00  0.00     0.031 C 
ATOM     22  C   UNL     1       4.309  -5.283  -5.093  1.00  0.00     0.029 A 
ATOM     23  C   UNL     1       5.115  -5.128  -6.300  1.00  0.00     0.049 A 
ATOM     24  H   UNL     1       5.862  -3.356  -7.104  1.00  0.00     0.167 HD
ATOM     25  C   UNL     1       7.554   0.364  -8.571  1.00  0.00     0.034 A 
ATOM     26  C   UNL     1       5.506  -6.134  -7.106  1.00  0.00     0.034 A 
ATOM     27  C   UNL     1       8.086  -0.648  -9.443  1.00  0.00     0.049 A 
ATOM     28  C   UNL     1       6.361  -5.833  -8.303  1.00  0.00     0.074 A 
ATOM     29  C   UNL     1       8.960  -0.498 -10.506  1.00  0.00     0.029 A 
ATOM     30  N   UNL     1       7.790  -1.998  -9.357  1.00  0.00    -0.354 N 
ATOM     31  N   UNL     1       6.904  -4.694  -8.658  1.00  0.00    -0.248 NA
ATOM     32  C   UNL     1       6.662  -6.954  -9.205  1.00  0.00     0.031 C 
ATOM     33  C   UNL     1       9.198  -1.762 -11.060  1.00  0.00     0.029 A 
ATOM     34  C   UNL     1       8.450  -2.692 -10.357  1.00  0.00     0.049 A 
ATOM     35  H   UNL     1       7.198  -2.405  -8.683  1.00  0.00     0.167 HD
ATOM     36  C   UNL     1       7.614  -4.961  -9.821  1.00  0.00     0.074 A 
ATOM     37  C   UNL     1       7.454  -6.374 -10.099  1.00  0.00     0.031 C 
ATOM     38  C   UNL     1       8.314  -4.103 -10.601  1.00  0.00     0.034 A 
BRANCH  25  39
ATOM     39  C   UNL     1       7.928   1.792  -8.841  1.00  0.00     0.023 A 
ATOM     40  C   UNL     1       9.117   2.297  -8.278  1.00  0.00     0.012 A 
ATOM     41  C   UNL     1       7.150   2.616  -9.672  1.00  0.00     0.148 A 
ATOM     42  C   UNL     1       9.524   3.605  -8.539  1.00  0.00     0.002 A 
ATOM     43  C   UNL     1       7.567   3.918  -9.933  1.00  0.00     0.091 A 
ATOM     44  F   UNL     1       6.003   2.135 -10.174  1.00  0.00    -0.205 F 
ATOM     45  C   UNL     1       8.754   4.414  -9.371  1.00  0.00     0.022 A 
BRANCH  43  46
ATOM     46  S   UNL     1       6.600   4.982 -11.009  1.00  0.00     0.127 S 
ATOM     47  O   UNL     1       5.518   5.407 -10.125  1.00  0.00    -0.237 OA
ATOM     48  O   UNL     1       7.544   6.044 -11.363  1.00  0.00    -0.237 OA
ATOM     49  O   UNL     1       6.227   4.120 -12.124  1.00  0.00    -0.744 OA
ENDBRANCH  43  46
ENDBRANCH  25  39
BRANCH  26  50
ATOM     50  C   UNL     1       5.168  -7.534  -6.738  1.00  0.00     0.023 A 
ATOM     51  C   UNL     1       6.178  -8.364  -6.216  1.00  0.00     0.012 A 
ATOM     52  C   UNL     1       3.852  -8.022  -6.813  1.00  0.00     0.148 A 
ATOM     53  C   UNL     1       5.881  -9.654  -5.775  1.00  0.00     0.002 A 
ATOM     54  C   UNL     1       3.556  -9.294  -6.332  1.00  0.00     0.091 A 
ATOM     55  F   UNL     1       2.895  -7.228  -7.316  1.00  0.00    -0.205 F 
ATOM     56  C   UNL     1       4.567 -10.117  -5.821  1.00  0.00     0.022 A 
BRANCH  54  57
ATOM     57  S   UNL     1       1.846  -9.835  -6.273  1.00  0.00     0.127 S 
ATOM     58  O   UNL     1       1.510  -9.986  -7.685  1.00  0.00    -0.237 OA
ATOM     59  O   UNL     1       1.918 -11.092  -5.527  1.00  0.00    -0.237 OA
ATOM     60  O   UNL     1       1.184  -8.753  -5.552  1.00  0.00    -0.744 OA
ENDBRANCH  54  57
ENDBRANCH  26  50
BRANCH  38  61
ATOM     61  C   UNL     1       8.930  -4.654 -11.854  1.00  0.00     0.023 A 
ATOM     62  C   UNL     1       8.138  -4.732 -13.016  1.00  0.00     0.012 A 
ATOM     63  C   UNL     1      10.285  -5.021 -11.915  1.00  0.00     0.148 A 
ATOM     64  C   UNL     1       8.685  -5.176 -14.219  1.00  0.00     0.002 A 
ATOM     65  C   UNL     1      10.829  -5.446 -13.124  1.00  0.00     0.091 A 
ATOM     66  F   UNL     1      11.027  -4.958 -10.799  1.00  0.00    -0.205 F 
ATOM     67  C   UNL     1      10.033  -5.526 -14.277  1.00  0.00     0.022 A 
BRANCH  65  68
ATOM     68  S   UNL     1      12.575  -5.853 -13.230  1.00  0.00     0.127 S 
ATOM     69  O   UNL     1      12.632  -7.156 -12.573  1.00  0.00    -0.237 OA
ATOM     70  O   UNL     1      12.825  -5.891 -14.672  1.00  0.00    -0.237 OA
ATOM     71  O   UNL     1      13.237  -4.750 -12.542  1.00  0.00    -0.744 OA
ENDBRANCH  65  68
ENDBRANCH  38  61
ENDBRANCH  12  13
ENDBRANCH   5   7
ENDBRANCH   2   3
ENDBRANCH   1   2
BRANCH   1  72
ATOM     72  C   UNL     1       4.712   2.354   2.840  1.00  0.00     0.118 C 
BRANCH  72  73
ATOM     73  N   UNL     1       5.090   1.779   4.120  1.00  0.00    -0.352 N 
ATOM     74  C   UNL     1       5.783   2.232   5.222  1.00  0.00     0.253 C 
ATOM     75  H   UNL     1       4.778   0.851   4.225  1.00  0.00     0.163 HD
ATOM     76  O   UNL     1       6.005   1.391   6.101  1.00  0.00    -0.269 OA
BRANCH  74  77
ATOM     77  C   UNL     1       6.495   3.858   5.337  1.00  0.00     0.066 A 
ATOM     78  C   UNL     1       5.772   5.512   6.309  1.00  0.00     0.036 A 
ATOM     79  C   UNL     1       7.565   3.403   4.767  1.00  0.00     0.072 A 
ATOM     80  C   UNL     1       6.006   6.684   6.800  1.00  0.00     0.043 A 
ATOM     81  C   UNL     1       7.045   4.577   4.654  1.00  0.00     0.066 A 
ATOM     82  Cl  UNL     1       4.976   7.936   7.254  1.00  0.00    -0.084 Cl
ATOM     83  C   UNL     1       6.272   6.188   5.647  1.00  0.00     0.043 A 
ATOM     84  Cl  UNL     1       7.530   4.413   2.585  1.00  0.00    -0.082 Cl
BRANCH  79  85
ATOM     85  N   UNL     1       8.612   2.769   5.464  1.00  0.00    -0.330 N 
ATOM     86  H   UNL     1       8.436   1.810   5.601  1.00  0.00     0.169 HD
BRANCH  85  87
ATOM     87  C   UNL     1       9.798   3.146   5.993  1.00  0.00     0.177 C 
ATOM     88  S   UNL     1      10.874   1.931   6.415  1.00  0.00    -0.040 S 
BRANCH  87  89
ATOM     89  N   UNL     1      10.198   4.429   6.210  1.00  0.00    -0.299 N 
ATOM     90  C   UNL     1       9.579   5.657   6.150  1.00  0.00     0.258 C 
ATOM     91  H   UNL     1      11.146   4.493   6.468  1.00  0.00     0.172 HD
ATOM     92  O   UNL     1      10.164   6.727   6.210  1.00  0.00    -0.269 OA
BRANCH  90  93
ATOM     93  C   UNL     1       8.143   5.597   5.973  1.00  0.00     0.048 A 
ATOM     94  C   UNL     1       7.147   4.403   7.171  1.00  0.00     0.014 A 
ATOM     95  C   UNL     1       7.476   6.364   4.265  1.00  0.00    -0.006 A 
ATOM     96  C   UNL     1       5.307   3.804   6.794  1.00  0.00     0.001 A 
ATOM     97  C   UNL     1       5.621   5.745   3.863  1.00  0.00    -0.018 A 
ATOM     98  C   UNL     1       8.017   7.301   3.363  1.00  0.00     0.009 A 
ATOM     99  C   UNL     1       4.633   4.533   5.062  1.00  0.00     0.009 A 
ATOM    100  C   UNL     1       5.089   6.351   2.725  1.00  0.00     0.009 A 
ATOM    101  C   UNL     1       7.209   7.734   2.292  1.00  0.00     0.001 A 
ATOM    102  C   UNL     1       5.862   7.296   2.000  1.00  0.00     0.001 A 
ENDBRANCH  90  93
ENDBRANCH  87  89
ENDBRANCH  85  87
ENDBRANCH  79  85
ENDBRANCH  74  77
ENDBRANCH  72  73
ENDBRANCH   1  72
TORSDOF 17
