REMARK SMILES CCC[NH2+][C@H]1C[C@@H](C(=O)NCCCNC(=O)c2ccc(-c3c4nc(c(-c5cccc(S(=O)(=O)[O-])c5F)c5ccc([nH]5)c(-c5cccc(S(=O)(=O)[O-])c5F)c5nc(c(-c6cccc(S(=O)(=O)[O-])c6F)c6ccc3[nH]6)C=C5)C=C4)cc2)C1
REMARK SMILES IDX 12 1 11 2 10 3 8 4 9 5 7 7 5 8 80 9 6 10 4 11 3 14 2 15 1 16
REMARK SMILES IDX 13 17 14 18 15 19 16 21 17 22 18 23 79 24 19 25 78 26 20 27
REMARK SMILES IDX 21 28 22 29 72 30 23 31 77 32 71 33 73 34 24 35 76 36 70 37
REMARK SMILES IDX 69 38 25 40 57 41 37 42 56 43 38 44 41 45 55 46 74 47 39 48
REMARK SMILES IDX 40 49 54 51 75 52 42 53 26 54 27 55 35 56 28 57 30 58 36 59
REMARK SMILES IDX 29 60 31 61 32 62 33 63 34 64 58 65 59 66 67 67 60 68 62 69
REMARK SMILES IDX 68 70 61 71 63 72 64 73 65 74 66 75 43 76 44 77 52 78 45 79
REMARK SMILES IDX 47 80 53 81 46 82 48 83 49 84 50 85 51 86
REMARK H PARENT 10 6 4 12 4 13 14 20 73 39 41 50
REMARK Flexibility Score: inf
ROOT
ATOM      1  C   UNL     1      -3.389   4.838   2.446  1.00  0.00     0.042 C 
ENDROOT
BRANCH   1   2
ATOM      2  C   UNL     1      -2.054   5.367   1.942  1.00  0.00     0.117 C 
BRANCH   2   3
ATOM      3  N   UNL     1      -1.465   6.329   2.856  1.00  0.00    -0.356 N 
ATOM      4  C   UNL     1      -0.327   6.271   3.619  1.00  0.00     0.223 C 
ATOM      5  O   UNL     1      -0.097   7.272   4.315  1.00  0.00    -0.275 OA
ATOM      6  H   UNL     1      -1.970   7.169   2.943  1.00  0.00     0.163 HD
BRANCH   4   7
ATOM      7  C   UNL     1       0.626   5.070   3.595  1.00  0.00     0.090 C 
ATOM      8  C   UNL     1       1.217   3.148   2.864  1.00  0.00     0.183 C 
ATOM      9  C   UNL     1       1.232   4.570   2.262  1.00  0.00     0.078 C 
ATOM     10  C   UNL     1       0.137   3.627   3.861  1.00  0.00     0.078 C 
BRANCH   8  11
ATOM     11  N   UNL     1       0.614   2.231   1.895  1.00  0.00    -0.344 N 
ATOM     12  H   UNL     1      -0.394   2.381   1.863  1.00  0.00     0.346 HD
ATOM     13  H   UNL     1       1.007   2.402   0.969  1.00  0.00     0.346 HD
BRANCH  11  14
ATOM     14  C   UNL     1       0.894   0.850   2.305  1.00  0.00     0.260 C 
BRANCH  14  15
ATOM     15  C   UNL     1       0.312  -0.182   1.333  1.00  0.00     0.058 C 
ATOM     16  C   UNL     1       0.870  -0.081  -0.080  1.00  0.00     0.010 C 
ENDBRANCH  14  15
ENDBRANCH  11  14
ENDBRANCH   8  11
ENDBRANCH   4   7
ENDBRANCH   2   3
ENDBRANCH   1   2
BRANCH   1  17
ATOM     17  C   UNL     1      -4.477   5.899   2.562  1.00  0.00     0.118 C 
BRANCH  17  18
ATOM     18  N   UNL     1      -4.809   6.513   1.281  1.00  0.00    -0.352 N 
ATOM     19  C   UNL     1      -6.000   6.548   0.601  1.00  0.00     0.251 C 
ATOM     20  H   UNL     1      -4.061   6.973   0.835  1.00  0.00     0.163 HD
ATOM     21  O   UNL     1      -6.022   6.966  -0.557  1.00  0.00    -0.269 OA
BRANCH  19  22
ATOM     22  C   UNL     1      -7.247   6.078   1.241  1.00  0.00     0.039 A 
ATOM     23  C   UNL     1      -8.156   5.330   0.487  1.00  0.00     0.014 A 
ATOM     24  C   UNL     1      -7.533   6.383   2.573  1.00  0.00     0.014 A 
ATOM     25  C   UNL     1      -9.318   4.840   1.087  1.00  0.00     0.010 A 
ATOM     26  C   UNL     1      -8.641   5.815   3.194  1.00  0.00     0.010 A 
ATOM     27  C   UNL     1      -9.554   5.049   2.456  1.00  0.00    -0.014 A 
BRANCH  27  28
ATOM     28  C   UNL     1     -10.751   4.484   3.132  1.00  0.00     0.031 A 
ATOM     29  C   UNL     1     -11.759   5.398   3.777  1.00  0.00     0.074 A 
ATOM     30  C   UNL     1     -10.891   3.147   3.234  1.00  0.00     0.049 A 
ATOM     31  N   UNL     1     -12.835   5.092   4.456  1.00  0.00    -0.248 NA
ATOM     32  C   UNL     1     -11.512   6.846   3.672  1.00  0.00     0.031 C 
ATOM     33  C   UNL     1      -9.947   2.154   2.717  1.00  0.00     0.029 A 
ATOM     34  N   UNL     1     -11.871   2.392   3.829  1.00  0.00    -0.354 N 
ATOM     35  C   UNL     1     -13.370   6.300   4.888  1.00  0.00     0.074 A 
ATOM     36  C   UNL     1     -12.477   7.343   4.431  1.00  0.00     0.031 C 
ATOM     37  C   UNL     1     -10.400   0.923   3.004  1.00  0.00     0.029 A 
ATOM     38  C   UNL     1     -11.645   1.037   3.756  1.00  0.00     0.049 A 
ATOM     39  H   UNL     1     -12.661   2.783   4.267  1.00  0.00     0.167 HD
ATOM     40  C   UNL     1     -14.515   6.528   5.574  1.00  0.00     0.034 A 
ATOM     41  C   UNL     1     -12.357   0.002   4.245  1.00  0.00     0.034 A 
ATOM     42  C   UNL     1     -15.418   5.492   5.995  1.00  0.00     0.049 A 
ATOM     43  C   UNL     1     -13.639   0.282   4.983  1.00  0.00     0.074 A 
ATOM     44  C   UNL     1     -16.643   5.621   6.624  1.00  0.00     0.029 A 
ATOM     45  N   UNL     1     -15.191   4.133   5.838  1.00  0.00    -0.354 N 
ATOM     46  N   UNL     1     -14.204   1.434   5.250  1.00  0.00    -0.248 NA
ATOM     47  C   UNL     1     -14.400  -0.883   5.455  1.00  0.00     0.031 C 
ATOM     48  C   UNL     1     -17.142   4.339   6.877  1.00  0.00     0.029 A 
ATOM     49  C   UNL     1     -16.247   3.412   6.368  1.00  0.00     0.049 A 
ATOM     50  H   UNL     1     -14.396   3.739   5.412  1.00  0.00     0.167 HD
ATOM     51  C   UNL     1     -15.406   1.133   5.880  1.00  0.00     0.074 A 
ATOM     52  C   UNL     1     -15.494  -0.312   5.939  1.00  0.00     0.031 C 
ATOM     53  C   UNL     1     -16.348   1.975   6.373  1.00  0.00     0.034 A 
BRANCH  40  54
ATOM     54  C   UNL     1     -14.877   7.961   5.873  1.00  0.00     0.023 A 
ATOM     55  C   UNL     1     -15.258   8.820   4.821  1.00  0.00     0.012 A 
ATOM     56  C   UNL     1     -14.887   8.446   7.196  1.00  0.00     0.148 A 
ATOM     57  C   UNL     1     -15.598  10.149   5.074  1.00  0.00     0.002 A 
ATOM     58  C   UNL     1     -15.277   9.757   7.446  1.00  0.00     0.091 A 
ATOM     59  F   UNL     1     -14.506   7.623   8.183  1.00  0.00    -0.205 F 
ATOM     60  C   UNL     1     -15.618  10.613   6.385  1.00  0.00     0.022 A 
BRANCH  58  61
ATOM     61  S   UNL     1     -15.418  10.428   9.106  1.00  0.00     0.127 S 
ATOM     62  O   UNL     1     -14.300  11.370   9.139  1.00  0.00    -0.237 OA
ATOM     63  O   UNL     1     -16.741  11.052   9.074  1.00  0.00    -0.237 OA
ATOM     64  O   UNL     1     -15.303   9.292  10.010  1.00  0.00    -0.744 OA
ENDBRANCH  58  61
ENDBRANCH  40  54
BRANCH  41  65
ATOM     65  C   UNL     1     -11.912  -1.398   3.992  1.00  0.00     0.023 A 
ATOM     66  C   UNL     1     -12.665  -2.216   3.127  1.00  0.00     0.012 A 
ATOM     67  C   UNL     1     -10.747  -1.918   4.587  1.00  0.00     0.148 A 
ATOM     68  C   UNL     1     -12.287  -3.538   2.888  1.00  0.00     0.002 A 
ATOM     69  C   UNL     1     -10.345  -3.218   4.301  1.00  0.00     0.091 A 
ATOM     70  F   UNL     1     -10.048  -1.126   5.413  1.00  0.00    -0.205 F 
ATOM     71  C   UNL     1     -11.123  -4.036   3.468  1.00  0.00     0.022 A 
BRANCH  69  72
ATOM     72  S   UNL     1      -8.796  -3.904   4.899  1.00  0.00     0.127 S 
ATOM     73  O   UNL     1      -9.262  -4.921   5.838  1.00  0.00    -0.237 OA
ATOM     74  O   UNL     1      -8.204  -4.426   3.667  1.00  0.00    -0.237 OA
ATOM     75  O   UNL     1      -8.071  -2.787   5.488  1.00  0.00    -0.744 OA
ENDBRANCH  69  72
ENDBRANCH  41  65
BRANCH  53  76
ATOM     76  C   UNL     1     -17.587   1.363   6.975  1.00  0.00     0.023 A 
ATOM     77  C   UNL     1     -17.516   0.693   8.213  1.00  0.00     0.012 A 
ATOM     78  C   UNL     1     -18.836   1.516   6.342  1.00  0.00     0.148 A 
ATOM     79  C   UNL     1     -18.664   0.151   8.791  1.00  0.00     0.002 A 
ATOM     80  C   UNL     1     -19.983   1.022   6.950  1.00  0.00     0.091 A 
ATOM     81  F   UNL     1     -18.880   2.141   5.156  1.00  0.00    -0.205 F 
ATOM     82  C   UNL     1     -19.897   0.326   8.167  1.00  0.00     0.022 A 
BRANCH  80  83
ATOM     83  S   UNL     1     -21.625   1.288   6.271  1.00  0.00     0.127 S 
ATOM     84  O   UNL     1     -21.976  -0.053   5.807  1.00  0.00    -0.237 OA
ATOM     85  O   UNL     1     -22.374   1.742   7.443  1.00  0.00    -0.237 OA
ATOM     86  O   UNL     1     -21.471   2.290   5.226  1.00  0.00    -0.744 OA
ENDBRANCH  80  83
ENDBRANCH  53  76
ENDBRANCH  27  28
ENDBRANCH  19  22
ENDBRANCH  17  18
ENDBRANCH   1  17
TORSDOF 16
