REMARK SMILES CC(C)[C@@H]1C(=O)Nc2ccccc2N1C(=O)N[C@H](Cc1ccccc1)C(=O)NCCCNC(=O)c1ccc(-c2c3nc(c(-c4cccc(S(=O)(=O)[O-])c4F)c4ccc([nH]4)c(-c4cccc(S(=O)(=O)[O-])c4F)c4nc(c(-c5cccc(S(=O)(=O)[O-])c5F)c5ccc2[nH]5)C=C4)C=C3)cc1
REMARK SMILES IDX 30 1 29 2 28 3 26 4 27 5 18 7 17 8 15 9 16 10 14 12 4 13
REMARK SMILES IDX 5 14 6 15 7 16 13 17 8 18 12 20 9 21 11 22 10 23 2 24 1 25
REMARK SMILES IDX 3 26 19 27 20 28 21 29 25 30 22 31 24 32 23 33 31 34 32 35
REMARK SMILES IDX 33 36 34 38 35 39 36 40 97 41 37 42 96 43 38 44 39 45 40 46
REMARK SMILES IDX 90 47 41 48 95 49 89 50 91 51 42 52 94 53 88 54 87 55 43 57
REMARK SMILES IDX 75 58 55 59 74 60 56 61 59 62 73 63 92 64 57 65 58 66 72 68
REMARK SMILES IDX 93 69 60 70 44 71 45 72 53 73 46 74 48 75 54 76 47 77 49 78
REMARK SMILES IDX 50 79 51 80 52 81 76 82 77 83 85 84 78 85 80 86 86 87 79 88
REMARK SMILES IDX 81 89 82 90 83 91 84 92 61 93 62 94 70 95 63 96 65 97 71 98
REMARK SMILES IDX 64 99 66 100 67 101 68 102 69 103
REMARK H PARENT 28 6 17 11 7 19 32 37 91 56 59 67
REMARK Flexibility Score: inf
ROOT
ATOM      1  C   UNL     1       3.832   4.415  -2.674  1.00  0.00     0.042 C 
ENDROOT
BRANCH   1   2
ATOM      2  C   UNL     1       2.450   3.279  -2.723  1.00  0.00     0.117 C 
BRANCH   2   3
ATOM      3  N   UNL     1       1.838   2.589  -1.428  1.00  0.00    -0.354 N 
ATOM      4  C   UNL     1       1.377   1.350  -1.139  1.00  0.00     0.242 C 
ATOM      5  O   UNL     1       0.977   1.031  -0.027  1.00  0.00    -0.273 OA
ATOM      6  H   UNL     1       1.781   3.204  -0.661  1.00  0.00     0.163 HD
BRANCH   4   7
ATOM      7  C   UNL     1       1.777   0.448  -2.206  1.00  0.00     0.177 C 
BRANCH   7   8
ATOM      8  N   UNL     1       3.356   0.779  -2.131  1.00  0.00    -0.326 N 
ATOM      9  C   UNL     1       4.091   1.550  -1.103  1.00  0.00     0.323 C 
ATOM     10  O   UNL     1       4.967   0.918  -0.499  1.00  0.00    -0.248 OA
ATOM     11  H   UNL     1       3.902   0.420  -2.868  1.00  0.00     0.166 HD
BRANCH   9  12
ATOM     12  N   UNL     1       4.182   3.040  -1.268  1.00  0.00    -0.280 N 
ATOM     13  C   UNL     1       3.057   4.644  -0.847  1.00  0.00     0.184 C 
ATOM     14  C   UNL     1       3.575   6.325  -1.758  1.00  0.00     0.247 C 
ATOM     15  O   UNL     1       3.020   7.404  -1.585  1.00  0.00    -0.272 OA
ATOM     16  N   UNL     1       4.931   6.245  -2.775  1.00  0.00    -0.322 N 
ATOM     17  C   UNL     1       5.708   3.377  -2.248  1.00  0.00     0.070 A 
ATOM     18  C   UNL     1       5.965   4.882  -3.033  1.00  0.00     0.065 A 
ATOM     19  H   UNL     1       5.154   7.065  -3.273  1.00  0.00     0.170 HD
ATOM     20  C   UNL     1       6.779   2.502  -2.288  1.00  0.00     0.028 A 
ATOM     21  C   UNL     1       7.122   5.148  -3.739  1.00  0.00     0.028 A 
ATOM     22  C   UNL     1       7.965   2.940  -2.946  1.00  0.00     0.002 A 
ATOM     23  C   UNL     1       8.122   4.179  -3.651  1.00  0.00     0.002 A 
BRANCH  13  24
ATOM     24  C   UNL     1       1.311   4.890  -0.826  1.00  0.00     0.015 C 
ATOM     25  C   UNL     1       0.812   5.110   0.603  1.00  0.00     0.010 C 
ATOM     26  C   UNL     1       0.710   5.923  -1.797  1.00  0.00     0.010 C 
ENDBRANCH  13  24
ENDBRANCH   9  12
ENDBRANCH   7   8
BRANCH   7  27
ATOM     27  C   UNL     1       0.892   0.856  -3.456  1.00  0.00     0.070 C 
BRANCH  27  28
ATOM     28  C   UNL     1      -0.649   0.812  -3.455  1.00  0.00    -0.045 A 
ATOM     29  C   UNL     1      -1.382   1.993  -3.758  1.00  0.00     0.004 A 
ATOM     30  C   UNL     1      -1.372  -0.377  -3.352  1.00  0.00     0.004 A 
ATOM     31  C   UNL     1      -2.761   1.972  -4.011  1.00  0.00     0.000 A 
ATOM     32  C   UNL     1      -2.757  -0.396  -3.606  1.00  0.00     0.000 A 
ATOM     33  C   UNL     1      -3.447   0.768  -3.953  1.00  0.00     0.000 A 
ENDBRANCH  27  28
ENDBRANCH   7  27
ENDBRANCH   4   7
ENDBRANCH   2   3
ENDBRANCH   1   2
BRANCH   1  34
ATOM     34  C   UNL     1       5.058   4.995  -0.990  1.00  0.00     0.118 C 
BRANCH  34  35
ATOM     35  N   UNL     1       6.539   5.453  -0.786  1.00  0.00    -0.352 N 
ATOM     36  C   UNL     1       7.262   6.622  -0.772  1.00  0.00     0.251 C 
ATOM     37  H   UNL     1       7.124   4.679  -0.620  1.00  0.00     0.163 HD
ATOM     38  O   UNL     1       8.460   6.560  -0.490  1.00  0.00    -0.269 OA
BRANCH  36  39
ATOM     39  C   UNL     1       6.723   7.939  -1.172  1.00  0.00     0.039 A 
ATOM     40  C   UNL     1       7.414   8.640  -2.174  1.00  0.00     0.014 A 
ATOM     41  C   UNL     1       5.624   8.532  -0.557  1.00  0.00     0.014 A 
ATOM     42  C   UNL     1       6.999   9.916  -2.570  1.00  0.00     0.010 A 
ATOM     43  C   UNL     1       5.185   9.796  -0.983  1.00  0.00     0.010 A 
ATOM     44  C   UNL     1       5.882  10.513  -1.972  1.00  0.00    -0.014 A 
BRANCH  44  45
ATOM     45  C   UNL     1       5.499  11.915  -2.303  1.00  0.00     0.031 A 
ATOM     46  C   UNL     1       5.700  13.004  -1.281  1.00  0.00     0.074 A 
ATOM     47  C   UNL     1       4.954  12.224  -3.496  1.00  0.00     0.049 A 
ATOM     48  N   UNL     1       5.403  14.277  -1.354  1.00  0.00    -0.248 NA
ATOM     49  C   UNL     1       6.308  12.603  -0.002  1.00  0.00     0.031 C 
ATOM     50  C   UNL     1       4.681  11.273  -4.572  1.00  0.00     0.029 A 
ATOM     51  N   UNL     1       4.505  13.427  -3.991  1.00  0.00    -0.354 N 
ATOM     52  C   UNL     1       5.748  14.820  -0.121  1.00  0.00     0.074 A 
ATOM     53  C   UNL     1       6.262  13.735   0.686  1.00  0.00     0.031 C 
ATOM     54  C   UNL     1       4.093  11.922  -5.591  1.00  0.00     0.029 A 
ATOM     55  C   UNL     1       3.919  13.328  -5.232  1.00  0.00     0.049 A 
ATOM     56  H   UNL     1       4.595  14.277  -3.504  1.00  0.00     0.167 HD
ATOM     57  C   UNL     1       5.663  16.106   0.300  1.00  0.00     0.034 A 
ATOM     58  C   UNL     1       3.292  14.255  -5.986  1.00  0.00     0.034 A 
ATOM     59  C   UNL     1       5.178  17.194  -0.506  1.00  0.00     0.049 A 
ATOM     60  C   UNL     1       3.205  15.678  -5.497  1.00  0.00     0.074 A 
ATOM     61  C   UNL     1       5.127  18.541  -0.191  1.00  0.00     0.029 A 
ATOM     62  N   UNL     1       4.640  17.063  -1.776  1.00  0.00    -0.354 N 
ATOM     63  N   UNL     1       3.665  16.200  -4.386  1.00  0.00    -0.248 NA
ATOM     64  C   UNL     1       2.541  16.648  -6.382  1.00  0.00     0.031 C 
ATOM     65  C   UNL     1       4.524  19.219  -1.256  1.00  0.00     0.029 A 
ATOM     66  C   UNL     1       4.235  18.300  -2.252  1.00  0.00     0.049 A 
ATOM     67  H   UNL     1       4.558  16.215  -2.269  1.00  0.00     0.167 HD
ATOM     68  C   UNL     1       3.374  17.560  -4.451  1.00  0.00     0.074 A 
ATOM     69  C   UNL     1       2.718  17.785  -5.722  1.00  0.00     0.031 C 
ATOM     70  C   UNL     1       3.620  18.530  -3.535  1.00  0.00     0.034 A 
BRANCH  57  71
ATOM     71  C   UNL     1       6.128  16.411   1.702  1.00  0.00     0.023 A 
ATOM     72  C   UNL     1       7.503  16.356   2.013  1.00  0.00     0.012 A 
ATOM     73  C   UNL     1       5.210  16.791   2.701  1.00  0.00     0.148 A 
ATOM     74  C   UNL     1       7.951  16.630   3.305  1.00  0.00     0.002 A 
ATOM     75  C   UNL     1       5.670  17.110   3.974  1.00  0.00     0.091 A 
ATOM     76  F   UNL     1       3.905  16.820   2.395  1.00  0.00    -0.205 F 
ATOM     77  C   UNL     1       7.037  17.015   4.281  1.00  0.00     0.022 A 
BRANCH  75  78
ATOM     78  S   UNL     1       4.581  17.698   5.276  1.00  0.00     0.127 S 
ATOM     79  O   UNL     1       4.532  16.539   6.166  1.00  0.00    -0.237 OA
ATOM     80  O   UNL     1       5.325  18.842   5.806  1.00  0.00    -0.237 OA
ATOM     81  O   UNL     1       3.326  18.042   4.624  1.00  0.00    -0.744 OA
ENDBRANCH  75  78
ENDBRANCH  57  71
BRANCH  58  82
ATOM     82  C   UNL     1       2.725  13.870  -7.310  1.00  0.00     0.023 A 
ATOM     83  C   UNL     1       3.329  14.343  -8.491  1.00  0.00     0.012 A 
ATOM     84  C   UNL     1       1.614  13.009  -7.405  1.00  0.00     0.148 A 
ATOM     85  C   UNL     1       2.823  13.986  -9.742  1.00  0.00     0.002 A 
ATOM     86  C   UNL     1       1.151  12.610  -8.653  1.00  0.00     0.091 A 
ATOM     87  F   UNL     1       1.044  12.582  -6.269  1.00  0.00    -0.205 F 
ATOM     88  C   UNL     1       1.743  13.110  -9.823  1.00  0.00     0.022 A 
BRANCH  86  89
ATOM     89  S   UNL     1      -0.144  11.381  -8.858  1.00  0.00     0.127 S 
ATOM     90  O   UNL     1      -1.212  12.169  -9.467  1.00  0.00    -0.237 OA
ATOM     91  O   UNL     1       0.499  10.418  -9.752  1.00  0.00    -0.237 OA
ATOM     92  O   UNL     1      -0.422  10.870  -7.523  1.00  0.00    -0.744 OA
ENDBRANCH  86  89
ENDBRANCH  58  82
BRANCH  70  93
ATOM     93  C   UNL     1       3.209  19.941  -3.874  1.00  0.00     0.023 A 
ATOM     94  C   UNL     1       1.844  20.292  -3.892  1.00  0.00     0.012 A 
ATOM     95  C   UNL     1       4.179  20.939  -4.102  1.00  0.00     0.148 A 
ATOM     96  C   UNL     1       1.451  21.603  -4.165  1.00  0.00     0.002 A 
ATOM     97  C   UNL     1       3.782  22.253  -4.323  1.00  0.00     0.091 A 
ATOM     98  F   UNL     1       5.473  20.585  -4.097  1.00  0.00    -0.205 F 
ATOM     99  C   UNL     1       2.419  22.584  -4.369  1.00  0.00     0.022 A 
BRANCH  97 100
ATOM    100  S   UNL     1       4.957  23.600  -4.501  1.00  0.00     0.127 S 
ATOM    101  O   UNL     1       4.832  23.920  -5.922  1.00  0.00    -0.237 OA
ATOM    102  O   UNL     1       4.408  24.612  -3.598  1.00  0.00    -0.237 OA
ATOM    103  O   UNL     1       6.249  23.064  -4.094  1.00  0.00    -0.744 OA
ENDBRANCH  97 100
ENDBRANCH  70  93
ENDBRANCH  44  45
ENDBRANCH  36  39
ENDBRANCH  34  35
ENDBRANCH   1  34
TORSDOF 18
