REMARK SMILES C[C@]1(C(=O)NCc2ccc(C(=O)NCCCNC(=O)c3ccc(-c4c5nc(c(-c6cccc(S(=O)(=O)[O-])c6F)c6ccc([nH]6)c(-c6cccc(S(=O)(=O)[O-])c6F)c6nc(c(-c7cccc(S(=O)(=O)[O-])c7F)c7ccc4[nH]7)C=C6)C=C5)cc3)o2)CCC[NH2+]C1
REMARK SMILES IDX 15 1 14 2 13 3 11 4 12 5 10 7 7 8 8 9 83 10 9 11 6 12 5 13
REMARK SMILES IDX 3 14 4 15 2 17 1 18 84 19 88 20 85 21 87 22 86 23 16 26
REMARK SMILES IDX 17 27 18 28 19 30 20 31 21 32 82 33 22 34 81 35 23 36 24 37
REMARK SMILES IDX 25 38 75 39 26 40 80 41 74 42 76 43 27 44 79 45 73 46 72 47
REMARK SMILES IDX 28 49 60 50 40 51 59 52 41 53 44 54 58 55 77 56 42 57 43 58
REMARK SMILES IDX 57 60 78 61 45 62 29 63 30 64 38 65 31 66 33 67 39 68 32 69
REMARK SMILES IDX 34 70 35 71 36 72 37 73 61 74 62 75 70 76 63 77 65 78 71 79
REMARK SMILES IDX 64 80 66 81 67 82 68 83 69 84 46 85 47 86 55 87 48 88 50 89
REMARK SMILES IDX 56 90 49 91 51 92 52 93 53 94 54 95
REMARK H PARENT 13 6 5 16 87 24 87 25 17 29 76 48 44 59
REMARK Flexibility Score: inf
ROOT
ATOM      1  C   UNL     1       2.659  -0.063  -8.405  1.00  0.00     0.042 C 
ENDROOT
BRANCH   1   2
ATOM      2  C   UNL     1       1.200  -0.411  -8.117  1.00  0.00     0.118 C 
BRANCH   2   3
ATOM      3  N   UNL     1       1.000  -1.800  -7.747  1.00  0.00    -0.349 N 
ATOM      4  C   UNL     1       0.810  -2.366  -6.503  1.00  0.00     0.286 C 
ATOM      5  O   UNL     1       0.379  -3.521  -6.495  1.00  0.00    -0.266 OA
ATOM      6  H   UNL     1       0.998  -2.436  -8.499  1.00  0.00     0.163 HD
BRANCH   4   7
ATOM      7  C   UNL     1       1.114  -1.626  -5.291  1.00  0.00     0.191 A 
ATOM      8  C   UNL     1       0.991  -1.267  -3.105  1.00  0.00     0.124 A 
ATOM      9  C   UNL     1       1.894  -0.357  -3.603  1.00  0.00     0.048 A 
ATOM     10  O   UNL     1       0.522  -2.050  -4.120  1.00  0.00    -0.454 OA
ATOM     11  C   UNL     1       1.951  -0.566  -4.995  1.00  0.00     0.056 A 
BRANCH   8  12
ATOM     12  C   UNL     1       0.484  -1.561  -1.739  1.00  0.00     0.191 C 
BRANCH  12  13
ATOM     13  N   UNL     1       1.388  -0.986  -0.758  1.00  0.00    -0.348 N 
ATOM     14  C   UNL     1       1.507   0.229  -0.181  1.00  0.00     0.232 C 
ATOM     15  O   UNL     1       2.629   0.440   0.308  1.00  0.00    -0.274 OA
ATOM     16  H   UNL     1       2.066  -1.626  -0.443  1.00  0.00     0.163 HD
BRANCH  14  17
ATOM     17  C   UNL     1       0.396   1.287   0.027  1.00  0.00     0.095 C 
ATOM     18  C   UNL     1       0.205   1.324   1.567  1.00  0.00     0.028 C 
ATOM     19  C   UNL     1       0.925   2.679  -0.414  1.00  0.00     0.028 C 
ATOM     20  C   UNL     1      -0.992   1.073  -0.591  1.00  0.00     0.277 C 
ATOM     21  C   UNL     1       0.816   2.892  -1.923  1.00  0.00     0.063 C 
ATOM     22  N   UNL     1      -1.028   1.244  -2.044  1.00  0.00    -0.345 N 
ATOM     23  C   UNL     1      -0.582   2.576  -2.445  1.00  0.00     0.260 C 
ATOM     24  H   UNL     1      -0.417   0.548  -2.473  1.00  0.00     0.346 HD
ATOM     25  H   UNL     1      -1.992   1.126  -2.353  1.00  0.00     0.346 HD
ENDBRANCH  14  17
ENDBRANCH  12  13
ENDBRANCH   8  12
ENDBRANCH   4   7
ENDBRANCH   2   3
ENDBRANCH   1   2
BRANCH   1  26
ATOM     26  C   UNL     1       3.211  -0.625  -9.710  1.00  0.00     0.118 C 
BRANCH  26  27
ATOM     27  N   UNL     1       2.591  -0.030 -10.885  1.00  0.00    -0.352 N 
ATOM     28  C   UNL     1       3.139   0.688 -11.920  1.00  0.00     0.251 C 
ATOM     29  H   UNL     1       1.618  -0.165 -10.948  1.00  0.00     0.163 HD
ATOM     30  O   UNL     1       2.382   1.246 -12.713  1.00  0.00    -0.269 OA
BRANCH  28  31
ATOM     31  C   UNL     1       4.606   0.815 -12.095  1.00  0.00     0.039 A 
ATOM     32  C   UNL     1       5.120   2.034 -12.555  1.00  0.00     0.014 A 
ATOM     33  C   UNL     1       5.473  -0.259 -11.880  1.00  0.00     0.014 A 
ATOM     34  C   UNL     1       6.497   2.189 -12.748  1.00  0.00     0.010 A 
ATOM     35  C   UNL     1       6.852  -0.084 -12.008  1.00  0.00     0.010 A 
ATOM     36  C   UNL     1       7.379   1.138 -12.452  1.00  0.00    -0.014 A 
BRANCH  36  37
ATOM     37  C   UNL     1       8.850   1.298 -12.596  1.00  0.00     0.031 A 
ATOM     38  C   UNL     1       9.612   0.479 -13.604  1.00  0.00     0.074 A 
ATOM     39  C   UNL     1       9.515   2.117 -11.757  1.00  0.00     0.049 A 
ATOM     40  N   UNL     1      10.901   0.430 -13.822  1.00  0.00    -0.248 NA
ATOM     41  C   UNL     1       8.825  -0.422 -14.462  1.00  0.00     0.031 C 
ATOM     42  C   UNL     1       8.904   2.910 -10.689  1.00  0.00     0.029 A 
ATOM     43  N   UNL     1      10.856   2.395 -11.652  1.00  0.00    -0.354 N 
ATOM     44  C   UNL     1      11.085  -0.530 -14.810  1.00  0.00     0.074 A 
ATOM     45  C   UNL     1       9.777  -1.057 -15.133  1.00  0.00     0.031 C 
ATOM     46  C   UNL     1       9.866   3.582 -10.036  1.00  0.00     0.029 A 
ATOM     47  C   UNL     1      11.162   3.253 -10.621  1.00  0.00     0.049 A 
ATOM     48  H   UNL     1      11.534   2.017 -12.257  1.00  0.00     0.167 HD
ATOM     49  C   UNL     1      12.233  -0.917 -15.416  1.00  0.00     0.034 A 
ATOM     50  C   UNL     1      12.351   3.721 -10.193  1.00  0.00     0.034 A 
ATOM     51  C   UNL     1      13.526  -0.351 -15.138  1.00  0.00     0.049 A 
ATOM     52  C   UNL     1      13.604   3.319 -10.922  1.00  0.00     0.074 A 
ATOM     53  C   UNL     1      14.732  -0.611 -15.764  1.00  0.00     0.029 A 
ATOM     54  N   UNL     1      13.781   0.592 -14.155  1.00  0.00    -0.354 N 
ATOM     55  N   UNL     1      13.736   2.530 -11.961  1.00  0.00    -0.248 NA
ATOM     56  C   UNL     1      14.868   3.899 -10.444  1.00  0.00     0.031 C 
ATOM     57  C   UNL     1      15.719   0.173 -15.156  1.00  0.00     0.029 A 
ATOM     58  C   UNL     1      15.125   0.925 -14.155  1.00  0.00     0.049 A 
ATOM     59  H   UNL     1      13.106   0.970 -13.547  1.00  0.00     0.167 HD
ATOM     60  C   UNL     1      15.089   2.543 -12.280  1.00  0.00     0.074 A 
ATOM     61  C   UNL     1      15.732   3.436 -11.338  1.00  0.00     0.031 C 
ATOM     62  C   UNL     1      15.742   1.861 -13.252  1.00  0.00     0.034 A 
BRANCH  49  63
ATOM     63  C   UNL     1      12.133  -1.960 -16.498  1.00  0.00     0.023 A 
ATOM     64  C   UNL     1      11.606  -1.598 -17.755  1.00  0.00     0.012 A 
ATOM     65  C   UNL     1      12.608  -3.271 -16.299  1.00  0.00     0.148 A 
ATOM     66  C   UNL     1      11.525  -2.532 -18.787  1.00  0.00     0.002 A 
ATOM     67  C   UNL     1      12.557  -4.187 -17.345  1.00  0.00     0.091 A 
ATOM     68  F   UNL     1      13.083  -3.605 -15.091  1.00  0.00    -0.205 F 
ATOM     69  C   UNL     1      12.008  -3.821 -18.585  1.00  0.00     0.022 A 
BRANCH  67  70
ATOM     70  S   UNL     1      13.219  -5.851 -17.201  1.00  0.00     0.127 S 
ATOM     71  O   UNL     1      12.000  -6.641 -17.041  1.00  0.00    -0.237 OA
ATOM     72  O   UNL     1      13.897  -6.030 -18.486  1.00  0.00    -0.237 OA
ATOM     73  O   UNL     1      14.110  -5.824 -16.049  1.00  0.00    -0.744 OA
ENDBRANCH  67  70
ENDBRANCH  49  63
BRANCH  50  74
ATOM     74  C   UNL     1      12.400   4.694  -9.066  1.00  0.00     0.023 A 
ATOM     75  C   UNL     1      12.707   6.041  -9.336  1.00  0.00     0.012 A 
ATOM     76  C   UNL     1      12.104   4.309  -7.744  1.00  0.00     0.148 A 
ATOM     77  C   UNL     1      12.741   6.984  -8.309  1.00  0.00     0.002 A 
ATOM     78  C   UNL     1      12.089   5.263  -6.733  1.00  0.00     0.091 A 
ATOM     79  F   UNL     1      11.832   3.018  -7.502  1.00  0.00    -0.205 F 
ATOM     80  C   UNL     1      12.421   6.598  -7.010  1.00  0.00     0.022 A 
BRANCH  78  81
ATOM     81  S   UNL     1      11.555   4.873  -5.062  1.00  0.00     0.127 S 
ATOM     82  O   UNL     1      12.828   4.786  -4.353  1.00  0.00    -0.237 OA
ATOM     83  O   UNL     1      10.736   6.038  -4.721  1.00  0.00    -0.237 OA
ATOM     84  O   UNL     1      10.800   3.632  -5.180  1.00  0.00    -0.744 OA
ENDBRANCH  78  81
ENDBRANCH  50  74
BRANCH  62  85
ATOM     85  C   UNL     1      17.229   2.066 -13.368  1.00  0.00     0.023 A 
ATOM     86  C   UNL     1      18.087   1.461 -12.428  1.00  0.00     0.012 A 
ATOM     87  C   UNL     1      17.781   2.789 -14.443  1.00  0.00     0.148 A 
ATOM     88  C   UNL     1      19.470   1.594 -12.542  1.00  0.00     0.002 A 
ATOM     89  C   UNL     1      19.162   2.883 -14.573  1.00  0.00     0.091 A 
ATOM     90  F   UNL     1      16.949   3.377 -15.315  1.00  0.00    -0.205 F 
ATOM     91  C   UNL     1      20.008   2.293 -13.620  1.00  0.00     0.022 A 
BRANCH  89  92
ATOM     92  S   UNL     1      19.934   3.692 -15.980  1.00  0.00     0.127 S 
ATOM     93  O   UNL     1      20.298   4.990 -15.416  1.00  0.00    -0.237 OA
ATOM     94  O   UNL     1      21.068   2.813 -16.268  1.00  0.00    -0.237 OA
ATOM     95  O   UNL     1      18.918   3.719 -17.024  1.00  0.00    -0.744 OA
ENDBRANCH  89  92
ENDBRANCH  62  85
ENDBRANCH  36  37
ENDBRANCH  28  31
ENDBRANCH  26  27
ENDBRANCH   1  26
TORSDOF 16
