REMARK SMILES O=C(NCCCNC(=O)C1([NH+]2CCOCC2)CCC1)c1ccc(-c2c3nc(c(-c4cccc(S(=O)(=O)[O-])c4F)c4ccc([nH]4)c(-c4cccc(S(=O)(=O)[O-])c4F)c4nc(c(-c5cccc(S(=O)(=O)[O-])c5F)c5ccc2[nH]5)C=C4)C=C3)cc1
REMARK SMILES IDX 4 1 3 2 1 3 2 4 20 6 21 7 82 8 22 9 81 10 23 11 24 12 25 13
REMARK SMILES IDX 75 14 26 15 80 16 74 17 76 18 27 19 79 20 73 21 72 22 28 24
REMARK SMILES IDX 60 25 40 26 59 27 41 28 44 29 58 30 77 31 42 32 43 33 57 35
REMARK SMILES IDX 78 36 45 37 29 38 30 39 38 40 31 41 33 42 39 43 32 44 34 45
REMARK SMILES IDX 35 46 36 47 37 48 61 49 62 50 70 51 63 52 65 53 71 54 64 55
REMARK SMILES IDX 66 56 67 57 68 58 69 59 46 60 47 61 55 62 48 63 50 64 56 65
REMARK SMILES IDX 49 66 51 67 52 68 53 69 54 70 5 71 6 72 7 73 8 74 9 76 10 77
REMARK SMILES IDX 17 78 19 79 18 80 11 81 12 82 16 83 13 85 15 86 14 87
REMARK H PARENT 3 5 76 23 44 34 7 75 11 84
REMARK Flexibility Score: inf
ROOT
ATOM      1  C   UNL     1       4.512   1.108  -0.788  1.00  0.00     0.118 C 
ENDROOT
BRANCH   1   2
ATOM      2  N   UNL     1       3.084   0.989  -0.513  1.00  0.00    -0.352 N 
ATOM      3  O   UNL     1       1.168  -0.041   0.073  1.00  0.00    -0.269 OA
ATOM      4  C   UNL     1       2.396  -0.028   0.107  1.00  0.00     0.251 C 
ATOM      5  H   UNL     1       2.533   1.746  -0.816  1.00  0.00     0.163 HD
BRANCH   4   6
ATOM      6  C   UNL     1       3.144  -1.108   0.785  1.00  0.00     0.039 A 
ATOM      7  C   UNL     1       4.277  -0.802   1.539  1.00  0.00     0.014 A 
ATOM      8  C   UNL     1       2.727  -2.436   0.656  1.00  0.00     0.014 A 
ATOM      9  C   UNL     1       5.096  -1.823   1.992  1.00  0.00     0.010 A 
ATOM     10  C   UNL     1       3.488  -3.461   1.230  1.00  0.00     0.010 A 
ATOM     11  C   UNL     1       4.698  -3.165   1.873  1.00  0.00    -0.014 A 
BRANCH  11  12
ATOM     12  C   UNL     1       5.535  -4.202   2.530  1.00  0.00     0.031 A 
ATOM     13  C   UNL     1       6.207  -5.296   1.750  1.00  0.00     0.074 A 
ATOM     14  C   UNL     1       5.727  -4.098   3.861  1.00  0.00     0.049 A 
ATOM     15  N   UNL     1       7.039  -6.210   2.179  1.00  0.00    -0.248 NA
ATOM     16  C   UNL     1       5.906  -5.391   0.313  1.00  0.00     0.031 C 
ATOM     17  C   UNL     1       5.075  -3.108   4.726  1.00  0.00     0.029 A 
ATOM     18  N   UNL     1       6.537  -4.798   4.716  1.00  0.00    -0.354 N 
ATOM     19  C   UNL     1       7.332  -7.010   1.082  1.00  0.00     0.074 A 
ATOM     20  C   UNL     1       6.584  -6.478  -0.037  1.00  0.00     0.031 C 
ATOM     21  C   UNL     1       5.558  -3.220   5.969  1.00  0.00     0.029 A 
ATOM     22  C   UNL     1       6.503  -4.328   6.009  1.00  0.00     0.049 A 
ATOM     23  H   UNL     1       7.089  -5.562   4.433  1.00  0.00     0.167 HD
ATOM     24  C   UNL     1       8.162  -8.079   1.014  1.00  0.00     0.034 A 
ATOM     25  C   UNL     1       7.154  -4.744   7.111  1.00  0.00     0.034 A 
ATOM     26  C   UNL     1       8.933  -8.575   2.125  1.00  0.00     0.049 A 
ATOM     27  C   UNL     1       8.116  -5.887   6.985  1.00  0.00     0.074 A 
ATOM     28  C   UNL     1       9.826  -9.633   2.149  1.00  0.00     0.029 A 
ATOM     29  N   UNL     1       8.908  -8.047   3.407  1.00  0.00    -0.354 N 
ATOM     30  N   UNL     1       8.455  -6.561   5.912  1.00  0.00    -0.248 NA
ATOM     31  C   UNL     1       8.800  -6.314   8.211  1.00  0.00     0.031 C 
ATOM     32  C   UNL     1      10.339  -9.745   3.446  1.00  0.00     0.029 A 
ATOM     33  C   UNL     1       9.772  -8.752   4.229  1.00  0.00     0.049 A 
ATOM     34  H   UNL     1       8.357  -7.282   3.691  1.00  0.00     0.167 HD
ATOM     35  C   UNL     1       9.392  -7.494   6.334  1.00  0.00     0.074 A 
ATOM     36  C   UNL     1       9.604  -7.262   7.749  1.00  0.00     0.031 C 
ATOM     37  C   UNL     1       9.995  -8.479   5.624  1.00  0.00     0.034 A 
BRANCH  24  38
ATOM     38  C   UNL     1       8.329  -8.761  -0.320  1.00  0.00     0.023 A 
ATOM     39  C   UNL     1       9.126  -8.153  -1.310  1.00  0.00     0.012 A 
ATOM     40  C   UNL     1       7.778 -10.035  -0.562  1.00  0.00     0.148 A 
ATOM     41  C   UNL     1       9.360  -8.792  -2.527  1.00  0.00     0.002 A 
ATOM     42  C   UNL     1       8.043 -10.682  -1.765  1.00  0.00     0.091 A 
ATOM     43  F   UNL     1       7.007 -10.589   0.384  1.00  0.00    -0.205 F 
ATOM     44  C   UNL     1       8.828 -10.060  -2.750  1.00  0.00     0.022 A 
BRANCH  42  45
ATOM     45  S   UNL     1       7.463 -12.345  -2.125  1.00  0.00     0.127 S 
ATOM     46  O   UNL     1       6.451 -12.088  -3.149  1.00  0.00    -0.237 OA
ATOM     47  O   UNL     1       8.677 -12.996  -2.618  1.00  0.00    -0.237 OA
ATOM     48  O   UNL     1       6.957 -12.874  -0.867  1.00  0.00    -0.744 OA
ENDBRANCH  42  45
ENDBRANCH  24  38
BRANCH  25  49
ATOM     49  C   UNL     1       6.940  -4.038   8.404  1.00  0.00     0.023 A 
ATOM     50  C   UNL     1       7.981  -3.274   8.964  1.00  0.00     0.012 A 
ATOM     51  C   UNL     1       5.687  -4.064   9.047  1.00  0.00     0.148 A 
ATOM     52  C   UNL     1       7.783  -2.566  10.151  1.00  0.00     0.002 A 
ATOM     53  C   UNL     1       5.477  -3.302  10.190  1.00  0.00     0.091 A 
ATOM     54  F   UNL     1       4.710  -4.814   8.517  1.00  0.00    -0.205 F 
ATOM     55  C   UNL     1       6.528  -2.566  10.755  1.00  0.00     0.022 A 
BRANCH  53  56
ATOM     56  S   UNL     1       3.836  -3.130  10.901  1.00  0.00     0.127 S 
ATOM     57  O   UNL     1       3.835  -4.178  11.917  1.00  0.00    -0.237 OA
ATOM     58  O   UNL     1       3.860  -1.763  11.425  1.00  0.00    -0.237 OA
ATOM     59  O   UNL     1       2.925  -3.315   9.778  1.00  0.00    -0.744 OA
ENDBRANCH  53  56
ENDBRANCH  25  49
BRANCH  37  60
ATOM     60  C   UNL     1      10.931  -9.381   6.379  1.00  0.00     0.023 A 
ATOM     61  C   UNL     1      10.398 -10.345   7.259  1.00  0.00     0.012 A 
ATOM     62  C   UNL     1      12.324  -9.302   6.198  1.00  0.00     0.148 A 
ATOM     63  C   UNL     1      11.240 -11.193   7.975  1.00  0.00     0.002 A 
ATOM     64  C   UNL     1      13.156 -10.179   6.885  1.00  0.00     0.091 A 
ATOM     65  F   UNL     1      12.814  -8.362   5.377  1.00  0.00    -0.205 F 
ATOM     66  C   UNL     1      12.617 -11.117   7.781  1.00  0.00     0.022 A 
BRANCH  64  67
ATOM     67  S   UNL     1      14.933 -10.196   6.630  1.00  0.00     0.127 S 
ATOM     68  O   UNL     1      15.408  -9.421   7.774  1.00  0.00    -0.237 OA
ATOM     69  O   UNL     1      15.248 -11.624   6.688  1.00  0.00    -0.237 OA
ATOM     70  O   UNL     1      15.146  -9.591   5.321  1.00  0.00    -0.744 OA
ENDBRANCH  64  67
ENDBRANCH  37  60
ENDBRANCH  11  12
ENDBRANCH   4   6
ENDBRANCH   1   2
BRANCH   1  71
ATOM     71  C   UNL     1       4.818   1.160  -2.273  1.00  0.00     0.042 C 
BRANCH  71  72
ATOM     72  C   UNL     1       4.338   2.439  -2.928  1.00  0.00     0.118 C 
BRANCH  72  73
ATOM     73  N   UNL     1       5.069   3.606  -2.480  1.00  0.00    -0.351 N 
ATOM     74  C   UNL     1       5.879   4.466  -3.190  1.00  0.00     0.281 C 
ATOM     75  H   UNL     1       4.972   3.817  -1.523  1.00  0.00     0.163 HD
ATOM     76  O   UNL     1       6.290   5.449  -2.558  1.00  0.00    -0.268 OA
BRANCH  74  77
ATOM     77  C   UNL     1       6.231   4.162  -4.732  1.00  0.00     0.177 C 
ATOM     78  C   UNL     1       7.715   4.587  -5.058  1.00  0.00     0.079 C 
ATOM     79  C   UNL     1       6.652   2.722  -5.131  1.00  0.00     0.079 C 
ATOM     80  C   UNL     1       7.942   3.247  -5.772  1.00  0.00     0.014 C 
BRANCH  77  81
ATOM     81  N   UNL     1       5.308   4.849  -5.693  1.00  0.00    -0.318 N 
ATOM     82  C   UNL     1       3.868   4.626  -5.472  1.00  0.00     0.291 C 
ATOM     83  C   UNL     1       5.580   4.856  -7.137  1.00  0.00     0.291 C 
ATOM     84  H   UNL     1       5.580   5.786  -5.396  1.00  0.00     0.349 HD
ATOM     85  C   UNL     1       3.281   3.455  -6.279  1.00  0.00     0.221 C 
ATOM     86  C   UNL     1       4.931   3.712  -7.934  1.00  0.00     0.221 C 
ATOM     87  O   UNL     1       3.525   3.623  -7.679  1.00  0.00    -0.370 OA
ENDBRANCH  77  81
ENDBRANCH  74  77
ENDBRANCH  72  73
ENDBRANCH  71  72
ENDBRANCH   1  71
TORSDOF 14
