REMARK SMILES CC(C)n1cncc1[C@@H](NC(=O)OC(C)(C)C)C(=O)NCCCNC(=O)c1ccc(-c2c3nc(c(-c4cccc(S(=O)(=O)[O-])c4F)c4ccc([nH]4)c(-c4cccc(S(=O)(=O)[O-])c4F)c4nc(c(-c5cccc(S(=O)(=O)[O-])c5F)c5ccc2[nH]5)C=C4)C=C3)cc1
REMARK SMILES IDX 22 1 21 2 20 3 18 4 19 5 9 7 8 8 4 9 5 10 6 11 7 12 2 13
REMARK SMILES IDX 1 14 3 15 10 16 11 17 12 19 13 20 14 21 15 22 16 23 17 24
REMARK SMILES IDX 23 25 24 26 25 27 26 29 27 30 28 31 89 32 29 33 88 34 30 35
REMARK SMILES IDX 31 36 32 37 82 38 33 39 87 40 81 41 83 42 34 43 86 44 80 45
REMARK SMILES IDX 79 46 35 48 67 49 47 50 66 51 48 52 51 53 65 54 84 55 49 56
REMARK SMILES IDX 50 57 64 59 85 60 52 61 36 62 37 63 45 64 38 65 40 66 46 67
REMARK SMILES IDX 39 68 41 69 42 70 43 71 44 72 68 73 69 74 77 75 70 76 72 77
REMARK SMILES IDX 78 78 71 79 73 80 74 81 75 82 76 83 53 84 54 85 62 86 55 87
REMARK SMILES IDX 57 88 63 89 56 90 58 91 59 92 60 93 61 94
REMARK H PARENT 20 6 10 18 24 28 83 47 51 58
REMARK Flexibility Score: inf
ROOT
ATOM      1  C   UNL     1      -5.157   2.821   1.215  1.00  0.00     0.042 C 
ENDROOT
BRANCH   1   2
ATOM      2  C   UNL     1      -4.294   4.049   0.952  1.00  0.00     0.117 C 
BRANCH   2   3
ATOM      3  N   UNL     1      -3.143   4.156   1.822  1.00  0.00    -0.354 N 
ATOM      4  C   UNL     1      -1.820   4.199   1.486  1.00  0.00     0.248 C 
ATOM      5  O   UNL     1      -1.000   4.402   2.387  1.00  0.00    -0.272 OA
ATOM      6  H   UNL     1      -3.340   4.204   2.785  1.00  0.00     0.163 HD
BRANCH   4   7
ATOM      7  C   UNL     1      -1.313   3.905   0.046  1.00  0.00     0.223 C 
BRANCH   7   8
ATOM      8  C   UNL     1      -1.540   2.428  -0.238  1.00  0.00     0.070 A 
ATOM      9  N   UNL     1      -0.672   1.376   0.019  1.00  0.00    -0.330 N 
ATOM     10  C   UNL     1      -1.429   0.229  -0.016  1.00  0.00     0.199 A 
ATOM     11  N   UNL     1      -2.600   0.436  -0.565  1.00  0.00    -0.245 NA
ATOM     12  C   UNL     1      -2.660   1.784  -0.743  1.00  0.00     0.137 A 
BRANCH   9  13
ATOM     13  C   UNL     1       0.789   1.406   0.139  1.00  0.00     0.082 C 
ATOM     14  C   UNL     1       1.426   0.004   0.223  1.00  0.00     0.031 C 
ATOM     15  C   UNL     1       1.418   2.107  -1.075  1.00  0.00     0.031 C 
ENDBRANCH   9  13
ENDBRANCH   7   8
BRANCH   7  16
ATOM     16  N   UNL     1      -1.870   4.650  -1.080  1.00  0.00    -0.304 N 
ATOM     17  C   UNL     1      -2.366   5.927  -1.123  1.00  0.00     0.408 C 
ATOM     18  H   UNL     1      -1.893   4.162  -1.935  1.00  0.00     0.168 HD
ATOM     19  O   UNL     1      -2.577   6.465  -2.193  1.00  0.00    -0.225 OA
BRANCH  17  20
ATOM     20  O   UNL     1      -2.696   6.430   0.091  1.00  0.00    -0.444 OA
BRANCH  20  21
ATOM     21  C   UNL     1      -3.540   7.610   0.237  1.00  0.00     0.106 C 
ATOM     22  C   UNL     1      -2.838   8.863  -0.289  1.00  0.00     0.056 C 
ATOM     23  C   UNL     1      -4.916   7.438  -0.431  1.00  0.00     0.056 C 
ATOM     24  C   UNL     1      -3.758   7.772   1.753  1.00  0.00     0.056 C 
ENDBRANCH  20  21
ENDBRANCH  17  20
ENDBRANCH   7  16
ENDBRANCH   4   7
ENDBRANCH   2   3
ENDBRANCH   1   2
BRANCH   1  25
ATOM     25  C   UNL     1      -6.219   3.125   2.251  1.00  0.00     0.118 C 
BRANCH  25  26
ATOM     26  N   UNL     1      -7.210   4.100   1.756  1.00  0.00    -0.352 N 
ATOM     27  C   UNL     1      -8.183   4.772   2.474  1.00  0.00     0.251 C 
ATOM     28  H   UNL     1      -7.173   4.298   0.793  1.00  0.00     0.163 HD
ATOM     29  O   UNL     1      -9.149   5.281   1.920  1.00  0.00    -0.269 OA
BRANCH  27  30
ATOM     30  C   UNL     1      -7.995   4.884   3.926  1.00  0.00     0.039 A 
ATOM     31  C   UNL     1      -9.018   4.628   4.842  1.00  0.00     0.014 A 
ATOM     32  C   UNL     1      -6.694   5.137   4.343  1.00  0.00     0.014 A 
ATOM     33  C   UNL     1      -8.686   4.559   6.192  1.00  0.00     0.010 A 
ATOM     34  C   UNL     1      -6.338   4.798   5.613  1.00  0.00     0.010 A 
ATOM     35  C   UNL     1      -7.332   4.625   6.561  1.00  0.00    -0.014 A 
BRANCH  35  36
ATOM     36  C   UNL     1      -6.875   4.360   7.916  1.00  0.00     0.031 A 
ATOM     37  C   UNL     1      -7.268   3.010   8.386  1.00  0.00     0.074 A 
ATOM     38  C   UNL     1      -5.971   5.148   8.541  1.00  0.00     0.049 A 
ATOM     39  N   UNL     1      -8.288   2.714   9.123  1.00  0.00    -0.248 NA
ATOM     40  C   UNL     1      -6.638   1.839   7.752  1.00  0.00     0.031 C 
ATOM     41  C   UNL     1      -5.253   6.310   7.994  1.00  0.00     0.029 A 
ATOM     42  N   UNL     1      -5.390   5.000   9.761  1.00  0.00    -0.354 N 
ATOM     43  C   UNL     1      -8.190   1.340   9.320  1.00  0.00     0.074 A 
ATOM     44  C   UNL     1      -7.418   0.857   8.212  1.00  0.00     0.031 C 
ATOM     45  C   UNL     1      -4.181   6.589   8.769  1.00  0.00     0.029 A 
ATOM     46  C   UNL     1      -4.225   5.746   9.947  1.00  0.00     0.049 A 
ATOM     47  H   UNL     1      -5.762   4.413  10.458  1.00  0.00     0.167 HD
ATOM     48  C   UNL     1      -8.384   0.817  10.566  1.00  0.00     0.034 A 
ATOM     49  C   UNL     1      -3.345   5.641  10.976  1.00  0.00     0.034 A 
ATOM     50  C   UNL     1      -8.970   1.823  11.437  1.00  0.00     0.049 A 
ATOM     51  C   UNL     1      -4.063   4.966  12.081  1.00  0.00     0.074 A 
ATOM     52  C   UNL     1     -10.089   2.631  11.413  1.00  0.00     0.029 A 
ATOM     53  N   UNL     1      -8.105   2.402  12.336  1.00  0.00    -0.354 N 
ATOM     54  N   UNL     1      -5.072   5.500  12.710  1.00  0.00    -0.248 NA
ATOM     55  C   UNL     1      -3.962   3.520  12.166  1.00  0.00     0.031 C 
ATOM     56  C   UNL     1      -9.664   3.876  11.971  1.00  0.00     0.029 A 
ATOM     57  C   UNL     1      -8.341   3.744  12.395  1.00  0.00     0.049 A 
ATOM     58  H   UNL     1      -7.421   1.922  12.856  1.00  0.00     0.167 HD
ATOM     59  C   UNL     1      -5.984   4.459  12.821  1.00  0.00     0.074 A 
ATOM     60  C   UNL     1      -5.199   3.245  12.588  1.00  0.00     0.031 C 
ATOM     61  C   UNL     1      -7.328   4.707  12.770  1.00  0.00     0.034 A 
BRANCH  48  62
ATOM     62  C   UNL     1      -7.604  -0.353  11.171  1.00  0.00     0.023 A 
ATOM     63  C   UNL     1      -7.898  -0.654  12.524  1.00  0.00     0.012 A 
ATOM     64  C   UNL     1      -6.435  -0.947  10.642  1.00  0.00     0.148 A 
ATOM     65  C   UNL     1      -7.005  -1.354  13.341  1.00  0.00     0.002 A 
ATOM     66  C   UNL     1      -5.566  -1.679  11.447  1.00  0.00     0.091 A 
ATOM     67  F   UNL     1      -6.096  -0.774   9.368  1.00  0.00    -0.205 F 
ATOM     68  C   UNL     1      -5.826  -1.849  12.806  1.00  0.00     0.022 A 
BRANCH  66  69
ATOM     69  S   UNL     1      -4.031  -2.372  10.807  1.00  0.00     0.127 S 
ATOM     70  O   UNL     1      -3.037  -1.603  11.550  1.00  0.00    -0.237 OA
ATOM     71  O   UNL     1      -4.158  -3.774  11.202  1.00  0.00    -0.237 OA
ATOM     72  O   UNL     1      -4.054  -2.145   9.367  1.00  0.00    -0.744 OA
ENDBRANCH  66  69
ENDBRANCH  48  62
BRANCH  49  73
ATOM     73  C   UNL     1      -1.873   5.835  11.025  1.00  0.00     0.023 A 
ATOM     74  C   UNL     1      -1.226   5.981  12.272  1.00  0.00     0.012 A 
ATOM     75  C   UNL     1      -1.072   5.568   9.894  1.00  0.00     0.148 A 
ATOM     76  C   UNL     1       0.161   5.821  12.395  1.00  0.00     0.002 A 
ATOM     77  C   UNL     1       0.307   5.413  10.020  1.00  0.00     0.091 A 
ATOM     78  F   UNL     1      -1.673   5.372   8.713  1.00  0.00    -0.205 F 
ATOM     79  C   UNL     1       0.926   5.525  11.271  1.00  0.00     0.022 A 
BRANCH  77  80
ATOM     80  S   UNL     1       1.358   4.995   8.621  1.00  0.00     0.127 S 
ATOM     81  O   UNL     1       2.416   6.000   8.728  1.00  0.00    -0.237 OA
ATOM     82  O   UNL     1       1.772   3.634   8.949  1.00  0.00    -0.237 OA
ATOM     83  O   UNL     1       0.516   5.132   7.441  1.00  0.00    -0.744 OA
ENDBRANCH  77  80
ENDBRANCH  49  73
BRANCH  61  84
ATOM     84  C   UNL     1      -7.788   6.133  12.929  1.00  0.00     0.023 A 
ATOM     85  C   UNL     1      -7.484   7.155  12.004  1.00  0.00     0.012 A 
ATOM     86  C   UNL     1      -8.677   6.410  13.979  1.00  0.00     0.148 A 
ATOM     87  C   UNL     1      -8.040   8.431  12.144  1.00  0.00     0.002 A 
ATOM     88  C   UNL     1      -9.261   7.663  14.088  1.00  0.00     0.091 A 
ATOM     89  F   UNL     1      -8.954   5.425  14.848  1.00  0.00    -0.205 F 
ATOM     90  C   UNL     1      -8.938   8.682  13.179  1.00  0.00     0.022 A 
BRANCH  88  91
ATOM     91  S   UNL     1     -10.507   8.002  15.332  1.00  0.00     0.127 S 
ATOM     92  O   UNL     1      -9.763   8.809  16.296  1.00  0.00    -0.237 OA
ATOM     93  O   UNL     1     -11.521   8.734  14.571  1.00  0.00    -0.237 OA
ATOM     94  O   UNL     1     -10.954   6.701  15.816  1.00  0.00    -0.744 OA
ENDBRANCH  88  91
ENDBRANCH  61  84
ENDBRANCH  35  36
ENDBRANCH  27  30
ENDBRANCH  25  26
ENDBRANCH   1  25
TORSDOF 18
