REMARK SMILES O=C(CC[N@H+]1CCC[C@@H](C(=O)NCCCNC(=O)c2ccc(-c3c4nc(c(-c5cccc(S(=O)(=O)[O-])c5F)c5ccc([nH]5)c(-c5cccc(S(=O)(=O)[O-])c5F)c5nc(c(-c6cccc(S(=O)(=O)[O-])c6F)c6ccc3[nH]6)C=C5)C=C4)cc2)C1)Nc1cccc(F)c1
REMARK SMILES IDX 13 1 12 2 10 3 11 4 9 6 5 7 6 8 82 9 7 11 8 12 4 13 3 14
REMARK SMILES IDX 2 15 1 16 83 17 84 19 85 20 90 21 86 22 88 23 87 24 89 25
REMARK SMILES IDX 14 26 15 27 16 28 17 29 18 31 19 32 20 33 81 34 21 35 80 36
REMARK SMILES IDX 22 37 23 38 24 39 74 40 25 41 79 42 73 43 75 44 26 45 78 46
REMARK SMILES IDX 72 47 71 48 27 50 59 51 39 52 58 53 40 54 43 55 57 56 76 57
REMARK SMILES IDX 41 58 42 59 56 61 77 62 44 63 28 64 29 65 37 66 30 67 32 68
REMARK SMILES IDX 38 69 31 70 33 71 34 72 35 73 36 74 60 75 61 76 69 77 62 78
REMARK SMILES IDX 64 79 70 80 63 81 65 82 66 83 67 84 68 85 45 86 46 87 54 88
REMARK SMILES IDX 47 89 49 90 55 91 48 92 50 93 51 94 52 95 53 96
REMARK H PARENT 12 5 5 10 83 18 16 30 75 49 43 60
REMARK Flexibility Score: inf
ROOT
ATOM      1  C   UNL     1       6.530   5.320   2.139  1.00  0.00     0.117 C 
ENDROOT
BRANCH   1   2
ATOM      2  N   UNL     1       7.503   4.932   1.135  1.00  0.00    -0.356 N 
ATOM      3  C   UNL     1       7.667   3.759   0.467  1.00  0.00     0.228 C 
ATOM      4  O   UNL     1       8.538   3.716  -0.404  1.00  0.00    -0.275 OA
ATOM      5  H   UNL     1       8.151   5.634   0.899  1.00  0.00     0.163 HD
BRANCH   3   6
ATOM      6  C   UNL     1       6.769   2.563   0.757  1.00  0.00     0.133 C 
ATOM      7  N   UNL     1       4.912   1.217  -0.287  1.00  0.00    -0.334 N 
ATOM      8  C   UNL     1       5.805   0.042  -0.356  1.00  0.00     0.262 C 
ATOM      9  C   UNL     1       5.728   2.457  -0.371  1.00  0.00     0.275 C 
ATOM     10  H   UNL     1       4.409   1.182   0.600  1.00  0.00     0.348 HD
ATOM     11  C   UNL     1       6.770   0.040   0.827  1.00  0.00     0.062 C 
ATOM     12  C   UNL     1       7.629   1.295   0.836  1.00  0.00     0.025 C 
BRANCH   7  13
ATOM     13  C   UNL     1       3.912   1.210  -1.383  1.00  0.00     0.272 C 
BRANCH  13  14
ATOM     14  C   UNL     1       2.935   0.029  -1.373  1.00  0.00     0.161 C 
BRANCH  14  15
ATOM     15  C   UNL     1       2.010  -0.071  -0.170  1.00  0.00     0.230 C 
ATOM     16  O   UNL     1       0.863  -0.486  -0.322  1.00  0.00    -0.275 OA
ATOM     17  N   UNL     1       2.596   0.264   1.032  1.00  0.00    -0.326 N 
ATOM     18  H   UNL     1       3.496   0.658   0.985  1.00  0.00     0.169 HD
BRANCH  17  19
ATOM     19  C   UNL     1       2.050   0.103   2.321  1.00  0.00     0.044 A 
ATOM     20  C   UNL     1       2.685   0.766   3.381  1.00  0.00     0.026 A 
ATOM     21  C   UNL     1       0.937  -0.694   2.590  1.00  0.00     0.065 A 
ATOM     22  C   UNL     1       2.191   0.662   4.686  1.00  0.00     0.005 A 
ATOM     23  C   UNL     1       0.465  -0.806   3.895  1.00  0.00     0.125 A 
ATOM     24  C   UNL     1       1.075  -0.129   4.943  1.00  0.00     0.039 A 
ATOM     25  F   UNL     1      -0.593  -1.590   4.146  1.00  0.00    -0.207 F 
ENDBRANCH  17  19
ENDBRANCH  14  15
ENDBRANCH  13  14
ENDBRANCH   7  13
ENDBRANCH   3   6
ENDBRANCH   1   2
BRANCH   1  26
ATOM     26  C   UNL     1       7.069   5.239   3.565  1.00  0.00     0.042 C 
BRANCH  26  27
ATOM     27  C   UNL     1       8.320   6.074   3.849  1.00  0.00     0.118 C 
BRANCH  27  28
ATOM     28  N   UNL     1       8.149   7.495   3.590  1.00  0.00    -0.352 N 
ATOM     29  C   UNL     1       8.427   8.599   4.360  1.00  0.00     0.251 C 
ATOM     30  H   UNL     1       7.766   7.703   2.707  1.00  0.00     0.163 HD
ATOM     31  O   UNL     1       8.096   9.704   3.933  1.00  0.00    -0.269 OA
BRANCH  29  32
ATOM     32  C   UNL     1       9.081   8.496   5.690  1.00  0.00     0.039 A 
ATOM     33  C   UNL     1       8.665   9.378   6.694  1.00  0.00     0.014 A 
ATOM     34  C   UNL     1      10.116   7.597   5.958  1.00  0.00     0.014 A 
ATOM     35  C   UNL     1       9.236   9.315   7.969  1.00  0.00     0.010 A 
ATOM     36  C   UNL     1      10.632   7.482   7.253  1.00  0.00     0.010 A 
ATOM     37  C   UNL     1      10.199   8.339   8.276  1.00  0.00    -0.014 A 
BRANCH  37  38
ATOM     38  C   UNL     1      10.701   8.192   9.671  1.00  0.00     0.031 A 
ATOM     39  C   UNL     1      12.151   8.408  10.018  1.00  0.00     0.074 A 
ATOM     40  C   UNL     1       9.841   7.818  10.640  1.00  0.00     0.049 A 
ATOM     41  N   UNL     1      12.727   8.390  11.194  1.00  0.00    -0.248 NA
ATOM     42  C   UNL     1      13.078   8.653   8.903  1.00  0.00     0.031 C 
ATOM     43  C   UNL     1       8.430   7.485  10.430  1.00  0.00     0.029 A 
ATOM     44  N   UNL     1      10.023   7.649  11.991  1.00  0.00    -0.354 N 
ATOM     45  C   UNL     1      14.082   8.597  10.962  1.00  0.00     0.074 A 
ATOM     46  C   UNL     1      14.247   8.697   9.527  1.00  0.00     0.031 C 
ATOM     47  C   UNL     1       7.868   7.186  11.611  1.00  0.00     0.029 A 
ATOM     48  C   UNL     1       8.880   7.277  12.659  1.00  0.00     0.049 A 
ATOM     49  H   UNL     1      10.890   7.782  12.438  1.00  0.00     0.167 HD
ATOM     50  C   UNL     1      15.094   8.722  11.857  1.00  0.00     0.034 A 
ATOM     51  C   UNL     1       8.661   7.046  13.968  1.00  0.00     0.034 A 
ATOM     52  C   UNL     1      14.928   8.640  13.286  1.00  0.00     0.049 A 
ATOM     53  C   UNL     1       9.787   7.234  14.946  1.00  0.00     0.074 A 
ATOM     54  C   UNL     1      15.875   8.835  14.277  1.00  0.00     0.029 A 
ATOM     55  N   UNL     1      13.742   8.320  13.931  1.00  0.00    -0.354 N 
ATOM     56  N   UNL     1      11.024   7.600  14.720  1.00  0.00    -0.248 NA
ATOM     57  C   UNL     1       9.472   7.018  16.365  1.00  0.00     0.031 C 
ATOM     58  C   UNL     1      15.270   8.601  15.518  1.00  0.00     0.029 A 
ATOM     59  C   UNL     1      13.935   8.298  15.303  1.00  0.00     0.049 A 
ATOM     60  H   UNL     1      12.887   8.135  13.479  1.00  0.00     0.167 HD
ATOM     61  C   UNL     1      11.628   7.693  15.970  1.00  0.00     0.074 A 
ATOM     62  C   UNL     1      10.610   7.370  16.948  1.00  0.00     0.031 C 
ATOM     63  C   UNL     1      12.912   8.006  16.276  1.00  0.00     0.034 A 
BRANCH  50  64
ATOM     64  C   UNL     1      16.474   9.005  11.312  1.00  0.00     0.023 A 
ATOM     65  C   UNL     1      16.745  10.254  10.715  1.00  0.00     0.012 A 
ATOM     66  C   UNL     1      17.512   8.059  11.426  1.00  0.00     0.148 A 
ATOM     67  C   UNL     1      18.008  10.538  10.196  1.00  0.00     0.002 A 
ATOM     68  C   UNL     1      18.782   8.368  10.950  1.00  0.00     0.091 A 
ATOM     69  F   UNL     1      17.237   6.869  11.979  1.00  0.00    -0.205 F 
ATOM     70  C   UNL     1      19.028   9.599  10.321  1.00  0.00     0.022 A 
BRANCH  68  71
ATOM     71  S   UNL     1      20.182   7.258  11.140  1.00  0.00     0.127 S 
ATOM     72  O   UNL     1      20.356   6.766   9.773  1.00  0.00    -0.237 OA
ATOM     73  O   UNL     1      21.236   8.166  11.598  1.00  0.00    -0.237 OA
ATOM     74  O   UNL     1      19.774   6.262  12.118  1.00  0.00    -0.744 OA
ENDBRANCH  68  71
ENDBRANCH  50  64
BRANCH  51  75
ATOM     75  C   UNL     1       7.289   6.698  14.436  1.00  0.00     0.023 A 
ATOM     76  C   UNL     1       6.551   7.641  15.178  1.00  0.00     0.012 A 
ATOM     77  C   UNL     1       6.697   5.463  14.110  1.00  0.00     0.148 A 
ATOM     78  C   UNL     1       5.258   7.349  15.611  1.00  0.00     0.002 A 
ATOM     79  C   UNL     1       5.387   5.202  14.493  1.00  0.00     0.091 A 
ATOM     80  F   UNL     1       7.420   4.579  13.409  1.00  0.00    -0.205 F 
ATOM     81  C   UNL     1       4.672   6.136  15.259  1.00  0.00     0.022 A 
BRANCH  79  82
ATOM     82  S   UNL     1       4.504   3.729  13.969  1.00  0.00     0.127 S 
ATOM     83  O   UNL     1       4.312   3.027  15.236  1.00  0.00    -0.237 OA
ATOM     84  O   UNL     1       3.287   4.301  13.390  1.00  0.00    -0.237 OA
ATOM     85  O   UNL     1       5.373   3.067  13.007  1.00  0.00    -0.744 OA
ENDBRANCH  79  82
ENDBRANCH  51  75
BRANCH  63  86
ATOM     86  C   UNL     1      13.285   8.045  17.738  1.00  0.00     0.023 A 
ATOM     87  C   UNL     1      13.338   6.851  18.486  1.00  0.00     0.012 A 
ATOM     88  C   UNL     1      13.612   9.264  18.366  1.00  0.00     0.148 A 
ATOM     89  C   UNL     1      13.658   6.875  19.844  1.00  0.00     0.002 A 
ATOM     90  C   UNL     1      13.983   9.274  19.706  1.00  0.00     0.091 A 
ATOM     91  F   UNL     1      13.539  10.394  17.648  1.00  0.00    -0.205 F 
ATOM     92  C   UNL     1      13.990   8.084  20.450  1.00  0.00     0.022 A 
BRANCH  90  93
ATOM     93  S   UNL     1      14.520  10.771  20.541  1.00  0.00     0.127 S 
ATOM     94  O   UNL     1      13.350  11.092  21.358  1.00  0.00    -0.237 OA
ATOM     95  O   UNL     1      15.683  10.306  21.298  1.00  0.00    -0.237 OA
ATOM     96  O   UNL     1      14.832  11.726  19.486  1.00  0.00    -0.744 OA
ENDBRANCH  90  93
ENDBRANCH  63  86
ENDBRANCH  37  38
ENDBRANCH  29  32
ENDBRANCH  27  28
ENDBRANCH  26  27
ENDBRANCH   1  26
TORSDOF 17
