REMARK SMILES CC(=O)c1ccc(N2CCN(c3ccc(C(=O)NCCCNC(=O)c4ccc(-c5c6nc(c(-c7cccc(S(=O)(=O)[O-])c7F)c7ccc([nH]7)c(-c7cccc(S(=O)(=O)[O-])c7F)c7nc(c(-c8cccc(S(=O)(=O)[O-])c8F)c8ccc5[nH]8)C=C7)C=C6)cc4)cc3NS(=O)(=O)c3ccc(C)cc3)CC2)cc1
REMARK SMILES IDX 20 1 19 2 18 3 16 4 17 5 15 7 12 8 13 9 89 10 14 11 88 12
REMARK SMILES IDX 11 13 8 14 9 15 102 16 10 17 101 18 7 19 4 20 5 21 104 22
REMARK SMILES IDX 6 23 103 24 2 25 1 26 3 27 90 28 91 30 92 31 93 32 94 33
REMARK SMILES IDX 95 34 100 35 96 36 99 37 97 38 98 39 21 40 22 41 23 42 24 44
REMARK SMILES IDX 25 45 26 46 87 47 27 48 86 49 28 50 29 51 30 52 80 53 31 54
REMARK SMILES IDX 85 55 79 56 81 57 32 58 84 59 78 60 77 61 33 63 65 64 45 65
REMARK SMILES IDX 64 66 46 67 49 68 63 69 82 70 47 71 48 72 62 74 83 75 50 76
REMARK SMILES IDX 34 77 35 78 43 79 36 80 38 81 44 82 37 83 39 84 40 85 41 86
REMARK SMILES IDX 42 87 66 88 67 89 75 90 68 91 70 92 76 93 69 94 71 95 72 96
REMARK SMILES IDX 73 97 74 98 51 99 52 100 60 101 53 102 55 103 61 104 54 105
REMARK SMILES IDX 56 106 57 107 58 108 59 109
REMARK H PARENT 18 6 90 29 22 43 81 62 49 73
REMARK Flexibility Score: inf
ROOT
ATOM      1  C   UNL     1       4.196   9.611 -11.602  1.00  0.00     0.042 C 
ENDROOT
BRANCH   1   2
ATOM      2  C   UNL     1       5.182  10.018  -9.694  1.00  0.00     0.118 C 
BRANCH   2   3
ATOM      3  N   UNL     1       5.226  11.302  -8.685  1.00  0.00    -0.352 N 
ATOM      4  C   UNL     1       5.443  11.321  -7.308  1.00  0.00     0.251 C 
ATOM      5  O   UNL     1       6.009  12.267  -6.772  1.00  0.00    -0.269 OA
ATOM      6  H   UNL     1       5.080  12.180  -9.105  1.00  0.00     0.163 HD
BRANCH   4   7
ATOM      7  C   UNL     1       4.981  10.177  -6.490  1.00  0.00     0.042 A 
ATOM      8  C   UNL     1       4.187   7.714  -5.417  1.00  0.00     0.061 A 
ATOM      9  C   UNL     1       5.208   8.476  -4.811  1.00  0.00     0.029 A 
ATOM     10  C   UNL     1       3.561   8.248  -6.551  1.00  0.00     0.073 A 
ATOM     11  C   UNL     1       5.655   9.678  -5.384  1.00  0.00     0.016 A 
ATOM     12  C   UNL     1       3.826   9.549  -6.904  1.00  0.00     0.042 A 
BRANCH   8  13
ATOM     13  N   UNL     1       3.741   6.564  -4.812  1.00  0.00    -0.366 N 
ATOM     14  N   UNL     1       2.038   4.321  -4.671  1.00  0.00    -0.368 N 
ATOM     15  C   UNL     1       1.472   5.660  -4.431  1.00  0.00     0.138 C 
ATOM     16  C   UNL     1       3.244   4.250  -5.519  1.00  0.00     0.138 C 
ATOM     17  C   UNL     1       2.571   6.619  -3.926  1.00  0.00     0.138 C 
ATOM     18  C   UNL     1       4.333   5.253  -5.071  1.00  0.00     0.138 C 
BRANCH  14  19
ATOM     19  C   UNL     1       1.647   3.284  -3.854  1.00  0.00     0.037 A 
ATOM     20  C   UNL     1       0.784   1.190  -2.173  1.00  0.00     0.017 A 
ATOM     21  C   UNL     1      -0.132   1.855  -2.989  1.00  0.00     0.014 A 
ATOM     22  C   UNL     1       2.131   1.560  -2.199  1.00  0.00     0.014 A 
ATOM     23  C   UNL     1       0.299   2.903  -3.805  1.00  0.00     0.026 A 
ATOM     24  C   UNL     1       2.555   2.591  -3.046  1.00  0.00     0.026 A 
BRANCH  20  25
ATOM     25  C   UNL     1       0.289   0.099  -1.297  1.00  0.00     0.159 C 
ATOM     26  C   UNL     1       0.912  -0.055   0.065  1.00  0.00     0.093 C 
ATOM     27  O   UNL     1      -0.636  -0.616  -1.670  1.00  0.00    -0.295 OA
ENDBRANCH  20  25
ENDBRANCH  14  19
ENDBRANCH   8  13
BRANCH  10  28
ATOM     28  N   UNL     1       2.723   7.500  -7.453  1.00  0.00    -0.277 N 
ATOM     29  H   UNL     1       1.773   7.339  -7.252  1.00  0.00     0.180 HD
BRANCH  28  30
ATOM     30  S   UNL     1       3.443   6.898  -8.900  1.00  0.00     0.261 S 
ATOM     31  O   UNL     1       4.670   6.222  -8.524  1.00  0.00    -0.201 OA
ATOM     32  O   UNL     1       2.409   6.189  -9.617  1.00  0.00    -0.201 OA
BRANCH  30  33
ATOM     33  C   UNL     1       3.927   8.285  -9.938  1.00  0.00     0.087 A 
ATOM     34  C   UNL     1       5.555   8.206 -10.721  1.00  0.00     0.022 A 
ATOM     35  C   UNL     1       3.063   9.852  -9.811  1.00  0.00     0.022 A 
ATOM     36  C   UNL     1       6.279   9.687 -11.469  1.00  0.00     0.005 A 
ATOM     37  C   UNL     1       3.774  11.338 -10.537  1.00  0.00     0.005 A 
ATOM     38  C   UNL     1       5.421  11.275 -11.308  1.00  0.00    -0.051 A 
ATOM     39  C   UNL     1       6.065  12.554 -11.756  1.00  0.00     0.044 C 
ENDBRANCH  30  33
ENDBRANCH  28  30
ENDBRANCH  10  28
ENDBRANCH   4   7
ENDBRANCH   2   3
ENDBRANCH   1   2
BRANCH   1  40
ATOM     40  C   UNL     1       4.029  10.443 -13.102  1.00  0.00     0.118 C 
BRANCH  40  41
ATOM     41  N   UNL     1       5.117  10.299 -14.074  1.00  0.00    -0.352 N 
ATOM     42  C   UNL     1       5.088  10.571 -15.418  1.00  0.00     0.251 C 
ATOM     43  H   UNL     1       5.973   9.966 -13.718  1.00  0.00     0.163 HD
ATOM     44  O   UNL     1       6.056  10.341 -16.134  1.00  0.00    -0.269 OA
BRANCH  42  45
ATOM     45  C   UNL     1       3.843  11.107 -15.988  1.00  0.00     0.039 A 
ATOM     46  C   UNL     1       3.172  10.363 -16.960  1.00  0.00     0.014 A 
ATOM     47  C   UNL     1       3.316  12.304 -15.499  1.00  0.00     0.014 A 
ATOM     48  C   UNL     1       1.935  10.807 -17.419  1.00  0.00     0.010 A 
ATOM     49  C   UNL     1       2.054  12.708 -15.910  1.00  0.00     0.010 A 
ATOM     50  C   UNL     1       1.362  11.972 -16.883  1.00  0.00    -0.014 A 
BRANCH  50  51
ATOM     51  C   UNL     1       0.045  12.450 -17.354  1.00  0.00     0.031 A 
ATOM     52  C   UNL     1      -0.041  13.741 -18.117  1.00  0.00     0.074 A 
ATOM     53  C   UNL     1      -1.065  11.762 -17.022  1.00  0.00     0.049 A 
ATOM     54  N   UNL     1      -1.093  14.337 -18.608  1.00  0.00    -0.248 NA
ATOM     55  C   UNL     1       1.218  14.479 -18.327  1.00  0.00     0.031 C 
ATOM     56  C   UNL     1      -1.094  10.556 -16.191  1.00  0.00     0.029 A 
ATOM     57  N   UNL     1      -2.383  11.993 -17.317  1.00  0.00    -0.354 N 
ATOM     58  C   UNL     1      -0.633  15.534 -19.145  1.00  0.00     0.074 A 
ATOM     59  C   UNL     1       0.788  15.597 -18.893  1.00  0.00     0.031 C 
ATOM     60  C   UNL     1      -2.367  10.155 -16.041  1.00  0.00     0.029 A 
ATOM     61  C   UNL     1      -3.243  11.078 -16.755  1.00  0.00     0.049 A 
ATOM     62  H   UNL     1      -2.686  12.742 -17.879  1.00  0.00     0.167 HD
ATOM     63  C   UNL     1      -1.332  16.479 -19.814  1.00  0.00     0.034 A 
ATOM     64  C   UNL     1      -4.586  10.998 -16.816  1.00  0.00     0.034 A 
ATOM     65  C   UNL     1      -2.732  16.363 -20.110  1.00  0.00     0.049 A 
ATOM     66  C   UNL     1      -5.323  12.005 -17.659  1.00  0.00     0.074 A 
ATOM     67  C   UNL     1      -3.519  17.192 -20.888  1.00  0.00     0.029 A 
ATOM     68  N   UNL     1      -3.555  15.354 -19.633  1.00  0.00    -0.354 N 
ATOM     69  N   UNL     1      -4.842  13.024 -18.331  1.00  0.00    -0.248 NA
ATOM     70  C   UNL     1      -6.775  11.828 -17.793  1.00  0.00     0.031 C 
ATOM     71  C   UNL     1      -4.825  16.693 -20.864  1.00  0.00     0.029 A 
ATOM     72  C   UNL     1      -4.846  15.543 -20.089  1.00  0.00     0.049 A 
ATOM     73  H   UNL     1      -3.263  14.613 -19.055  1.00  0.00     0.167 HD
ATOM     74  C   UNL     1      -5.925  13.593 -18.990  1.00  0.00     0.074 A 
ATOM     75  C   UNL     1      -7.083  12.786 -18.657  1.00  0.00     0.031 C 
ATOM     76  C   UNL     1      -5.966  14.692 -19.782  1.00  0.00     0.034 A 
BRANCH  63  77
ATOM     77  C   UNL     1      -0.586  17.685 -20.318  1.00  0.00     0.023 A 
ATOM     78  C   UNL     1       0.310  17.552 -21.399  1.00  0.00     0.012 A 
ATOM     79  C   UNL     1      -0.814  18.959 -19.763  1.00  0.00     0.148 A 
ATOM     80  C   UNL     1       0.991  18.661 -21.899  1.00  0.00     0.002 A 
ATOM     81  C   UNL     1      -0.165  20.067 -20.296  1.00  0.00     0.091 A 
ATOM     82  F   UNL     1      -1.652  19.062 -18.722  1.00  0.00    -0.205 F 
ATOM     83  C   UNL     1       0.745  19.919 -21.355  1.00  0.00     0.022 A 
BRANCH  81  84
ATOM     84  S   UNL     1      -0.466  21.741 -19.717  1.00  0.00     0.127 S 
ATOM     85  O   UNL     1       0.816  22.074 -19.098  1.00  0.00    -0.237 OA
ATOM     86  O   UNL     1      -0.743  22.451 -20.966  1.00  0.00    -0.237 OA
ATOM     87  O   UNL     1      -1.595  21.655 -18.801  1.00  0.00    -0.744 OA
ENDBRANCH  81  84
ENDBRANCH  63  77
BRANCH  64  88
ATOM     88  C   UNL     1      -5.302   9.888 -16.126  1.00  0.00     0.023 A 
ATOM     89  C   UNL     1      -5.902   8.866 -16.888  1.00  0.00     0.012 A 
ATOM     90  C   UNL     1      -5.363   9.818 -14.721  1.00  0.00     0.148 A 
ATOM     91  C   UNL     1      -6.578   7.815 -16.265  1.00  0.00     0.002 A 
ATOM     92  C   UNL     1      -5.992   8.740 -14.105  1.00  0.00     0.091 A 
ATOM     93  F   UNL     1      -4.800  10.805 -14.009  1.00  0.00    -0.205 F 
ATOM     94  C   UNL     1      -6.614   7.746 -14.875  1.00  0.00     0.022 A 
BRANCH  92  95
ATOM     95  S   UNL     1      -5.962   8.512 -12.323  1.00  0.00     0.127 S 
ATOM     96  O   UNL     1      -7.303   8.947 -11.942  1.00  0.00    -0.237 OA
ATOM     97  O   UNL     1      -5.723   7.073 -12.200  1.00  0.00    -0.237 OA
ATOM     98  O   UNL     1      -4.861   9.340 -11.847  1.00  0.00    -0.744 OA
ENDBRANCH  92  95
ENDBRANCH  64  88
BRANCH  76  99
ATOM     99  C   UNL     1      -7.298  15.079 -20.363  1.00  0.00     0.023 A 
ATOM    100  C   UNL     1      -8.275  15.664 -19.535  1.00  0.00     0.012 A 
ATOM    101  C   UNL     1      -7.542  14.951 -21.744  1.00  0.00     0.148 A 
ATOM    102  C   UNL     1      -9.489  16.091 -20.068  1.00  0.00     0.002 A 
ATOM    103  C   UNL     1      -8.734  15.425 -22.277  1.00  0.00     0.091 A 
ATOM    104  F   UNL     1      -6.604  14.374 -22.510  1.00  0.00    -0.205 F 
ATOM    105  C   UNL     1      -9.713  15.984 -21.439  1.00  0.00     0.022 A 
BRANCH 103 106
ATOM    106  S   UNL     1      -9.061  15.422 -24.043  1.00  0.00     0.127 S 
ATOM    107  O   UNL     1     -10.033  14.337 -24.164  1.00  0.00    -0.237 OA
ATOM    108  O   UNL     1      -9.611  16.761 -24.259  1.00  0.00    -0.237 OA
ATOM    109  O   UNL     1      -7.776  15.188 -24.688  1.00  0.00    -0.744 OA
ENDBRANCH 103 106
ENDBRANCH  76  99
ENDBRANCH  50  51
ENDBRANCH  42  45
ENDBRANCH  40  41
ENDBRANCH   1  40
TORSDOF 19
