REMARK SMILES CCc1ccc(-c2cc(Cl)cc3c2O[C@H](C(F)(F)F)C(C(=O)NCCCNC(=O)c2ccc(-c4c5nc(c(-c6cccc(S(=O)(=O)[O-])c6F)c6ccc([nH]6)c(-c6cccc(S(=O)(=O)[O-])c6F)c6nc(c(-c7cccc(S(=O)(=O)[O-])c7F)c7ccc4[nH]7)C=C6)C=C5)cc2)=C3)cc1
REMARK SMILES IDX 25 1 24 2 23 3 21 4 22 5 20 7 7 8 8 9 13 10 9 11 12 12 14 13
REMARK SMILES IDX 10 14 11 15 93 16 15 17 6 18 3 19 4 20 95 21 5 22 94 23 2 24
REMARK SMILES IDX 1 25 16 26 17 27 18 28 19 29 26 30 27 31 28 32 29 34 30 35
REMARK SMILES IDX 31 36 92 37 32 38 91 39 33 40 34 41 35 42 85 43 36 44 90 45
REMARK SMILES IDX 84 46 86 47 37 48 89 49 83 50 82 51 38 53 70 54 50 55 69 56
REMARK SMILES IDX 51 57 54 58 68 59 87 60 52 61 53 62 67 64 88 65 55 66 39 67
REMARK SMILES IDX 40 68 48 69 41 70 43 71 49 72 42 73 44 74 45 75 46 76 47 77
REMARK SMILES IDX 71 78 72 79 80 80 73 81 75 82 81 83 74 84 76 85 77 86 78 87
REMARK SMILES IDX 79 88 56 89 57 90 65 91 58 92 60 93 66 94 59 95 61 96 62 97
REMARK SMILES IDX 63 98 64 99
REMARK H PARENT 23 6 27 33 86 52 54 63
REMARK Flexibility Score: inf
ROOT
ATOM      1  C   UNL     1       6.425  10.126  -9.444  1.00  0.00     0.042 C 
ENDROOT
BRANCH   1   2
ATOM      2  C   UNL     1       5.096  10.122  -8.685  1.00  0.00     0.118 C 
BRANCH   2   3
ATOM      3  N   UNL     1       4.417   8.856  -8.874  1.00  0.00    -0.352 N 
ATOM      4  C   UNL     1       4.086   7.958  -7.915  1.00  0.00     0.251 C 
ATOM      5  O   UNL     1       4.187   6.758  -8.143  1.00  0.00    -0.270 OA
ATOM      6  H   UNL     1       4.171   8.623  -9.799  1.00  0.00     0.163 HD
BRANCH   4   7
ATOM      7  C   UNL     1       3.454   8.490  -6.671  1.00  0.00     0.067 C 
ATOM      8  C   UNL     1       2.363   4.995  -4.887  1.00  0.00     0.026 A 
ATOM      9  C   UNL     1       1.774   4.169  -5.879  1.00  0.00     0.033 A 
ATOM     10  C   UNL     1       2.553   6.343  -5.229  1.00  0.00     0.135 A 
ATOM     11  C   UNL     1       1.245   4.685  -7.060  1.00  0.00     0.042 A 
ATOM     12  C   UNL     1       1.908   6.867  -6.375  1.00  0.00     0.019 A 
ATOM     13  O   UNL     1       3.377   7.192  -4.508  1.00  0.00    -0.475 OA
ATOM     14  Cl  UNL     1       0.540   3.623  -8.214  1.00  0.00    -0.084 Cl
ATOM     15  C   UNL     1       1.246   6.049  -7.284  1.00  0.00     0.032 A 
ATOM     16  C   UNL     1       2.119   8.301  -6.680  1.00  0.00     0.025 C 
ATOM     17  C   UNL     1       4.172   8.107  -5.380  1.00  0.00     0.314 C 
BRANCH   8  18
ATOM     18  C   UNL     1       2.447   4.394  -3.531  1.00  0.00    -0.015 A 
ATOM     19  C   UNL     1       1.539   2.773  -1.371  1.00  0.00    -0.048 A 
ATOM     20  C   UNL     1       2.471   2.280  -2.289  1.00  0.00     0.004 A 
ATOM     21  C   UNL     1       1.195   4.131  -1.454  1.00  0.00     0.004 A 
ATOM     22  C   UNL     1       2.932   3.086  -3.344  1.00  0.00     0.009 A 
ATOM     23  C   UNL     1       1.650   4.933  -2.510  1.00  0.00     0.009 A 
BRANCH  19  24
ATOM     24  C   UNL     1       0.823   1.918  -0.347  1.00  0.00     0.032 C 
ATOM     25  C   UNL     1       1.126   0.424  -0.335  1.00  0.00     0.009 C 
ENDBRANCH  19  24
ENDBRANCH   8  18
BRANCH  17  26
ATOM     26  C   UNL     1       4.563   9.398  -4.628  1.00  0.00     0.429 C 
ATOM     27  F   UNL     1       3.918   9.528  -3.446  1.00  0.00    -0.167 F 
ATOM     28  F   UNL     1       5.892   9.437  -4.373  1.00  0.00    -0.167 F 
ATOM     29  F   UNL     1       4.279  10.521  -5.341  1.00  0.00    -0.167 F 
ENDBRANCH  17  26
ENDBRANCH   4   7
ENDBRANCH   2   3
ENDBRANCH   1   2
BRANCH   1  30
ATOM     30  C   UNL     1       6.301   9.954 -10.957  1.00  0.00     0.118 C 
BRANCH  30  31
ATOM     31  N   UNL     1       5.529  11.010 -11.595  1.00  0.00    -0.352 N 
ATOM     32  C   UNL     1       5.849  11.769 -12.695  1.00  0.00     0.251 C 
ATOM     33  H   UNL     1       4.658  11.209 -11.180  1.00  0.00     0.163 HD
ATOM     34  O   UNL     1       5.135  12.716 -13.016  1.00  0.00    -0.269 OA
BRANCH  32  35
ATOM     35  C   UNL     1       7.068  11.458 -13.470  1.00  0.00     0.039 A 
ATOM     36  C   UNL     1       7.948  12.494 -13.791  1.00  0.00     0.014 A 
ATOM     37  C   UNL     1       7.356  10.145 -13.853  1.00  0.00     0.014 A 
ATOM     38  C   UNL     1       9.154  12.202 -14.433  1.00  0.00     0.010 A 
ATOM     39  C   UNL     1       8.592   9.848 -14.423  1.00  0.00     0.010 A 
ATOM     40  C   UNL     1       9.506  10.872 -14.718  1.00  0.00    -0.014 A 
BRANCH  40  41
ATOM     41  C   UNL     1      10.832  10.528 -15.298  1.00  0.00     0.031 A 
ATOM     42  C   UNL     1      10.922   9.842 -16.635  1.00  0.00     0.074 A 
ATOM     43  C   UNL     1      11.950  10.743 -14.575  1.00  0.00     0.049 A 
ATOM     44  N   UNL     1      11.979   9.398 -17.263  1.00  0.00    -0.248 NA
ATOM     45  C   UNL     1       9.657   9.596 -17.348  1.00  0.00     0.031 C 
ATOM     46  C   UNL     1      11.992  11.319 -13.229  1.00  0.00     0.029 A 
ATOM     47  N   UNL     1      13.267  10.473 -14.857  1.00  0.00    -0.354 N 
ATOM     48  C   UNL     1      11.508   8.784 -18.417  1.00  0.00     0.074 A 
ATOM     49  C   UNL     1      10.066   8.888 -18.392  1.00  0.00     0.031 C 
ATOM     50  C   UNL     1      13.265  11.356 -12.803  1.00  0.00     0.029 A 
ATOM     51  C   UNL     1      14.128  10.780 -13.828  1.00  0.00     0.049 A 
ATOM     52  H   UNL     1      13.567  10.094 -15.715  1.00  0.00     0.167 HD
ATOM     53  C   UNL     1      12.212   8.210 -19.422  1.00  0.00     0.034 A 
ATOM     54  C   UNL     1      15.460  10.607 -13.717  1.00  0.00     0.034 A 
ATOM     55  C   UNL     1      13.648   8.159 -19.473  1.00  0.00     0.049 A 
ATOM     56  C   UNL     1      16.221  10.018 -14.875  1.00  0.00     0.074 A 
ATOM     57  C   UNL     1      14.454   7.696 -20.498  1.00  0.00     0.029 A 
ATOM     58  N   UNL     1      14.492   8.578 -18.458  1.00  0.00    -0.354 N 
ATOM     59  N   UNL     1      15.769   9.604 -16.033  1.00  0.00    -0.248 NA
ATOM     60  C   UNL     1      17.680   9.907 -14.726  1.00  0.00     0.031 C 
ATOM     61  C   UNL     1      15.787   7.813 -20.093  1.00  0.00     0.029 A 
ATOM     62  C   UNL     1      15.811   8.376 -18.827  1.00  0.00     0.049 A 
ATOM     63  H   UNL     1      14.198   8.964 -17.601  1.00  0.00     0.167 HD
ATOM     64  C   UNL     1      16.888   9.219 -16.763  1.00  0.00     0.074 A 
ATOM     65  C   UNL     1      18.041   9.472 -15.926  1.00  0.00     0.031 C 
ATOM     66  C   UNL     1      16.953   8.688 -18.009  1.00  0.00     0.034 A 
BRANCH  53  67
ATOM     67  C   UNL     1      11.446   7.636 -20.585  1.00  0.00     0.023 A 
ATOM     68  C   UNL     1      10.824   8.506 -21.504  1.00  0.00     0.012 A 
ATOM     69  C   UNL     1      11.416   6.247 -20.818  1.00  0.00     0.148 A 
ATOM     70  C   UNL     1      10.161   8.001 -22.622  1.00  0.00     0.002 A 
ATOM     71  C   UNL     1      10.792   5.755 -21.958  1.00  0.00     0.091 A 
ATOM     72  F   UNL     1      11.998   5.437 -19.923  1.00  0.00    -0.205 F 
ATOM     73  C   UNL     1      10.155   6.629 -22.855  1.00  0.00     0.022 A 
BRANCH  71  74
ATOM     74  S   UNL     1      10.799   4.012 -22.395  1.00  0.00     0.127 S 
ATOM     75  O   UNL     1       9.387   3.663 -22.237  1.00  0.00    -0.237 OA
ATOM     76  O   UNL     1      11.267   4.045 -23.780  1.00  0.00    -0.237 OA
ATOM     77  O   UNL     1      11.707   3.365 -21.459  1.00  0.00    -0.744 OA
ENDBRANCH  71  74
ENDBRANCH  53  67
BRANCH  54  78
ATOM     78  C   UNL     1      16.174  11.044 -12.482  1.00  0.00     0.023 A 
ATOM     79  C   UNL     1      17.054  12.142 -12.541  1.00  0.00     0.012 A 
ATOM     80  C   UNL     1      15.983  10.385 -11.252  1.00  0.00     0.148 A 
ATOM     81  C   UNL     1      17.762  12.550 -11.410  1.00  0.00     0.002 A 
ATOM     82  C   UNL     1      16.647  10.833 -10.116  1.00  0.00     0.091 A 
ATOM     83  F   UNL     1      15.153   9.333 -11.216  1.00  0.00    -0.205 F 
ATOM     84  C   UNL     1      17.552  11.902 -10.196  1.00  0.00     0.022 A 
BRANCH  82  85
ATOM     85  S   UNL     1      16.330  10.143  -8.488  1.00  0.00     0.127 S 
ATOM     86  O   UNL     1      17.532   9.344  -8.262  1.00  0.00    -0.237 OA
ATOM     87  O   UNL     1      16.225  11.347  -7.662  1.00  0.00    -0.237 OA
ATOM     88  O   UNL     1      15.084   9.399  -8.617  1.00  0.00    -0.744 OA
ENDBRANCH  82  85
ENDBRANCH  54  78
BRANCH  66  89
ATOM     89  C   UNL     1      18.316   8.379 -18.569  1.00  0.00     0.023 A 
ATOM     90  C   UNL     1      19.049   7.284 -18.070  1.00  0.00     0.012 A 
ATOM     91  C   UNL     1      18.834   9.125 -19.646  1.00  0.00     0.148 A 
ATOM     92  C   UNL     1      20.291   6.956 -18.612  1.00  0.00     0.002 A 
ATOM     93  C   UNL     1      20.049   8.762 -20.215  1.00  0.00     0.091 A 
ATOM     94  F   UNL     1      18.130  10.174 -20.095  1.00  0.00    -0.205 F 
ATOM     95  C   UNL     1      20.784   7.686 -19.691  1.00  0.00     0.022 A 
BRANCH  93  96
ATOM     96  S   UNL     1      20.715   9.581 -21.668  1.00  0.00     0.127 S 
ATOM     97  O   UNL     1      21.830  10.336 -21.100  1.00  0.00    -0.237 OA
ATOM     98  O   UNL     1      21.109   8.450 -22.509  1.00  0.00    -0.237 OA
ATOM     99  O   UNL     1      19.627  10.386 -22.209  1.00  0.00    -0.744 OA
ENDBRANCH  93  96
ENDBRANCH  66  89
ENDBRANCH  40  41
ENDBRANCH  32  35
ENDBRANCH  30  31
ENDBRANCH   1  30
TORSDOF 16
