REMARK SMILES CC(=O)Nc1ccc(/C(=C\c2ccc(S(C)(=O)=O)cc2)C(=O)NCCCNC(=O)c2ccc(-c3c4nc(c(-c5cccc(S(=O)(=O)[O-])c5F)c5ccc([nH]5)c(-c5cccc(S(=O)(=O)[O-])c5F)c5nc(c(-c6cccc(S(=O)(=O)[O-])c6F)c6ccc3[nH]6)C=C5)C=C4)cc2)cc1
REMARK SMILES IDX 25 1 24 2 23 3 21 4 22 5 9 7 10 8 8 9 5 10 6 11 94 12 7 13
REMARK SMILES IDX 93 14 4 15 1 16 2 17 3 18 11 20 12 21 20 22 13 23 19 24
REMARK SMILES IDX 14 25 15 26 16 27 17 28 18 29 26 30 27 31 28 32 29 34 30 35
REMARK SMILES IDX 31 36 92 37 32 38 91 39 33 40 34 41 35 42 85 43 36 44 90 45
REMARK SMILES IDX 84 46 86 47 37 48 89 49 83 50 82 51 38 53 70 54 50 55 69 56
REMARK SMILES IDX 51 57 54 58 68 59 87 60 52 61 53 62 67 64 88 65 55 66 39 67
REMARK SMILES IDX 40 68 48 69 41 70 43 71 49 72 42 73 44 74 45 75 46 76 47 77
REMARK SMILES IDX 71 78 72 79 80 80 73 81 75 82 81 83 74 84 76 85 77 86 78 87
REMARK SMILES IDX 79 88 56 89 57 90 65 91 58 92 60 93 66 94 59 95 61 96 62 97
REMARK SMILES IDX 63 98 64 99
REMARK H PARENT 23 6 4 19 27 33 86 52 54 63
REMARK Flexibility Score: inf
ROOT
ATOM      1  C   UNL     1       6.471   5.896   5.946  1.00  0.00     0.042 C 
ENDROOT
BRANCH   1   2
ATOM      2  C   UNL     1       6.807   5.971   4.455  1.00  0.00     0.118 C 
BRANCH   2   3
ATOM      3  N   UNL     1       6.657   4.676   3.821  1.00  0.00    -0.352 N 
ATOM      4  C   UNL     1       5.728   4.072   3.038  1.00  0.00     0.251 C 
ATOM      5  O   UNL     1       6.065   2.939   2.682  1.00  0.00    -0.269 OA
ATOM      6  H   UNL     1       7.423   4.085   4.006  1.00  0.00     0.163 HD
BRANCH   4   7
ATOM      7  C   UNL     1       4.419   4.707   2.563  1.00  0.00     0.047 C 
ATOM      8  C   UNL     1       3.889   5.705   3.312  1.00  0.00     0.022 C 
BRANCH   7   9
ATOM      9  C   UNL     1       3.660   4.088   1.407  1.00  0.00    -0.013 A 
ATOM     10  C   UNL     1       1.897   2.760  -0.421  1.00  0.00     0.041 A 
ATOM     11  C   UNL     1       1.915   4.152  -0.323  1.00  0.00     0.027 A 
ATOM     12  C   UNL     1       2.863   2.055   0.273  1.00  0.00     0.027 A 
ATOM     13  C   UNL     1       2.809   4.803   0.550  1.00  0.00     0.011 A 
ATOM     14  C   UNL     1       3.699   2.701   1.191  1.00  0.00     0.011 A 
BRANCH  10  15
ATOM     15  N   UNL     1       0.913   2.163  -1.227  1.00  0.00    -0.326 N 
ATOM     16  C   UNL     1       0.813  -0.142  -0.250  1.00  0.00     0.114 C 
ATOM     17  C   UNL     1       0.434   0.884  -1.286  1.00  0.00     0.221 C 
ATOM     18  O   UNL     1      -0.359   0.592  -2.186  1.00  0.00    -0.275 OA
ATOM     19  H   UNL     1       0.490   2.780  -1.868  1.00  0.00     0.169 HD
ENDBRANCH  10  15
ENDBRANCH   7   9
BRANCH   8  20
ATOM     20  C   UNL     1       2.727   6.567   3.057  1.00  0.00    -0.025 A 
ATOM     21  C   UNL     1       2.963   7.888   2.639  1.00  0.00     0.009 A 
ATOM     22  C   UNL     1       1.415   6.101   3.168  1.00  0.00     0.009 A 
ATOM     23  C   UNL     1       1.901   8.717   2.279  1.00  0.00     0.021 A 
ATOM     24  C   UNL     1       0.346   6.925   2.803  1.00  0.00     0.021 A 
ATOM     25  C   UNL     1       0.596   8.225   2.354  1.00  0.00     0.067 A 
BRANCH  25  26
ATOM     26  S   UNL     1      -0.741   9.239   1.768  1.00  0.00     0.175 S 
ATOM     27  C   UNL     1      -1.032  10.370   3.101  1.00  0.00     0.163 C 
ATOM     28  O   UNL     1      -0.242   9.989   0.632  1.00  0.00    -0.224 OA
ATOM     29  O   UNL     1      -1.911   8.389   1.631  1.00  0.00    -0.224 OA
ENDBRANCH  25  26
ENDBRANCH   8  20
ENDBRANCH   4   7
ENDBRANCH   2   3
ENDBRANCH   1   2
BRANCH   1  30
ATOM     30  C   UNL     1       7.493   5.107   6.766  1.00  0.00     0.118 C 
BRANCH  30  31
ATOM     31  N   UNL     1       8.810   5.729   6.734  1.00  0.00    -0.352 N 
ATOM     32  C   UNL     1       9.539   6.310   7.740  1.00  0.00     0.251 C 
ATOM     33  H   UNL     1       9.245   5.732   5.851  1.00  0.00     0.163 HD
ATOM     34  O   UNL     1      10.489   7.031   7.447  1.00  0.00    -0.269 OA
BRANCH  32  35
ATOM     35  C   UNL     1       9.201   6.068   9.159  1.00  0.00     0.039 A 
ATOM     36  C   UNL     1       9.353   7.112  10.076  1.00  0.00     0.014 A 
ATOM     37  C   UNL     1       8.804   4.803   9.602  1.00  0.00     0.014 A 
ATOM     38  C   UNL     1       9.073   6.896  11.427  1.00  0.00     0.010 A 
ATOM     39  C   UNL     1       8.445   4.612  10.934  1.00  0.00     0.010 A 
ATOM     40  C   UNL     1       8.595   5.650  11.865  1.00  0.00    -0.014 A 
BRANCH  40  41
ATOM     41  C   UNL     1       8.253   5.420  13.292  1.00  0.00     0.031 A 
ATOM     42  C   UNL     1       8.995   4.387  14.098  1.00  0.00     0.074 A 
ATOM     43  C   UNL     1       7.228   6.099  13.844  1.00  0.00     0.049 A 
ATOM     44  N   UNL     1       8.820   4.034  15.345  1.00  0.00    -0.248 NA
ATOM     45  C   UNL     1      10.054   3.631  13.407  1.00  0.00     0.031 C 
ATOM     46  C   UNL     1       6.382   7.067  13.143  1.00  0.00     0.029 A 
ATOM     47  N   UNL     1       6.710   6.064  15.114  1.00  0.00    -0.354 N 
ATOM     48  C   UNL     1       9.716   2.997  15.578  1.00  0.00     0.074 A 
ATOM     49  C   UNL     1      10.408   2.751  14.332  1.00  0.00     0.031 C 
ATOM     50  C   UNL     1       5.459   7.542  13.994  1.00  0.00     0.029 A 
ATOM     51  C   UNL     1       5.624   6.890  15.289  1.00  0.00     0.049 A 
ATOM     52  H   UNL     1       7.079   5.500  15.832  1.00  0.00     0.167 HD
ATOM     53  C   UNL     1       9.962   2.328  16.730  1.00  0.00     0.034 A 
ATOM     54  C   UNL     1       4.843   7.093  16.368  1.00  0.00     0.034 A 
ATOM     55  C   UNL     1       9.294   2.600  17.974  1.00  0.00     0.049 A 
ATOM     56  C   UNL     1       5.163   6.366  17.645  1.00  0.00     0.074 A 
ATOM     57  C   UNL     1       9.529   2.040  19.218  1.00  0.00     0.029 A 
ATOM     58  N   UNL     1       8.251   3.500  18.132  1.00  0.00    -0.354 N 
ATOM     59  N   UNL     1       6.119   5.501  17.885  1.00  0.00    -0.248 NA
ATOM     60  C   UNL     1       4.322   6.672  18.811  1.00  0.00     0.031 C 
ATOM     61  C   UNL     1       8.604   2.576  20.120  1.00  0.00     0.029 A 
ATOM     62  C   UNL     1       7.822   3.502  19.448  1.00  0.00     0.049 A 
ATOM     63  H   UNL     1       7.872   4.056  17.414  1.00  0.00     0.167 HD
ATOM     64  C   UNL     1       6.020   5.190  19.236  1.00  0.00     0.074 A 
ATOM     65  C   UNL     1       4.924   5.977  19.765  1.00  0.00     0.031 C 
ATOM     66  C   UNL     1       6.760   4.323  19.971  1.00  0.00     0.034 A 
BRANCH  53  67
ATOM     67  C   UNL     1      11.027   1.260  16.709  1.00  0.00     0.023 A 
ATOM     68  C   UNL     1      12.382   1.624  16.565  1.00  0.00     0.012 A 
ATOM     69  C   UNL     1      10.694  -0.097  16.890  1.00  0.00     0.148 A 
ATOM     70  C   UNL     1      13.384   0.654  16.560  1.00  0.00     0.002 A 
ATOM     71  C   UNL     1      11.702  -1.054  16.934  1.00  0.00     0.091 A 
ATOM     72  F   UNL     1       9.400  -0.428  17.006  1.00  0.00    -0.205 F 
ATOM     73  C   UNL     1      13.045  -0.682  16.755  1.00  0.00     0.022 A 
BRANCH  71  74
ATOM     74  S   UNL     1      11.380  -2.790  17.264  1.00  0.00     0.127 S 
ATOM     75  O   UNL     1      11.697  -3.398  15.972  1.00  0.00    -0.237 OA
ATOM     76  O   UNL     1      12.340  -3.083  18.328  1.00  0.00    -0.237 OA
ATOM     77  O   UNL     1       9.982  -2.871  17.664  1.00  0.00    -0.744 OA
ENDBRANCH  71  74
ENDBRANCH  53  67
BRANCH  54  78
ATOM     78  C   UNL     1       3.720   8.071  16.302  1.00  0.00     0.023 A 
ATOM     79  C   UNL     1       3.802   9.274  17.030  1.00  0.00     0.012 A 
ATOM     80  C   UNL     1       2.586   7.827  15.504  1.00  0.00     0.148 A 
ATOM     81  C   UNL     1       2.757  10.198  16.996  1.00  0.00     0.002 A 
ATOM     82  C   UNL     1       1.576   8.778  15.427  1.00  0.00     0.091 A 
ATOM     83  F   UNL     1       2.525   6.674  14.824  1.00  0.00    -0.205 F 
ATOM     84  C   UNL     1       1.649   9.955  16.188  1.00  0.00     0.022 A 
BRANCH  82  85
ATOM     85  S   UNL     1       0.180   8.613  14.309  1.00  0.00     0.127 S 
ATOM     86  O   UNL     1      -0.928   8.415  15.240  1.00  0.00    -0.237 OA
ATOM     87  O   UNL     1       0.188   9.907  13.626  1.00  0.00    -0.237 OA
ATOM     88  O   UNL     1       0.494   7.480  13.450  1.00  0.00    -0.744 OA
ENDBRANCH  82  85
ENDBRANCH  54  78
BRANCH  66  89
ATOM     89  C   UNL     1       6.446   4.211  21.440  1.00  0.00     0.023 A 
ATOM     90  C   UNL     1       5.253   3.594  21.864  1.00  0.00     0.012 A 
ATOM     91  C   UNL     1       7.369   4.667  22.403  1.00  0.00     0.148 A 
ATOM     92  C   UNL     1       4.962   3.472  23.223  1.00  0.00     0.002 A 
ATOM     93  C   UNL     1       7.098   4.491  23.755  1.00  0.00     0.091 A 
ATOM     94  F   UNL     1       8.491   5.266  21.981  1.00  0.00    -0.205 F 
ATOM     95  C   UNL     1       5.889   3.909  24.167  1.00  0.00     0.022 A 
BRANCH  93  96
ATOM     96  S   UNL     1       8.277   4.930  25.036  1.00  0.00     0.127 S 
ATOM     97  O   UNL     1       7.646   6.108  25.630  1.00  0.00    -0.237 OA
ATOM     98  O   UNL     1       8.268   3.740  25.886  1.00  0.00    -0.237 OA
ATOM     99  O   UNL     1       9.540   5.176  24.354  1.00  0.00    -0.744 OA
ENDBRANCH  93  96
ENDBRANCH  66  89
ENDBRANCH  40  41
ENDBRANCH  32  35
ENDBRANCH  30  31
ENDBRANCH   1  30
TORSDOF 17
