REMARK SMILES O=C(CNC(=O)c1ccco1)Nc1cccc(C(=O)NCCCNC(=O)c2ccc(-c3c4nc(c(-c5cccc(S(=O)(=O)[O-])c5F)c5ccc([nH]5)c(-c5cccc(S(=O)(=O)[O-])c5F)c5nc(c(-c6cccc(S(=O)(=O)[O-])c6F)c6ccc3[nH]6)C=C5)C=C4)cc2)c1
REMARK SMILES IDX 21 1 20 2 18 3 19 4 17 6 13 7 14 8 90 9 15 10 16 11 12 12
REMARK SMILES IDX 1 13 2 14 3 16 4 17 5 18 6 20 7 21 8 22 11 23 9 24 10 25
REMARK SMILES IDX 22 26 23 27 24 28 25 29 26 31 27 32 28 33 89 34 29 35 88 36
REMARK SMILES IDX 30 37 31 38 32 39 82 40 33 41 87 42 81 43 83 44 34 45 86 46
REMARK SMILES IDX 80 47 79 48 35 50 67 51 47 52 66 53 48 54 51 55 65 56 84 57
REMARK SMILES IDX 49 58 50 59 64 61 85 62 52 63 36 64 37 65 45 66 38 67 40 68
REMARK SMILES IDX 46 69 39 70 41 71 42 72 43 73 44 74 68 75 69 76 77 77 70 78
REMARK SMILES IDX 72 79 78 80 71 81 73 82 74 83 75 84 76 85 53 86 54 87 62 88
REMARK SMILES IDX 55 89 57 90 63 91 56 92 58 93 59 94 60 95 61 96
REMARK H PARENT 20 5 12 15 4 19 24 30 83 49 51 60
REMARK Flexibility Score: inf
ROOT
ATOM      1  C   UNL     1      -0.235  -0.820  -3.130  1.00  0.00     0.118 C 
ENDROOT
BRANCH   1   2
ATOM      2  N   UNL     1      -0.876  -2.130  -3.245  1.00  0.00    -0.352 N 
ATOM      3  C   UNL     1      -0.596  -3.339  -2.643  1.00  0.00     0.251 C 
ATOM      4  O   UNL     1      -1.269  -4.326  -2.935  1.00  0.00    -0.269 OA
ATOM      5  H   UNL     1      -1.643  -2.153  -3.862  1.00  0.00     0.163 HD
BRANCH   3   6
ATOM      6  C   UNL     1       0.533  -3.488  -1.692  1.00  0.00     0.041 A 
ATOM      7  C   UNL     1       2.083  -2.477  -0.134  1.00  0.00     0.042 A 
ATOM      8  C   UNL     1       2.885  -3.620  -0.208  1.00  0.00     0.026 A 
ATOM      9  C   UNL     1       0.847  -2.484  -0.777  1.00  0.00     0.040 A 
ATOM     10  C   UNL     1       2.490  -4.713  -0.988  1.00  0.00     0.003 A 
ATOM     11  C   UNL     1       1.331  -4.633  -1.761  1.00  0.00     0.014 A 
BRANCH   7  12
ATOM     12  N   UNL     1       2.631  -1.309   0.444  1.00  0.00    -0.325 N 
ATOM     13  O   UNL     1       0.882   0.218   0.183  1.00  0.00    -0.273 OA
ATOM     14  C   UNL     1       2.056  -0.043   0.435  1.00  0.00     0.243 C 
ATOM     15  H   UNL     1       3.501  -1.400   0.895  1.00  0.00     0.169 HD
BRANCH  14  16
ATOM     16  C   UNL     1       3.083   1.090   0.512  1.00  0.00     0.216 C 
BRANCH  16  17
ATOM     17  N   UNL     1       4.178   0.810   1.422  1.00  0.00    -0.340 N 
ATOM     18  C   UNL     1       5.535   0.930   1.214  1.00  0.00     0.287 C 
ATOM     19  H   UNL     1       3.914   0.488   2.314  1.00  0.00     0.164 HD
ATOM     20  O   UNL     1       6.258   0.491   2.104  1.00  0.00    -0.266 OA
BRANCH  18  21
ATOM     21  C   UNL     1       6.022   1.523  -0.014  1.00  0.00     0.191 A 
ATOM     22  C   UNL     1       5.644   2.629  -0.756  1.00  0.00     0.056 A 
ATOM     23  O   UNL     1       7.099   0.927  -0.618  1.00  0.00    -0.459 OA
ATOM     24  C   UNL     1       6.503   2.683  -1.881  1.00  0.00     0.043 A 
ATOM     25  C   UNL     1       7.369   1.625  -1.751  1.00  0.00     0.196 A 
ENDBRANCH  18  21
ENDBRANCH  16  17
ENDBRANCH  14  16
ENDBRANCH   7  12
ENDBRANCH   3   6
ENDBRANCH   1   2
BRANCH   1  26
ATOM     26  C   UNL     1       0.220  -0.227  -4.455  1.00  0.00     0.042 C 
BRANCH  26  27
ATOM     27  C   UNL     1      -0.899   0.106  -5.428  1.00  0.00     0.118 C 
BRANCH  27  28
ATOM     28  N   UNL     1      -1.773   1.174  -4.957  1.00  0.00    -0.352 N 
ATOM     29  C   UNL     1      -1.887   2.492  -5.335  1.00  0.00     0.251 C 
ATOM     30  H   UNL     1      -2.392   0.904  -4.241  1.00  0.00     0.163 HD
ATOM     31  O   UNL     1      -2.605   3.241  -4.675  1.00  0.00    -0.269 OA
BRANCH  29  32
ATOM     32  C   UNL     1      -1.145   3.033  -6.499  1.00  0.00     0.039 A 
ATOM     33  C   UNL     1      -0.607   4.323  -6.417  1.00  0.00     0.014 A 
ATOM     34  C   UNL     1      -1.004   2.305  -7.680  1.00  0.00     0.014 A 
ATOM     35  C   UNL     1       0.142   4.841  -7.481  1.00  0.00     0.010 A 
ATOM     36  C   UNL     1      -0.179   2.780  -8.697  1.00  0.00     0.010 A 
ATOM     37  C   UNL     1       0.402   4.054  -8.613  1.00  0.00    -0.014 A 
BRANCH  37  38
ATOM     38  C   UNL     1       1.276   4.522  -9.722  1.00  0.00     0.031 A 
ATOM     39  C   UNL     1       0.731   4.620 -11.122  1.00  0.00     0.074 A 
ATOM     40  C   UNL     1       2.589   4.732  -9.496  1.00  0.00     0.049 A 
ATOM     41  N   UNL     1       1.367   4.846 -12.243  1.00  0.00    -0.248 NA
ATOM     42  C   UNL     1      -0.715   4.396 -11.290  1.00  0.00     0.031 C 
ATOM     43  C   UNL     1       3.259   4.595  -8.201  1.00  0.00     0.029 A 
ATOM     44  N   UNL     1       3.605   5.065 -10.359  1.00  0.00    -0.354 N 
ATOM     45  C   UNL     1       0.414   4.733 -13.249  1.00  0.00     0.074 A 
ATOM     46  C   UNL     1      -0.839   4.397 -12.610  1.00  0.00     0.031 C 
ATOM     47  C   UNL     1       4.570   4.839  -8.355  1.00  0.00     0.029 A 
ATOM     48  C   UNL     1       4.844   5.113  -9.762  1.00  0.00     0.049 A 
ATOM     49  H   UNL     1       3.460   5.252 -11.315  1.00  0.00     0.167 HD
ATOM     50  C   UNL     1       0.560   4.922 -14.582  1.00  0.00     0.034 A 
ATOM     51  C   UNL     1       6.065   5.339 -10.287  1.00  0.00     0.034 A 
ATOM     52  C   UNL     1       1.787   5.337 -15.207  1.00  0.00     0.049 A 
ATOM     53  C   UNL     1       6.186   5.621 -11.761  1.00  0.00     0.074 A 
ATOM     54  C   UNL     1       2.010   5.658 -16.534  1.00  0.00     0.029 A 
ATOM     55  N   UNL     1       2.994   5.498 -14.546  1.00  0.00    -0.354 N 
ATOM     56  N   UNL     1       5.245   5.659 -12.672  1.00  0.00    -0.248 NA
ATOM     57  C   UNL     1       7.530   5.926 -12.274  1.00  0.00     0.031 C 
ATOM     58  C   UNL     1       3.356   6.013 -16.676  1.00  0.00     0.029 A 
ATOM     59  C   UNL     1       3.967   5.918 -15.436  1.00  0.00     0.049 A 
ATOM     60  H   UNL     1       3.138   5.338 -13.585  1.00  0.00     0.167 HD
ATOM     61  C   UNL     1       5.874   6.025 -13.856  1.00  0.00     0.074 A 
ATOM     62  C   UNL     1       7.276   6.216 -13.543  1.00  0.00     0.031 C 
ATOM     63  C   UNL     1       5.343   6.171 -15.095  1.00  0.00     0.034 A 
BRANCH  50  64
ATOM     64  C   UNL     1      -0.659   4.754 -15.450  1.00  0.00     0.023 A 
ATOM     65  C   UNL     1      -1.669   5.737 -15.419  1.00  0.00     0.012 A 
ATOM     66  C   UNL     1      -0.783   3.663 -16.332  1.00  0.00     0.148 A 
ATOM     67  C   UNL     1      -2.800   5.619 -16.225  1.00  0.00     0.002 A 
ATOM     68  C   UNL     1      -1.895   3.574 -17.163  1.00  0.00     0.091 A 
ATOM     69  F   UNL     1       0.176   2.726 -16.333  1.00  0.00    -0.205 F 
ATOM     70  C   UNL     1      -2.908   4.545 -17.104  1.00  0.00     0.022 A 
BRANCH  68  71
ATOM     71  S   UNL     1      -2.086   2.267 -18.381  1.00  0.00     0.127 S 
ATOM     72  O   UNL     1      -3.081   1.409 -17.739  1.00  0.00    -0.237 OA
ATOM     73  O   UNL     1      -2.576   2.999 -19.550  1.00  0.00    -0.237 OA
ATOM     74  O   UNL     1      -0.763   1.682 -18.546  1.00  0.00    -0.744 OA
ENDBRANCH  68  71
ENDBRANCH  50  64
BRANCH  51  75
ATOM     75  C   UNL     1       7.257   5.387  -9.393  1.00  0.00     0.023 A 
ATOM     76  C   UNL     1       7.873   6.628  -9.141  1.00  0.00     0.012 A 
ATOM     77  C   UNL     1       7.750   4.234  -8.752  1.00  0.00     0.148 A 
ATOM     78  C   UNL     1       8.975   6.717  -8.289  1.00  0.00     0.002 A 
ATOM     79  C   UNL     1       8.811   4.339  -7.857  1.00  0.00     0.091 A 
ATOM     80  F   UNL     1       7.160   3.059  -9.013  1.00  0.00    -0.205 F 
ATOM     81  C   UNL     1       9.436   5.576  -7.639  1.00  0.00     0.022 A 
BRANCH  79  82
ATOM     82  S   UNL     1       9.368   2.952  -6.860  1.00  0.00     0.127 S 
ATOM     83  O   UNL     1      10.647   2.627  -7.484  1.00  0.00    -0.237 OA
ATOM     84  O   UNL     1       9.463   3.552  -5.528  1.00  0.00    -0.237 OA
ATOM     85  O   UNL     1       8.326   1.941  -6.978  1.00  0.00    -0.744 OA
ENDBRANCH  79  82
ENDBRANCH  51  75
BRANCH  63  86
ATOM     86  C   UNL     1       6.265   6.590 -16.208  1.00  0.00     0.023 A 
ATOM     87  C   UNL     1       7.152   5.650 -16.767  1.00  0.00     0.012 A 
ATOM     88  C   UNL     1       6.184   7.883 -16.763  1.00  0.00     0.148 A 
ATOM     89  C   UNL     1       7.960   5.995 -17.848  1.00  0.00     0.002 A 
ATOM     90  C   UNL     1       6.963   8.207 -17.867  1.00  0.00     0.091 A 
ATOM     91  F   UNL     1       5.348   8.769 -16.203  1.00  0.00    -0.205 F 
ATOM     92  C   UNL     1       7.857   7.268 -18.406  1.00  0.00     0.022 A 
BRANCH  90  93
ATOM     93  S   UNL     1       6.828   9.792 -18.703  1.00  0.00     0.127 S 
ATOM     94  O   UNL     1       8.034  10.477 -18.241  1.00  0.00    -0.237 OA
ATOM     95  O   UNL     1       6.849   9.405 -20.115  1.00  0.00    -0.237 OA
ATOM     96  O   UNL     1       5.567  10.370 -18.258  1.00  0.00    -0.744 OA
ENDBRANCH  90  93
ENDBRANCH  63  86
ENDBRANCH  37  38
ENDBRANCH  29  32
ENDBRANCH  27  28
ENDBRANCH  26  27
ENDBRANCH   1  26
TORSDOF 17
