REMARK SMILES CS(=O)(=O)[C@@H]1CCC[C@@H](Sc2ccc(C(=O)NCCCNC(=O)c3ccc(-c4c5nc(c(-c6cccc(S(=O)(=O)[O-])c6F)c6ccc([nH]6)c(-c6cccc(S(=O)(=O)[O-])c6F)c6nc(c(-c7cccc(S(=O)(=O)[O-])c7F)c7ccc4[nH]7)C=C6)C=C5)cc3)cn2)C1
REMARK SMILES IDX 19 1 18 2 17 3 15 4 16 5 14 7 11 8 12 9 88 10 13 11 87 12
REMARK SMILES IDX 10 13 9 14 5 15 6 16 89 17 7 18 8 19 2 20 1 21 3 22 4 23
REMARK SMILES IDX 20 24 21 25 22 26 23 28 24 29 25 30 86 31 26 32 85 33 27 34
REMARK SMILES IDX 28 35 29 36 79 37 30 38 84 39 78 40 80 41 31 42 83 43 77 44
REMARK SMILES IDX 76 45 32 47 64 48 44 49 63 50 45 51 48 52 62 53 81 54 46 55
REMARK SMILES IDX 47 56 61 58 82 59 49 60 33 61 34 62 42 63 35 64 37 65 43 66
REMARK SMILES IDX 36 67 38 68 39 69 40 70 41 71 65 72 66 73 74 74 67 75 69 76
REMARK SMILES IDX 75 77 68 78 70 79 71 80 72 81 73 82 50 83 51 84 59 85 52 86
REMARK SMILES IDX 54 87 60 88 53 89 55 90 56 91 57 92 58 93
REMARK H PARENT 17 6 21 27 80 46 48 57
REMARK Flexibility Score: inf
ROOT
ATOM      1  C   UNL     1       3.832  -2.317  -1.302  1.00  0.00     0.042 C 
ENDROOT
BRANCH   1   2
ATOM      2  C   UNL     1       4.590  -3.387  -0.502  1.00  0.00     0.118 C 
BRANCH   2   3
ATOM      3  N   UNL     1       5.862  -2.896   0.030  1.00  0.00    -0.352 N 
ATOM      4  C   UNL     1       6.269  -2.453   1.275  1.00  0.00     0.252 C 
ATOM      5  O   UNL     1       7.466  -2.248   1.460  1.00  0.00    -0.269 OA
ATOM      6  H   UNL     1       6.581  -2.877  -0.642  1.00  0.00     0.163 HD
BRANCH   4   7
ATOM      7  C   UNL     1       5.334  -2.244   2.402  1.00  0.00     0.058 A 
ATOM      8  C   UNL     1       3.588  -2.009   4.575  1.00  0.00     0.096 A 
ATOM      9  C   UNL     1       3.148  -2.175   3.299  1.00  0.00     0.036 A 
ATOM     10  N   UNL     1       4.915  -1.982   4.812  1.00  0.00    -0.249 NA
ATOM     11  C   UNL     1       3.983  -2.161   2.208  1.00  0.00     0.018 A 
ATOM     12  C   UNL     1       5.757  -2.131   3.727  1.00  0.00     0.126 A 
BRANCH   8  13
ATOM     13  S   UNL     1       2.402  -1.772   5.883  1.00  0.00    -0.103 SA
BRANCH  13  14
ATOM     14  C   UNL     1       0.634  -1.745   5.155  1.00  0.00     0.054 C 
ATOM     15  C   UNL     1       0.338  -0.843   2.727  1.00  0.00     0.109 C 
ATOM     16  C   UNL     1      -0.198  -2.220   2.287  1.00  0.00     0.020 C 
ATOM     17  C   UNL     1       0.191  -0.588   4.230  1.00  0.00     0.034 C 
ATOM     18  C   UNL     1       0.073  -3.413   3.218  1.00  0.00     0.002 C 
ATOM     19  C   UNL     1       0.061  -3.103   4.714  1.00  0.00     0.015 C 
BRANCH  15  20
ATOM     20  S   UNL     1      -0.331   0.483   1.713  1.00  0.00     0.150 S 
ATOM     21  C   UNL     1       0.473   0.213   0.138  1.00  0.00     0.158 C 
ATOM     22  O   UNL     1       0.185   1.731   2.248  1.00  0.00    -0.229 OA
ATOM     23  O   UNL     1      -1.750   0.263   1.555  1.00  0.00    -0.229 OA
ENDBRANCH  15  20
ENDBRANCH  13  14
ENDBRANCH   8  13
ENDBRANCH   4   7
ENDBRANCH   2   3
ENDBRANCH   1   2
BRANCH   1  24
ATOM     24  C   UNL     1       4.306  -2.205  -2.747  1.00  0.00     0.118 C 
BRANCH  24  25
ATOM     25  N   UNL     1       3.990  -3.405  -3.507  1.00  0.00    -0.352 N 
ATOM     26  C   UNL     1       3.425  -3.555  -4.746  1.00  0.00     0.251 C 
ATOM     27  H   UNL     1       4.220  -4.249  -3.056  1.00  0.00     0.163 HD
ATOM     28  O   UNL     1       3.069  -4.679  -5.094  1.00  0.00    -0.269 OA
BRANCH  26  29
ATOM     29  C   UNL     1       3.238  -2.403  -5.657  1.00  0.00     0.039 A 
ATOM     30  C   UNL     1       2.139  -2.413  -6.523  1.00  0.00     0.014 A 
ATOM     31  C   UNL     1       4.165  -1.360  -5.726  1.00  0.00     0.014 A 
ATOM     32  C   UNL     1       1.968  -1.380  -7.446  1.00  0.00     0.010 A 
ATOM     33  C   UNL     1       3.945  -0.286  -6.585  1.00  0.00     0.010 A 
ATOM     34  C   UNL     1       2.866  -0.302  -7.480  1.00  0.00    -0.014 A 
BRANCH  34  35
ATOM     35  C   UNL     1       2.723   0.784  -8.483  1.00  0.00     0.031 A 
ATOM     36  C   UNL     1       3.804   1.011  -9.508  1.00  0.00     0.074 A 
ATOM     37  C   UNL     1       1.647   1.595  -8.443  1.00  0.00     0.049 A 
ATOM     38  N   UNL     1       3.877   1.923 -10.443  1.00  0.00    -0.248 NA
ATOM     39  C   UNL     1       4.972   0.114  -9.461  1.00  0.00     0.031 C 
ATOM     40  C   UNL     1       0.566   1.518  -7.458  1.00  0.00     0.029 A 
ATOM     41  N   UNL     1       1.296   2.655  -9.239  1.00  0.00    -0.354 N 
ATOM     42  C   UNL     1       5.105   1.733 -11.067  1.00  0.00     0.074 A 
ATOM     43  C   UNL     1       5.765   0.649 -10.377  1.00  0.00     0.031 C 
ATOM     44  C   UNL     1      -0.334   2.481  -7.717  1.00  0.00     0.029 A 
ATOM     45  C   UNL     1       0.121   3.262  -8.863  1.00  0.00     0.049 A 
ATOM     46  H   UNL     1       1.834   2.953 -10.008  1.00  0.00     0.167 HD
ATOM     47  C   UNL     1       5.625   2.379 -12.138  1.00  0.00     0.034 A 
ATOM     48  C   UNL     1      -0.515   4.331  -9.381  1.00  0.00     0.034 A 
ATOM     49  C   UNL     1       4.947   3.431 -12.845  1.00  0.00     0.049 A 
ATOM     50  C   UNL     1       0.069   5.010 -10.590  1.00  0.00     0.074 A 
ATOM     51  C   UNL     1       5.353   4.103 -13.984  1.00  0.00     0.029 A 
ATOM     52  N   UNL     1       3.722   3.967 -12.479  1.00  0.00    -0.354 N 
ATOM     53  N   UNL     1       1.168   4.729 -11.246  1.00  0.00    -0.248 NA
ATOM     54  C   UNL     1      -0.699   6.128 -11.157  1.00  0.00     0.031 C 
ATOM     55  C   UNL     1       4.387   5.068 -14.288  1.00  0.00     0.029 A 
ATOM     56  C   UNL     1       3.358   4.964 -13.367  1.00  0.00     0.049 A 
ATOM     57  H   UNL     1       3.190   3.681 -11.701  1.00  0.00     0.167 HD
ATOM     58  C   UNL     1       1.197   5.597 -12.332  1.00  0.00     0.074 A 
ATOM     59  C   UNL     1      -0.002   6.406 -12.250  1.00  0.00     0.031 C 
ATOM     60  C   UNL     1       2.133   5.718 -13.305  1.00  0.00     0.034 A 
BRANCH  47  61
ATOM     61  C   UNL     1       6.977   1.935 -12.637  1.00  0.00     0.023 A 
ATOM     62  C   UNL     1       7.118   0.672 -13.249  1.00  0.00     0.012 A 
ATOM     63  C   UNL     1       8.096   2.786 -12.548  1.00  0.00     0.148 A 
ATOM     64  C   UNL     1       8.357   0.246 -13.726  1.00  0.00     0.002 A 
ATOM     65  C   UNL     1       9.317   2.376 -13.072  1.00  0.00     0.091 A 
ATOM     66  F   UNL     1       7.949   3.976 -11.947  1.00  0.00    -0.205 F 
ATOM     67  C   UNL     1       9.453   1.102 -13.647  1.00  0.00     0.022 A 
BRANCH  65  68
ATOM     68  S   UNL     1      10.768   3.434 -13.097  1.00  0.00     0.127 S 
ATOM     69  O   UNL     1      11.647   2.750 -12.149  1.00  0.00    -0.237 OA
ATOM     70  O   UNL     1      11.189   3.342 -14.495  1.00  0.00    -0.237 OA
ATOM     71  O   UNL     1      10.312   4.753 -12.683  1.00  0.00    -0.744 OA
ENDBRANCH  65  68
ENDBRANCH  47  61
BRANCH  48  72
ATOM     72  C   UNL     1      -1.809   4.787  -8.799  1.00  0.00     0.023 A 
ATOM     73  C   UNL     1      -2.997   4.634  -9.541  1.00  0.00     0.012 A 
ATOM     74  C   UNL     1      -1.870   5.364  -7.517  1.00  0.00     0.148 A 
ATOM     75  C   UNL     1      -4.216   5.087  -9.034  1.00  0.00     0.002 A 
ATOM     76  C   UNL     1      -3.095   5.760  -6.994  1.00  0.00     0.091 A 
ATOM     77  F   UNL     1      -0.728   5.505  -6.830  1.00  0.00    -0.205 F 
ATOM     78  C   UNL     1      -4.266   5.641  -7.758  1.00  0.00     0.022 A 
BRANCH  76  79
ATOM     79  S   UNL     1      -3.274   6.363  -5.313  1.00  0.00     0.127 S 
ATOM     80  O   UNL     1      -3.602   7.769  -5.534  1.00  0.00    -0.237 OA
ATOM     81  O   UNL     1      -4.378   5.542  -4.816  1.00  0.00    -0.237 OA
ATOM     82  O   UNL     1      -1.995   6.106  -4.665  1.00  0.00    -0.744 OA
ENDBRANCH  76  79
ENDBRANCH  48  72
BRANCH  60  83
ATOM     83  C   UNL     1       1.869   6.709 -14.409  1.00  0.00     0.023 A 
ATOM     84  C   UNL     1       1.929   8.094 -14.155  1.00  0.00     0.012 A 
ATOM     85  C   UNL     1       1.624   6.256 -15.720  1.00  0.00     0.148 A 
ATOM     86  C   UNL     1       1.705   9.011 -15.182  1.00  0.00     0.002 A 
ATOM     87  C   UNL     1       1.459   7.175 -16.748  1.00  0.00     0.091 A 
ATOM     88  F   UNL     1       1.553   4.935 -15.938  1.00  0.00    -0.205 F 
ATOM     89  C   UNL     1       1.483   8.553 -16.479  1.00  0.00     0.022 A 
BRANCH  87  90
ATOM     90  S   UNL     1       1.274   6.674 -18.463  1.00  0.00     0.127 S 
ATOM     91  O   UNL     1      -0.137   6.964 -18.707  1.00  0.00    -0.237 OA
ATOM     92  O   UNL     1       2.209   7.568 -19.149  1.00  0.00    -0.237 OA
ATOM     93  O   UNL     1       1.641   5.265 -18.512  1.00  0.00    -0.744 OA
ENDBRANCH  87  90
ENDBRANCH  60  83
ENDBRANCH  34  35
ENDBRANCH  26  29
ENDBRANCH  24  25
ENDBRANCH   1  24
TORSDOF 16
