REMARK SMILES Cc1noc2c1-c1c(c(C(=O)NCCCNC(=O)c3ccc(-c4c5nc(c(-c6cccc(S(=O)(=O)[O-])c6F)c6ccc([nH]6)c(-c6cccc(S(=O)(=O)[O-])c6F)c6nc(c(-c7cccc(S(=O)(=O)[O-])c7F)c7ccc4[nH]7)C=C6)C=C5)cc3)nn1C)CC2
REMARK SMILES IDX 16 1 17 2 18 3 15 5 14 6 13 7 12 8 10 9 11 10 9 12 1 13 2 14
REMARK SMILES IDX 3 15 6 16 4 17 5 18 7 19 86 20 8 21 83 22 85 23 82 24 84 25
REMARK SMILES IDX 19 26 20 27 81 28 21 29 80 30 22 31 23 32 24 33 74 34 25 35
REMARK SMILES IDX 79 36 73 37 75 38 26 39 78 40 72 41 71 42 27 44 59 45 39 46
REMARK SMILES IDX 58 47 40 48 43 49 57 50 76 51 41 52 42 53 56 55 77 56 44 57
REMARK SMILES IDX 28 58 29 59 37 60 30 61 32 62 38 63 31 64 33 65 34 66 35 67
REMARK SMILES IDX 36 68 60 69 61 70 69 71 62 72 64 73 70 74 63 75 65 76 66 77
REMARK SMILES IDX 67 78 68 79 45 80 46 81 54 82 47 83 49 84 55 85 48 86 50 87
REMARK SMILES IDX 51 88 52 89 53 90
REMARK H PARENT 16 4 12 11 75 43 43 54
REMARK Flexibility Score: inf
ROOT
ATOM      1  N   UNL     1      -6.791  -4.932  -3.350  1.00  0.00    -0.352 N 
ATOM      2  C   UNL     1      -7.600  -5.811  -4.080  1.00  0.00     0.251 C 
ATOM      3  O   UNL     1      -7.171  -6.813  -4.593  1.00  0.00    -0.269 OA
ATOM      4  H   UNL     1      -5.818  -5.034  -3.462  1.00  0.00     0.163 HD
ENDROOT
BRANCH   1   5
ATOM      5  C   UNL     1      -7.242  -3.867  -2.431  1.00  0.00     0.118 C 
BRANCH   5   6
ATOM      6  C   UNL     1      -6.137  -3.066  -1.802  1.00  0.00     0.042 C 
BRANCH   6   7
ATOM      7  C   UNL     1      -5.315  -2.293  -2.812  1.00  0.00     0.118 C 
BRANCH   7   8
ATOM      8  N   UNL     1      -5.580  -0.933  -3.145  1.00  0.00    -0.351 N 
ATOM      9  C   UNL     1      -4.624   0.072  -3.269  1.00  0.00     0.272 C 
ATOM     10  O   UNL     1      -4.999   1.098  -3.842  1.00  0.00    -0.267 OA
ATOM     11  H   UNL     1      -6.519  -0.682  -3.301  1.00  0.00     0.163 HD
BRANCH   9  12
ATOM     12  C   UNL     1      -3.229  -0.030  -2.694  1.00  0.00     0.154 A 
ATOM     13  C   UNL     1       1.474   0.038   0.434  1.00  0.00     0.071 C 
ATOM     14  C   UNL     1       0.949  -1.149  -0.267  1.00  0.00     0.090 A 
ATOM     15  N   UNL     1       1.566  -2.331  -0.071  1.00  0.00    -0.084 NA
ATOM     16  C   UNL     1      -0.150  -1.295  -1.132  1.00  0.00     0.066 A 
ATOM     17  O   UNL     1       0.883  -3.257  -0.843  1.00  0.00    -0.360 OA
ATOM     18  C   UNL     1      -0.120  -2.622  -1.477  1.00  0.00     0.146 A 
ATOM     19  C   UNL     1      -1.242  -0.478  -1.712  1.00  0.00     0.077 A 
ATOM     20  C   UNL     1      -0.979  -3.347  -2.427  1.00  0.00     0.084 C 
ATOM     21  C   UNL     1      -2.289  -1.102  -2.388  1.00  0.00     0.012 A 
ATOM     22  N   UNL     1      -1.512   0.849  -1.724  1.00  0.00    -0.267 N 
ATOM     23  C   UNL     1      -2.323  -2.617  -2.549  1.00  0.00     0.048 C 
ATOM     24  N   UNL     1      -2.657   1.144  -2.343  1.00  0.00    -0.167 NA
ATOM     25  C   UNL     1      -0.725   1.944  -1.221  1.00  0.00     0.174 C 
ENDBRANCH   9  12
ENDBRANCH   7   8
ENDBRANCH   6   7
ENDBRANCH   5   6
ENDBRANCH   1   5
BRANCH   2  26
ATOM     26  C   UNL     1      -9.022  -5.424  -4.199  1.00  0.00     0.039 A 
ATOM     27  C   UNL     1     -10.072  -6.259  -3.804  1.00  0.00     0.014 A 
ATOM     28  C   UNL     1      -9.226  -4.084  -4.474  1.00  0.00     0.014 A 
ATOM     29  C   UNL     1     -11.316  -5.678  -3.555  1.00  0.00     0.010 A 
ATOM     30  C   UNL     1     -10.326  -3.501  -3.924  1.00  0.00     0.010 A 
ATOM     31  C   UNL     1     -11.420  -4.282  -3.575  1.00  0.00    -0.014 A 
BRANCH  31  32
ATOM     32  C   UNL     1     -12.611  -3.553  -3.160  1.00  0.00     0.031 A 
ATOM     33  C   UNL     1     -13.095  -3.851  -1.786  1.00  0.00     0.074 A 
ATOM     34  C   UNL     1     -13.041  -2.474  -3.855  1.00  0.00     0.049 A 
ATOM     35  N   UNL     1     -14.134  -4.543  -1.452  1.00  0.00    -0.248 NA
ATOM     36  C   UNL     1     -12.238  -3.487  -0.648  1.00  0.00     0.031 C 
ATOM     37  C   UNL     1     -12.418  -1.849  -5.037  1.00  0.00     0.029 A 
ATOM     38  N   UNL     1     -14.025  -1.592  -3.547  1.00  0.00    -0.354 N 
ATOM     39  C   UNL     1     -14.212  -4.449  -0.061  1.00  0.00     0.074 A 
ATOM     40  C   UNL     1     -12.898  -4.052   0.366  1.00  0.00     0.031 C 
ATOM     41  C   UNL     1     -12.844  -0.575  -5.154  1.00  0.00     0.029 A 
ATOM     42  C   UNL     1     -13.921  -0.373  -4.210  1.00  0.00     0.049 A 
ATOM     43  H   UNL     1     -14.748  -1.796  -2.911  1.00  0.00     0.167 HD
ATOM     44  C   UNL     1     -15.422  -4.395   0.571  1.00  0.00     0.034 A 
ATOM     45  C   UNL     1     -14.653   0.742  -3.981  1.00  0.00     0.034 A 
ATOM     46  C   UNL     1     -16.488  -4.691  -0.364  1.00  0.00     0.049 A 
ATOM     47  C   UNL     1     -15.880   0.308  -3.279  1.00  0.00     0.074 A 
ATOM     48  C   UNL     1     -16.812  -5.744  -1.195  1.00  0.00     0.029 A 
ATOM     49  N   UNL     1     -17.201  -3.609  -0.826  1.00  0.00    -0.354 N 
ATOM     50  N   UNL     1     -16.780  -0.465  -3.823  1.00  0.00    -0.248 NA
ATOM     51  C   UNL     1     -15.888   0.352  -1.827  1.00  0.00     0.031 C 
ATOM     52  C   UNL     1     -17.339  -5.134  -2.373  1.00  0.00     0.029 A 
ATOM     53  C   UNL     1     -17.382  -3.752  -2.172  1.00  0.00     0.049 A 
ATOM     54  H   UNL     1     -17.527  -2.858  -0.279  1.00  0.00     0.167 HD
ATOM     55  C   UNL     1     -17.130  -1.347  -2.808  1.00  0.00     0.074 A 
ATOM     56  C   UNL     1     -16.657  -0.712  -1.579  1.00  0.00     0.031 C 
ATOM     57  C   UNL     1     -17.486  -2.637  -3.091  1.00  0.00     0.034 A 
BRANCH  44  58
ATOM     58  C   UNL     1     -15.744  -3.653   1.868  1.00  0.00     0.023 A 
ATOM     59  C   UNL     1     -17.099  -3.691   2.289  1.00  0.00     0.012 A 
ATOM     60  C   UNL     1     -14.918  -2.710   2.517  1.00  0.00     0.148 A 
ATOM     61  C   UNL     1     -17.629  -2.752   3.179  1.00  0.00     0.002 A 
ATOM     62  C   UNL     1     -15.437  -1.808   3.442  1.00  0.00     0.091 A 
ATOM     63  F   UNL     1     -13.631  -2.601   2.196  1.00  0.00    -0.205 F 
ATOM     64  C   UNL     1     -16.800  -1.796   3.745  1.00  0.00     0.022 A 
BRANCH  62  65
ATOM     65  S   UNL     1     -14.404  -0.566   4.235  1.00  0.00     0.127 S 
ATOM     66  O   UNL     1     -14.872   0.655   3.585  1.00  0.00    -0.237 OA
ATOM     67  O   UNL     1     -14.790  -0.711   5.639  1.00  0.00    -0.237 OA
ATOM     68  O   UNL     1     -13.028  -0.951   3.950  1.00  0.00    -0.744 OA
ENDBRANCH  62  65
ENDBRANCH  44  58
BRANCH  45  69
ATOM     69  C   UNL     1     -14.268   2.160  -4.135  1.00  0.00     0.023 A 
ATOM     70  C   UNL     1     -15.257   3.143  -4.317  1.00  0.00     0.012 A 
ATOM     71  C   UNL     1     -12.950   2.581  -3.846  1.00  0.00     0.148 A 
ATOM     72  C   UNL     1     -14.951   4.503  -4.187  1.00  0.00     0.002 A 
ATOM     73  C   UNL     1     -12.649   3.934  -3.725  1.00  0.00     0.091 A 
ATOM     74  F   UNL     1     -12.016   1.650  -3.605  1.00  0.00    -0.205 F 
ATOM     75  C   UNL     1     -13.651   4.899  -3.884  1.00  0.00     0.022 A 
BRANCH  73  76
ATOM     76  S   UNL     1     -10.999   4.518  -3.314  1.00  0.00     0.127 S 
ATOM     77  O   UNL     1     -10.768   5.520  -4.356  1.00  0.00    -0.237 OA
ATOM     78  O   UNL     1     -11.198   5.062  -1.974  1.00  0.00    -0.237 OA
ATOM     79  O   UNL     1     -10.135   3.348  -3.400  1.00  0.00    -0.744 OA
ENDBRANCH  73  76
ENDBRANCH  45  69
BRANCH  57  80
ATOM     80  C   UNL     1     -17.772  -3.002  -4.526  1.00  0.00     0.023 A 
ATOM     81  C   UNL     1     -16.773  -3.008  -5.521  1.00  0.00     0.012 A 
ATOM     82  C   UNL     1     -19.028  -3.557  -4.821  1.00  0.00     0.148 A 
ATOM     83  C   UNL     1     -17.023  -3.550  -6.785  1.00  0.00     0.002 A 
ATOM     84  C   UNL     1     -19.258  -4.140  -6.060  1.00  0.00     0.091 A 
ATOM     85  F   UNL     1     -19.965  -3.545  -3.861  1.00  0.00    -0.205 F 
ATOM     86  C   UNL     1     -18.261  -4.132  -7.049  1.00  0.00     0.022 A 
BRANCH  84  87
ATOM     87  S   UNL     1     -20.776  -5.029  -6.409  1.00  0.00     0.127 S 
ATOM     88  O   UNL     1     -21.471  -4.107  -7.305  1.00  0.00    -0.237 OA
ATOM     89  O   UNL     1     -20.285  -6.251  -7.047  1.00  0.00    -0.237 OA
ATOM     90  O   UNL     1     -21.417  -5.250  -5.118  1.00  0.00    -0.744 OA
ENDBRANCH  84  87
ENDBRANCH  57  80
ENDBRANCH  31  32
ENDBRANCH   2  26
TORSDOF 13
