REMARK SMILES Cn1ccc(C(=O)NCc2ccc(C(=O)NCCCNC(=O)c3ccc(-c4c5nc(c(-c6cccc(S(=O)(=O)[O-])c6F)c6ccc([nH]6)c(-c6cccc(S(=O)(=O)[O-])c6F)c6nc(c(-c7cccc(S(=O)(=O)[O-])c7F)c7ccc4[nH]7)C=C6)C=C5)cc3)cc2)cc1=O
REMARK SMILES IDX 18 1 17 2 16 3 14 4 15 5 13 7 10 8 11 9 87 10 12 11 86 12
REMARK SMILES IDX 9 13 8 14 6 15 7 16 5 18 1 19 2 20 3 21 89 22 4 23 88 24
REMARK SMILES IDX 90 25 19 26 20 27 21 28 22 30 23 31 24 32 85 33 25 34 84 35
REMARK SMILES IDX 26 36 27 37 28 38 78 39 29 40 83 41 77 42 79 43 30 44 82 45
REMARK SMILES IDX 76 46 75 47 31 49 63 50 43 51 62 52 44 53 47 54 61 55 80 56
REMARK SMILES IDX 45 57 46 58 60 60 81 61 48 62 32 63 33 64 41 65 34 66 36 67
REMARK SMILES IDX 42 68 35 69 37 70 38 71 39 72 40 73 64 74 65 75 73 76 66 77
REMARK SMILES IDX 68 78 74 79 67 80 69 81 70 82 71 83 72 84 49 85 50 86 58 87
REMARK SMILES IDX 51 88 53 89 59 90 52 91 54 92 55 93 56 94 57 95
REMARK H PARENT 16 6 8 17 20 29 79 48 47 59
REMARK Flexibility Score: inf
ROOT
ATOM      1  C   UNL     1       4.890   6.620   5.418  1.00  0.00     0.042 C 
ENDROOT
BRANCH   1   2
ATOM      2  C   UNL     1       3.456   6.134   5.624  1.00  0.00     0.118 C 
BRANCH   2   3
ATOM      3  N   UNL     1       2.479   7.145   5.256  1.00  0.00    -0.352 N 
ATOM      4  C   UNL     1       1.678   7.286   4.150  1.00  0.00     0.251 C 
ATOM      5  O   UNL     1       0.822   8.172   4.173  1.00  0.00    -0.269 OA
ATOM      6  H   UNL     1       2.373   7.862   5.923  1.00  0.00     0.163 HD
BRANCH   4   7
ATOM      7  C   UNL     1       1.771   6.406   2.951  1.00  0.00     0.039 A 
ATOM      8  C   UNL     1       1.814   4.801   0.608  1.00  0.00    -0.029 A 
ATOM      9  C   UNL     1       0.642   5.460   1.000  1.00  0.00     0.006 A 
ATOM     10  C   UNL     1       2.968   4.998   1.381  1.00  0.00     0.006 A 
ATOM     11  C   UNL     1       0.621   6.248   2.161  1.00  0.00     0.014 A 
ATOM     12  C   UNL     1       2.949   5.799   2.525  1.00  0.00     0.014 A 
BRANCH   8  13
ATOM     13  C   UNL     1       1.859   3.987  -0.667  1.00  0.00     0.152 C 
BRANCH  13  14
ATOM     14  N   UNL     1       2.857   2.938  -0.593  1.00  0.00    -0.348 N 
ATOM     15  C   UNL     1       2.842   1.636  -0.222  1.00  0.00     0.251 C 
ATOM     16  O   UNL     1       3.937   1.078  -0.112  1.00  0.00    -0.269 OA
ATOM     17  H   UNL     1       3.750   3.241  -0.878  1.00  0.00     0.164 HD
BRANCH  15  18
ATOM     18  C   UNL     1       1.592   0.826  -0.056  1.00  0.00     0.046 A 
ATOM     19  C   UNL     1      -1.732  -1.819   0.061  1.00  0.00     0.153 C 
ATOM     20  N   UNL     1      -0.600  -0.908   0.070  1.00  0.00    -0.319 N 
ATOM     21  C   UNL     1       0.650  -1.411  -0.225  1.00  0.00     0.089 A 
ATOM     22  C   UNL     1      -0.798   0.433   0.388  1.00  0.00     0.251 A 
ATOM     23  C   UNL     1       1.714  -0.606  -0.293  1.00  0.00     0.032 A 
ATOM     24  C   UNL     1       0.409   1.308   0.353  1.00  0.00     0.085 A 
ATOM     25  O   UNL     1      -1.884   0.932   0.670  1.00  0.00    -0.269 OA
ENDBRANCH  15  18
ENDBRANCH  13  14
ENDBRANCH   8  13
ENDBRANCH   4   7
ENDBRANCH   2   3
ENDBRANCH   1   2
BRANCH   1  26
ATOM     26  C   UNL     1       5.368   7.604   6.482  1.00  0.00     0.118 C 
BRANCH  26  27
ATOM     27  N   UNL     1       5.540   6.967   7.780  1.00  0.00    -0.352 N 
ATOM     28  C   UNL     1       6.652   6.887   8.581  1.00  0.00     0.251 C 
ATOM     29  H   UNL     1       4.737   6.526   8.137  1.00  0.00     0.163 HD
ATOM     30  O   UNL     1       6.646   6.117   9.540  1.00  0.00    -0.269 OA
BRANCH  28  31
ATOM     31  C   UNL     1       7.851   7.709   8.302  1.00  0.00     0.039 A 
ATOM     32  C   UNL     1       9.117   7.142   8.487  1.00  0.00     0.014 A 
ATOM     33  C   UNL     1       7.738   9.046   7.910  1.00  0.00     0.014 A 
ATOM     34  C   UNL     1      10.264   7.901   8.239  1.00  0.00     0.010 A 
ATOM     35  C   UNL     1       8.880   9.777   7.593  1.00  0.00     0.010 A 
ATOM     36  C   UNL     1      10.154   9.219   7.769  1.00  0.00    -0.014 A 
BRANCH  36  37
ATOM     37  C   UNL     1      11.356  10.034   7.460  1.00  0.00     0.031 A 
ATOM     38  C   UNL     1      11.645  11.286   8.244  1.00  0.00     0.074 A 
ATOM     39  C   UNL     1      12.136   9.699   6.414  1.00  0.00     0.049 A 
ATOM     40  N   UNL     1      12.607  12.157   8.084  1.00  0.00    -0.248 NA
ATOM     41  C   UNL     1      10.711  11.618   9.332  1.00  0.00     0.031 C 
ATOM     42  C   UNL     1      11.920   8.548   5.535  1.00  0.00     0.029 A 
ATOM     43  N   UNL     1      13.251  10.307   5.897  1.00  0.00    -0.354 N 
ATOM     44  C   UNL     1      12.371  13.160   9.017  1.00  0.00     0.074 A 
ATOM     45  C   UNL     1      11.156  12.805   9.717  1.00  0.00     0.031 C 
ATOM     46  C   UNL     1      12.879   8.526   4.596  1.00  0.00     0.029 A 
ATOM     47  C   UNL     1      13.759   9.675   4.787  1.00  0.00     0.049 A 
ATOM     48  H   UNL     1      13.651  11.119   6.285  1.00  0.00     0.167 HD
ATOM     49  C   UNL     1      13.111  14.262   9.286  1.00  0.00     0.034 A 
ATOM     50  C   UNL     1      14.815   9.986   4.009  1.00  0.00     0.034 A 
ATOM     51  C   UNL     1      14.344  14.584   8.618  1.00  0.00     0.049 A 
ATOM     52  C   UNL     1      15.643  11.194   4.351  1.00  0.00     0.074 A 
ATOM     53  C   UNL     1      15.224  15.617   8.884  1.00  0.00     0.029 A 
ATOM     54  N   UNL     1      14.867  13.880   7.544  1.00  0.00    -0.354 N 
ATOM     55  N   UNL     1      15.497  12.042   5.340  1.00  0.00    -0.248 NA
ATOM     56  C   UNL     1      16.801  11.470   3.489  1.00  0.00     0.031 C 
ATOM     57  C   UNL     1      16.268  15.552   7.954  1.00  0.00     0.029 A 
ATOM     58  C   UNL     1      16.050  14.463   7.124  1.00  0.00     0.049 A 
ATOM     59  H   UNL     1      14.457  13.082   7.138  1.00  0.00     0.167 HD
ATOM     60  C   UNL     1      16.564  12.929   5.244  1.00  0.00     0.074 A 
ATOM     61  C   UNL     1      17.356  12.504   4.107  1.00  0.00     0.031 C 
ATOM     62  C   UNL     1      16.855  14.002   6.021  1.00  0.00     0.034 A 
BRANCH  49  63
ATOM     63  C   UNL     1      12.624  15.175  10.383  1.00  0.00     0.023 A 
ATOM     64  C   UNL     1      12.673  14.742  11.724  1.00  0.00     0.012 A 
ATOM     65  C   UNL     1      12.139  16.466  10.094  1.00  0.00     0.148 A 
ATOM     66  C   UNL     1      12.202  15.556  12.754  1.00  0.00     0.002 A 
ATOM     67  C   UNL     1      11.714  17.290  11.131  1.00  0.00     0.091 A 
ATOM     68  F   UNL     1      12.076  16.857   8.813  1.00  0.00    -0.205 F 
ATOM     69  C   UNL     1      11.731  16.832  12.458  1.00  0.00     0.022 A 
BRANCH  67  70
ATOM     70  S   UNL     1      11.168  18.979  10.852  1.00  0.00     0.127 S 
ATOM     71  O   UNL     1       9.715  18.837  10.938  1.00  0.00    -0.237 OA
ATOM     72  O   UNL     1      11.777  19.694  11.974  1.00  0.00    -0.237 OA
ATOM     73  O   UNL     1      11.691  19.352   9.545  1.00  0.00    -0.744 OA
ENDBRANCH  67  70
ENDBRANCH  49  63
BRANCH  50  74
ATOM     74  C   UNL     1      15.200   9.077   2.893  1.00  0.00     0.023 A 
ATOM     75  C   UNL     1      16.357   8.285   3.029  1.00  0.00     0.012 A 
ATOM     76  C   UNL     1      14.409   8.948   1.736  1.00  0.00     0.148 A 
ATOM     77  C   UNL     1      16.731   7.393   2.024  1.00  0.00     0.002 A 
ATOM     78  C   UNL     1      14.760   8.021   0.760  1.00  0.00     0.091 A 
ATOM     79  F   UNL     1      13.316   9.715   1.625  1.00  0.00    -0.205 F 
ATOM     80  C   UNL     1      15.928   7.253   0.896  1.00  0.00     0.022 A 
BRANCH  78  81
ATOM     81  S   UNL     1      13.723   7.678  -0.667  1.00  0.00     0.127 S 
ATOM     82  O   UNL     1      14.563   8.152  -1.767  1.00  0.00    -0.237 OA
ATOM     83  O   UNL     1      13.578   6.223  -0.588  1.00  0.00    -0.237 OA
ATOM     84  O   UNL     1      12.492   8.420  -0.451  1.00  0.00    -0.744 OA
ENDBRANCH  78  81
ENDBRANCH  50  74
BRANCH  62  85
ATOM     85  C   UNL     1      18.101  14.782   5.694  1.00  0.00     0.023 A 
ATOM     86  C   UNL     1      18.129  15.614   4.557  1.00  0.00     0.012 A 
ATOM     87  C   UNL     1      19.215  14.752   6.556  1.00  0.00     0.148 A 
ATOM     88  C   UNL     1      19.258  16.381   4.268  1.00  0.00     0.002 A 
ATOM     89  C   UNL     1      20.317  15.555   6.288  1.00  0.00     0.091 A 
ATOM     90  F   UNL     1      19.178  13.938   7.621  1.00  0.00    -0.205 F 
ATOM     91  C   UNL     1      20.345  16.362   5.139  1.00  0.00     0.022 A 
BRANCH  89  92
ATOM     92  S   UNL     1      21.720  15.668   7.405  1.00  0.00     0.127 S 
ATOM     93  O   UNL     1      22.742  14.920   6.676  1.00  0.00    -0.237 OA
ATOM     94  O   UNL     1      21.950  17.111   7.472  1.00  0.00    -0.237 OA
ATOM     95  O   UNL     1      21.282  15.069   8.659  1.00  0.00    -0.744 OA
ENDBRANCH  89  92
ENDBRANCH  62  85
ENDBRANCH  36  37
ENDBRANCH  28  31
ENDBRANCH  26  27
ENDBRANCH   1  26
TORSDOF 16
