REMARK SMILES Cc1ccc(C[C@@H](Cc2cc(F)cc(Br)c2)C(=O)NCCCNC(=O)c2ccc(-c3c4nc(c(-c5cccc(S(=O)(=O)[O-])c5F)c5ccc([nH]5)c(-c5cccc(S(=O)(=O)[O-])c5F)c5nc(c(-c6cccc(S(=O)(=O)[O-])c6F)c6ccc3[nH]6)C=C5)C=C4)cc2)cc1
REMARK SMILES IDX 21 1 20 2 19 3 17 4 18 5 7 7 6 8 5 9 1 10 2 11 3 12 90 13
REMARK SMILES IDX 4 14 89 15 8 16 9 17 10 18 16 19 11 20 14 21 12 22 13 23
REMARK SMILES IDX 15 24 22 25 23 26 24 27 25 29 26 30 27 31 88 32 28 33 87 34
REMARK SMILES IDX 29 35 30 36 31 37 81 38 32 39 86 40 80 41 82 42 33 43 85 44
REMARK SMILES IDX 79 45 78 46 34 48 66 49 46 50 65 51 47 52 50 53 64 54 83 55
REMARK SMILES IDX 48 56 49 57 63 59 84 60 51 61 35 62 36 63 44 64 37 65 39 66
REMARK SMILES IDX 45 67 38 68 40 69 41 70 42 71 43 72 67 73 68 74 76 75 69 76
REMARK SMILES IDX 71 77 77 78 70 79 72 80 73 81 74 82 75 83 52 84 53 85 61 86
REMARK SMILES IDX 54 87 56 88 62 89 55 90 57 91 58 92 59 93 60 94
REMARK H PARENT 19 6 23 28 82 47 50 58
REMARK Flexibility Score: inf
ROOT
ATOM      1  C   UNL     1      -4.990  -1.496   2.267  1.00  0.00     0.042 C 
ENDROOT
BRANCH   1   2
ATOM      2  C   UNL     1      -5.279  -2.061   0.887  1.00  0.00     0.117 C 
BRANCH   2   3
ATOM      3  N   UNL     1      -5.793  -1.043  -0.022  1.00  0.00    -0.356 N 
ATOM      4  C   UNL     1      -5.183  -0.409  -1.065  1.00  0.00     0.223 C 
ATOM      5  O   UNL     1      -5.831   0.407  -1.724  1.00  0.00    -0.275 OA
ATOM      6  H   UNL     1      -6.724  -0.770   0.142  1.00  0.00     0.163 HD
BRANCH   4   7
ATOM      7  C   UNL     1      -3.723  -0.681  -1.415  1.00  0.00     0.087 C 
BRANCH   7   8
ATOM      8  C   UNL     1      -2.892  -0.096  -0.246  1.00  0.00     0.049 C 
BRANCH   8   9
ATOM      9  C   UNL     1      -1.389  -0.044  -0.311  1.00  0.00    -0.047 A 
ATOM     10  C   UNL     1       2.913   0.158   0.005  1.00  0.00     0.044 C 
ATOM     11  C   UNL     1       1.419   0.103  -0.101  1.00  0.00    -0.051 A 
ATOM     12  C   UNL     1       0.761  -1.119   0.054  1.00  0.00     0.004 A 
ATOM     13  C   UNL     1       0.666   1.252  -0.363  1.00  0.00     0.004 A 
ATOM     14  C   UNL     1      -0.629  -1.187  -0.032  1.00  0.00     0.004 A 
ATOM     15  C   UNL     1      -0.726   1.179  -0.472  1.00  0.00     0.004 A 
ENDBRANCH   8   9
ENDBRANCH   7   8
BRANCH   7  16
ATOM     16  C   UNL     1      -3.400  -2.131  -1.881  1.00  0.00     0.049 C 
BRANCH  16  17
ATOM     17  C   UNL     1      -4.486  -3.188  -2.026  1.00  0.00    -0.043 A 
ATOM     18  C   UNL     1      -4.231  -4.489  -1.555  1.00  0.00     0.043 A 
ATOM     19  C   UNL     1      -5.753  -2.927  -2.568  1.00  0.00     0.019 A 
ATOM     20  C   UNL     1      -5.242  -5.448  -1.531  1.00  0.00     0.124 A 
ATOM     21  C   UNL     1      -6.770  -3.888  -2.494  1.00  0.00     0.021 A 
ATOM     22  F   UNL     1      -4.975  -6.668  -1.047  1.00  0.00    -0.207 F 
ATOM     23  C   UNL     1      -6.523  -5.151  -1.969  1.00  0.00     0.055 A 
ATOM     24  Br  UNL     1      -8.520  -3.444  -3.059  1.00  0.00    -0.051 Br
ENDBRANCH  16  17
ENDBRANCH   7  16
ENDBRANCH   4   7
ENDBRANCH   2   3
ENDBRANCH   1   2
BRANCH   1  25
ATOM     25  C   UNL     1      -6.242  -1.408   3.106  1.00  0.00     0.118 C 
BRANCH  25  26
ATOM     26  N   UNL     1      -6.410  -2.528   4.011  1.00  0.00    -0.352 N 
ATOM     27  C   UNL     1      -7.363  -2.699   4.997  1.00  0.00     0.251 C 
ATOM     28  H   UNL     1      -5.762  -3.262   3.910  1.00  0.00     0.163 HD
ATOM     29  O   UNL     1      -7.154  -3.526   5.883  1.00  0.00    -0.269 OA
BRANCH  27  30
ATOM     30  C   UNL     1      -8.673  -2.013   4.868  1.00  0.00     0.039 A 
ATOM     31  C   UNL     1      -9.818  -2.804   5.023  1.00  0.00     0.014 A 
ATOM     32  C   UNL     1      -8.773  -0.748   4.298  1.00  0.00     0.014 A 
ATOM     33  C   UNL     1     -10.990  -2.453   4.361  1.00  0.00     0.010 A 
ATOM     34  C   UNL     1      -9.881  -0.458   3.540  1.00  0.00     0.010 A 
ATOM     35  C   UNL     1     -10.963  -1.341   3.528  1.00  0.00    -0.014 A 
BRANCH  35  36
ATOM     36  C   UNL     1     -12.010  -0.976   2.596  1.00  0.00     0.031 A 
ATOM     37  C   UNL     1     -13.008   0.025   3.005  1.00  0.00     0.074 A 
ATOM     38  C   UNL     1     -11.903  -1.382   1.313  1.00  0.00     0.049 A 
ATOM     39  N   UNL     1     -14.143   0.190   2.422  1.00  0.00    -0.248 NA
ATOM     40  C   UNL     1     -12.794   0.917   4.138  1.00  0.00     0.031 C 
ATOM     41  C   UNL     1     -12.559  -0.800   0.150  1.00  0.00     0.029 A 
ATOM     42  N   UNL     1     -11.304  -2.548   0.826  1.00  0.00    -0.354 N 
ATOM     43  C   UNL     1     -14.687   1.357   2.915  1.00  0.00     0.074 A 
ATOM     44  C   UNL     1     -13.844   1.734   4.024  1.00  0.00     0.031 C 
ATOM     45  C   UNL     1     -12.572  -1.711  -0.836  1.00  0.00     0.029 A 
ATOM     46  C   UNL     1     -12.082  -2.957  -0.271  1.00  0.00     0.049 A 
ATOM     47  H   UNL     1     -10.500  -2.993   1.179  1.00  0.00     0.167 HD
ATOM     48  C   UNL     1     -15.695   1.960   2.226  1.00  0.00     0.034 A 
ATOM     49  C   UNL     1     -12.731  -4.156  -0.332  1.00  0.00     0.034 A 
ATOM     50  C   UNL     1     -16.039   1.184   1.028  1.00  0.00     0.049 A 
ATOM     51  C   UNL     1     -14.233  -4.006  -0.486  1.00  0.00     0.074 A 
ATOM     52  C   UNL     1     -15.627   1.280  -0.292  1.00  0.00     0.029 A 
ATOM     53  N   UNL     1     -16.661  -0.051   1.158  1.00  0.00    -0.354 N 
ATOM     54  N   UNL     1     -14.877  -2.877  -0.374  1.00  0.00    -0.248 NA
ATOM     55  C   UNL     1     -15.132  -5.124  -0.759  1.00  0.00     0.031 C 
ATOM     56  C   UNL     1     -15.949   0.060  -0.942  1.00  0.00     0.029 A 
ATOM     57  C   UNL     1     -16.578  -0.768  -0.027  1.00  0.00     0.049 A 
ATOM     58  H   UNL     1     -17.099  -0.374   1.979  1.00  0.00     0.167 HD
ATOM     59  C   UNL     1     -16.230  -3.100  -0.418  1.00  0.00     0.074 A 
ATOM     60  C   UNL     1     -16.330  -4.513  -0.745  1.00  0.00     0.031 C 
ATOM     61  C   UNL     1     -17.138  -2.114  -0.124  1.00  0.00     0.034 A 
BRANCH  48  62
ATOM     62  C   UNL     1     -16.128   3.400   2.432  1.00  0.00     0.023 A 
ATOM     63  C   UNL     1     -16.675   4.074   1.317  1.00  0.00     0.012 A 
ATOM     64  C   UNL     1     -15.993   4.164   3.613  1.00  0.00     0.148 A 
ATOM     65  C   UNL     1     -16.963   5.442   1.329  1.00  0.00     0.002 A 
ATOM     66  C   UNL     1     -16.211   5.547   3.607  1.00  0.00     0.091 A 
ATOM     67  F   UNL     1     -15.733   3.552   4.774  1.00  0.00    -0.205 F 
ATOM     68  C   UNL     1     -16.693   6.189   2.463  1.00  0.00     0.022 A 
BRANCH  66  69
ATOM     69  S   UNL     1     -15.793   6.599   5.010  1.00  0.00     0.127 S 
ATOM     70  O   UNL     1     -15.049   7.688   4.371  1.00  0.00    -0.237 OA
ATOM     71  O   UNL     1     -17.107   6.983   5.521  1.00  0.00    -0.237 OA
ATOM     72  O   UNL     1     -14.982   5.776   5.899  1.00  0.00    -0.744 OA
ENDBRANCH  66  69
ENDBRANCH  48  62
BRANCH  49  73
ATOM     73  C   UNL     1     -12.037  -5.254   0.401  1.00  0.00     0.023 A 
ATOM     74  C   UNL     1     -10.782  -5.664  -0.110  1.00  0.00     0.012 A 
ATOM     75  C   UNL     1     -12.368  -5.576   1.729  1.00  0.00     0.148 A 
ATOM     76  C   UNL     1      -9.828  -6.257   0.718  1.00  0.00     0.002 A 
ATOM     77  C   UNL     1     -11.407  -6.164   2.551  1.00  0.00     0.091 A 
ATOM     78  F   UNL     1     -13.573  -5.222   2.191  1.00  0.00    -0.205 F 
ATOM     79  C   UNL     1     -10.129  -6.471   2.058  1.00  0.00     0.022 A 
BRANCH  77  80
ATOM     80  S   UNL     1     -11.689  -6.421   4.309  1.00  0.00     0.127 S 
ATOM     81  O   UNL     1     -12.035  -7.839   4.345  1.00  0.00    -0.237 OA
ATOM     82  O   UNL     1     -10.385  -6.093   4.883  1.00  0.00    -0.237 OA
ATOM     83  O   UNL     1     -12.749  -5.489   4.661  1.00  0.00    -0.744 OA
ENDBRANCH  77  80
ENDBRANCH  49  73
BRANCH  61  84
ATOM     84  C   UNL     1     -18.632  -2.308   0.106  1.00  0.00     0.023 A 
ATOM     85  C   UNL     1     -19.204  -3.570   0.355  1.00  0.00     0.012 A 
ATOM     86  C   UNL     1     -19.509  -1.193   0.219  1.00  0.00     0.148 A 
ATOM     87  C   UNL     1     -20.566  -3.732   0.639  1.00  0.00     0.002 A 
ATOM     88  C   UNL     1     -20.834  -1.349   0.622  1.00  0.00     0.091 A 
ATOM     89  F   UNL     1     -19.075   0.038  -0.088  1.00  0.00    -0.205 F 
ATOM     90  C   UNL     1     -21.377  -2.620   0.800  1.00  0.00     0.022 A 
BRANCH  88  91
ATOM     91  S   UNL     1     -21.834   0.074   1.086  1.00  0.00     0.127 S 
ATOM     92  O   UNL     1     -22.517   0.389  -0.167  1.00  0.00    -0.237 OA
ATOM     93  O   UNL     1     -22.702  -0.477   2.129  1.00  0.00    -0.237 OA
ATOM     94  O   UNL     1     -20.879   1.062   1.569  1.00  0.00    -0.744 OA
ENDBRANCH  88  91
ENDBRANCH  61  84
ENDBRANCH  35  36
ENDBRANCH  27  30
ENDBRANCH  25  26
ENDBRANCH   1  25
TORSDOF 17
