REMARK SMILES CN(CC(C)(C)O)S(=O)(=O)c1ccc(C(=O)NCCCNC(=O)c2ccc(-c3c4nc(c(-c5cccc(S(=O)(=O)[O-])c5F)c5ccc([nH]5)c(-c5cccc(S(=O)(=O)[O-])c5F)c5nc(c(-c6cccc(S(=O)(=O)[O-])c6F)c6ccc3[nH]6)C=C5)C=C4)cc2)s1
REMARK SMILES IDX 18 1 17 2 15 3 16 4 14 6 11 7 12 8 87 9 13 10 8 11 9 12
REMARK SMILES IDX 10 13 2 14 1 15 3 16 4 17 5 18 6 19 7 20 19 22 20 23 21 24
REMARK SMILES IDX 22 25 23 27 24 28 25 29 86 30 26 31 85 32 27 33 28 34 29 35
REMARK SMILES IDX 79 36 30 37 84 38 78 39 80 40 31 41 83 42 77 43 76 44 32 46
REMARK SMILES IDX 64 47 44 48 63 49 45 50 48 51 62 52 81 53 46 54 47 55 61 57
REMARK SMILES IDX 82 58 49 59 33 60 34 61 42 62 35 63 37 64 43 65 36 66 38 67
REMARK SMILES IDX 39 68 40 69 41 70 65 71 66 72 74 73 67 74 69 75 75 76 68 77
REMARK SMILES IDX 70 78 71 79 72 80 73 81 50 82 51 83 59 84 52 85 54 86 60 87
REMARK SMILES IDX 53 88 55 89 56 90 57 91 58 92
REMARK H PARENT 17 5 7 21 21 26 80 45 48 56
REMARK Flexibility Score: inf
ROOT
ATOM      1  C   UNL     1      -1.804   6.917   5.216  1.00  0.00     0.118 C 
ENDROOT
BRANCH   1   2
ATOM      2  N   UNL     1      -0.742   7.376   4.343  1.00  0.00    -0.351 N 
ATOM      3  C   UNL     1       0.124   6.703   3.515  1.00  0.00     0.261 C 
ATOM      4  O   UNL     1       0.809   7.423   2.784  1.00  0.00    -0.268 OA
ATOM      5  H   UNL     1      -0.618   8.353   4.344  1.00  0.00     0.163 HD
BRANCH   3   6
ATOM      6  C   UNL     1       0.208   5.246   3.509  1.00  0.00     0.093 A 
ATOM      7  C   UNL     1       0.841   2.934   2.826  1.00  0.00     0.135 A 
ATOM      8  C   UNL     1       0.182   2.965   4.037  1.00  0.00     0.034 A 
ATOM      9  S   UNL     1       0.955   4.491   2.143  1.00  0.00    -0.117 S 
ATOM     10  C   UNL     1      -0.159   4.288   4.438  1.00  0.00     0.027 A 
BRANCH   7  11
ATOM     11  S   UNL     1       1.572   1.582   1.930  1.00  0.00     0.252 S 
ATOM     12  O   UNL     1       1.600   0.499   2.886  1.00  0.00    -0.206 OA
ATOM     13  O   UNL     1       2.811   2.084   1.366  1.00  0.00    -0.206 OA
BRANCH  11  14
ATOM     14  N   UNL     1       0.578   1.117   0.647  1.00  0.00    -0.197 NA
ATOM     15  C   UNL     1       1.116   0.011  -0.165  1.00  0.00     0.124 C 
BRANCH  14  16
ATOM     16  C   UNL     1      -0.904   1.187   0.728  1.00  0.00     0.136 C 
BRANCH  16  17
ATOM     17  C   UNL     1      -1.676  -0.019   1.329  1.00  0.00     0.073 C 
ATOM     18  C   UNL     1      -1.447  -0.222   2.825  1.00  0.00     0.043 C 
ATOM     19  C   UNL     1      -3.179   0.218   1.101  1.00  0.00     0.043 C 
BRANCH  17  20
ATOM     20  O   UNL     1      -1.354  -1.225   0.625  1.00  0.00    -0.389 OA
ATOM     21  H   UNL     1      -0.411  -1.422   0.737  1.00  0.00     0.211 HD
ENDBRANCH  17  20
ENDBRANCH  16  17
ENDBRANCH  14  16
ENDBRANCH  11  14
ENDBRANCH   7  11
ENDBRANCH   3   6
ENDBRANCH   1   2
BRANCH   1  22
ATOM     22  C   UNL     1      -1.395   6.949   6.686  1.00  0.00     0.042 C 
BRANCH  22  23
ATOM     23  C   UNL     1      -1.337   8.359   7.273  1.00  0.00     0.118 C 
BRANCH  23  24
ATOM     24  N   UNL     1      -2.643   9.009   7.270  1.00  0.00    -0.352 N 
ATOM     25  C   UNL     1      -3.409   9.472   8.309  1.00  0.00     0.251 C 
ATOM     26  H   UNL     1      -3.039   9.135   6.377  1.00  0.00     0.163 HD
ATOM     27  O   UNL     1      -4.585   9.761   8.102  1.00  0.00    -0.269 OA
BRANCH  25  28
ATOM     28  C   UNL     1      -2.835   9.628   9.663  1.00  0.00     0.039 A 
ATOM     29  C   UNL     1      -3.624   9.311  10.773  1.00  0.00     0.014 A 
ATOM     30  C   UNL     1      -1.544  10.130   9.844  1.00  0.00     0.014 A 
ATOM     31  C   UNL     1      -3.099   9.448  12.059  1.00  0.00     0.010 A 
ATOM     32  C   UNL     1      -0.995  10.188  11.122  1.00  0.00     0.010 A 
ATOM     33  C   UNL     1      -1.768   9.858  12.244  1.00  0.00    -0.014 A 
BRANCH  33  34
ATOM     34  C   UNL     1      -1.167   9.937  13.600  1.00  0.00     0.031 A 
ATOM     35  C   UNL     1      -0.667  11.251  14.137  1.00  0.00     0.074 A 
ATOM     36  C   UNL     1      -0.997   8.807  14.314  1.00  0.00     0.049 A 
ATOM     37  N   UNL     1      -0.066  11.503  15.270  1.00  0.00    -0.248 NA
ATOM     38  C   UNL     1      -0.841  12.435  13.277  1.00  0.00     0.031 C 
ATOM     39  C   UNL     1      -1.370   7.462  13.869  1.00  0.00     0.029 A 
ATOM     40  N   UNL     1      -0.441   8.603  15.552  1.00  0.00    -0.354 N 
ATOM     41  C   UNL     1       0.243  12.858  15.246  1.00  0.00     0.074 A 
ATOM     42  C   UNL     1      -0.207  13.369  13.970  1.00  0.00     0.031 C 
ATOM     43  C   UNL     1      -1.040   6.575  14.821  1.00  0.00     0.029 A 
ATOM     44  C   UNL     1      -0.398   7.280  15.926  1.00  0.00     0.049 A 
ATOM     45  H   UNL     1      -0.105   9.335  16.119  1.00  0.00     0.167 HD
ATOM     46  C   UNL     1       0.824  13.614  16.207  1.00  0.00     0.034 A 
ATOM     47  C   UNL     1       0.114   6.697  17.028  1.00  0.00     0.034 A 
ATOM     48  C   UNL     1       1.240  13.106  17.487  1.00  0.00     0.049 A 
ATOM     49  C   UNL     1       0.730   7.564  18.092  1.00  0.00     0.074 A 
ATOM     50  C   UNL     1       1.760  13.805  18.562  1.00  0.00     0.029 A 
ATOM     51  N   UNL     1       1.199  11.772  17.860  1.00  0.00    -0.354 N 
ATOM     52  N   UNL     1       0.871   8.867  18.114  1.00  0.00    -0.248 NA
ATOM     53  C   UNL     1       1.223   6.885  19.298  1.00  0.00     0.031 C 
ATOM     54  C   UNL     1       2.067  12.888  19.572  1.00  0.00     0.029 A 
ATOM     55  C   UNL     1       1.697  11.623  19.143  1.00  0.00     0.049 A 
ATOM     56  H   UNL     1       0.864  11.038  17.296  1.00  0.00     0.167 HD
ATOM     57  C   UNL     1       1.433   9.168  19.350  1.00  0.00     0.074 A 
ATOM     58  C   UNL     1       1.586   7.911  20.055  1.00  0.00     0.031 C 
ATOM     59  C   UNL     1       1.800  10.373  19.851  1.00  0.00     0.034 A 
BRANCH  46  60
ATOM     60  C   UNL     1       1.011  15.084  15.928  1.00  0.00     0.023 A 
ATOM     61  C   UNL     1      -0.114  15.933  15.864  1.00  0.00     0.012 A 
ATOM     62  C   UNL     1       2.299  15.636  15.789  1.00  0.00     0.148 A 
ATOM     63  C   UNL     1       0.037  17.299  15.626  1.00  0.00     0.002 A 
ATOM     64  C   UNL     1       2.445  17.006  15.601  1.00  0.00     0.091 A 
ATOM     65  F   UNL     1       3.356  14.813  15.834  1.00  0.00    -0.205 F 
ATOM     66  C   UNL     1       1.316  17.836  15.506  1.00  0.00     0.022 A 
BRANCH  64  67
ATOM     67  S   UNL     1       4.049  17.810  15.518  1.00  0.00     0.127 S 
ATOM     68  O   UNL     1       4.096  18.229  14.118  1.00  0.00    -0.237 OA
ATOM     69  O   UNL     1       3.893  18.904  16.477  1.00  0.00    -0.237 OA
ATOM     70  O   UNL     1       5.026  16.800  15.900  1.00  0.00    -0.744 OA
ENDBRANCH  64  67
ENDBRANCH  46  60
BRANCH  47  71
ATOM     71  C   UNL     1       0.017   5.220  17.204  1.00  0.00     0.023 A 
ATOM     72  C   UNL     1      -0.830   4.693  18.198  1.00  0.00     0.012 A 
ATOM     73  C   UNL     1       0.741   4.337  16.380  1.00  0.00     0.148 A 
ATOM     74  C   UNL     1      -0.925   3.315  18.394  1.00  0.00     0.002 A 
ATOM     75  C   UNL     1       0.596   2.964  16.541  1.00  0.00     0.091 A 
ATOM     76  F   UNL     1       1.547   4.859  15.444  1.00  0.00    -0.205 F 
ATOM     77  C   UNL     1      -0.220   2.451  17.561  1.00  0.00     0.022 A 
BRANCH  75  78
ATOM     78  S   UNL     1       1.357   1.778  15.428  1.00  0.00     0.127 S 
ATOM     79  O   UNL     1       2.350   1.149  16.296  1.00  0.00    -0.237 OA
ATOM     80  O   UNL     1       0.220   0.928  15.073  1.00  0.00    -0.237 OA
ATOM     81  O   UNL     1       1.890   2.560  14.322  1.00  0.00    -0.744 OA
ENDBRANCH  75  78
ENDBRANCH  47  71
BRANCH  59  82
ATOM     82  C   UNL     1       2.359  10.406  21.250  1.00  0.00     0.023 A 
ATOM     83  C   UNL     1       3.643   9.888  21.512  1.00  0.00     0.012 A 
ATOM     84  C   UNL     1       1.634  11.017  22.293  1.00  0.00     0.148 A 
ATOM     85  C   UNL     1       4.181   9.944  22.797  1.00  0.00     0.002 A 
ATOM     86  C   UNL     1       2.199  11.118  23.558  1.00  0.00     0.091 A 
ATOM     87  F   UNL     1       0.407  11.489  22.028  1.00  0.00    -0.205 F 
ATOM     88  C   UNL     1       3.465  10.569  23.816  1.00  0.00     0.022 A 
BRANCH  86  89
ATOM     89  S   UNL     1       1.395  11.993  24.905  1.00  0.00     0.127 S 
ATOM     90  O   UNL     1       1.024  10.894  25.795  1.00  0.00    -0.237 OA
ATOM     91  O   UNL     1       2.473  12.847  25.405  1.00  0.00    -0.237 OA
ATOM     92  O   UNL     1       0.280  12.715  24.308  1.00  0.00    -0.744 OA
ENDBRANCH  86  89
ENDBRANCH  59  82
ENDBRANCH  33  34
ENDBRANCH  25  28
ENDBRANCH  23  24
ENDBRANCH  22  23
ENDBRANCH   1  22
TORSDOF 18
