REMARK SMILES CC(=O)c1cc2c(cc1NC(=O)/C=C/C(=O)NCCCNC(=O)c1ccc(-c3c4nc(c(-c5cccc(S(=O)(=O)[O-])c5F)c5ccc([nH]5)c(-c5cccc(S(=O)(=O)[O-])c5F)c5nc(c(-c6cccc(S(=O)(=O)[O-])c6F)c6ccc3[nH]6)C=C5)C=C4)cc1)OCO2
REMARK SMILES IDX 19 1 18 2 17 3 15 4 16 5 14 7 13 8 11 9 10 10 12 12 9 13
REMARK SMILES IDX 4 14 5 15 6 16 8 17 7 18 89 19 87 20 88 21 2 22 1 23 3 24
REMARK SMILES IDX 20 25 21 26 22 27 23 29 24 30 25 31 86 32 26 33 85 34 27 35
REMARK SMILES IDX 28 36 29 37 79 38 30 39 84 40 78 41 80 42 31 43 83 44 77 45
REMARK SMILES IDX 76 46 32 48 64 49 44 50 63 51 45 52 48 53 62 54 81 55 46 56
REMARK SMILES IDX 47 57 61 59 82 60 49 61 33 62 34 63 42 64 35 65 37 66 43 67
REMARK SMILES IDX 36 68 38 69 39 70 40 71 41 72 65 73 66 74 74 75 67 76 69 77
REMARK SMILES IDX 75 78 68 79 70 80 71 81 72 82 73 83 50 84 51 85 59 86 52 87
REMARK SMILES IDX 54 88 60 89 53 90 55 91 56 92 57 93 58 94
REMARK H PARENT 17 6 10 11 21 28 80 47 48 58
REMARK Flexibility Score: inf
ROOT
ATOM      1  C   UNL     1      -4.362   4.215   6.952  1.00  0.00     0.042 C 
ENDROOT
BRANCH   1   2
ATOM      2  C   UNL     1      -3.540   5.225   6.163  1.00  0.00     0.118 C 
BRANCH   2   3
ATOM      3  N   UNL     1      -2.119   5.098   6.432  1.00  0.00    -0.352 N 
ATOM      4  C   UNL     1      -1.105   4.858   5.567  1.00  0.00     0.244 C 
ATOM      5  O   UNL     1       0.065   4.978   5.926  1.00  0.00    -0.270 OA
ATOM      6  H   UNL     1      -1.856   5.202   7.375  1.00  0.00     0.163 HD
BRANCH   4   7
ATOM      7  C   UNL     1      -1.400   4.470   4.179  1.00  0.00     0.077 C 
ATOM      8  C   UNL     1      -2.161   3.396   3.922  1.00  0.00     0.077 C 
BRANCH   8   9
ATOM      9  C   UNL     1      -2.247   2.882   2.549  1.00  0.00     0.248 C 
ATOM     10  N   UNL     1      -1.158   2.296   1.965  1.00  0.00    -0.322 N 
ATOM     11  H   UNL     1      -1.312   2.012   1.035  1.00  0.00     0.170 HD
ATOM     12  O   UNL     1      -3.302   3.011   1.933  1.00  0.00    -0.270 OA
BRANCH  10  13
ATOM     13  C   UNL     1       0.150   2.016   2.436  1.00  0.00     0.056 A 
ATOM     14  C   UNL     1       1.171   1.732   1.492  1.00  0.00     0.045 A 
ATOM     15  C   UNL     1       2.528   1.719   1.851  1.00  0.00     0.064 A 
ATOM     16  C   UNL     1       2.830   1.939   3.174  1.00  0.00     0.166 A 
ATOM     17  C   UNL     1       0.506   2.049   3.787  1.00  0.00     0.077 A 
ATOM     18  C   UNL     1       1.843   2.055   4.119  1.00  0.00     0.167 A 
ATOM     19  O   UNL     1       4.073   2.044   3.715  1.00  0.00    -0.454 OA
ATOM     20  O   UNL     1       2.340   2.206   5.374  1.00  0.00    -0.454 OA
ATOM     21  C   UNL     1       3.739   2.376   5.084  1.00  0.00     0.468 C 
BRANCH  14  22
ATOM     22  C   UNL     1       0.813   1.387   0.098  1.00  0.00     0.162 C 
ATOM     23  C   UNL     1       1.263   0.038  -0.397  1.00  0.00     0.093 C 
ATOM     24  O   UNL     1       0.102   2.140  -0.558  1.00  0.00    -0.294 OA
ENDBRANCH  14  22
ENDBRANCH  10  13
ENDBRANCH   8   9
ENDBRANCH   4   7
ENDBRANCH   2   3
ENDBRANCH   1   2
BRANCH   1  25
ATOM     25  C   UNL     1      -4.265   4.395   8.463  1.00  0.00     0.118 C 
BRANCH  25  26
ATOM     26  N   UNL     1      -4.653   5.736   8.880  1.00  0.00    -0.352 N 
ATOM     27  C   UNL     1      -5.725   6.146   9.625  1.00  0.00     0.251 C 
ATOM     28  H   UNL     1      -4.053   6.457   8.579  1.00  0.00     0.163 HD
ATOM     29  O   UNL     1      -6.040   7.338   9.626  1.00  0.00    -0.269 OA
BRANCH  27  30
ATOM     30  C   UNL     1      -6.484   5.177  10.438  1.00  0.00     0.039 A 
ATOM     31  C   UNL     1      -7.869   5.321  10.556  1.00  0.00     0.014 A 
ATOM     32  C   UNL     1      -5.821   4.168  11.143  1.00  0.00     0.014 A 
ATOM     33  C   UNL     1      -8.588   4.444  11.369  1.00  0.00     0.010 A 
ATOM     34  C   UNL     1      -6.548   3.241  11.878  1.00  0.00     0.010 A 
ATOM     35  C   UNL     1      -7.932   3.396  12.033  1.00  0.00    -0.014 A 
BRANCH  35  36
ATOM     36  C   UNL     1      -8.663   2.488  12.949  1.00  0.00     0.031 A 
ATOM     37  C   UNL     1      -8.311   2.462  14.414  1.00  0.00     0.074 A 
ATOM     38  C   UNL     1      -9.580   1.636  12.455  1.00  0.00     0.049 A 
ATOM     39  N   UNL     1      -8.800   1.714  15.367  1.00  0.00    -0.248 NA
ATOM     40  C   UNL     1      -7.238   3.369  14.859  1.00  0.00     0.031 C 
ATOM     41  C   UNL     1      -9.935   1.503  11.040  1.00  0.00     0.029 A 
ATOM     42  N   UNL     1     -10.363   0.703  13.084  1.00  0.00    -0.354 N 
ATOM     43  C   UNL     1      -8.066   2.022  16.507  1.00  0.00     0.074 A 
ATOM     44  C   UNL     1      -7.069   2.994  16.117  1.00  0.00     0.031 C 
ATOM     45  C   UNL     1     -10.869   0.548  10.911  1.00  0.00     0.029 A 
ATOM     46  C   UNL     1     -11.167  -0.009  12.227  1.00  0.00     0.049 A 
ATOM     47  H   UNL     1     -10.350   0.557  14.058  1.00  0.00     0.167 HD
ATOM     48  C   UNL     1      -8.228   1.567  17.772  1.00  0.00     0.034 A 
ATOM     49  C   UNL     1     -12.050  -0.994  12.478  1.00  0.00     0.034 A 
ATOM     50  C   UNL     1      -9.265   0.652  18.161  1.00  0.00     0.049 A 
ATOM     51  C   UNL     1     -12.287  -1.409  13.905  1.00  0.00     0.074 A 
ATOM     52  C   UNL     1      -9.590   0.203  19.428  1.00  0.00     0.029 A 
ATOM     53  N   UNL     1     -10.151   0.047  17.282  1.00  0.00    -0.354 N 
ATOM     54  N   UNL     1     -11.697  -0.984  14.996  1.00  0.00    -0.248 NA
ATOM     55  C   UNL     1     -13.347  -2.398  14.141  1.00  0.00     0.031 C 
ATOM     56  C   UNL     1     -10.665  -0.685  19.313  1.00  0.00     0.029 A 
ATOM     57  C   UNL     1     -11.025  -0.769  17.977  1.00  0.00     0.049 A 
ATOM     58  H   UNL     1     -10.157   0.179  16.306  1.00  0.00     0.167 HD
ATOM     59  C   UNL     1     -12.339  -1.621  16.051  1.00  0.00     0.074 A 
ATOM     60  C   UNL     1     -13.376  -2.449  15.466  1.00  0.00     0.031 C 
ATOM     61  C   UNL     1     -12.087  -1.540  17.381  1.00  0.00     0.034 A 
BRANCH  48  62
ATOM     62  C   UNL     1      -7.296   2.101  18.830  1.00  0.00     0.023 A 
ATOM     63  C   UNL     1      -7.396   3.450  19.231  1.00  0.00     0.012 A 
ATOM     64  C   UNL     1      -6.342   1.269  19.447  1.00  0.00     0.148 A 
ATOM     65  C   UNL     1      -6.530   3.975  20.191  1.00  0.00     0.002 A 
ATOM     66  C   UNL     1      -5.516   1.787  20.439  1.00  0.00     0.091 A 
ATOM     67  F   UNL     1      -6.243  -0.004  19.040  1.00  0.00    -0.205 F 
ATOM     68  C   UNL     1      -5.598   3.141  20.801  1.00  0.00     0.022 A 
BRANCH  66  69
ATOM     69  S   UNL     1      -4.339   0.771  21.341  1.00  0.00     0.127 S 
ATOM     70  O   UNL     1      -3.070   1.195  20.751  1.00  0.00    -0.237 OA
ATOM     71  O   UNL     1      -4.546   1.211  22.722  1.00  0.00    -0.237 OA
ATOM     72  O   UNL     1      -4.724  -0.608  21.082  1.00  0.00    -0.744 OA
ENDBRANCH  66  69
ENDBRANCH  48  62
BRANCH  49  73
ATOM     73  C   UNL     1     -12.842  -1.575  11.359  1.00  0.00     0.023 A 
ATOM     74  C   UNL     1     -14.210  -1.258  11.243  1.00  0.00     0.012 A 
ATOM     75  C   UNL     1     -12.240  -2.389  10.380  1.00  0.00     0.148 A 
ATOM     76  C   UNL     1     -14.971  -1.763  10.189  1.00  0.00     0.002 A 
ATOM     77  C   UNL     1     -12.992  -2.846   9.303  1.00  0.00     0.091 A 
ATOM     78  F   UNL     1     -10.939  -2.682  10.512  1.00  0.00    -0.205 F 
ATOM     79  C   UNL     1     -14.361  -2.548   9.215  1.00  0.00     0.022 A 
BRANCH  77  80
ATOM     80  S   UNL     1     -12.261  -3.750   7.933  1.00  0.00     0.127 S 
ATOM     81  O   UNL     1     -12.834  -5.083   8.117  1.00  0.00    -0.237 OA
ATOM     82  O   UNL     1     -12.779  -3.014   6.778  1.00  0.00    -0.237 OA
ATOM     83  O   UNL     1     -10.823  -3.649   8.115  1.00  0.00    -0.744 OA
ENDBRANCH  77  80
ENDBRANCH  49  73
BRANCH  61  84
ATOM     84  C   UNL     1     -12.974  -2.330  18.307  1.00  0.00     0.023 A 
ATOM     85  C   UNL     1     -12.853  -3.732  18.371  1.00  0.00     0.012 A 
ATOM     86  C   UNL     1     -13.879  -1.673  19.163  1.00  0.00     0.148 A 
ATOM     87  C   UNL     1     -13.646  -4.471  19.247  1.00  0.00     0.002 A 
ATOM     88  C   UNL     1     -14.630  -2.412  20.069  1.00  0.00     0.091 A 
ATOM     89  F   UNL     1     -13.996  -0.340  19.073  1.00  0.00    -0.205 F 
ATOM     90  C   UNL     1     -14.525  -3.811  20.104  1.00  0.00     0.022 A 
BRANCH  88  91
ATOM     91  S   UNL     1     -15.708  -1.629  21.274  1.00  0.00     0.127 S 
ATOM     92  O   UNL     1     -17.024  -1.825  20.670  1.00  0.00    -0.237 OA
ATOM     93  O   UNL     1     -15.464  -2.426  22.478  1.00  0.00    -0.237 OA
ATOM     94  O   UNL     1     -15.256  -0.247  21.370  1.00  0.00    -0.744 OA
ENDBRANCH  88  91
ENDBRANCH  61  84
ENDBRANCH  35  36
ENDBRANCH  27  30
ENDBRANCH  25  26
ENDBRANCH   1  25
TORSDOF 16
