REMARK SMILES COc1ccc(-c2ccc(C#N)c(S[C@@H](C)C(=O)NCCCNC(=O)c3ccc(-c4c5nc(c(-c6cccc(S(=O)(=O)[O-])c6F)c6ccc([nH]6)c(-c6cccc(S(=O)(=O)[O-])c6F)c6nc(c(-c7cccc(S(=O)(=O)[O-])c7F)c7ccc4[nH]7)C=C6)C=C5)cc3)n2)cc1
REMARK SMILES IDX 20 1 19 2 17 3 18 4 15 6 16 7 14 8 13 9 7 10 8 11 89 12 9 13
REMARK SMILES IDX 10 14 6 15 3 16 4 17 91 18 5 19 90 20 2 21 1 22 11 23 12 24
REMARK SMILES IDX 21 25 22 26 23 27 24 28 25 30 26 31 27 32 88 33 28 34 87 35
REMARK SMILES IDX 29 36 30 37 31 38 81 39 32 40 86 41 80 42 82 43 33 44 85 45
REMARK SMILES IDX 79 46 78 47 34 49 66 50 46 51 65 52 47 53 50 54 64 55 83 56
REMARK SMILES IDX 48 57 49 58 63 60 84 61 51 62 35 63 36 64 44 65 37 66 39 67
REMARK SMILES IDX 45 68 38 69 40 70 41 71 42 72 43 73 67 74 68 75 76 76 69 77
REMARK SMILES IDX 71 78 77 79 70 80 72 81 73 82 74 83 75 84 52 85 53 86 61 87
REMARK SMILES IDX 54 88 56 89 62 90 55 91 57 92 58 93 59 94 60 95
REMARK H PARENT 19 5 23 29 82 48 50 59
REMARK Flexibility Score: inf
ROOT
ATOM      1  C   UNL     1       1.609  -6.901  -8.592  1.00  0.00     0.117 C 
ENDROOT
BRANCH   1   2
ATOM      2  N   UNL     1       0.764  -6.485  -9.678  1.00  0.00    -0.355 N 
ATOM      3  C   UNL     1       0.600  -5.330 -10.353  1.00  0.00     0.233 C 
ATOM      4  O   UNL     1      -0.134  -5.435 -11.351  1.00  0.00    -0.274 OA
ATOM      5  H   UNL     1       0.175  -7.204 -10.002  1.00  0.00     0.163 HD
BRANCH   3   6
ATOM      6  C   UNL     1       1.292  -3.992 -10.093  1.00  0.00     0.139 C 
ATOM      7  C   UNL     1       2.526  -3.716 -10.937  1.00  0.00     0.030 C 
BRANCH   6   8
ATOM      8  S   UNL     1       1.134  -3.137  -8.491  1.00  0.00    -0.092 SA
BRANCH   8   9
ATOM      9  C   UNL     1       2.208  -3.728  -7.210  1.00  0.00     0.115 A 
ATOM     10  C   UNL     1       2.227  -3.859  -4.848  1.00  0.00     0.072 A 
ATOM     11  C   UNL     1       3.352  -4.667  -4.866  1.00  0.00     0.030 A 
ATOM     12  N   UNL     1       1.634  -3.455  -5.997  1.00  0.00    -0.240 NA
ATOM     13  C   UNL     1       3.986  -4.883  -6.076  1.00  0.00     0.024 A 
ATOM     14  C   UNL     1       3.456  -4.346  -7.260  1.00  0.00     0.084 A 
BRANCH  10  15
ATOM     15  C   UNL     1       1.796  -3.232  -3.590  1.00  0.00     0.000 A 
ATOM     16  C   UNL     1       1.155  -2.002  -1.142  1.00  0.00     0.118 A 
ATOM     17  C   UNL     1       0.151  -2.591  -1.909  1.00  0.00     0.047 A 
ATOM     18  C   UNL     1       2.474  -2.035  -1.567  1.00  0.00     0.047 A 
ATOM     19  C   UNL     1       0.467  -3.193  -3.140  1.00  0.00     0.014 A 
ATOM     20  C   UNL     1       2.784  -2.627  -2.784  1.00  0.00     0.014 A 
BRANCH  16  21
ATOM     21  O   UNL     1       0.852  -1.459   0.073  1.00  0.00    -0.497 OA
ATOM     22  C   UNL     1       1.060  -0.045   0.072  1.00  0.00     0.278 C 
ENDBRANCH  16  21
ENDBRANCH  10  15
BRANCH  14  23
ATOM     23  C   UNL     1       4.266  -4.507  -8.417  1.00  0.00     0.102 C 
ATOM     24  N   UNL     1       4.992  -4.720  -9.304  1.00  0.00    -0.192 NA
ENDBRANCH  14  23
ENDBRANCH   8   9
ENDBRANCH   6   8
ENDBRANCH   3   6
ENDBRANCH   1   2
BRANCH   1  25
ATOM     25  C   UNL     1       0.867  -6.923  -7.266  1.00  0.00     0.042 C 
BRANCH  25  26
ATOM     26  C   UNL     1       1.198  -8.128  -6.402  1.00  0.00     0.118 C 
BRANCH  26  27
ATOM     27  N   UNL     1       2.621  -8.354  -6.183  1.00  0.00    -0.352 N 
ATOM     28  C   UNL     1       3.299  -8.744  -5.049  1.00  0.00     0.251 C 
ATOM     29  H   UNL     1       3.190  -8.204  -6.972  1.00  0.00     0.163 HD
ATOM     30  O   UNL     1       4.525  -8.825  -5.097  1.00  0.00    -0.269 OA
BRANCH  28  31
ATOM     31  C   UNL     1       2.587  -9.002  -3.773  1.00  0.00     0.039 A 
ATOM     32  C   UNL     1       3.223  -8.673  -2.570  1.00  0.00     0.014 A 
ATOM     33  C   UNL     1       1.298  -9.529  -3.740  1.00  0.00     0.014 A 
ATOM     34  C   UNL     1       2.528  -8.775  -1.361  1.00  0.00     0.010 A 
ATOM     35  C   UNL     1       0.564  -9.498  -2.561  1.00  0.00     0.010 A 
ATOM     36  C   UNL     1       1.171  -9.132  -1.353  1.00  0.00    -0.014 A 
BRANCH  36  37
ATOM     37  C   UNL     1       0.362  -9.135  -0.106  1.00  0.00     0.031 A 
ATOM     38  C   UNL     1      -0.365 -10.389   0.319  1.00  0.00     0.074 A 
ATOM     39  C   UNL     1       0.180  -7.983   0.573  1.00  0.00     0.049 A 
ATOM     40  N   UNL     1      -1.209 -10.563   1.302  1.00  0.00    -0.248 NA
ATOM     41  C   UNL     1      -0.152 -11.598  -0.499  1.00  0.00     0.031 C 
ATOM     42  C   UNL     1       0.732  -6.675   0.203  1.00  0.00     0.029 A 
ATOM     43  N   UNL     1      -0.553  -7.720   1.703  1.00  0.00    -0.354 N 
ATOM     44  C   UNL     1      -1.672 -11.870   1.182  1.00  0.00     0.074 A 
ATOM     45  C   UNL     1      -1.045 -12.434   0.009  1.00  0.00     0.031 C 
ATOM     46  C   UNL     1       0.324  -5.753   1.091  1.00  0.00     0.029 A 
ATOM     47  C   UNL     1      -0.539  -6.395   2.075  1.00  0.00     0.049 A 
ATOM     48  H   UNL     1      -1.044  -8.413   2.200  1.00  0.00     0.167 HD
ATOM     49  C   UNL     1      -2.517 -12.552   1.991  1.00  0.00     0.034 A 
ATOM     50  C   UNL     1      -1.161  -5.768   3.090  1.00  0.00     0.034 A 
ATOM     51  C   UNL     1      -3.083 -12.006   3.193  1.00  0.00     0.049 A 
ATOM     52  C   UNL     1      -2.019  -6.572   4.029  1.00  0.00     0.074 A 
ATOM     53  C   UNL     1      -3.857 -12.644   4.146  1.00  0.00     0.029 A 
ATOM     54  N   UNL     1      -2.940 -10.691   3.607  1.00  0.00    -0.354 N 
ATOM     55  N   UNL     1      -2.311  -7.849   3.992  1.00  0.00    -0.248 NA
ATOM     56  C   UNL     1      -2.602  -5.853   5.171  1.00  0.00     0.031 C 
ATOM     57  C   UNL     1      -4.207 -11.705   5.122  1.00  0.00     0.029 A 
ATOM     58  C   UNL     1      -3.618 -10.494   4.796  1.00  0.00     0.049 A 
ATOM     59  H   UNL     1      -2.431 -10.000   3.125  1.00  0.00     0.167 HD
ATOM     60  C   UNL     1      -3.092  -8.092   5.116  1.00  0.00     0.074 A 
ATOM     61  C   UNL     1      -3.202  -6.835   5.828  1.00  0.00     0.031 C 
ATOM     62  C   UNL     1      -3.679  -9.248   5.515  1.00  0.00     0.034 A 
BRANCH  49  63
ATOM     63  C   UNL     1      -2.840 -13.981   1.633  1.00  0.00     0.023 A 
ATOM     64  C   UNL     1      -1.843 -14.973   1.736  1.00  0.00     0.012 A 
ATOM     65  C   UNL     1      -4.144 -14.354   1.250  1.00  0.00     0.148 A 
ATOM     66  C   UNL     1      -2.125 -16.303   1.425  1.00  0.00     0.002 A 
ATOM     67  C   UNL     1      -4.431 -15.689   0.991  1.00  0.00     0.091 A 
ATOM     68  F   UNL     1      -5.076 -13.397   1.138  1.00  0.00    -0.205 F 
ATOM     69  C   UNL     1      -3.420 -16.662   1.064  1.00  0.00     0.022 A 
BRANCH  67  70
ATOM     70  S   UNL     1      -6.085 -16.270   0.600  1.00  0.00     0.127 S 
ATOM     71  O   UNL     1      -5.936 -16.661  -0.801  1.00  0.00    -0.237 OA
ATOM     72  O   UNL     1      -6.244 -17.389   1.530  1.00  0.00    -0.237 OA
ATOM     73  O   UNL     1      -6.976 -15.145   0.843  1.00  0.00    -0.744 OA
ENDBRANCH  67  70
ENDBRANCH  49  63
BRANCH  50  74
ATOM     74  C   UNL     1      -0.960  -4.310   3.315  1.00  0.00     0.023 A 
ATOM     75  C   UNL     1      -0.133  -3.885   4.373  1.00  0.00     0.012 A 
ATOM     76  C   UNL     1      -1.612  -3.349   2.522  1.00  0.00     0.148 A 
ATOM     77  C   UNL     1       0.015  -2.526   4.656  1.00  0.00     0.002 A 
ATOM     78  C   UNL     1      -1.453  -1.996   2.803  1.00  0.00     0.091 A 
ATOM     79  F   UNL     1      -2.407  -3.771   1.528  1.00  0.00    -0.205 F 
ATOM     80  C   UNL     1      -0.640  -1.581   3.869  1.00  0.00     0.022 A 
BRANCH  78  81
ATOM     81  S   UNL     1      -2.309  -0.746   1.836  1.00  0.00     0.127 S 
ATOM     82  O   UNL     1      -3.594  -0.665   2.524  1.00  0.00    -0.237 OA
ATOM     83  O   UNL     1      -1.462   0.438   2.001  1.00  0.00    -0.237 OA
ATOM     84  O   UNL     1      -2.338  -1.274   0.478  1.00  0.00    -0.744 OA
ENDBRANCH  78  81
ENDBRANCH  50  74
BRANCH  62  85
ATOM     85  C   UNL     1      -4.463  -9.226   6.800  1.00  0.00     0.023 A 
ATOM     86  C   UNL     1      -5.707  -8.568   6.856  1.00  0.00     0.012 A 
ATOM     87  C   UNL     1      -4.000  -9.930   7.930  1.00  0.00     0.148 A 
ATOM     88  C   UNL     1      -6.463  -8.583   8.027  1.00  0.00     0.002 A 
ATOM     89  C   UNL     1      -4.784  -9.985   9.075  1.00  0.00     0.091 A 
ATOM     90  F   UNL     1      -2.805 -10.535   7.861  1.00  0.00    -0.205 F 
ATOM     91  C   UNL     1      -6.009  -9.301   9.130  1.00  0.00     0.022 A 
BRANCH  89  92
ATOM     92  S   UNL     1      -4.327 -10.970  10.506  1.00  0.00     0.127 S 
ATOM     93  O   UNL     1      -3.983  -9.937  11.482  1.00  0.00    -0.237 OA
ATOM     94  O   UNL     1      -5.567 -11.692  10.793  1.00  0.00    -0.237 OA
ATOM     95  O   UNL     1      -3.221 -11.815  10.078  1.00  0.00    -0.744 OA
ENDBRANCH  89  92
ENDBRANCH  62  85
ENDBRANCH  36  37
ENDBRANCH  28  31
ENDBRANCH  26  27
ENDBRANCH  25  26
ENDBRANCH   1  25
TORSDOF 18
