REMARK SMILES O=C(CCC(=O)N1CCC(c2nnc3ccccn23)CC1)NCCCNC(=O)c1ccc(-c2c3nc(c(-c4cccc(S(=O)(=O)[O-])c4F)c4ccc([nH]4)c(-c4cccc(S(=O)(=O)[O-])c4F)c4nc(c(-c5cccc(S(=O)(=O)[O-])c5F)c5ccc2[nH]5)C=C4)C=C3)cc1
REMARK SMILES IDX 24 1 23 2 22 3 1 4 2 5 3 7 4 8 5 9 6 10 7 11 8 12 21 13 9 14
REMARK SMILES IDX 20 15 10 16 11 17 12 18 19 19 13 20 14 21 18 22 15 23 17 24
REMARK SMILES IDX 16 25 25 26 26 27 27 28 28 30 29 31 30 32 91 33 31 34 90 35
REMARK SMILES IDX 32 36 33 37 34 38 84 39 35 40 89 41 83 42 85 43 36 44 88 45
REMARK SMILES IDX 82 46 81 47 37 49 69 50 49 51 68 52 50 53 53 54 67 55 86 56
REMARK SMILES IDX 51 57 52 58 66 60 87 61 54 62 38 63 39 64 47 65 40 66 42 67
REMARK SMILES IDX 48 68 41 69 43 70 44 71 45 72 46 73 70 74 71 75 79 76 72 77
REMARK SMILES IDX 74 78 80 79 73 80 75 81 76 82 77 83 78 84 55 85 56 86 64 87
REMARK SMILES IDX 57 88 59 89 65 90 58 91 60 92 61 93 62 94 63 95
REMARK H PARENT 22 6 26 29 85 48 53 59
REMARK Flexibility Score: inf
ROOT
ATOM      1  C   UNL     1       1.215  -1.894  -3.420  1.00  0.00     0.042 C 
ENDROOT
BRANCH   1   2
ATOM      2  C   UNL     1       1.127  -1.513  -1.940  1.00  0.00     0.117 C 
BRANCH   2   3
ATOM      3  N   UNL     1       1.966  -0.398  -1.523  1.00  0.00    -0.356 N 
ATOM      4  O   UNL     1       1.004  -0.258   0.559  1.00  0.00    -0.275 OA
ATOM      5  C   UNL     1       1.911   0.050  -0.210  1.00  0.00     0.220 C 
ATOM      6  H   UNL     1       2.568   0.037  -2.170  1.00  0.00     0.163 HD
BRANCH   5   7
ATOM      7  C   UNL     1       3.143   0.829   0.252  1.00  0.00     0.110 C 
BRANCH   7   8
ATOM      8  C   UNL     1       3.648   0.322   1.613  1.00  0.00     0.110 C 
BRANCH   8   9
ATOM      9  C   UNL     1       4.940  -0.512   1.705  1.00  0.00     0.223 C 
ATOM     10  O   UNL     1       5.903  -0.049   2.324  1.00  0.00    -0.275 OA
ATOM     11  N   UNL     1       4.952  -1.822   1.247  1.00  0.00    -0.343 N 
ATOM     12  C   UNL     1       5.953  -2.784   1.710  1.00  0.00     0.120 C 
ATOM     13  C   UNL     1       4.160  -2.310   0.147  1.00  0.00     0.120 C 
ATOM     14  C   UNL     1       6.843  -3.314   0.573  1.00  0.00     0.033 C 
ATOM     15  C   UNL     1       5.077  -2.572  -1.029  1.00  0.00     0.033 C 
ATOM     16  C   UNL     1       6.034  -3.711  -0.673  1.00  0.00     0.062 C 
BRANCH  16  17
ATOM     17  C   UNL     1       6.911  -4.010  -1.848  1.00  0.00     0.140 A 
ATOM     18  N   UNL     1       7.458  -3.108  -2.644  1.00  0.00    -0.134 NA
ATOM     19  N   UNL     1       7.201  -5.271  -2.328  1.00  0.00    -0.286 N 
ATOM     20  N   UNL     1       8.087  -3.761  -3.676  1.00  0.00    -0.130 NA
ATOM     21  C   UNL     1       7.920  -5.051  -3.496  1.00  0.00     0.160 A 
ATOM     22  C   UNL     1       6.896  -6.547  -1.852  1.00  0.00     0.095 A 
ATOM     23  C   UNL     1       8.312  -6.187  -4.254  1.00  0.00     0.050 A 
ATOM     24  C   UNL     1       7.294  -7.621  -2.556  1.00  0.00     0.019 A 
ATOM     25  C   UNL     1       8.014  -7.422  -3.805  1.00  0.00     0.005 A 
ENDBRANCH  16  17
ENDBRANCH   8   9
ENDBRANCH   7   8
ENDBRANCH   5   7
ENDBRANCH   2   3
ENDBRANCH   1   2
BRANCH   1  26
ATOM     26  C   UNL     1       2.511  -2.574  -3.878  1.00  0.00     0.118 C 
BRANCH  26  27
ATOM     27  N   UNL     1       2.762  -3.873  -3.261  1.00  0.00    -0.352 N 
ATOM     28  C   UNL     1       3.674  -4.858  -3.585  1.00  0.00     0.251 C 
ATOM     29  H   UNL     1       2.189  -4.080  -2.489  1.00  0.00     0.163 HD
ATOM     30  O   UNL     1       3.751  -5.841  -2.846  1.00  0.00    -0.269 OA
BRANCH  28  31
ATOM     31  C   UNL     1       4.526  -4.795  -4.804  1.00  0.00     0.039 A 
ATOM     32  C   UNL     1       4.767  -5.991  -5.498  1.00  0.00     0.014 A 
ATOM     33  C   UNL     1       5.095  -3.613  -5.279  1.00  0.00     0.014 A 
ATOM     34  C   UNL     1       5.450  -5.978  -6.721  1.00  0.00     0.010 A 
ATOM     35  C   UNL     1       5.736  -3.587  -6.520  1.00  0.00     0.010 A 
ATOM     36  C   UNL     1       5.866  -4.759  -7.277  1.00  0.00    -0.014 A 
BRANCH  36  37
ATOM     37  C   UNL     1       6.181  -4.646  -8.724  1.00  0.00     0.031 A 
ATOM     38  C   UNL     1       7.547  -4.283  -9.226  1.00  0.00     0.074 A 
ATOM     39  C   UNL     1       5.137  -4.720  -9.577  1.00  0.00     0.049 A 
ATOM     40  N   UNL     1       7.944  -4.108 -10.460  1.00  0.00    -0.248 NA
ATOM     41  C   UNL     1       8.599  -4.075  -8.220  1.00  0.00     0.031 C 
ATOM     42  C   UNL     1       3.745  -4.957  -9.176  1.00  0.00     0.029 A 
ATOM     43  N   UNL     1       5.061  -4.554 -10.936  1.00  0.00    -0.354 N 
ATOM     44  C   UNL     1       9.287  -3.757 -10.387  1.00  0.00     0.074 A 
ATOM     45  C   UNL     1       9.634  -3.732  -8.981  1.00  0.00     0.031 C 
ATOM     46  C   UNL     1       2.955  -4.900 -10.256  1.00  0.00     0.029 A 
ATOM     47  C   UNL     1       3.774  -4.597 -11.421  1.00  0.00     0.049 A 
ATOM     48  H   UNL     1       5.850  -4.418 -11.509  1.00  0.00     0.167 HD
ATOM     49  C   UNL     1      10.146  -3.489 -11.403  1.00  0.00     0.034 A 
ATOM     50  C   UNL     1       3.295  -4.398 -12.664  1.00  0.00     0.034 A 
ATOM     51  C   UNL     1       9.768  -3.491 -12.795  1.00  0.00     0.049 A 
ATOM     52  C   UNL     1       4.271  -4.128 -13.771  1.00  0.00     0.074 A 
ATOM     53  C   UNL     1      10.573  -3.319 -13.908  1.00  0.00     0.029 A 
ATOM     54  N   UNL     1       8.470  -3.638 -13.264  1.00  0.00    -0.354 N 
ATOM     55  N   UNL     1       5.574  -4.001 -13.702  1.00  0.00    -0.248 NA
ATOM     56  C   UNL     1       3.724  -4.021 -15.128  1.00  0.00     0.031 C 
ATOM     57  C   UNL     1       9.757  -3.324 -15.045  1.00  0.00     0.029 A 
ATOM     58  C   UNL     1       8.448  -3.540 -14.646  1.00  0.00     0.049 A 
ATOM     59  H   UNL     1       7.679  -3.790 -12.697  1.00  0.00     0.167 HD
ATOM     60  C   UNL     1       6.009  -3.833 -15.009  1.00  0.00     0.074 A 
ATOM     61  C   UNL     1       4.829  -3.894 -15.850  1.00  0.00     0.031 C 
ATOM     62  C   UNL     1       7.269  -3.639 -15.470  1.00  0.00     0.034 A 
BRANCH  49  63
ATOM     63  C   UNL     1      11.590  -3.208 -11.059  1.00  0.00     0.023 A 
ATOM     64  C   UNL     1      12.406  -4.258 -10.589  1.00  0.00     0.012 A 
ATOM     65  C   UNL     1      12.165  -1.940 -11.279  1.00  0.00     0.148 A 
ATOM     66  C   UNL     1      13.756  -4.045 -10.312  1.00  0.00     0.002 A 
ATOM     67  C   UNL     1      13.522  -1.744 -11.039  1.00  0.00     0.091 A 
ATOM     68  F   UNL     1      11.376  -0.948 -11.718  1.00  0.00    -0.205 F 
ATOM     69  C   UNL     1      14.316  -2.792 -10.545  1.00  0.00     0.022 A 
BRANCH  67  70
ATOM     70  S   UNL     1      14.360  -0.191 -11.382  1.00  0.00     0.127 S 
ATOM     71  O   UNL     1      14.675   0.278 -10.033  1.00  0.00    -0.237 OA
ATOM     72  O   UNL     1      15.520  -0.633 -12.158  1.00  0.00    -0.237 OA
ATOM     73  O   UNL     1      13.409   0.626 -12.120  1.00  0.00    -0.744 OA
ENDBRANCH  67  70
ENDBRANCH  49  63
BRANCH  50  74
ATOM     74  C   UNL     1       1.833  -4.523 -12.920  1.00  0.00     0.023 A 
ATOM     75  C   UNL     1       1.349  -5.639 -13.628  1.00  0.00     0.012 A 
ATOM     76  C   UNL     1       0.915  -3.586 -12.405  1.00  0.00     0.148 A 
ATOM     77  C   UNL     1      -0.019  -5.807 -13.844  1.00  0.00     0.002 A 
ATOM     78  C   UNL     1      -0.450  -3.788 -12.574  1.00  0.00     0.091 A 
ATOM     79  F   UNL     1       1.395  -2.529 -11.734  1.00  0.00    -0.205 F 
ATOM     80  C   UNL     1      -0.918  -4.889 -13.307  1.00  0.00     0.022 A 
BRANCH  78  81
ATOM     81  S   UNL     1      -1.682  -2.738 -11.795  1.00  0.00     0.127 S 
ATOM     82  O   UNL     1      -2.227  -2.015 -12.942  1.00  0.00    -0.237 OA
ATOM     83  O   UNL     1      -2.587  -3.723 -11.200  1.00  0.00    -0.237 OA
ATOM     84  O   UNL     1      -0.955  -1.932 -10.824  1.00  0.00    -0.744 OA
ENDBRANCH  78  81
ENDBRANCH  50  74
BRANCH  62  85
ATOM     85  C   UNL     1       7.444  -3.510 -16.959  1.00  0.00     0.023 A 
ATOM     86  C   UNL     1       7.017  -2.341 -17.620  1.00  0.00     0.012 A 
ATOM     87  C   UNL     1       8.091  -4.524 -17.692  1.00  0.00     0.148 A 
ATOM     88  C   UNL     1       7.202  -2.198 -18.995  1.00  0.00     0.002 A 
ATOM     89  C   UNL     1       8.319  -4.351 -19.051  1.00  0.00     0.091 A 
ATOM     90  F   UNL     1       8.469  -5.637 -17.047  1.00  0.00    -0.205 F 
ATOM     91  C   UNL     1       7.864  -3.196 -19.707  1.00  0.00     0.022 A 
BRANCH  89  92
ATOM     92  S   UNL     1       9.246  -5.538 -20.030  1.00  0.00     0.127 S 
ATOM     93  O   UNL     1       8.200  -6.106 -20.879  1.00  0.00    -0.237 OA
ATOM     94  O   UNL     1      10.201  -4.679 -20.731  1.00  0.00    -0.237 OA
ATOM     95  O   UNL     1       9.848  -6.463 -19.079  1.00  0.00    -0.744 OA
ENDBRANCH  89  92
ENDBRANCH  62  85
ENDBRANCH  36  37
ENDBRANCH  28  31
ENDBRANCH  26  27
ENDBRANCH   1  26
TORSDOF 16
