REMARK SMILES Cn1c(=O)c(=O)n(C)c2cc(S(=O)(=O)N3CCC[C@H]3C(=O)NCCCNC(=O)c3ccc(-c4c5nc(c(-c6cccc(S(=O)(=O)[O-])c6F)c6ccc([nH]6)c(-c6cccc(S(=O)(=O)[O-])c6F)c6nc(c(-c7cccc(S(=O)(=O)[O-])c7F)c7ccc4[nH]7)C=C6)C=C5)cc3)ccc21
REMARK SMILES IDX 24 1 23 2 22 3 20 4 21 5 19 7 15 8 16 9 17 10 18 11 12 12
REMARK SMILES IDX 13 13 14 14 11 15 1 16 2 17 3 18 94 19 4 20 5 21 9 22 93 23
REMARK SMILES IDX 6 24 7 25 10 26 92 27 8 28 25 29 26 30 27 31 28 33 29 34
REMARK SMILES IDX 30 35 91 36 31 37 90 38 32 39 33 40 34 41 84 42 35 43 89 44
REMARK SMILES IDX 83 45 85 46 36 47 88 48 82 49 81 50 37 52 69 53 49 54 68 55
REMARK SMILES IDX 50 56 53 57 67 58 86 59 51 60 52 61 66 63 87 64 54 65 38 66
REMARK SMILES IDX 39 67 47 68 40 69 42 70 48 71 41 72 43 73 44 74 45 75 46 76
REMARK SMILES IDX 70 77 71 78 79 79 72 80 74 81 80 82 73 83 75 84 76 85 77 86
REMARK SMILES IDX 78 87 55 88 56 89 64 90 57 91 59 92 65 93 58 94 60 95 61 96
REMARK SMILES IDX 62 97 63 98
REMARK H PARENT 22 6 26 32 85 51 53 62
REMARK Flexibility Score: inf
ROOT
ATOM      1  C   UNL     1      -6.348  -1.335  -5.912  1.00  0.00     0.042 C 
ENDROOT
BRANCH   1   2
ATOM      2  C   UNL     1      -5.844  -0.122  -6.687  1.00  0.00     0.117 C 
BRANCH   2   3
ATOM      3  N   UNL     1      -6.074   1.116  -5.973  1.00  0.00    -0.355 N 
ATOM      4  C   UNL     1      -5.327   1.832  -5.099  1.00  0.00     0.238 C 
ATOM      5  O   UNL     1      -5.923   2.791  -4.585  1.00  0.00    -0.273 OA
ATOM      6  H   UNL     1      -6.952   1.520  -6.160  1.00  0.00     0.163 HD
BRANCH   4   7
ATOM      7  C   UNL     1      -3.886   1.507  -4.671  1.00  0.00     0.162 C 
ATOM      8  N   UNL     1      -2.967   0.825  -5.600  1.00  0.00    -0.185 NA
ATOM      9  C   UNL     1      -2.134   1.797  -6.309  1.00  0.00     0.103 C 
ATOM     10  C   UNL     1      -2.004   2.972  -5.366  1.00  0.00     0.019 C 
ATOM     11  C   UNL     1      -3.169   2.858  -4.390  1.00  0.00     0.032 C 
BRANCH   8  12
ATOM     12  S   UNL     1      -2.433  -0.749  -5.367  1.00  0.00     0.243 S 
ATOM     13  O   UNL     1      -1.620  -1.101  -6.510  1.00  0.00    -0.207 OA
ATOM     14  O   UNL     1      -3.579  -1.547  -4.994  1.00  0.00    -0.207 OA
BRANCH  12  15
ATOM     15  C   UNL     1      -1.362  -0.849  -3.953  1.00  0.00     0.084 A 
ATOM     16  C   UNL     1       1.323  -0.337   0.389  1.00  0.00     0.154 C 
ATOM     17  N   UNL     1       0.977  -1.458  -0.469  1.00  0.00    -0.305 N 
ATOM     18  C   UNL     1       1.400  -2.726  -0.071  1.00  0.00     0.316 A 
ATOM     19  C   UNL     1       0.195  -1.265  -1.640  1.00  0.00     0.068 A 
ATOM     20  O   UNL     1       2.058  -2.929   0.947  1.00  0.00    -0.263 OA
ATOM     21  C   UNL     1       1.028  -3.921  -0.957  1.00  0.00     0.316 A 
ATOM     22  C   UNL     1      -0.171  -2.364  -2.437  1.00  0.00     0.069 A 
ATOM     23  C   UNL     1      -0.233   0.021  -2.020  1.00  0.00     0.030 A 
ATOM     24  O   UNL     1       1.449  -5.031  -0.646  1.00  0.00    -0.263 OA
ATOM     25  N   UNL     1       0.235  -3.678  -2.077  1.00  0.00    -0.305 N 
ATOM     26  C   UNL     1      -0.948  -2.139  -3.586  1.00  0.00     0.050 A 
ATOM     27  C   UNL     1      -0.999   0.231  -3.171  1.00  0.00     0.024 A 
ATOM     28  C   UNL     1      -0.170  -4.823  -2.881  1.00  0.00     0.154 C 
ENDBRANCH  12  15
ENDBRANCH   8  12
ENDBRANCH   4   7
ENDBRANCH   2   3
ENDBRANCH   1   2
BRANCH   1  29
ATOM     29  C   UNL     1      -7.860  -1.425  -5.746  1.00  0.00     0.118 C 
BRANCH  29  30
ATOM     30  N   UNL     1      -8.570  -1.670  -6.991  1.00  0.00    -0.352 N 
ATOM     31  C   UNL     1      -9.535  -2.605  -7.289  1.00  0.00     0.251 C 
ATOM     32  H   UNL     1      -8.323  -1.076  -7.735  1.00  0.00     0.163 HD
ATOM     33  O   UNL     1      -9.922  -2.708  -8.451  1.00  0.00    -0.269 OA
BRANCH  31  34
ATOM     34  C   UNL     1     -10.082  -3.506  -6.244  1.00  0.00     0.039 A 
ATOM     35  C   UNL     1     -10.382  -3.047  -4.960  1.00  0.00     0.014 A 
ATOM     36  C   UNL     1     -10.324  -4.846  -6.571  1.00  0.00     0.014 A 
ATOM     37  C   UNL     1     -10.770  -3.950  -3.971  1.00  0.00     0.010 A 
ATOM     38  C   UNL     1     -10.785  -5.738  -5.595  1.00  0.00     0.010 A 
ATOM     39  C   UNL     1     -10.966  -5.308  -4.274  1.00  0.00    -0.014 A 
BRANCH  39  40
ATOM     40  C   UNL     1     -11.358  -6.243  -3.187  1.00  0.00     0.031 A 
ATOM     41  C   UNL     1     -10.411  -7.306  -2.701  1.00  0.00     0.074 A 
ATOM     42  C   UNL     1     -12.550  -6.082  -2.580  1.00  0.00     0.049 A 
ATOM     43  N   UNL     1     -10.536  -8.106  -1.673  1.00  0.00    -0.248 NA
ATOM     44  C   UNL     1      -9.165  -7.499  -3.460  1.00  0.00     0.031 C 
ATOM     45  C   UNL     1     -13.568  -5.109  -2.977  1.00  0.00     0.029 A 
ATOM     46  N   UNL     1     -13.091  -6.704  -1.482  1.00  0.00    -0.354 N 
ATOM     47  C   UNL     1      -9.402  -8.907  -1.672  1.00  0.00     0.074 A 
ATOM     48  C   UNL     1      -8.604  -8.511  -2.812  1.00  0.00     0.031 C 
ATOM     49  C   UNL     1     -14.578  -5.147  -2.094  1.00  0.00     0.029 A 
ATOM     50  C   UNL     1     -14.292  -6.165  -1.086  1.00  0.00     0.049 A 
ATOM     51  H   UNL     1     -12.660  -7.460  -1.023  1.00  0.00     0.167 HD
ATOM     52  C   UNL     1      -9.037  -9.862  -0.784  1.00  0.00     0.034 A 
ATOM     53  C   UNL     1     -15.066  -6.435  -0.016  1.00  0.00     0.034 A 
ATOM     54  C   UNL     1      -9.797 -10.224   0.380  1.00  0.00     0.049 A 
ATOM     55  C   UNL     1     -14.631  -7.482   0.968  1.00  0.00     0.074 A 
ATOM     56  C   UNL     1      -9.483 -11.156   1.354  1.00  0.00     0.029 A 
ATOM     57  N   UNL     1     -11.015  -9.668   0.734  1.00  0.00    -0.354 N 
ATOM     58  N   UNL     1     -13.514  -8.166   0.997  1.00  0.00    -0.248 NA
ATOM     59  C   UNL     1     -15.556  -7.790   2.069  1.00  0.00     0.031 C 
ATOM     60  C   UNL     1     -10.510 -11.156   2.305  1.00  0.00     0.029 A 
ATOM     61  C   UNL     1     -11.466 -10.233   1.913  1.00  0.00     0.049 A 
ATOM     62  H   UNL     1     -11.489  -8.974   0.222  1.00  0.00     0.167 HD
ATOM     63  C   UNL     1     -13.598  -8.984   2.118  1.00  0.00     0.074 A 
ATOM     64  C   UNL     1     -14.865  -8.693   2.756  1.00  0.00     0.031 C 
ATOM     65  C   UNL     1     -12.712  -9.909   2.559  1.00  0.00     0.034 A 
BRANCH  52  66
ATOM     66  C   UNL     1      -7.710 -10.532  -0.994  1.00  0.00     0.023 A 
ATOM     67  C   UNL     1      -6.546  -9.891  -0.526  1.00  0.00     0.012 A 
ATOM     68  C   UNL     1      -7.611 -11.802  -1.592  1.00  0.00     0.148 A 
ATOM     69  C   UNL     1      -5.300 -10.499  -0.659  1.00  0.00     0.002 A 
ATOM     70  C   UNL     1      -6.365 -12.411  -1.704  1.00  0.00     0.091 A 
ATOM     71  F   UNL     1      -8.726 -12.381  -2.059  1.00  0.00    -0.205 F 
ATOM     72  C   UNL     1      -5.210 -11.761  -1.240  1.00  0.00     0.022 A 
BRANCH  70  73
ATOM     73  S   UNL     1      -6.168 -14.054  -2.405  1.00  0.00     0.127 S 
ATOM     74  O   UNL     1      -5.759 -13.744  -3.773  1.00  0.00    -0.237 OA
ATOM     75  O   UNL     1      -5.114 -14.631  -1.570  1.00  0.00    -0.237 OA
ATOM     76  O   UNL     1      -7.467 -14.697  -2.261  1.00  0.00    -0.744 OA
ENDBRANCH  70  73
ENDBRANCH  52  66
BRANCH  53  77
ATOM     77  C   UNL     1     -16.279  -5.607   0.220  1.00  0.00     0.023 A 
ATOM     78  C   UNL     1     -16.232  -4.599   1.202  1.00  0.00     0.012 A 
ATOM     79  C   UNL     1     -17.425  -5.734  -0.589  1.00  0.00     0.148 A 
ATOM     80  C   UNL     1     -17.306  -3.726   1.373  1.00  0.00     0.002 A 
ATOM     81  C   UNL     1     -18.475  -4.835  -0.440  1.00  0.00     0.091 A 
ATOM     82  F   UNL     1     -17.439  -6.699  -1.518  1.00  0.00    -0.205 F 
ATOM     83  C   UNL     1     -18.421  -3.836   0.545  1.00  0.00     0.022 A 
BRANCH  81  84
ATOM     84  S   UNL     1     -19.905  -4.823  -1.526  1.00  0.00     0.127 S 
ATOM     85  O   UNL     1     -21.004  -4.990  -0.577  1.00  0.00    -0.237 OA
ATOM     86  O   UNL     1     -19.806  -3.493  -2.127  1.00  0.00    -0.237 OA
ATOM     87  O   UNL     1     -19.713  -5.930  -2.451  1.00  0.00    -0.744 OA
ENDBRANCH  81  84
ENDBRANCH  53  77
BRANCH  65  88
ATOM     88  C   UNL     1     -13.077 -10.710   3.776  1.00  0.00     0.023 A 
ATOM     89  C   UNL     1     -13.898 -11.844   3.617  1.00  0.00     0.012 A 
ATOM     90  C   UNL     1     -12.513 -10.428   5.035  1.00  0.00     0.148 A 
ATOM     91  C   UNL     1     -14.154 -12.688   4.695  1.00  0.00     0.002 A 
ATOM     92  C   UNL     1     -12.754 -11.287   6.101  1.00  0.00     0.091 A 
ATOM     93  F   UNL     1     -11.732  -9.345   5.154  1.00  0.00    -0.205 F 
ATOM     94  C   UNL     1     -13.576 -12.415   5.933  1.00  0.00     0.022 A 
BRANCH  92  95
ATOM     95  S   UNL     1     -12.018 -11.059   7.723  1.00  0.00     0.127 S 
ATOM     96  O   UNL     1     -13.201 -10.931   8.574  1.00  0.00    -0.237 OA
ATOM     97  O   UNL     1     -11.272 -12.305   7.898  1.00  0.00    -0.237 OA
ATOM     98  O   UNL     1     -11.198  -9.859   7.631  1.00  0.00    -0.744 OA
ENDBRANCH  92  95
ENDBRANCH  65  88
ENDBRANCH  39  40
ENDBRANCH  31  34
ENDBRANCH  29  30
ENDBRANCH   1  29
TORSDOF 15
