REMARK SMILES O=C(NCCCNC(=O)c1cccn2c(=O)c3ccc(Cl)cc3nc12)c1ccc(-c2c3nc(c(-c4cccc(S(=O)(=O)[O-])c4F)c4ccc([nH]4)c(-c4cccc(S(=O)(=O)[O-])c4F)c4nc(c(-c5cccc(S(=O)(=O)[O-])c5F)c5ccc2[nH]5)C=C4)C=C3)cc1
REMARK SMILES IDX 1 1 2 2 3 3 26 5 27 6 88 7 28 8 87 9 29 10 30 11 31 12 81 13
REMARK SMILES IDX 32 14 86 15 80 16 82 17 33 18 85 19 79 20 78 21 34 23 66 24
REMARK SMILES IDX 46 25 65 26 47 27 50 28 64 29 83 30 48 31 49 32 63 34 84 35
REMARK SMILES IDX 51 36 35 37 36 38 44 39 37 40 39 41 45 42 38 43 40 44 41 45
REMARK SMILES IDX 42 46 43 47 67 48 68 49 76 50 69 51 71 52 77 53 70 54 72 55
REMARK SMILES IDX 73 56 74 57 75 58 52 59 53 60 61 61 54 62 56 63 62 64 55 65
REMARK SMILES IDX 57 66 58 67 59 68 60 69 4 70 5 71 6 72 7 73 8 74 9 76 10 77
REMARK SMILES IDX 11 78 25 79 12 80 14 81 24 82 13 83 15 84 23 85 16 86 17 87
REMARK SMILES IDX 22 88 18 89 20 90 19 91 21 92
REMARK H PARENT 3 4 82 22 50 33 7 75
REMARK Flexibility Score: inf
ROOT
ATOM      1  O   UNL     1       1.219  -0.161   0.207  1.00  0.00    -0.269 OA
ATOM      2  C   UNL     1       2.432  -0.110   0.010  1.00  0.00     0.251 C 
ATOM      3  N   UNL     1       3.226  -1.098   0.535  1.00  0.00    -0.352 N 
ATOM      4  H   UNL     1       2.735  -1.882   0.874  1.00  0.00     0.163 HD
ENDROOT
BRANCH   2   5
ATOM      5  C   UNL     1       3.001   1.002  -0.786  1.00  0.00     0.039 A 
ATOM      6  C   UNL     1       2.404   2.266  -0.701  1.00  0.00     0.014 A 
ATOM      7  C   UNL     1       4.046   0.792  -1.689  1.00  0.00     0.014 A 
ATOM      8  C   UNL     1       2.862   3.314  -1.504  1.00  0.00     0.010 A 
ATOM      9  C   UNL     1       4.555   1.855  -2.429  1.00  0.00     0.010 A 
ATOM     10  C   UNL     1       3.944   3.116  -2.374  1.00  0.00    -0.014 A 
BRANCH  10  11
ATOM     11  C   UNL     1       4.392   4.166  -3.321  1.00  0.00     0.031 A 
ATOM     12  C   UNL     1       4.249   3.930  -4.801  1.00  0.00     0.074 A 
ATOM     13  C   UNL     1       4.977   5.292  -2.873  1.00  0.00     0.049 A 
ATOM     14  N   UNL     1       4.716   4.633  -5.799  1.00  0.00    -0.248 NA
ATOM     15  C   UNL     1       3.502   2.728  -5.209  1.00  0.00     0.031 C 
ATOM     16  C   UNL     1       5.190   5.635  -1.468  1.00  0.00     0.029 A 
ATOM     17  N   UNL     1       5.520   6.345  -3.564  1.00  0.00    -0.354 N 
ATOM     18  C   UNL     1       4.359   3.937  -6.948  1.00  0.00     0.074 A 
ATOM     19  C   UNL     1       3.662   2.743  -6.523  1.00  0.00     0.031 C 
ATOM     20  C   UNL     1       5.815   6.822  -1.399  1.00  0.00     0.029 A 
ATOM     21  C   UNL     1       6.079   7.303  -2.753  1.00  0.00     0.049 A 
ATOM     22  H   UNL     1       5.511   6.409  -4.546  1.00  0.00     0.167 HD
ATOM     23  C   UNL     1       4.559   4.275  -8.243  1.00  0.00     0.034 A 
ATOM     24  C   UNL     1       6.741   8.434  -3.065  1.00  0.00     0.034 A 
ATOM     25  C   UNL     1       5.197   5.489  -8.671  1.00  0.00     0.049 A 
ATOM     26  C   UNL     1       6.952   8.797  -4.507  1.00  0.00     0.074 A 
ATOM     27  C   UNL     1       5.409   5.941  -9.961  1.00  0.00     0.029 A 
ATOM     28  N   UNL     1       5.714   6.452  -7.817  1.00  0.00    -0.354 N 
ATOM     29  N   UNL     1       6.562   8.155  -5.582  1.00  0.00    -0.248 NA
ATOM     30  C   UNL     1       7.678  10.046  -4.781  1.00  0.00     0.031 C 
ATOM     31  C   UNL     1       6.054   7.181  -9.887  1.00  0.00     0.029 A 
ATOM     32  C   UNL     1       6.239   7.501  -8.551  1.00  0.00     0.049 A 
ATOM     33  H   UNL     1       5.708   6.397  -6.835  1.00  0.00     0.167 HD
ATOM     34  C   UNL     1       6.989   8.921  -6.660  1.00  0.00     0.074 A 
ATOM     35  C   UNL     1       7.645  10.090  -6.108  1.00  0.00     0.031 C 
ATOM     36  C   UNL     1       6.864   8.670  -7.987  1.00  0.00     0.034 A 
BRANCH  23  37
ATOM     37  C   UNL     1       4.016   3.341  -9.288  1.00  0.00     0.023 A 
ATOM     38  C   UNL     1       2.628   3.322  -9.535  1.00  0.00     0.012 A 
ATOM     39  C   UNL     1       4.865   2.505 -10.037  1.00  0.00     0.148 A 
ATOM     40  C   UNL     1       2.089   2.464 -10.491  1.00  0.00     0.002 A 
ATOM     41  C   UNL     1       4.324   1.676 -11.013  1.00  0.00     0.091 A 
ATOM     42  F   UNL     1       6.179   2.522  -9.768  1.00  0.00    -0.205 F 
ATOM     43  C   UNL     1       2.936   1.648 -11.235  1.00  0.00     0.022 A 
BRANCH  41  44
ATOM     44  S   UNL     1       5.332   0.620 -12.060  1.00  0.00     0.127 S 
ATOM     45  O   UNL     1       4.982  -0.709 -11.561  1.00  0.00    -0.237 OA
ATOM     46  O   UNL     1       4.815   0.927 -13.394  1.00  0.00    -0.237 OA
ATOM     47  O   UNL     1       6.711   1.028 -11.833  1.00  0.00    -0.744 OA
ENDBRANCH  41  44
ENDBRANCH  23  37
BRANCH  24  48
ATOM     48  C   UNL     1       7.188   9.329  -1.964  1.00  0.00     0.023 A 
ATOM     49  C   UNL     1       6.432  10.480  -1.675  1.00  0.00     0.012 A 
ATOM     50  C   UNL     1       8.281   8.992  -1.143  1.00  0.00     0.148 A 
ATOM     51  C   UNL     1       6.754  11.282  -0.581  1.00  0.00     0.002 A 
ATOM     52  C   UNL     1       8.574   9.775  -0.033  1.00  0.00     0.091 A 
ATOM     53  F   UNL     1       8.977   7.886  -1.439  1.00  0.00    -0.205 F 
ATOM     54  C   UNL     1       7.817  10.925   0.245  1.00  0.00     0.022 A 
BRANCH  52  55
ATOM     55  S   UNL     1       9.853   9.342   1.151  1.00  0.00     0.127 S 
ATOM     56  O   UNL     1      10.681  10.548   1.154  1.00  0.00    -0.237 OA
ATOM     57  O   UNL     1       9.068   9.134   2.368  1.00  0.00    -0.237 OA
ATOM     58  O   UNL     1      10.499   8.151   0.624  1.00  0.00    -0.744 OA
ENDBRANCH  52  55
ENDBRANCH  24  48
BRANCH  36  59
ATOM     59  C   UNL     1       7.459   9.664  -8.947  1.00  0.00     0.023 A 
ATOM     60  C   UNL     1       8.850   9.656  -9.167  1.00  0.00     0.012 A 
ATOM     61  C   UNL     1       6.641  10.531  -9.696  1.00  0.00     0.148 A 
ATOM     62  C   UNL     1       9.422  10.508 -10.110  1.00  0.00     0.002 A 
ATOM     63  C   UNL     1       7.215  11.356 -10.658  1.00  0.00     0.091 A 
ATOM     64  F   UNL     1       5.321  10.530  -9.459  1.00  0.00    -0.205 F 
ATOM     65  C   UNL     1       8.604  11.349 -10.862  1.00  0.00     0.022 A 
BRANCH  63  66
ATOM     66  S   UNL     1       6.237  12.421 -11.724  1.00  0.00     0.127 S 
ATOM     67  O   UNL     1       6.557  13.746 -11.194  1.00  0.00    -0.237 OA
ATOM     68  O   UNL     1       6.800  12.140 -13.045  1.00  0.00    -0.237 OA
ATOM     69  O   UNL     1       4.853  11.999 -11.554  1.00  0.00    -0.744 OA
ENDBRANCH  63  66
ENDBRANCH  36  59
ENDBRANCH  10  11
ENDBRANCH   2   5
BRANCH   3  70
ATOM     70  C   UNL     1       4.672  -1.183   0.674  1.00  0.00     0.118 C 
BRANCH  70  71
ATOM     71  C   UNL     1       5.122  -1.143   2.129  1.00  0.00     0.042 C 
BRANCH  71  72
ATOM     72  C   UNL     1       4.574  -2.269   2.994  1.00  0.00     0.118 C 
BRANCH  72  73
ATOM     73  N   UNL     1       4.997  -3.591   2.554  1.00  0.00    -0.352 N 
ATOM     74  C   UNL     1       5.705  -4.560   3.213  1.00  0.00     0.255 C 
ATOM     75  H   UNL     1       4.732  -3.825   1.635  1.00  0.00     0.163 HD
ATOM     76  O   UNL     1       5.943  -5.622   2.643  1.00  0.00    -0.269 OA
BRANCH  74  77
ATOM     77  C   UNL     1       6.121  -4.326   4.616  1.00  0.00     0.083 A 
ATOM     78  C   UNL     1       5.165  -4.089   5.531  1.00  0.00     0.019 A 
ATOM     79  C   UNL     1       7.545  -4.489   5.067  1.00  0.00     0.153 A 
ATOM     80  C   UNL     1       5.500  -3.837   6.903  1.00  0.00     0.019 A 
ATOM     81  N   UNL     1       7.798  -4.270   6.428  1.00  0.00    -0.267 N 
ATOM     82  N   UNL     1       8.473  -4.813   4.220  1.00  0.00    -0.229 NA
ATOM     83  C   UNL     1       6.772  -3.926   7.302  1.00  0.00     0.096 A 
ATOM     84  C   UNL     1       9.089  -4.394   6.950  1.00  0.00     0.265 A 
ATOM     85  C   UNL     1       9.779  -5.011   4.677  1.00  0.00     0.080 A 
ATOM     86  O   UNL     1       9.393  -4.200   8.127  1.00  0.00    -0.268 OA
ATOM     87  C   UNL     1      10.139  -4.816   6.007  1.00  0.00     0.066 A 
ATOM     88  C   UNL     1      10.750  -5.449   3.772  1.00  0.00     0.049 A 
ATOM     89  C   UNL     1      11.450  -5.043   6.444  1.00  0.00     0.017 A 
ATOM     90  C   UNL     1      12.056  -5.688   4.203  1.00  0.00     0.043 A 
ATOM     91  C   UNL     1      12.412  -5.484   5.536  1.00  0.00     0.021 A 
ATOM     92  Cl  UNL     1      13.239  -6.253   3.089  1.00  0.00    -0.084 Cl
ENDBRANCH  74  77
ENDBRANCH  72  73
ENDBRANCH  71  72
ENDBRANCH  70  71
ENDBRANCH   3  70
TORSDOF 13
