REMARK SMILES Cc1ccccc1OCC(=O)Nc1ccc2c(c1)C(=O)N(CC(=O)NCCCNC(=O)c1ccc(-c3c4nc(c(-c5cccc(S(=O)(=O)[O-])c5F)c5ccc([nH]5)c(-c5cccc(S(=O)(=O)[O-])c5F)c5nc(c(-c6cccc(S(=O)(=O)[O-])c6F)c6ccc3[nH]6)C=C5)C=C4)cc1)C2=O
REMARK SMILES IDX 26 1 25 2 23 3 24 4 22 6 21 7 13 8 14 9 18 10 15 11 17 12
REMARK SMILES IDX 16 13 19 14 95 15 20 16 96 17 12 18 10 19 11 20 9 22 8 23
REMARK SMILES IDX 7 24 1 25 2 26 3 27 4 28 6 29 5 30 27 31 28 32 29 33 30 34
REMARK SMILES IDX 31 36 32 37 33 38 94 39 34 40 93 41 35 42 36 43 37 44 87 45
REMARK SMILES IDX 38 46 92 47 86 48 88 49 39 50 91 51 85 52 84 53 40 55 72 56
REMARK SMILES IDX 52 57 71 58 53 59 56 60 70 61 89 62 54 63 55 64 69 66 90 67
REMARK SMILES IDX 57 68 41 69 42 70 50 71 43 72 45 73 51 74 44 75 46 76 47 77
REMARK SMILES IDX 48 78 49 79 73 80 74 81 82 82 75 83 77 84 83 85 76 86 78 87
REMARK SMILES IDX 79 88 80 89 81 90 58 91 59 92 67 93 60 94 62 95 68 96 61 97
REMARK SMILES IDX 63 98 64 99 65 100 66 101
REMARK H PARENT 25 5 12 21 29 35 88 54 56 65
REMARK Flexibility Score: inf
ROOT
ATOM      1  C   UNL     1      -1.413   8.300   6.869  1.00  0.00     0.117 C 
ENDROOT
BRANCH   1   2
ATOM      2  N   UNL     1      -0.103   8.340   7.491  1.00  0.00    -0.354 N 
ATOM      3  C   UNL     1       1.100   8.686   6.946  1.00  0.00     0.240 C 
ATOM      4  O   UNL     1       2.067   8.801   7.701  1.00  0.00    -0.273 OA
ATOM      5  H   UNL     1      -0.079   8.081   8.441  1.00  0.00     0.163 HD
BRANCH   3   6
ATOM      6  C   UNL     1       1.240   8.928   5.441  1.00  0.00     0.229 C 
BRANCH   6   7
ATOM      7  N   UNL     1       1.175   7.677   4.713  1.00  0.00    -0.265 N 
ATOM      8  C   UNL     1       1.707   3.536   2.845  1.00  0.00     0.042 A 
ATOM      9  C   UNL     1       0.510   3.902   2.199  1.00  0.00     0.027 A 
ATOM     10  C   UNL     1       2.276   4.373   3.805  1.00  0.00     0.040 A 
ATOM     11  C   UNL     1      -0.100   5.141   2.452  1.00  0.00     0.017 A 
ATOM     12  C   UNL     1       1.689   5.602   3.993  1.00  0.00     0.055 A 
ATOM     13  C   UNL     1       0.537   5.987   3.336  1.00  0.00     0.053 A 
ATOM     14  C   UNL     1       2.129   6.713   4.816  1.00  0.00     0.262 C 
ATOM     15  C   UNL     1       0.221   7.347   3.785  1.00  0.00     0.262 C 
ATOM     16  O   UNL     1       3.191   6.724   5.421  1.00  0.00    -0.269 OA
ATOM     17  O   UNL     1      -0.719   8.001   3.386  1.00  0.00    -0.269 OA
BRANCH   8  18
ATOM     18  N   UNL     1       2.424   2.370   2.569  1.00  0.00    -0.323 N 
ATOM     19  C   UNL     1       2.850   1.895   1.364  1.00  0.00     0.262 C 
ATOM     20  O   UNL     1       3.790   1.091   1.385  1.00  0.00    -0.271 OA
ATOM     21  H   UNL     1       2.654   1.817   3.350  1.00  0.00     0.170 HD
BRANCH  19  22
ATOM     22  C   UNL     1       2.338   2.456   0.028  1.00  0.00     0.329 C 
BRANCH  22  23
ATOM     23  O   UNL     1       1.061   2.186  -0.504  1.00  0.00    -0.483 OA
BRANCH  23  24
ATOM     24  C   UNL     1       0.454   0.979  -0.326  1.00  0.00     0.122 A 
ATOM     25  C   UNL     1       2.459  -0.649  -0.533  1.00  0.00     0.048 C 
ATOM     26  C   UNL     1       1.017  -0.303  -0.310  1.00  0.00    -0.009 A 
ATOM     27  C   UNL     1       0.165  -1.407  -0.082  1.00  0.00     0.007 A 
ATOM     28  C   UNL     1      -1.214  -1.256   0.055  1.00  0.00     0.001 A 
ATOM     29  C   UNL     1      -0.944   1.111  -0.224  1.00  0.00     0.047 A 
ATOM     30  C   UNL     1      -1.774   0.008  -0.032  1.00  0.00     0.004 A 
ENDBRANCH  23  24
ENDBRANCH  22  23
ENDBRANCH  19  22
ENDBRANCH   8  18
ENDBRANCH   6   7
ENDBRANCH   3   6
ENDBRANCH   1   2
BRANCH   1  31
ATOM     31  C   UNL     1      -1.752   6.930   6.319  1.00  0.00     0.042 C 
BRANCH  31  32
ATOM     32  C   UNL     1      -2.092   5.897   7.367  1.00  0.00     0.118 C 
BRANCH  32  33
ATOM     33  N   UNL     1      -3.503   5.877   7.682  1.00  0.00    -0.352 N 
ATOM     34  C   UNL     1      -4.294   4.790   8.006  1.00  0.00     0.251 C 
ATOM     35  H   UNL     1      -3.959   6.750   7.664  1.00  0.00     0.163 HD
ATOM     36  O   UNL     1      -5.499   4.851   7.785  1.00  0.00    -0.269 OA
BRANCH  34  37
ATOM     37  C   UNL     1      -3.709   3.683   8.811  1.00  0.00     0.039 A 
ATOM     38  C   UNL     1      -4.413   3.391   9.986  1.00  0.00     0.014 A 
ATOM     39  C   UNL     1      -2.364   3.352   8.708  1.00  0.00     0.014 A 
ATOM     40  C   UNL     1      -3.706   3.158  11.153  1.00  0.00     0.010 A 
ATOM     41  C   UNL     1      -1.650   3.238   9.867  1.00  0.00     0.010 A 
ATOM     42  C   UNL     1      -2.327   3.250  11.088  1.00  0.00    -0.014 A 
BRANCH  42  43
ATOM     43  C   UNL     1      -1.438   3.230  12.220  1.00  0.00     0.031 A 
ATOM     44  C   UNL     1      -1.030   1.893  12.687  1.00  0.00     0.074 A 
ATOM     45  C   UNL     1      -0.795   4.391  12.485  1.00  0.00     0.049 A 
ATOM     46  N   UNL     1      -0.339   1.663  13.741  1.00  0.00    -0.248 NA
ATOM     47  C   UNL     1      -1.411   0.672  11.972  1.00  0.00     0.031 C 
ATOM     48  C   UNL     1       0.510   4.555  13.108  1.00  0.00     0.029 A 
ATOM     49  N   UNL     1      -1.196   5.717  12.267  1.00  0.00    -0.354 N 
ATOM     50  C   UNL     1       0.093   0.351  13.660  1.00  0.00     0.074 A 
ATOM     51  C   UNL     1      -0.727  -0.254  12.646  1.00  0.00     0.031 C 
ATOM     52  C   UNL     1       0.651   5.839  13.486  1.00  0.00     0.029 A 
ATOM     53  C   UNL     1      -0.648   6.469  13.318  1.00  0.00     0.049 A 
ATOM     54  H   UNL     1      -1.751   6.053  11.526  1.00  0.00     0.167 HD
ATOM     55  C   UNL     1       1.228   0.010  14.333  1.00  0.00     0.034 A 
ATOM     56  C   UNL     1      -1.390   6.980  14.354  1.00  0.00     0.034 A 
ATOM     57  C   UNL     1       1.666   1.158  15.152  1.00  0.00     0.049 A 
ATOM     58  C   UNL     1      -1.044   6.327  15.694  1.00  0.00     0.074 A 
ATOM     59  C   UNL     1       2.603   2.156  14.933  1.00  0.00     0.029 A 
ATOM     60  N   UNL     1       0.842   1.619  16.177  1.00  0.00    -0.354 N 
ATOM     61  N   UNL     1      -0.303   5.256  15.808  1.00  0.00    -0.248 NA
ATOM     62  C   UNL     1      -1.489   6.815  16.998  1.00  0.00     0.031 C 
ATOM     63  C   UNL     1       2.244   3.275  15.741  1.00  0.00     0.029 A 
ATOM     64  C   UNL     1       1.120   2.946  16.482  1.00  0.00     0.049 A 
ATOM     65  H   UNL     1       0.153   1.076  16.625  1.00  0.00     0.167 HD
ATOM     66  C   UNL     1      -0.249   4.845  17.108  1.00  0.00     0.074 A 
ATOM     67  C   UNL     1      -0.953   5.898  17.826  1.00  0.00     0.031 C 
ATOM     68  C   UNL     1       0.320   3.656  17.482  1.00  0.00     0.034 A 
BRANCH  55  69
ATOM     69  C   UNL     1       2.116  -1.202  14.060  1.00  0.00     0.023 A 
ATOM     70  C   UNL     1       3.396  -1.189  14.663  1.00  0.00     0.012 A 
ATOM     71  C   UNL     1       1.853  -2.316  13.221  1.00  0.00     0.148 A 
ATOM     72  C   UNL     1       4.365  -2.168  14.411  1.00  0.00     0.002 A 
ATOM     73  C   UNL     1       2.823  -3.293  12.960  1.00  0.00     0.091 A 
ATOM     74  F   UNL     1       0.653  -2.477  12.669  1.00  0.00    -0.205 F 
ATOM     75  C   UNL     1       4.085  -3.216  13.548  1.00  0.00     0.022 A 
BRANCH  73  76
ATOM     76  S   UNL     1       2.537  -4.689  11.848  1.00  0.00     0.127 S 
ATOM     77  O   UNL     1       3.600  -4.515  10.858  1.00  0.00    -0.237 OA
ATOM     78  O   UNL     1       2.717  -5.837  12.737  1.00  0.00    -0.237 OA
ATOM     79  O   UNL     1       1.189  -4.530  11.317  1.00  0.00    -0.744 OA
ENDBRANCH  73  76
ENDBRANCH  55  69
BRANCH  56  80
ATOM     80  C   UNL     1      -2.750   7.438  13.934  1.00  0.00     0.023 A 
ATOM     81  C   UNL     1      -2.792   8.504  13.001  1.00  0.00     0.012 A 
ATOM     82  C   UNL     1      -3.862   6.587  14.043  1.00  0.00     0.148 A 
ATOM     83  C   UNL     1      -3.812   8.581  12.053  1.00  0.00     0.002 A 
ATOM     84  C   UNL     1      -4.873   6.665  13.087  1.00  0.00     0.091 A 
ATOM     85  F   UNL     1      -3.879   5.674  15.021  1.00  0.00    -0.205 F 
ATOM     86  C   UNL     1      -4.821   7.624  12.061  1.00  0.00     0.022 A 
BRANCH  84  87
ATOM     87  S   UNL     1      -6.194   5.447  13.011  1.00  0.00     0.127 S 
ATOM     88  O   UNL     1      -7.286   6.151  13.674  1.00  0.00    -0.237 OA
ATOM     89  O   UNL     1      -6.368   5.271  11.571  1.00  0.00    -0.237 OA
ATOM     90  O   UNL     1      -5.670   4.277  13.700  1.00  0.00    -0.744 OA
ENDBRANCH  84  87
ENDBRANCH  56  80
BRANCH  68  91
ATOM     91  C   UNL     1       0.164   3.039  18.856  1.00  0.00     0.023 A 
ATOM     92  C   UNL     1      -0.944   3.318  19.679  1.00  0.00     0.012 A 
ATOM     93  C   UNL     1       1.051   2.025  19.296  1.00  0.00     0.148 A 
ATOM     94  C   UNL     1      -1.118   2.691  20.916  1.00  0.00     0.002 A 
ATOM     95  C   UNL     1       0.796   1.307  20.458  1.00  0.00     0.091 A 
ATOM     96  F   UNL     1       2.163   1.757  18.595  1.00  0.00    -0.205 F 
ATOM     97  C   UNL     1      -0.261   1.667  21.295  1.00  0.00     0.022 A 
BRANCH  95  98
ATOM     98  S   UNL     1       1.695  -0.204  20.829  1.00  0.00     0.127 S 
ATOM     99  O   UNL     1       2.716   0.272  21.759  1.00  0.00    -0.237 OA
ATOM    100  O   UNL     1       0.659  -1.042  21.436  1.00  0.00    -0.237 OA
ATOM    101  O   UNL     1       2.174  -0.691  19.542  1.00  0.00    -0.744 OA
ENDBRANCH  95  98
ENDBRANCH  68  91
ENDBRANCH  42  43
ENDBRANCH  34  37
ENDBRANCH  32  33
ENDBRANCH  31  32
ENDBRANCH   1  31
TORSDOF 18
