REMARK SMILES Cc1c2c([nH]c(=O)c1C(=O)NCCCNC(=O)c1ccc(-c3c4nc(c(-c5cccc(S(=O)(=O)[O-])c5F)c5ccc([nH]5)c(-c5cccc(S(=O)(=O)[O-])c5F)c5nc(c(-c6cccc(S(=O)(=O)[O-])c6F)c6ccc3[nH]6)C=C5)C=C4)cc1)CC(C)(C)CC2=O
REMARK SMILES IDX 15 1 16 2 17 3 14 5 13 6 12 7 11 8 9 9 10 10 8 12 1 13 2 14
REMARK SMILES IDX 3 15 4 16 86 17 6 18 5 19 81 20 85 21 87 22 7 23 82 25 83 26
REMARK SMILES IDX 84 27 18 28 19 29 80 30 20 31 79 32 21 33 22 34 23 35 73 36
REMARK SMILES IDX 24 37 78 38 72 39 74 40 25 41 77 42 71 43 70 44 26 46 58 47
REMARK SMILES IDX 38 48 57 49 39 50 42 51 56 52 75 53 40 54 41 55 55 57 76 58
REMARK SMILES IDX 43 59 27 60 28 61 36 62 29 63 31 64 37 65 30 66 32 67 33 68
REMARK SMILES IDX 34 69 35 70 59 71 60 72 68 73 61 74 63 75 69 76 62 77 64 78
REMARK SMILES IDX 65 79 66 80 67 81 44 82 45 83 53 84 46 85 48 86 54 87 47 88
REMARK SMILES IDX 49 89 50 90 51 91 52 92
REMARK H PARENT 15 4 11 11 5 24 74 45 42 56
REMARK Flexibility Score: inf
ROOT
ATOM      1  N   UNL     1       0.407   4.915  -0.071  1.00  0.00    -0.352 N 
ATOM      2  C   UNL     1       1.016   5.876   0.700  1.00  0.00     0.251 C 
ATOM      3  O   UNL     1       0.387   6.375   1.631  1.00  0.00    -0.269 OA
ATOM      4  H   UNL     1      -0.570   4.849   0.037  1.00  0.00     0.163 HD
ENDROOT
BRANCH   1   5
ATOM      5  C   UNL     1       0.987   3.982  -1.020  1.00  0.00     0.118 C 
BRANCH   5   6
ATOM      6  C   UNL     1       1.047   2.571  -0.453  1.00  0.00     0.042 C 
BRANCH   6   7
ATOM      7  C   UNL     1      -0.240   1.764  -0.639  1.00  0.00     0.118 C 
BRANCH   7   8
ATOM      8  N   UNL     1      -0.346   1.283  -2.009  1.00  0.00    -0.352 N 
ATOM      9  C   UNL     1      -0.161   0.058  -2.582  1.00  0.00     0.257 C 
ATOM     10  O   UNL     1      -0.204   0.006  -3.812  1.00  0.00    -0.269 OA
ATOM     11  H   UNL     1      -0.603   1.983  -2.652  1.00  0.00     0.163 HD
BRANCH   9  12
ATOM     12  C   UNL     1       0.022  -1.187  -1.776  1.00  0.00     0.108 A 
ATOM     13  C   UNL     1       2.110  -0.457  -0.539  1.00  0.00     0.046 C 
ATOM     14  C   UNL     1       0.938  -1.362  -0.795  1.00  0.00    -0.020 A 
ATOM     15  C   UNL     1       1.017  -2.625  -0.069  1.00  0.00     0.041 A 
ATOM     16  C   UNL     1       0.625  -3.752  -0.681  1.00  0.00     0.030 A 
ATOM     17  C   UNL     1       1.532  -2.713   1.337  1.00  0.00     0.165 C 
ATOM     18  C   UNL     1      -0.663  -2.440  -2.272  1.00  0.00     0.261 A 
ATOM     19  N   UNL     1      -0.174  -3.642  -1.793  1.00  0.00    -0.325 N 
ATOM     20  C   UNL     1       0.978  -5.131  -0.194  1.00  0.00     0.061 C 
ATOM     21  C   UNL     1       1.822  -4.081   1.916  1.00  0.00     0.088 C 
ATOM     22  O   UNL     1       1.596  -1.709   2.046  1.00  0.00    -0.294 OA
ATOM     23  O   UNL     1      -1.586  -2.439  -3.080  1.00  0.00    -0.269 OA
ATOM     24  H   UNL     1      -0.412  -4.465  -2.277  1.00  0.00     0.169 HD
ATOM     25  C   UNL     1       2.145  -5.114   0.826  1.00  0.00    -0.023 C 
ATOM     26  C   UNL     1       3.493  -4.763   0.154  1.00  0.00     0.012 C 
ATOM     27  C   UNL     1       2.287  -6.503   1.466  1.00  0.00     0.012 C 
ENDBRANCH   9  12
ENDBRANCH   7   8
ENDBRANCH   6   7
ENDBRANCH   5   6
ENDBRANCH   1   5
BRANCH   2  28
ATOM     28  C   UNL     1       2.408   6.316   0.433  1.00  0.00     0.039 A 
ATOM     29  C   UNL     1       3.229   6.646   1.518  1.00  0.00     0.014 A 
ATOM     30  C   UNL     1       2.891   6.483  -0.868  1.00  0.00     0.014 A 
ATOM     31  C   UNL     1       4.529   7.114   1.298  1.00  0.00     0.010 A 
ATOM     32  C   UNL     1       4.216   6.861  -1.084  1.00  0.00     0.010 A 
ATOM     33  C   UNL     1       5.039   7.215  -0.006  1.00  0.00    -0.014 A 
BRANCH  33  34
ATOM     34  C   UNL     1       6.410   7.731  -0.260  1.00  0.00     0.031 A 
ATOM     35  C   UNL     1       6.607   9.007  -1.037  1.00  0.00     0.074 A 
ATOM     36  C   UNL     1       7.481   7.024   0.150  1.00  0.00     0.049 A 
ATOM     37  N   UNL     1       7.721   9.601  -1.376  1.00  0.00    -0.248 NA
ATOM     38  C   UNL     1       5.395   9.691  -1.519  1.00  0.00     0.031 C 
ATOM     39  C   UNL     1       7.424   5.737   0.842  1.00  0.00     0.029 A 
ATOM     40  N   UNL     1       8.825   7.277   0.025  1.00  0.00    -0.354 N 
ATOM     41  C   UNL     1       7.348  10.701  -2.140  1.00  0.00     0.074 A 
ATOM     42  C   UNL     1       5.907  10.672  -2.247  1.00  0.00     0.031 C 
ATOM     43  C   UNL     1       8.675   5.316   1.089  1.00  0.00     0.029 A 
ATOM     44  C   UNL     1       9.623   6.288   0.550  1.00  0.00     0.049 A 
ATOM     45  H   UNL     1       9.183   8.090  -0.400  1.00  0.00     0.167 HD
ATOM     46  C   UNL     1       8.130  11.670  -2.674  1.00  0.00     0.034 A 
ATOM     47  C   UNL     1      10.966   6.173   0.593  1.00  0.00     0.034 A 
ATOM     48  C   UNL     1       9.558  11.725  -2.516  1.00  0.00     0.049 A 
ATOM     49  C   UNL     1      11.816   7.284   0.038  1.00  0.00     0.074 A 
ATOM     50  C   UNL     1      10.427  12.722  -2.922  1.00  0.00     0.029 A 
ATOM     51  N   UNL     1      10.327  10.743  -1.912  1.00  0.00    -0.354 N 
ATOM     52  N   UNL     1      11.437   8.404  -0.529  1.00  0.00    -0.248 NA
ATOM     53  C   UNL     1      13.273   7.136   0.159  1.00  0.00     0.031 C 
ATOM     54  C   UNL     1      11.727  12.326  -2.592  1.00  0.00     0.029 A 
ATOM     55  C   UNL     1      11.665  11.097  -1.954  1.00  0.00     0.049 A 
ATOM     56  H   UNL     1       9.975   9.915  -1.513  1.00  0.00     0.167 HD
ATOM     57  C   UNL     1      12.604   9.102  -0.818  1.00  0.00     0.074 A 
ATOM     58  C   UNL     1      13.704   8.291  -0.337  1.00  0.00     0.031 C 
ATOM     59  C   UNL     1      12.751  10.299  -1.441  1.00  0.00     0.034 A 
BRANCH  46  60
ATOM     60  C   UNL     1       7.453  12.784  -3.432  1.00  0.00     0.023 A 
ATOM     61  C   UNL     1       6.678  13.732  -2.731  1.00  0.00     0.012 A 
ATOM     62  C   UNL     1       7.635  12.933  -4.821  1.00  0.00     0.148 A 
ATOM     63  C   UNL     1       6.066  14.788  -3.405  1.00  0.00     0.002 A 
ATOM     64  C   UNL     1       7.061  14.016  -5.477  1.00  0.00     0.091 A 
ATOM     65  F   UNL     1       8.356  12.011  -5.475  1.00  0.00    -0.205 F 
ATOM     66  C   UNL     1       6.267  14.936  -4.774  1.00  0.00     0.022 A 
BRANCH  64  67
ATOM     67  S   UNL     1       7.333  14.346  -7.222  1.00  0.00     0.127 S 
ATOM     68  O   UNL     1       6.026  14.021  -7.791  1.00  0.00    -0.237 OA
ATOM     69  O   UNL     1       7.658  15.773  -7.219  1.00  0.00    -0.237 OA
ATOM     70  O   UNL     1       8.427  13.476  -7.630  1.00  0.00    -0.744 OA
ENDBRANCH  64  67
ENDBRANCH  46  60
BRANCH  47  71
ATOM     71  C   UNL     1      11.569   4.987   1.266  1.00  0.00     0.023 A 
ATOM     72  C   UNL     1      12.181   5.145   2.523  1.00  0.00     0.012 A 
ATOM     73  C   UNL     1      11.443   3.694   0.720  1.00  0.00     0.148 A 
ATOM     74  C   UNL     1      12.664   4.038   3.223  1.00  0.00     0.002 A 
ATOM     75  C   UNL     1      11.872   2.590   1.448  1.00  0.00     0.091 A 
ATOM     76  F   UNL     1      10.864   3.568  -0.483  1.00  0.00    -0.205 F 
ATOM     77  C   UNL     1      12.496   2.761   2.694  1.00  0.00     0.022 A 
BRANCH  75  78
ATOM     78  S   UNL     1      11.561   0.900   0.921  1.00  0.00     0.127 S 
ATOM     79  O   UNL     1      12.916   0.396   0.713  1.00  0.00    -0.237 OA
ATOM     80  O   UNL     1      10.869   0.347   2.086  1.00  0.00    -0.237 OA
ATOM     81  O   UNL     1      10.739   1.002  -0.277  1.00  0.00    -0.744 OA
ENDBRANCH  75  78
ENDBRANCH  47  71
BRANCH  59  82
ATOM     82  C   UNL     1      14.148  10.821  -1.657  1.00  0.00     0.023 A 
ATOM     83  C   UNL     1      14.967  10.222  -2.635  1.00  0.00     0.012 A 
ATOM     84  C   UNL     1      14.602  11.975  -0.988  1.00  0.00     0.148 A 
ATOM     85  C   UNL     1      16.223  10.752  -2.930  1.00  0.00     0.002 A 
ATOM     86  C   UNL     1      15.833  12.528  -1.324  1.00  0.00     0.091 A 
ATOM     87  F   UNL     1      13.815  12.522  -0.050  1.00  0.00    -0.205 F 
ATOM     88  C   UNL     1      16.648  11.912  -2.287  1.00  0.00     0.022 A 
BRANCH  86  89
ATOM     89  S   UNL     1      16.419  14.079  -0.630  1.00  0.00     0.127 S 
ATOM     90  O   UNL     1      17.513  13.626   0.228  1.00  0.00    -0.237 OA
ATOM     91  O   UNL     1      16.842  14.812  -1.823  1.00  0.00    -0.237 OA
ATOM     92  O   UNL     1      15.281  14.662   0.068  1.00  0.00    -0.744 OA
ENDBRANCH  86  89
ENDBRANCH  59  82
ENDBRANCH  33  34
ENDBRANCH   2  28
TORSDOF 13
