REMARK SMILES CC(C)(C[N@H+]1C[C@@H]2C[NH2+]C[C@H]2C1(C)C)C(=O)NCCCNC(=O)c1ccc(-c2c3nc(c(-c4cccc(S(=O)(=O)[O-])c4F)c4ccc([nH]4)c(-c4cccc(S(=O)(=O)[O-])c4F)c4nc(c(-c5cccc(S(=O)(=O)[O-])c5F)c5ccc2[nH]5)C=C4)C=C3)cc1
REMARK SMILES IDX 19 1 18 2 17 3 15 4 16 5 2 7 1 8 3 9 4 10 5 11 6 12 12 13
REMARK SMILES IDX 7 15 11 16 13 17 14 18 8 19 10 20 9 21 20 24 21 25 22 26
REMARK SMILES IDX 23 28 24 29 25 30 86 31 26 32 85 33 27 34 28 35 29 36 79 37
REMARK SMILES IDX 30 38 84 39 78 40 80 41 31 42 83 43 77 44 76 45 32 47 64 48
REMARK SMILES IDX 44 49 63 50 45 51 48 52 62 53 81 54 46 55 47 56 61 58 82 59
REMARK SMILES IDX 49 60 33 61 34 62 42 63 35 64 37 65 43 66 36 67 38 68 39 69
REMARK SMILES IDX 40 70 41 71 65 72 66 73 74 74 67 75 69 76 75 77 68 78 70 79
REMARK SMILES IDX 71 80 72 81 73 82 50 83 51 84 59 85 52 86 54 87 60 88 53 89
REMARK SMILES IDX 55 90 56 91 57 92 58 93
REMARK H PARENT 17 6 5 14 9 22 9 23 21 27 80 46 48 57
REMARK Flexibility Score: inf
ROOT
ATOM      1  C   UNL     1      -1.448   4.967   1.297  1.00  0.00     0.042 C 
ENDROOT
BRANCH   1   2
ATOM      2  C   UNL     1      -0.225   4.596   0.477  1.00  0.00     0.117 C 
BRANCH   2   3
ATOM      3  N   UNL     1       0.695   3.746   1.208  1.00  0.00    -0.355 N 
ATOM      4  C   UNL     1       1.186   2.501   0.985  1.00  0.00     0.231 C 
ATOM      5  O   UNL     1       1.983   2.091   1.838  1.00  0.00    -0.274 OA
ATOM      6  H   UNL     1       1.033   4.157   2.036  1.00  0.00     0.163 HD
BRANCH   4   7
ATOM      7  C   UNL     1       0.831   1.655  -0.254  1.00  0.00     0.092 C 
ATOM      8  C   UNL     1       1.843   0.488  -0.315  1.00  0.00     0.027 C 
ATOM      9  C   UNL     1       1.148   2.429  -1.561  1.00  0.00     0.027 C 
BRANCH   7  10
ATOM     10  C   UNL     1      -0.682   1.218  -0.247  1.00  0.00     0.279 C 
BRANCH  10  11
ATOM     11  N   UNL     1      -1.288   0.513   0.908  1.00  0.00    -0.329 N 
ATOM     12  C   UNL     1      -2.781   0.739   0.984  1.00  0.00     0.272 C 
ATOM     13  C   UNL     1      -1.057  -0.974   1.060  1.00  0.00     0.101 C 
ATOM     14  H   UNL     1      -0.771   0.948   1.671  1.00  0.00     0.348 HD
ATOM     15  C   UNL     1      -3.371  -0.618   0.706  1.00  0.00     0.114 C 
ATOM     16  C   UNL     1      -2.436  -1.478   1.506  1.00  0.00     0.119 C 
ATOM     17  C   UNL     1      -0.623  -1.742  -0.202  1.00  0.00     0.079 C 
ATOM     18  C   UNL     1      -0.082  -1.204   2.231  1.00  0.00     0.079 C 
ATOM     19  C   UNL     1      -4.696  -1.130   1.210  1.00  0.00     0.270 C 
ATOM     20  C   UNL     1      -3.013  -2.852   1.259  1.00  0.00     0.271 C 
ATOM     21  N   UNL     1      -4.478  -2.608   1.246  1.00  0.00    -0.345 N 
ATOM     22  H   UNL     1      -4.894  -3.040   0.421  1.00  0.00     0.346 HD
ATOM     23  H   UNL     1      -4.913  -3.012   2.076  1.00  0.00     0.346 HD
ENDBRANCH  10  11
ENDBRANCH   7  10
ENDBRANCH   4   7
ENDBRANCH   2   3
ENDBRANCH   1   2
BRANCH   1  24
ATOM     24  C   UNL     1      -1.132   5.751   2.561  1.00  0.00     0.118 C 
BRANCH  24  25
ATOM     25  N   UNL     1      -0.435   7.003   2.286  1.00  0.00    -0.352 N 
ATOM     26  C   UNL     1      -0.853   8.303   2.443  1.00  0.00     0.251 C 
ATOM     27  H   UNL     1       0.478   6.901   1.933  1.00  0.00     0.163 HD
ATOM     28  O   UNL     1      -0.196   9.215   1.952  1.00  0.00    -0.269 OA
BRANCH  26  29
ATOM     29  C   UNL     1      -2.095   8.598   3.188  1.00  0.00     0.039 A 
ATOM     30  C   UNL     1      -2.958   9.587   2.709  1.00  0.00     0.014 A 
ATOM     31  C   UNL     1      -2.403   7.910   4.363  1.00  0.00     0.014 A 
ATOM     32  C   UNL     1      -4.161   9.835   3.373  1.00  0.00     0.010 A 
ATOM     33  C   UNL     1      -3.644   8.084   4.962  1.00  0.00     0.010 A 
ATOM     34  C   UNL     1      -4.531   9.059   4.485  1.00  0.00    -0.014 A 
BRANCH  34  35
ATOM     35  C   UNL     1      -5.836   9.249   5.166  1.00  0.00     0.031 A 
ATOM     36  C   UNL     1      -5.881   9.639   6.619  1.00  0.00     0.074 A 
ATOM     37  C   UNL     1      -6.977   8.971   4.505  1.00  0.00     0.049 A 
ATOM     38  N   UNL     1      -6.918   9.786   7.401  1.00  0.00    -0.248 NA
ATOM     39  C   UNL     1      -4.589   9.861   7.292  1.00  0.00     0.031 C 
ATOM     40  C   UNL     1      -7.059   8.495   3.122  1.00  0.00     0.029 A 
ATOM     41  N   UNL     1      -8.285   9.020   4.917  1.00  0.00    -0.354 N 
ATOM     42  C   UNL     1      -6.406  10.072   8.661  1.00  0.00     0.074 A 
ATOM     43  C   UNL     1      -4.965  10.040   8.549  1.00  0.00     0.031 C 
ATOM     44  C   UNL     1      -8.348   8.302   2.800  1.00  0.00     0.029 A 
ATOM     45  C   UNL     1      -9.180   8.608   3.958  1.00  0.00     0.049 A 
ATOM     46  H   UNL     1      -8.556   9.321   5.814  1.00  0.00     0.167 HD
ATOM     47  C   UNL     1      -7.073  10.366   9.802  1.00  0.00     0.034 A 
ATOM     48  C   UNL     1     -10.521   8.482   4.009  1.00  0.00     0.034 A 
ATOM     49  C   UNL     1      -8.505  10.443   9.896  1.00  0.00     0.049 A 
ATOM     50  C   UNL     1     -11.242   8.866   5.271  1.00  0.00     0.074 A 
ATOM     51  C   UNL     1      -9.277  10.834  10.975  1.00  0.00     0.029 A 
ATOM     52  N   UNL     1      -9.383  10.111   8.875  1.00  0.00    -0.354 N 
ATOM     53  N   UNL     1     -10.746   9.300   6.405  1.00  0.00    -0.248 NA
ATOM     54  C   UNL     1     -12.709   8.780   5.251  1.00  0.00     0.031 C 
ATOM     55  C   UNL     1     -10.623  10.710  10.616  1.00  0.00     0.029 A 
ATOM     56  C   UNL     1     -10.689  10.274   9.302  1.00  0.00     0.049 A 
ATOM     57  H   UNL     1      -9.116   9.805   7.979  1.00  0.00     0.167 HD
ATOM     58  C   UNL     1     -11.839   9.571   7.221  1.00  0.00     0.074 A 
ATOM     59  C   UNL     1     -13.024   9.271   6.442  1.00  0.00     0.031 C 
ATOM     60  C   UNL     1     -11.859  10.015   8.502  1.00  0.00     0.034 A 
BRANCH  47  61
ATOM     61  C   UNL     1      -6.254  10.673  11.030  1.00  0.00     0.023 A 
ATOM     62  C   UNL     1      -5.503  11.866  11.090  1.00  0.00     0.012 A 
ATOM     63  C   UNL     1      -6.259   9.806  12.140  1.00  0.00     0.148 A 
ATOM     64  C   UNL     1      -4.735  12.169  12.214  1.00  0.00     0.002 A 
ATOM     65  C   UNL     1      -5.531  10.140  13.277  1.00  0.00     0.091 A 
ATOM     66  F   UNL     1      -6.960   8.667  12.060  1.00  0.00    -0.205 F 
ATOM     67  C   UNL     1      -4.758  11.312  13.310  1.00  0.00     0.022 A 
BRANCH  65  68
ATOM     68  S   UNL     1      -5.562   9.144  14.772  1.00  0.00     0.127 S 
ATOM     69  O   UNL     1      -4.229   8.544  14.754  1.00  0.00    -0.237 OA
ATOM     70  O   UNL     1      -5.761  10.155  15.811  1.00  0.00    -0.237 OA
ATOM     71  O   UNL     1      -6.671   8.214  14.611  1.00  0.00    -0.744 OA
ENDBRANCH  65  68
ENDBRANCH  47  61
BRANCH  48  72
ATOM     72  C   UNL     1     -11.267   8.034   2.799  1.00  0.00     0.023 A 
ATOM     73  C   UNL     1     -12.060   8.959   2.094  1.00  0.00     0.012 A 
ATOM     74  C   UNL     1     -11.155   6.715   2.317  1.00  0.00     0.148 A 
ATOM     75  C   UNL     1     -12.753   8.572   0.946  1.00  0.00     0.002 A 
ATOM     76  C   UNL     1     -11.803   6.352   1.143  1.00  0.00     0.091 A 
ATOM     77  F   UNL     1     -10.400   5.850   3.007  1.00  0.00    -0.205 F 
ATOM     78  C   UNL     1     -12.616   7.273   0.465  1.00  0.00     0.022 A 
BRANCH  76  79
ATOM     79  S   UNL     1     -11.574   4.744   0.373  1.00  0.00     0.127 S 
ATOM     80  O   UNL     1     -12.892   4.140   0.546  1.00  0.00    -0.237 OA
ATOM     81  O   UNL     1     -11.240   5.115  -1.002  1.00  0.00    -0.237 OA
ATOM     82  O   UNL     1     -10.486   4.108   1.104  1.00  0.00    -0.744 OA
ENDBRANCH  76  79
ENDBRANCH  48  72
BRANCH  60  83
ATOM     83  C   UNL     1     -13.204  10.239   9.142  1.00  0.00     0.023 A 
ATOM     84  C   UNL     1     -14.002   9.137   9.507  1.00  0.00     0.012 A 
ATOM     85  C   UNL     1     -13.643  11.543   9.449  1.00  0.00     0.148 A 
ATOM     86  C   UNL     1     -15.230   9.330  10.138  1.00  0.00     0.002 A 
ATOM     87  C   UNL     1     -14.843  11.725  10.124  1.00  0.00     0.091 A 
ATOM     88  F   UNL     1     -12.878  12.580   9.076  1.00  0.00    -0.205 F 
ATOM     89  C   UNL     1     -15.644  10.621  10.458  1.00  0.00     0.022 A 
BRANCH  87  90
ATOM     90  S   UNL     1     -15.409  13.342  10.663  1.00  0.00     0.127 S 
ATOM     91  O   UNL     1     -16.520  13.590   9.746  1.00  0.00    -0.237 OA
ATOM     92  O   UNL     1     -15.806  13.086  12.048  1.00  0.00    -0.237 OA
ATOM     93  O   UNL     1     -14.267  14.236  10.518  1.00  0.00    -0.744 OA
ENDBRANCH  87  90
ENDBRANCH  60  83
ENDBRANCH  34  35
ENDBRANCH  26  29
ENDBRANCH  24  25
ENDBRANCH   1  24
TORSDOF 15
