REMARK SMILES Cc1c(C(=O)NCCCNC(=O)c2ccc(-c3c4nc(c(-c5cccc(S(=O)(=O)[O-])c5F)c5ccc([nH]5)c(-c5cccc(S(=O)(=O)[O-])c5F)c5nc(c(-c6cccc(S(=O)(=O)[O-])c6F)c6ccc3[nH]6)C=C5)C=C4)cc2)sc2ncnc(NCc3cn4c(n3)SCC4)c12
REMARK SMILES IDX 8 1 7 2 6 3 4 4 5 5 3 7 1 8 2 9 92 10 76 11 77 12 81 13
REMARK SMILES IDX 78 14 80 15 79 16 82 17 83 19 84 20 85 21 88 22 86 23 87 24
REMARK SMILES IDX 91 25 89 26 90 27 9 28 10 29 11 30 12 32 13 33 14 34 75 35
REMARK SMILES IDX 15 36 74 37 16 38 17 39 18 40 68 41 19 42 73 43 67 44 69 45
REMARK SMILES IDX 20 46 72 47 66 48 65 49 21 51 53 52 33 53 52 54 34 55 37 56
REMARK SMILES IDX 51 57 70 58 35 59 36 60 50 62 71 63 38 64 22 65 23 66 31 67
REMARK SMILES IDX 24 68 26 69 32 70 25 71 27 72 28 73 29 74 30 75 54 76 55 77
REMARK SMILES IDX 63 78 56 79 58 80 64 81 57 82 59 83 60 84 61 85 62 86 39 87
REMARK SMILES IDX 40 88 48 89 41 90 43 91 49 92 42 93 44 94 45 95 46 96 47 97
REMARK H PARENT 6 6 82 18 10 31 69 50 37 61
REMARK Flexibility Score: inf
ROOT
ATOM      1  C   UNL     1       2.840   6.105   0.378  1.00  0.00     0.042 C 
ENDROOT
BRANCH   1   2
ATOM      2  C   UNL     1       2.517   5.317  -0.894  1.00  0.00     0.118 C 
BRANCH   2   3
ATOM      3  N   UNL     1       3.050   3.970  -0.857  1.00  0.00    -0.351 N 
ATOM      4  C   UNL     1       2.510   2.762  -0.489  1.00  0.00     0.261 C 
ATOM      5  O   UNL     1       3.221   1.797  -0.786  1.00  0.00    -0.268 OA
ATOM      6  H   UNL     1       3.987   3.909  -1.154  1.00  0.00     0.163 HD
BRANCH   4   7
ATOM      7  C   UNL     1       1.184   2.604   0.123  1.00  0.00     0.098 A 
ATOM      8  C   UNL     1       1.139   0.080   0.129  1.00  0.00     0.047 C 
ATOM      9  C   UNL     1       0.479   1.406   0.325  1.00  0.00    -0.014 A 
ATOM     10  C   UNL     1      -0.934   1.643   0.672  1.00  0.00     0.057 A 
ATOM     11  S   UNL     1       0.328   3.889   0.829  1.00  0.00    -0.110 S 
ATOM     12  C   UNL     1      -1.093   2.999   0.939  1.00  0.00     0.129 A 
ATOM     13  C   UNL     1      -2.137   0.890   0.800  1.00  0.00     0.138 A 
ATOM     14  N   UNL     1      -2.209   3.662   1.274  1.00  0.00    -0.225 NA
ATOM     15  N   UNL     1      -3.280   1.556   1.121  1.00  0.00    -0.219 NA
ATOM     16  C   UNL     1      -3.264   2.871   1.334  1.00  0.00     0.225 A 
BRANCH  13  17
ATOM     17  N   UNL     1      -2.434  -0.422   0.598  1.00  0.00    -0.364 N 
ATOM     18  H   UNL     1      -3.404  -0.590   0.596  1.00  0.00     0.162 HD
BRANCH  17  19
ATOM     19  C   UNL     1      -1.674  -1.617   0.387  1.00  0.00     0.172 C 
BRANCH  19  20
ATOM     20  C   UNL     1      -1.392  -2.464   1.593  1.00  0.00     0.079 A 
ATOM     21  C   UNL     1      -0.372  -2.364   2.533  1.00  0.00     0.113 A 
ATOM     22  N   UNL     1      -2.161  -3.605   1.822  1.00  0.00    -0.226 NA
ATOM     23  N   UNL     1      -0.477  -3.504   3.254  1.00  0.00    -0.325 N 
ATOM     24  C   UNL     1      -1.556  -4.197   2.812  1.00  0.00     0.168 A 
ATOM     25  C   UNL     1       0.451  -4.212   4.111  1.00  0.00     0.135 C 
ATOM     26  S   UNL     1      -1.583  -5.819   3.389  1.00  0.00    -0.086 SA
ATOM     27  C   UNL     1       0.208  -5.694   3.815  1.00  0.00     0.100 C 
ENDBRANCH  19  20
ENDBRANCH  17  19
ENDBRANCH  13  17
ENDBRANCH   4   7
ENDBRANCH   2   3
ENDBRANCH   1   2
BRANCH   1  28
ATOM     28  C   UNL     1       4.241   6.684   0.322  1.00  0.00     0.118 C 
BRANCH  28  29
ATOM     29  N   UNL     1       4.356   7.700  -0.726  1.00  0.00    -0.352 N 
ATOM     30  C   UNL     1       5.464   8.425  -1.097  1.00  0.00     0.251 C 
ATOM     31  H   UNL     1       3.533   7.889  -1.231  1.00  0.00     0.163 HD
ATOM     32  O   UNL     1       5.354   9.418  -1.812  1.00  0.00    -0.269 OA
BRANCH  30  33
ATOM     33  C   UNL     1       6.778   7.994  -0.606  1.00  0.00     0.039 A 
ATOM     34  C   UNL     1       7.668   8.922  -0.059  1.00  0.00     0.014 A 
ATOM     35  C   UNL     1       7.081   6.635  -0.644  1.00  0.00     0.014 A 
ATOM     36  C   UNL     1       8.842   8.459   0.521  1.00  0.00     0.010 A 
ATOM     37  C   UNL     1       8.165   6.169   0.052  1.00  0.00     0.010 A 
ATOM     38  C   UNL     1       9.075   7.079   0.587  1.00  0.00    -0.014 A 
BRANCH  38  39
ATOM     39  C   UNL     1      10.230   6.555   1.301  1.00  0.00     0.031 A 
ATOM     40  C   UNL     1      10.301   6.907   2.747  1.00  0.00     0.074 A 
ATOM     41  C   UNL     1      11.030   5.614   0.757  1.00  0.00     0.049 A 
ATOM     42  N   UNL     1      11.216   7.589   3.355  1.00  0.00    -0.248 NA
ATOM     43  C   UNL     1       9.160   6.544   3.603  1.00  0.00     0.031 C 
ATOM     44  C   UNL     1      10.870   4.920  -0.529  1.00  0.00     0.029 A 
ATOM     45  N   UNL     1      12.071   4.953   1.325  1.00  0.00    -0.354 N 
ATOM     46  C   UNL     1      10.875   7.559   4.707  1.00  0.00     0.074 A 
ATOM     47  C   UNL     1       9.524   7.066   4.775  1.00  0.00     0.031 C 
ATOM     48  C   UNL     1      11.590   3.777  -0.513  1.00  0.00     0.029 A 
ATOM     49  C   UNL     1      12.398   3.760   0.689  1.00  0.00     0.049 A 
ATOM     50  H   UNL     1      12.551   5.287   2.117  1.00  0.00     0.167 HD
ATOM     51  C   UNL     1      11.802   7.729   5.690  1.00  0.00     0.034 A 
ATOM     52  C   UNL     1      13.236   2.807   1.157  1.00  0.00     0.034 A 
ATOM     53  C   UNL     1      13.035   8.263   5.176  1.00  0.00     0.049 A 
ATOM     54  C   UNL     1      14.090   3.451   2.182  1.00  0.00     0.074 A 
ATOM     55  C   UNL     1      13.396   9.416   4.508  1.00  0.00     0.029 A 
ATOM     56  N   UNL     1      14.064   7.376   4.974  1.00  0.00    -0.354 N 
ATOM     57  N   UNL     1      14.956   4.388   1.917  1.00  0.00    -0.248 NA
ATOM     58  C   UNL     1      13.686   3.342   3.572  1.00  0.00     0.031 C 
ATOM     59  C   UNL     1      14.363   8.995   3.548  1.00  0.00     0.029 A 
ATOM     60  C   UNL     1      14.579   7.626   3.727  1.00  0.00     0.049 A 
ATOM     61  H   UNL     1      14.375   6.689   5.606  1.00  0.00     0.167 HD
ATOM     62  C   UNL     1      14.858   5.262   2.992  1.00  0.00     0.074 A 
ATOM     63  C   UNL     1      14.158   4.505   4.029  1.00  0.00     0.031 C 
ATOM     64  C   UNL     1      15.090   6.601   2.841  1.00  0.00     0.034 A 
BRANCH  51  65
ATOM     65  C   UNL     1      11.711   7.130   7.072  1.00  0.00     0.023 A 
ATOM     66  C   UNL     1      12.592   7.608   8.066  1.00  0.00     0.012 A 
ATOM     67  C   UNL     1      10.966   5.969   7.383  1.00  0.00     0.148 A 
ATOM     68  C   UNL     1      12.730   6.960   9.299  1.00  0.00     0.002 A 
ATOM     69  C   UNL     1      11.034   5.385   8.643  1.00  0.00     0.091 A 
ATOM     70  F   UNL     1      10.286   5.338   6.420  1.00  0.00    -0.205 F 
ATOM     71  C   UNL     1      11.936   5.859   9.596  1.00  0.00     0.022 A 
BRANCH  69  72
ATOM     72  S   UNL     1       9.962   4.018   9.102  1.00  0.00     0.127 S 
ATOM     73  O   UNL     1      10.889   2.891   9.071  1.00  0.00    -0.237 OA
ATOM     74  O   UNL     1       9.518   4.420  10.438  1.00  0.00    -0.237 OA
ATOM     75  O   UNL     1       8.901   4.010   8.102  1.00  0.00    -0.744 OA
ENDBRANCH  69  72
ENDBRANCH  51  65
BRANCH  52  76
ATOM     76  C   UNL     1      13.200   1.338   0.990  1.00  0.00     0.023 A 
ATOM     77  C   UNL     1      14.374   0.595   1.223  1.00  0.00     0.012 A 
ATOM     78  C   UNL     1      11.971   0.645   0.918  1.00  0.00     0.148 A 
ATOM     79  C   UNL     1      14.322  -0.786   1.435  1.00  0.00     0.002 A 
ATOM     80  C   UNL     1      11.925  -0.730   1.132  1.00  0.00     0.091 A 
ATOM     81  F   UNL     1      10.843   1.345   0.739  1.00  0.00    -0.205 F 
ATOM     82  C   UNL     1      13.098  -1.446   1.405  1.00  0.00     0.022 A 
BRANCH  80  83
ATOM     83  S   UNL     1      10.378  -1.649   1.158  1.00  0.00     0.127 S 
ATOM     84  O   UNL     1      10.697  -2.807   0.322  1.00  0.00    -0.237 OA
ATOM     85  O   UNL     1      10.227  -1.945   2.580  1.00  0.00    -0.237 OA
ATOM     86  O   UNL     1       9.378  -0.755   0.587  1.00  0.00    -0.744 OA
ENDBRANCH  80  83
ENDBRANCH  52  76
BRANCH  64  87
ATOM     87  C   UNL     1      15.669   7.080   1.525  1.00  0.00     0.023 A 
ATOM     88  C   UNL     1      14.993   6.906   0.297  1.00  0.00     0.012 A 
ATOM     89  C   UNL     1      16.826   7.877   1.545  1.00  0.00     0.148 A 
ATOM     90  C   UNL     1      15.470   7.488  -0.881  1.00  0.00     0.002 A 
ATOM     91  C   UNL     1      17.270   8.496   0.381  1.00  0.00     0.091 A 
ATOM     92  F   UNL     1      17.462   8.042   2.715  1.00  0.00    -0.205 F 
ATOM     93  C   UNL     1      16.601   8.296  -0.837  1.00  0.00     0.022 A 
BRANCH  91  94
ATOM     94  S   UNL     1      18.641   9.655   0.399  1.00  0.00     0.127 S 
ATOM     95  O   UNL     1      19.727   8.854  -0.161  1.00  0.00    -0.237 OA
ATOM     96  O   UNL     1      18.160  10.728  -0.473  1.00  0.00    -0.237 OA
ATOM     97  O   UNL     1      18.805  10.053   1.792  1.00  0.00    -0.744 OA
ENDBRANCH  91  94
ENDBRANCH  64  87
ENDBRANCH  38  39
ENDBRANCH  30  33
ENDBRANCH  28  29
ENDBRANCH   1  28
TORSDOF 16
