REMARK SMILES C[N@@H+]1CCC[C@@H](C(=O)N[C@H](C(=O)NCCCNC(=O)c2ccc(-c3c4nc(c(-c5cccc(S(=O)(=O)[O-])c5F)c5ccc([nH]5)c(-c5cccc(S(=O)(=O)[O-])c5F)c5nc(c(-c6cccc(S(=O)(=O)[O-])c6F)c6ccc3[nH]6)C=C5)C=C4)cc2)c2ccccc2)C1
REMARK SMILES IDX 15 1 14 2 13 3 11 4 12 5 10 7 9 8 7 9 8 10 6 12 1 13 2 14
REMARK SMILES IDX 3 15 89 16 4 18 5 19 83 20 84 21 88 22 85 23 87 24 86 25
REMARK SMILES IDX 16 26 17 27 18 28 19 30 20 31 21 32 82 33 22 34 81 35 23 36
REMARK SMILES IDX 24 37 25 38 75 39 26 40 80 41 74 42 76 43 27 44 79 45 73 46
REMARK SMILES IDX 72 47 28 49 60 50 40 51 59 52 41 53 44 54 58 55 77 56 42 57
REMARK SMILES IDX 43 58 57 60 78 61 45 62 29 63 30 64 38 65 31 66 33 67 39 68
REMARK SMILES IDX 32 69 34 70 35 71 36 72 37 73 61 74 62 75 70 76 63 77 65 78
REMARK SMILES IDX 71 79 64 80 66 81 67 82 68 83 69 84 46 85 47 86 55 87 48 88
REMARK SMILES IDX 50 89 56 90 49 91 51 92 52 93 53 94 54 95
REMARK H PARENT 13 6 9 11 2 17 17 29 76 48 44 59
REMARK Flexibility Score: inf
ROOT
ATOM      1  C   UNL     1       4.007   1.060   2.832  1.00  0.00     0.042 C 
ENDROOT
BRANCH   1   2
ATOM      2  C   UNL     1       2.867   0.438   2.028  1.00  0.00     0.117 C 
BRANCH   2   3
ATOM      3  N   UNL     1       1.887  -0.259   2.857  1.00  0.00    -0.354 N 
ATOM      4  C   UNL     1       0.580   0.064   3.140  1.00  0.00     0.247 C 
ATOM      5  O   UNL     1      -0.037  -0.675   3.913  1.00  0.00    -0.272 OA
ATOM      6  H   UNL     1       2.212  -1.088   3.277  1.00  0.00     0.163 HD
BRANCH   4   7
ATOM      7  C   UNL     1      -0.064   1.316   2.494  1.00  0.00     0.202 C 
BRANCH   7   8
ATOM      8  N   UNL     1      -1.514   1.169   2.409  1.00  0.00    -0.340 N 
ATOM      9  C   UNL     1      -2.369   1.065   1.365  1.00  0.00     0.229 C 
ATOM     10  O   UNL     1      -3.564   0.911   1.658  1.00  0.00    -0.275 OA
ATOM     11  H   UNL     1      -1.959   1.140   3.287  1.00  0.00     0.164 HD
BRANCH   9  12
ATOM     12  C   UNL     1      -1.991   1.074  -0.129  1.00  0.00     0.133 C 
ATOM     13  C   UNL     1       0.996   3.271  -0.986  1.00  0.00     0.332 C 
ATOM     14  N   UNL     1       0.252   2.088  -0.571  1.00  0.00    -0.337 N 
ATOM     15  C   UNL     1       0.723   0.873  -1.237  1.00  0.00     0.262 C 
ATOM     16  C   UNL     1      -1.197   2.263  -0.679  1.00  0.00     0.275 C 
ATOM     17  H   UNL     1       0.445   1.964   0.423  1.00  0.00     0.347 HD
ATOM     18  C   UNL     1       0.043  -0.377  -0.671  1.00  0.00     0.062 C 
ATOM     19  C   UNL     1      -1.476  -0.268  -0.653  1.00  0.00     0.025 C 
ENDBRANCH   9  12
ENDBRANCH   7   8
BRANCH   7  20
ATOM     20  C   UNL     1       0.345   2.653   3.103  1.00  0.00    -0.016 A 
ATOM     21  C   UNL     1       1.260   2.768   4.157  1.00  0.00     0.006 A 
ATOM     22  C   UNL     1      -0.083   3.840   2.485  1.00  0.00     0.006 A 
ATOM     23  C   UNL     1       1.844   4.001   4.466  1.00  0.00     0.000 A 
ATOM     24  C   UNL     1       0.486   5.074   2.800  1.00  0.00     0.000 A 
ATOM     25  C   UNL     1       1.480   5.148   3.767  1.00  0.00     0.000 A 
ENDBRANCH   7  20
ENDBRANCH   4   7
ENDBRANCH   2   3
ENDBRANCH   1   2
BRANCH   1  26
ATOM     26  C   UNL     1       4.827   0.069   3.646  1.00  0.00     0.118 C 
BRANCH  26  27
ATOM     27  N   UNL     1       5.844  -0.598   2.850  1.00  0.00    -0.352 N 
ATOM     28  C   UNL     1       7.214  -0.564   2.978  1.00  0.00     0.251 C 
ATOM     29  H   UNL     1       5.504  -1.155   2.113  1.00  0.00     0.163 HD
ATOM     30  O   UNL     1       7.911  -1.043   2.087  1.00  0.00    -0.269 OA
BRANCH  28  31
ATOM     31  C   UNL     1       7.854   0.061   4.163  1.00  0.00     0.039 A 
ATOM     32  C   UNL     1       8.999   0.841   3.977  1.00  0.00     0.014 A 
ATOM     33  C   UNL     1       7.353  -0.132   5.453  1.00  0.00     0.014 A 
ATOM     34  C   UNL     1       9.604   1.469   5.072  1.00  0.00     0.010 A 
ATOM     35  C   UNL     1       7.903   0.565   6.529  1.00  0.00     0.010 A 
ATOM     36  C   UNL     1       9.044   1.363   6.356  1.00  0.00    -0.014 A 
BRANCH  36  37
ATOM     37  C   UNL     1       9.639   2.070   7.524  1.00  0.00     0.031 A 
ATOM     38  C   UNL     1      10.154   1.291   8.708  1.00  0.00     0.074 A 
ATOM     39  C   UNL     1       9.651   3.418   7.558  1.00  0.00     0.049 A 
ATOM     40  N   UNL     1      10.662   1.734   9.830  1.00  0.00    -0.248 NA
ATOM     41  C   UNL     1      10.063  -0.177   8.633  1.00  0.00     0.031 C 
ATOM     42  C   UNL     1       9.115   4.296   6.516  1.00  0.00     0.029 A 
ATOM     43  N   UNL     1      10.110   4.288   8.518  1.00  0.00    -0.354 N 
ATOM     44  C   UNL     1      10.913   0.608  10.606  1.00  0.00     0.074 A 
ATOM     45  C   UNL     1      10.468  -0.537   9.842  1.00  0.00     0.031 C 
ATOM     46  C   UNL     1       9.283   5.575   6.887  1.00  0.00     0.029 A 
ATOM     47  C   UNL     1       9.908   5.613   8.206  1.00  0.00     0.049 A 
ATOM     48  H   UNL     1      10.543   3.991   9.351  1.00  0.00     0.167 HD
ATOM     49  C   UNL     1      11.490   0.527  11.829  1.00  0.00     0.034 A 
ATOM     50  C   UNL     1      10.187   6.733   8.903  1.00  0.00     0.034 A 
ATOM     51  C   UNL     1      11.976   1.660  12.570  1.00  0.00     0.049 A 
ATOM     52  C   UNL     1      10.863   6.615  10.243  1.00  0.00     0.074 A 
ATOM     53  C   UNL     1      12.657   1.672  13.774  1.00  0.00     0.029 A 
ATOM     54  N   UNL     1      11.827   2.982  12.183  1.00  0.00    -0.354 N 
ATOM     55  N   UNL     1      11.237   5.537  10.887  1.00  0.00    -0.248 NA
ATOM     56  C   UNL     1      11.188   7.871  10.937  1.00  0.00     0.031 C 
ATOM     57  C   UNL     1      12.897   3.004  14.128  1.00  0.00     0.029 A 
ATOM     58  C   UNL     1      12.393   3.820  13.129  1.00  0.00     0.049 A 
ATOM     59  H   UNL     1      11.384   3.282  11.356  1.00  0.00     0.167 HD
ATOM     60  C   UNL     1      11.874   5.982  12.040  1.00  0.00     0.074 A 
ATOM     61  C   UNL     1      11.853   7.430  11.996  1.00  0.00     0.031 C 
ATOM     62  C   UNL     1      12.415   5.258  13.050  1.00  0.00     0.034 A 
BRANCH  49  63
ATOM     63  C   UNL     1      11.679  -0.846  12.425  1.00  0.00     0.023 A 
ATOM     64  C   UNL     1      12.634  -1.721  11.868  1.00  0.00     0.012 A 
ATOM     65  C   UNL     1      10.958  -1.248  13.567  1.00  0.00     0.148 A 
ATOM     66  C   UNL     1      12.841  -2.988  12.412  1.00  0.00     0.002 A 
ATOM     67  C   UNL     1      11.204  -2.494  14.132  1.00  0.00     0.091 A 
ATOM     68  F   UNL     1      10.041  -0.411  14.073  1.00  0.00    -0.205 F 
ATOM     69  C   UNL     1      12.135  -3.370  13.548  1.00  0.00     0.022 A 
BRANCH  67  70
ATOM     70  S   UNL     1      10.407  -3.050  15.643  1.00  0.00     0.127 S 
ATOM     71  O   UNL     1       9.507  -4.085  15.139  1.00  0.00    -0.237 OA
ATOM     72  O   UNL     1      11.539  -3.552  16.422  1.00  0.00    -0.237 OA
ATOM     73  O   UNL     1       9.755  -1.875  16.208  1.00  0.00    -0.744 OA
ENDBRANCH  67  70
ENDBRANCH  49  63
BRANCH  50  74
ATOM     74  C   UNL     1       9.887   8.070   8.315  1.00  0.00     0.023 A 
ATOM     75  C   UNL     1      10.950   8.903   7.913  1.00  0.00     0.012 A 
ATOM     76  C   UNL     1       8.562   8.510   8.130  1.00  0.00     0.148 A 
ATOM     77  C   UNL     1      10.700  10.163   7.368  1.00  0.00     0.002 A 
ATOM     78  C   UNL     1       8.319   9.742   7.533  1.00  0.00     0.091 A 
ATOM     79  F   UNL     1       7.565   7.709   8.529  1.00  0.00    -0.205 F 
ATOM     80  C   UNL     1       9.386  10.578   7.168  1.00  0.00     0.022 A 
BRANCH  78  81
ATOM     81  S   UNL     1       6.664  10.299   7.113  1.00  0.00     0.127 S 
ATOM     82  O   UNL     1       6.462  11.386   8.067  1.00  0.00    -0.237 OA
ATOM     83  O   UNL     1       6.832  10.722   5.722  1.00  0.00    -0.237 OA
ATOM     84  O   UNL     1       5.803   9.137   7.285  1.00  0.00    -0.744 OA
ENDBRANCH  78  81
ENDBRANCH  50  74
BRANCH  62  85
ATOM     85  C   UNL     1      13.069   6.009  14.181  1.00  0.00     0.023 A 
ATOM     86  C   UNL     1      12.277   6.714  15.109  1.00  0.00     0.012 A 
ATOM     87  C   UNL     1      14.465   5.954  14.366  1.00  0.00     0.148 A 
ATOM     88  C   UNL     1      12.866   7.378  16.184  1.00  0.00     0.002 A 
ATOM     89  C   UNL     1      15.041   6.576  15.467  1.00  0.00     0.091 A 
ATOM     90  F   UNL     1      15.205   5.294  13.462  1.00  0.00    -0.205 F 
ATOM     91  C   UNL     1      14.245   7.299  16.370  1.00  0.00     0.022 A 
BRANCH  89  92
ATOM     92  S   UNL     1      16.793   6.446  15.841  1.00  0.00     0.127 S 
ATOM     93  O   UNL     1      17.265   7.793  15.527  1.00  0.00    -0.237 OA
ATOM     94  O   UNL     1      16.782   6.120  17.268  1.00  0.00    -0.237 OA
ATOM     95  O   UNL     1      17.309   5.387  14.984  1.00  0.00    -0.744 OA
ENDBRANCH  89  92
ENDBRANCH  62  85
ENDBRANCH  36  37
ENDBRANCH  28  31
ENDBRANCH  26  27
ENDBRANCH   1  26
TORSDOF 16
