REMARK SMILES CC1=C(C(=O)NCCCNC(=O)c2ccc(-c3c4nc(c(-c5cccc(S(=O)(=O)[O-])c5F)c5ccc([nH]5)c(-c5cccc(S(=O)(=O)[O-])c5F)c5nc(c(-c6cccc(S(=O)(=O)[O-])c6F)c6ccc3[nH]6)C=C5)C=C4)cc2)N2C(=O)[C@@H](NC(=O)c3ccn(C)n3)[C@H]2SC1
REMARK SMILES IDX 8 1 7 2 6 3 4 4 5 5 3 7 1 8 2 9 91 10 76 11 90 12 77 13
REMARK SMILES IDX 89 14 78 15 79 16 80 17 81 18 82 20 83 21 84 22 88 23 85 24
REMARK SMILES IDX 86 25 87 26 9 27 10 28 11 29 12 31 13 32 14 33 75 34 15 35
REMARK SMILES IDX 74 36 16 37 17 38 18 39 68 40 19 41 73 42 67 43 69 44 20 45
REMARK SMILES IDX 72 46 66 47 65 48 21 50 53 51 33 52 52 53 34 54 37 55 51 56
REMARK SMILES IDX 70 57 35 58 36 59 50 61 71 62 38 63 22 64 23 65 31 66 24 67
REMARK SMILES IDX 26 68 32 69 25 70 27 71 28 72 29 73 30 74 54 75 55 76 63 77
REMARK SMILES IDX 56 78 58 79 64 80 57 81 59 82 60 83 61 84 62 85 39 86 40 87
REMARK SMILES IDX 48 88 41 89 43 90 49 91 42 92 44 93 45 94 46 95 47 96
REMARK H PARENT 6 6 80 19 10 30 69 49 37 60
REMARK Flexibility Score: inf
ROOT
ATOM      1  C   UNL     1       3.101  -3.825   2.238  1.00  0.00     0.042 C 
ENDROOT
BRANCH   1   2
ATOM      2  C   UNL     1       2.729  -3.057   0.991  1.00  0.00     0.118 C 
BRANCH   2   3
ATOM      3  N   UNL     1       1.463  -3.393   0.373  1.00  0.00    -0.351 N 
ATOM      4  C   UNL     1       0.625  -2.593  -0.354  1.00  0.00     0.268 C 
ATOM      5  O   UNL     1      -0.269  -3.118  -1.020  1.00  0.00    -0.268 OA
ATOM      6  H   UNL     1       1.165  -4.324   0.493  1.00  0.00     0.163 HD
BRANCH   4   7
ATOM      7  C   UNL     1       0.746  -1.087  -0.307  1.00  0.00     0.110 C 
ATOM      8  C   UNL     1       3.163  -0.880  -1.051  1.00  0.00     0.043 C 
ATOM      9  C   UNL     1       1.871  -0.348  -0.485  1.00  0.00    -0.034 C 
ATOM     10  C   UNL     1       1.961   1.148  -0.169  1.00  0.00     0.104 C 
ATOM     11  N   UNL     1      -0.431  -0.409  -0.254  1.00  0.00    -0.290 N 
ATOM     12  S   UNL     1       0.388   1.976   0.257  1.00  0.00    -0.129 SA
ATOM     13  C   UNL     1      -1.734  -0.594   0.029  1.00  0.00     0.253 C 
ATOM     14  C   UNL     1      -0.553   0.905  -0.842  1.00  0.00     0.181 C 
ATOM     15  O   UNL     1      -2.364  -1.470   0.576  1.00  0.00    -0.272 OA
ATOM     16  C   UNL     1      -2.073   0.744  -0.685  1.00  0.00     0.206 C 
BRANCH  16  17
ATOM     17  N   UNL     1      -2.819   1.797   0.036  1.00  0.00    -0.336 N 
ATOM     18  C   UNL     1      -3.826   2.591  -0.483  1.00  0.00     0.272 C 
ATOM     19  H   UNL     1      -2.575   1.949   0.978  1.00  0.00     0.164 HD
ATOM     20  O   UNL     1      -4.222   3.561   0.161  1.00  0.00    -0.267 OA
BRANCH  18  21
ATOM     21  C   UNL     1      -4.364   2.236  -1.809  1.00  0.00     0.150 A 
ATOM     22  C   UNL     1      -4.875   0.973  -2.229  1.00  0.00     0.056 A 
ATOM     23  N   UNL     1      -4.386   3.114  -2.831  1.00  0.00    -0.168 NA
ATOM     24  C   UNL     1      -5.157   1.114  -3.566  1.00  0.00     0.109 A 
ATOM     25  N   UNL     1      -4.889   2.416  -3.863  1.00  0.00    -0.275 N 
ATOM     26  C   UNL     1      -5.075   3.051  -5.146  1.00  0.00     0.173 C 
ENDBRANCH  18  21
ENDBRANCH  16  17
ENDBRANCH   4   7
ENDBRANCH   2   3
ENDBRANCH   1   2
BRANCH   1  27
ATOM     27  C   UNL     1       3.233  -5.325   2.062  1.00  0.00     0.118 C 
BRANCH  27  28
ATOM     28  N   UNL     1       4.285  -5.735   1.135  1.00  0.00    -0.352 N 
ATOM     29  C   UNL     1       5.505  -6.340   1.347  1.00  0.00     0.251 C 
ATOM     30  H   UNL     1       4.087  -5.545   0.190  1.00  0.00     0.163 HD
ATOM     31  O   UNL     1       6.268  -6.498   0.397  1.00  0.00    -0.269 OA
BRANCH  29  32
ATOM     32  C   UNL     1       5.923  -6.760   2.705  1.00  0.00     0.039 A 
ATOM     33  C   UNL     1       7.255  -6.588   3.096  1.00  0.00     0.014 A 
ATOM     34  C   UNL     1       5.012  -7.305   3.606  1.00  0.00     0.014 A 
ATOM     35  C   UNL     1       7.634  -6.865   4.414  1.00  0.00     0.010 A 
ATOM     36  C   UNL     1       5.351  -7.430   4.947  1.00  0.00     0.010 A 
ATOM     37  C   UNL     1       6.671  -7.232   5.368  1.00  0.00    -0.014 A 
BRANCH  37  38
ATOM     38  C   UNL     1       7.020  -7.428   6.801  1.00  0.00     0.031 A 
ATOM     39  C   UNL     1       6.723  -8.739   7.485  1.00  0.00     0.074 A 
ATOM     40  C   UNL     1       7.530  -6.401   7.512  1.00  0.00     0.049 A 
ATOM     41  N   UNL     1       6.915  -9.080   8.733  1.00  0.00    -0.248 NA
ATOM     42  C   UNL     1       6.096  -9.796   6.672  1.00  0.00     0.031 C 
ATOM     43  C   UNL     1       7.779  -5.052   6.997  1.00  0.00     0.029 A 
ATOM     44  N   UNL     1       7.915  -6.324   8.828  1.00  0.00    -0.354 N 
ATOM     45  C   UNL     1       6.401 -10.366   8.861  1.00  0.00     0.074 A 
ATOM     46  C   UNL     1       5.837 -10.724   7.580  1.00  0.00     0.031 C 
ATOM     47  C   UNL     1       8.300  -4.294   7.974  1.00  0.00     0.029 A 
ATOM     48  C   UNL     1       8.382  -5.084   9.197  1.00  0.00     0.049 A 
ATOM     49  H   UNL     1       7.861  -7.086   9.450  1.00  0.00     0.167 HD
ATOM     50  C   UNL     1       6.426 -11.192   9.933  1.00  0.00     0.034 A 
ATOM     51  C   UNL     1       8.821  -4.630  10.388  1.00  0.00     0.034 A 
ATOM     52  C   UNL     1       7.020 -10.848  11.195  1.00  0.00     0.049 A 
ATOM     53  C   UNL     1       8.867  -5.577  11.556  1.00  0.00     0.074 A 
ATOM     54  C   UNL     1       7.173 -11.642  12.318  1.00  0.00     0.029 A 
ATOM     55  N   UNL     1       7.546  -9.605  11.509  1.00  0.00    -0.354 N 
ATOM     56  N   UNL     1       8.515  -6.839  11.611  1.00  0.00    -0.248 NA
ATOM     57  C   UNL     1       9.406  -5.048  12.817  1.00  0.00     0.031 C 
ATOM     58  C   UNL     1       7.755 -10.865  13.324  1.00  0.00     0.029 A 
ATOM     59  C   UNL     1       8.012  -9.604  12.812  1.00  0.00     0.049 A 
ATOM     60  H   UNL     1       7.583  -8.836  10.895  1.00  0.00     0.167 HD
ATOM     61  C   UNL     1       8.828  -7.266  12.897  1.00  0.00     0.074 A 
ATOM     62  C   UNL     1       9.418  -6.132  13.579  1.00  0.00     0.031 C 
ATOM     63  C   UNL     1       8.635  -8.482  13.465  1.00  0.00     0.034 A 
BRANCH  50  64
ATOM     64  C   UNL     1       5.828 -12.567   9.772  1.00  0.00     0.023 A 
ATOM     65  C   UNL     1       6.454 -13.511   8.930  1.00  0.00     0.012 A 
ATOM     66  C   UNL     1       4.675 -12.942  10.488  1.00  0.00     0.148 A 
ATOM     67  C   UNL     1       5.918 -14.789   8.771  1.00  0.00     0.002 A 
ATOM     68  C   UNL     1       4.178 -14.234  10.366  1.00  0.00     0.091 A 
ATOM     69  F   UNL     1       4.081 -12.027  11.268  1.00  0.00    -0.205 F 
ATOM     70  C   UNL     1       4.788 -15.153   9.497  1.00  0.00     0.022 A 
BRANCH  68  71
ATOM     71  S   UNL     1       2.779 -14.831  11.321  1.00  0.00     0.127 S 
ATOM     72  O   UNL     1       1.771 -15.023  10.279  1.00  0.00    -0.237 OA
ATOM     73  O   UNL     1       3.307 -16.069  11.894  1.00  0.00    -0.237 OA
ATOM     74  O   UNL     1       2.479 -13.788  12.292  1.00  0.00    -0.744 OA
ENDBRANCH  68  71
ENDBRANCH  50  64
BRANCH  51  75
ATOM     75  C   UNL     1       9.307  -3.227  10.523  1.00  0.00     0.023 A 
ATOM     76  C   UNL     1      10.675  -2.982  10.753  1.00  0.00     0.012 A 
ATOM     77  C   UNL     1       8.425  -2.135  10.414  1.00  0.00     0.148 A 
ATOM     78  C   UNL     1      11.149  -1.679  10.912  1.00  0.00     0.002 A 
ATOM     79  C   UNL     1       8.912  -0.838  10.514  1.00  0.00     0.091 A 
ATOM     80  F   UNL     1       7.126  -2.389  10.201  1.00  0.00    -0.205 F 
ATOM     81  C   UNL     1      10.270  -0.608  10.784  1.00  0.00     0.022 A 
BRANCH  79  82
ATOM     82  S   UNL     1       7.881   0.605  10.233  1.00  0.00     0.127 S 
ATOM     83  O   UNL     1       7.842   1.209  11.562  1.00  0.00    -0.237 OA
ATOM     84  O   UNL     1       8.664   1.343   9.241  1.00  0.00    -0.237 OA
ATOM     85  O   UNL     1       6.612   0.092   9.735  1.00  0.00    -0.744 OA
ENDBRANCH  79  82
ENDBRANCH  51  75
BRANCH  63  86
ATOM     86  C   UNL     1       9.115  -8.674  14.880  1.00  0.00     0.023 A 
ATOM     87  C   UNL     1       8.459  -8.029  15.948  1.00  0.00     0.012 A 
ATOM     88  C   UNL     1      10.189  -9.544  15.154  1.00  0.00     0.148 A 
ATOM     89  C   UNL     1       8.894  -8.211  17.260  1.00  0.00     0.002 A 
ATOM     90  C   UNL     1      10.579  -9.766  16.468  1.00  0.00     0.091 A 
ATOM     91  F   UNL     1      10.811 -10.137  14.125  1.00  0.00    -0.205 F 
ATOM     92  C   UNL     1       9.945  -9.087  17.521  1.00  0.00     0.022 A 
BRANCH  90  93
ATOM     93  S   UNL     1      11.854 -10.953  16.907  1.00  0.00     0.127 S 
ATOM     94  O   UNL     1      12.940 -10.076  17.342  1.00  0.00    -0.237 OA
ATOM     95  O   UNL     1      11.212 -11.710  17.983  1.00  0.00    -0.237 OA
ATOM     96  O   UNL     1      12.120 -11.723  15.700  1.00  0.00    -0.744 OA
ENDBRANCH  90  93
ENDBRANCH  63  86
ENDBRANCH  37  38
ENDBRANCH  29  32
ENDBRANCH  27  28
ENDBRANCH   1  27
TORSDOF 15
