REMARK SMILES O=C(NCCCNC(=O)c1cc(S[C@H]2CCO[C@@]3(CCOC3)C2)cs1)c1ccc(-c2c3nc(c(-c4cccc(S(=O)(=O)[O-])c4F)c4ccc([nH]4)c(-c4cccc(S(=O)(=O)[O-])c4F)c4nc(c(-c5cccc(S(=O)(=O)[O-])c5F)c5ccc2[nH]5)C=C4)C=C3)cc1
REMARK SMILES IDX 4 1 3 2 1 3 2 4 26 6 27 7 88 8 28 9 87 10 29 11 30 12 31 13
REMARK SMILES IDX 81 14 32 15 86 16 80 17 82 18 33 19 85 20 79 21 78 22 34 24
REMARK SMILES IDX 66 25 46 26 65 27 47 28 50 29 64 30 83 31 48 32 49 33 63 35
REMARK SMILES IDX 84 36 51 37 35 38 36 39 44 40 37 41 39 42 45 43 38 44 40 45
REMARK SMILES IDX 41 46 42 47 43 48 67 49 68 50 76 51 69 52 71 53 77 54 70 55
REMARK SMILES IDX 72 56 73 57 74 58 75 59 52 60 53 61 61 62 54 63 56 64 62 65
REMARK SMILES IDX 55 66 57 67 58 68 59 69 60 70 5 71 6 72 7 73 8 74 9 76 10 77
REMARK SMILES IDX 11 78 25 79 12 80 24 81 13 82 14 83 15 84 23 85 16 86 18 87
REMARK SMILES IDX 17 88 19 89 22 90 20 91 21 92
REMARK H PARENT 3 5 82 23 50 34 7 75
REMARK Flexibility Score: inf
ROOT
ATOM      1  C   UNL     1       6.806   1.331  13.261  1.00  0.00     0.118 C 
ENDROOT
BRANCH   1   2
ATOM      2  N   UNL     1       7.298   0.194  12.497  1.00  0.00    -0.352 N 
ATOM      3  O   UNL     1       8.776  -1.073  11.382  1.00  0.00    -0.269 OA
ATOM      4  C   UNL     1       8.586  -0.206  12.232  1.00  0.00     0.251 C 
ATOM      5  H   UNL     1       6.598  -0.378  12.107  1.00  0.00     0.163 HD
BRANCH   4   6
ATOM      6  C   UNL     1       9.731   0.410  12.942  1.00  0.00     0.039 A 
ATOM      7  C   UNL     1       9.664   0.694  14.307  1.00  0.00     0.014 A 
ATOM      8  C   UNL     1      10.910   0.672  12.237  1.00  0.00     0.014 A 
ATOM      9  C   UNL     1      10.703   1.379  14.929  1.00  0.00     0.010 A 
ATOM     10  C   UNL     1      11.992   1.274  12.886  1.00  0.00     0.010 A 
ATOM     11  C   UNL     1      11.886   1.664  14.229  1.00  0.00    -0.014 A 
BRANCH  11  12
ATOM     12  C   UNL     1      13.023   2.292  14.947  1.00  0.00     0.031 A 
ATOM     13  C   UNL     1      13.542   3.648  14.560  1.00  0.00     0.074 A 
ATOM     14  C   UNL     1      13.600   1.614  15.959  1.00  0.00     0.049 A 
ATOM     15  N   UNL     1      14.512   4.340  15.102  1.00  0.00    -0.248 NA
ATOM     16  C   UNL     1      12.903   4.312  13.413  1.00  0.00     0.031 C 
ATOM     17  C   UNL     1      13.224   0.264  16.384  1.00  0.00     0.029 A 
ATOM     18  N   UNL     1      14.623   1.956  16.805  1.00  0.00    -0.354 N 
ATOM     19  C   UNL     1      14.629   5.496  14.342  1.00  0.00     0.074 A 
ATOM     20  C   UNL     1      13.634   5.413  13.294  1.00  0.00     0.031 C 
ATOM     21  C   UNL     1      13.993  -0.102  17.419  1.00  0.00     0.029 A 
ATOM     22  C   UNL     1      14.944   0.967  17.704  1.00  0.00     0.049 A 
ATOM     23  H   UNL     1      15.084   2.826  16.772  1.00  0.00     0.167 HD
ATOM     24  C   UNL     1      15.475   6.540  14.514  1.00  0.00     0.034 A 
ATOM     25  C   UNL     1      15.905   0.913  18.646  1.00  0.00     0.034 A 
ATOM     26  C   UNL     1      16.426   6.643  15.588  1.00  0.00     0.049 A 
ATOM     27  C   UNL     1      16.793   2.105  18.849  1.00  0.00     0.074 A 
ATOM     28  C   UNL     1      17.259   7.704  15.902  1.00  0.00     0.029 A 
ATOM     29  N   UNL     1      16.677   5.649  16.522  1.00  0.00    -0.354 N 
ATOM     30  N   UNL     1      16.780   3.254  18.219  1.00  0.00    -0.248 NA
ATOM     31  C   UNL     1      17.807   2.008  19.908  1.00  0.00     0.031 C 
ATOM     32  C   UNL     1      18.019   7.347  17.021  1.00  0.00     0.029 A 
ATOM     33  C   UNL     1      17.659   6.065  17.405  1.00  0.00     0.049 A 
ATOM     34  H   UNL     1      16.224   4.775  16.552  1.00  0.00     0.167 HD
ATOM     35  C   UNL     1      17.776   4.022  18.808  1.00  0.00     0.074 A 
ATOM     36  C   UNL     1      18.351   3.218  19.868  1.00  0.00     0.031 C 
ATOM     37  C   UNL     1      18.191   5.271  18.483  1.00  0.00     0.034 A 
BRANCH  24  38
ATOM     38  C   UNL     1      15.372   7.689  13.547  1.00  0.00     0.023 A 
ATOM     39  C   UNL     1      14.313   8.610  13.681  1.00  0.00     0.012 A 
ATOM     40  C   UNL     1      16.345   7.896  12.551  1.00  0.00     0.148 A 
ATOM     41  C   UNL     1      14.211   9.705  12.824  1.00  0.00     0.002 A 
ATOM     42  C   UNL     1      16.255   9.008  11.720  1.00  0.00     0.091 A 
ATOM     43  F   UNL     1      17.330   6.996  12.417  1.00  0.00    -0.205 F 
ATOM     44  C   UNL     1      15.186   9.910  11.851  1.00  0.00     0.022 A 
BRANCH  42  45
ATOM     45  S   UNL     1      17.509   9.372  10.485  1.00  0.00     0.127 S 
ATOM     46  O   UNL     1      16.921   8.784   9.283  1.00  0.00    -0.237 OA
ATOM     47  O   UNL     1      17.546  10.836  10.490  1.00  0.00    -0.237 OA
ATOM     48  O   UNL     1      18.727   8.742  10.975  1.00  0.00    -0.744 OA
ENDBRANCH  42  45
ENDBRANCH  24  38
BRANCH  25  49
ATOM     49  C   UNL     1      16.018  -0.306  19.493  1.00  0.00     0.023 A 
ATOM     50  C   UNL     1      15.601  -0.258  20.836  1.00  0.00     0.012 A 
ATOM     51  C   UNL     1      16.435  -1.535  18.944  1.00  0.00     0.148 A 
ATOM     52  C   UNL     1      15.603  -1.413  21.619  1.00  0.00     0.002 A 
ATOM     53  C   UNL     1      16.378  -2.692  19.713  1.00  0.00     0.091 A 
ATOM     54  F   UNL     1      16.849  -1.556  17.669  1.00  0.00    -0.205 F 
ATOM     55  C   UNL     1      15.974  -2.631  21.054  1.00  0.00     0.022 A 
BRANCH  53  56
ATOM     56  S   UNL     1      16.683  -4.315  19.005  1.00  0.00     0.127 S 
ATOM     57  O   UNL     1      18.043  -4.590  19.459  1.00  0.00    -0.237 OA
ATOM     58  O   UNL     1      15.644  -5.129  19.640  1.00  0.00    -0.237 OA
ATOM     59  O   UNL     1      16.508  -4.146  17.568  1.00  0.00    -0.744 OA
ENDBRANCH  53  56
ENDBRANCH  25  49
BRANCH  37  60
ATOM     60  C   UNL     1      19.331   5.848  19.277  1.00  0.00     0.023 A 
ATOM     61  C   UNL     1      20.643   5.412  19.010  1.00  0.00     0.012 A 
ATOM     62  C   UNL     1      19.117   6.868  20.223  1.00  0.00     0.148 A 
ATOM     63  C   UNL     1      21.726   5.969  19.688  1.00  0.00     0.002 A 
ATOM     64  C   UNL     1      20.205   7.445  20.869  1.00  0.00     0.091 A 
ATOM     65  F   UNL     1      17.858   7.252  20.479  1.00  0.00    -0.205 F 
ATOM     66  C   UNL     1      21.509   6.993  20.607  1.00  0.00     0.022 A 
BRANCH  64  67
ATOM     67  S   UNL     1      20.017   8.823  22.007  1.00  0.00     0.127 S 
ATOM     68  O   UNL     1      20.129   8.157  23.303  1.00  0.00    -0.237 OA
ATOM     69  O   UNL     1      21.154   9.677  21.660  1.00  0.00    -0.237 OA
ATOM     70  O   UNL     1      18.717   9.407  21.708  1.00  0.00    -0.744 OA
ENDBRANCH  64  67
ENDBRANCH  37  60
ENDBRANCH  11  12
ENDBRANCH   4   6
ENDBRANCH   1   2
BRANCH   1  71
ATOM     71  C   UNL     1       6.181   2.401  12.378  1.00  0.00     0.042 C 
BRANCH  71  72
ATOM     72  C   UNL     1       4.882   1.972  11.712  1.00  0.00     0.118 C 
BRANCH  72  73
ATOM     73  N   UNL     1       3.819   1.738  12.681  1.00  0.00    -0.351 N 
ATOM     74  C   UNL     1       2.612   2.374  12.838  1.00  0.00     0.261 C 
ATOM     75  H   UNL     1       3.992   1.011  13.322  1.00  0.00     0.163 HD
ATOM     76  O   UNL     1       1.990   2.144  13.883  1.00  0.00    -0.268 OA
BRANCH  74  77
ATOM     77  C   UNL     1       2.114   3.227  11.780  1.00  0.00     0.093 A 
ATOM     78  C   UNL     1       2.193   3.042  10.412  1.00  0.00     0.040 A 
ATOM     79  S   UNL     1       1.229   4.640  12.158  1.00  0.00    -0.137 S 
ATOM     80  C   UNL     1       1.581   4.084   9.669  1.00  0.00     0.019 A 
ATOM     81  C   UNL     1       1.018   5.026  10.502  1.00  0.00     0.080 A 
BRANCH  80  82
ATOM     82  S   UNL     1       1.494   4.197   7.914  1.00  0.00    -0.122 SA
BRANCH  82  83
ATOM     83  C   UNL     1       2.631   2.898   7.308  1.00  0.00     0.057 C 
ATOM     84  C   UNL     1       1.975   1.517   7.363  1.00  0.00     0.043 C 
ATOM     85  C   UNL     1       3.031   3.200   5.855  1.00  0.00     0.053 C 
ATOM     86  C   UNL     1       2.951   0.491   6.814  1.00  0.00     0.162 C 
ATOM     87  C   UNL     1       3.870   2.054   5.244  1.00  0.00     0.095 C 
ATOM     88  O   UNL     1       3.244   0.787   5.453  1.00  0.00    -0.372 OA
ATOM     89  C   UNL     1       4.048   2.244   3.745  1.00  0.00     0.066 C 
ATOM     90  C   UNL     1       5.337   2.082   5.687  1.00  0.00     0.195 C 
ATOM     91  C   UNL     1       5.221   3.192   3.645  1.00  0.00     0.163 C 
ATOM     92  O   UNL     1       6.016   3.007   4.824  1.00  0.00    -0.378 OA
ENDBRANCH  82  83
ENDBRANCH  80  82
ENDBRANCH  74  77
ENDBRANCH  72  73
ENDBRANCH  71  72
ENDBRANCH   1  71
TORSDOF 15
