REMARK SMILES O=C(NCCCNC(=O)c1ccc(-c2c3nc(c(-c4cccc(S(=O)(=O)[O-])c4F)c4ccc([nH]4)c(-c4cccc(S(=O)(=O)[O-])c4F)c4nc(c(-c5cccc(S(=O)(=O)[O-])c5F)c5ccc2[nH]5)C=C4)C=C3)cc1)c1ccc(Cn2cc(Cl)c(=O)[nH]c2=O)cc1
REMARK SMILES IDX 5 1 4 2 3 3 1 4 2 5 73 7 74 8 88 9 75 10 87 11 76 12 77 13
REMARK SMILES IDX 78 14 79 15 85 16 80 17 84 18 86 19 81 20 82 21 83 23 6 24
REMARK SMILES IDX 7 25 8 26 9 28 10 29 11 30 72 31 12 32 71 33 13 34 14 35
REMARK SMILES IDX 15 36 65 37 16 38 70 39 64 40 66 41 17 42 69 43 63 44 62 45
REMARK SMILES IDX 18 47 50 48 30 49 49 50 31 51 34 52 48 53 67 54 32 55 33 56
REMARK SMILES IDX 47 58 68 59 35 60 19 61 20 62 28 63 21 64 23 65 29 66 22 67
REMARK SMILES IDX 24 68 25 69 26 70 27 71 51 72 52 73 60 74 53 75 55 76 61 77
REMARK SMILES IDX 54 78 56 79 57 80 58 81 59 82 36 83 37 84 45 85 38 86 40 87
REMARK SMILES IDX 46 88 39 89 41 90 42 91 43 92 44 93
REMARK H PARENT 3 6 84 22 7 27 66 46 34 57
REMARK Flexibility Score: inf
ROOT
ATOM      1  C   UNL     1       5.018   2.254  -0.297  1.00  0.00     0.042 C 
ENDROOT
BRANCH   1   2
ATOM      2  C   UNL     1       4.524   1.080   0.534  1.00  0.00     0.118 C 
BRANCH   2   3
ATOM      3  N   UNL     1       3.077   0.912   0.464  1.00  0.00    -0.352 N 
ATOM      4  O   UNL     1       1.137  -0.075  -0.162  1.00  0.00    -0.269 OA
ATOM      5  C   UNL     1       2.357  -0.134  -0.060  1.00  0.00     0.251 C 
ATOM      6  H   UNL     1       2.545   1.648   0.843  1.00  0.00     0.163 HD
BRANCH   5   7
ATOM      7  C   UNL     1       3.075  -1.344  -0.496  1.00  0.00     0.039 A 
ATOM      8  C   UNL     1       3.837  -2.067   0.426  1.00  0.00     0.014 A 
ATOM      9  C   UNL     1       3.009  -1.740  -1.832  1.00  0.00     0.014 A 
ATOM     10  C   UNL     1       4.605  -3.142  -0.011  1.00  0.00     0.006 A 
ATOM     11  C   UNL     1       3.793  -2.810  -2.269  1.00  0.00     0.006 A 
ATOM     12  C   UNL     1       4.619  -3.503  -1.369  1.00  0.00    -0.028 A 
BRANCH  12  13
ATOM     13  C   UNL     1       5.549  -4.593  -1.859  1.00  0.00     0.162 C 
BRANCH  13  14
ATOM     14  N   UNL     1       6.878  -4.094  -2.238  1.00  0.00    -0.295 N 
ATOM     15  C   UNL     1       7.724  -3.579  -1.269  1.00  0.00     0.117 A 
ATOM     16  C   UNL     1       7.272  -4.180  -3.570  1.00  0.00     0.328 A 
ATOM     17  C   UNL     1       8.958  -3.146  -1.543  1.00  0.00     0.122 A 
ATOM     18  N   UNL     1       8.535  -3.712  -3.844  1.00  0.00    -0.273 N 
ATOM     19  O   UNL     1       6.583  -4.669  -4.462  1.00  0.00    -0.248 OA
ATOM     20  Cl  UNL     1       9.991  -2.521  -0.324  1.00  0.00    -0.077 Cl
ATOM     21  C   UNL     1       9.451  -3.252  -2.935  1.00  0.00     0.272 A 
ATOM     22  H   UNL     1       8.809  -3.708  -4.790  1.00  0.00     0.175 HD
ATOM     23  O   UNL     1      10.608  -2.998  -3.252  1.00  0.00    -0.268 OA
ENDBRANCH  13  14
ENDBRANCH  12  13
ENDBRANCH   5   7
ENDBRANCH   2   3
ENDBRANCH   1   2
BRANCH   1  24
ATOM     24  C   UNL     1       4.538   3.612   0.196  1.00  0.00     0.118 C 
BRANCH  24  25
ATOM     25  N   UNL     1       5.051   3.956   1.519  1.00  0.00    -0.352 N 
ATOM     26  C   UNL     1       5.822   5.027   1.908  1.00  0.00     0.251 C 
ATOM     27  H   UNL     1       4.810   3.329   2.238  1.00  0.00     0.163 HD
ATOM     28  O   UNL     1       6.284   5.071   3.045  1.00  0.00    -0.269 OA
BRANCH  26  29
ATOM     29  C   UNL     1       6.114   6.108   0.943  1.00  0.00     0.039 A 
ATOM     30  C   UNL     1       7.427   6.565   0.802  1.00  0.00     0.014 A 
ATOM     31  C   UNL     1       5.095   6.639   0.151  1.00  0.00     0.014 A 
ATOM     32  C   UNL     1       7.734   7.486  -0.204  1.00  0.00     0.010 A 
ATOM     33  C   UNL     1       5.416   7.483  -0.904  1.00  0.00     0.010 A 
ATOM     34  C   UNL     1       6.739   7.912  -1.098  1.00  0.00    -0.014 A 
BRANCH  34  35
ATOM     35  C   UNL     1       7.034   8.790  -2.259  1.00  0.00     0.031 A 
ATOM     36  C   UNL     1       6.344  10.122  -2.378  1.00  0.00     0.074 A 
ATOM     37  C   UNL     1       7.804   8.335  -3.268  1.00  0.00     0.049 A 
ATOM     38  N   UNL     1       6.312  10.950  -3.389  1.00  0.00    -0.248 NA
ATOM     39  C   UNL     1       5.553  10.562  -1.216  1.00  0.00     0.031 C 
ATOM     40  C   UNL     1       8.484   7.038  -3.299  1.00  0.00     0.029 A 
ATOM     41  N   UNL     1       8.110   8.898  -4.483  1.00  0.00    -0.354 N 
ATOM     42  C   UNL     1       5.462  11.981  -3.006  1.00  0.00     0.074 A 
ATOM     43  C   UNL     1       4.974  11.658  -1.683  1.00  0.00     0.031 C 
ATOM     44  C   UNL     1       9.125   6.905  -4.471  1.00  0.00     0.029 A 
ATOM     45  C   UNL     1       8.867   8.082  -5.293  1.00  0.00     0.049 A 
ATOM     46  H   UNL     1       7.817   9.799  -4.748  1.00  0.00     0.167 HD
ATOM     47  C   UNL     1       5.138  13.109  -3.682  1.00  0.00     0.034 A 
ATOM     48  C   UNL     1       9.288   8.255  -6.562  1.00  0.00     0.034 A 
ATOM     49  C   UNL     1       5.662  13.448  -4.976  1.00  0.00     0.049 A 
ATOM     50  C   UNL     1       8.928   9.525  -7.285  1.00  0.00     0.074 A 
ATOM     51  C   UNL     1       5.454  14.599  -5.715  1.00  0.00     0.029 A 
ATOM     52  N   UNL     1       6.499  12.636  -5.727  1.00  0.00    -0.354 N 
ATOM     53  N   UNL     1       8.225  10.546  -6.860  1.00  0.00    -0.248 NA
ATOM     54  C   UNL     1       9.444   9.680  -8.654  1.00  0.00     0.031 C 
ATOM     55  C   UNL     1       6.153  14.475  -6.920  1.00  0.00     0.029 A 
ATOM     56  C   UNL     1       6.817  13.259  -6.921  1.00  0.00     0.049 A 
ATOM     57  H   UNL     1       6.820  11.747  -5.450  1.00  0.00     0.167 HD
ATOM     58  C   UNL     1       8.254  11.483  -7.886  1.00  0.00     0.074 A 
ATOM     59  C   UNL     1       9.049  10.911  -8.953  1.00  0.00     0.031 C 
ATOM     60  C   UNL     1       7.666  12.704  -7.944  1.00  0.00     0.034 A 
BRANCH  47  61
ATOM     61  C   UNL     1       4.209  14.083  -3.003  1.00  0.00     0.023 A 
ATOM     62  C   UNL     1       4.665  14.812  -1.885  1.00  0.00     0.012 A 
ATOM     63  C   UNL     1       2.905  14.303  -3.485  1.00  0.00     0.148 A 
ATOM     64  C   UNL     1       3.823  15.710  -1.230  1.00  0.00     0.002 A 
ATOM     65  C   UNL     1       2.087  15.236  -2.856  1.00  0.00     0.091 A 
ATOM     66  F   UNL     1       2.479  13.587  -4.535  1.00  0.00    -0.205 F 
ATOM     67  C   UNL     1       2.539  15.929  -1.720  1.00  0.00     0.022 A 
BRANCH  65  68
ATOM     68  S   UNL     1       0.447  15.648  -3.462  1.00  0.00     0.127 S 
ATOM     69  O   UNL     1      -0.406  14.984  -2.478  1.00  0.00    -0.237 OA
ATOM     70  O   UNL     1       0.446  17.109  -3.383  1.00  0.00    -0.237 OA
ATOM     71  O   UNL     1       0.377  15.116  -4.815  1.00  0.00    -0.744 OA
ENDBRANCH  65  68
ENDBRANCH  47  61
BRANCH  48  72
ATOM     72  C   UNL     1      10.159   7.230  -7.205  1.00  0.00     0.023 A 
ATOM     73  C   UNL     1      11.515   7.534  -7.435  1.00  0.00     0.012 A 
ATOM     74  C   UNL     1       9.671   5.959  -7.562  1.00  0.00     0.148 A 
ATOM     75  C   UNL     1      12.362   6.603  -8.036  1.00  0.00     0.002 A 
ATOM     76  C   UNL     1      10.532   5.016  -8.113  1.00  0.00     0.091 A 
ATOM     77  F   UNL     1       8.375   5.691  -7.343  1.00  0.00    -0.205 F 
ATOM     78  C   UNL     1      11.874   5.342  -8.365  1.00  0.00     0.022 A 
BRANCH  76  79
ATOM     79  S   UNL     1      10.025   3.328  -8.457  1.00  0.00     0.127 S 
ATOM     80  O   UNL     1      10.036   3.304  -9.917  1.00  0.00    -0.237 OA
ATOM     81  O   UNL     1      11.093   2.556  -7.820  1.00  0.00    -0.237 OA
ATOM     82  O   UNL     1       8.719   3.173  -7.831  1.00  0.00    -0.744 OA
ENDBRANCH  76  79
ENDBRANCH  48  72
BRANCH  60  83
ATOM     83  C   UNL     1       7.905  13.543  -9.171  1.00  0.00     0.023 A 
ATOM     84  C   UNL     1       7.260  13.222 -10.381  1.00  0.00     0.012 A 
ATOM     85  C   UNL     1       8.692  14.709  -9.093  1.00  0.00     0.148 A 
ATOM     86  C   UNL     1       7.414  14.037 -11.502  1.00  0.00     0.002 A 
ATOM     87  C   UNL     1       8.801  15.542 -10.200  1.00  0.00     0.091 A 
ATOM     88  F   UNL     1       9.312  14.986  -7.936  1.00  0.00    -0.205 F 
ATOM     89  C   UNL     1       8.171  15.202 -11.408  1.00  0.00     0.022 A 
BRANCH  87  90
ATOM     90  S   UNL     1       9.672  17.112 -10.143  1.00  0.00     0.127 S 
ATOM     91  O   UNL     1      10.845  16.832 -10.970  1.00  0.00    -0.237 OA
ATOM     92  O   UNL     1       8.702  18.026 -10.748  1.00  0.00    -0.237 OA
ATOM     93  O   UNL     1       9.949  17.369  -8.736  1.00  0.00    -0.744 OA
ENDBRANCH  87  90
ENDBRANCH  60  83
ENDBRANCH  34  35
ENDBRANCH  26  29
ENDBRANCH  24  25
ENDBRANCH   1  24
TORSDOF 15
