REMARK SMILES CC[NH+](CC)[C@@H](C(=O)NCCCNC(=O)c1ccc(-c2c3nc(c(-c4cccc(S(=O)(=O)[O-])c4F)c4ccc([nH]4)c(-c4cccc(S(=O)(=O)[O-])c4F)c4nc(c(-c5cccc(S(=O)(=O)[O-])c5F)c5ccc2[nH]5)C=C4)C=C3)cc1)c1ccc(C2CC2)cc1
REMARK SMILES IDX 11 1 10 2 9 3 7 4 8 5 6 7 3 8 2 10 1 11 4 12 5 13 79 14
REMARK SMILES IDX 80 15 87 16 81 17 86 18 82 19 83 20 84 21 85 22 12 23 13 24
REMARK SMILES IDX 14 25 15 27 16 28 17 29 78 30 18 31 77 32 19 33 20 34 21 35
REMARK SMILES IDX 71 36 22 37 76 38 70 39 72 40 23 41 75 42 69 43 68 44 24 46
REMARK SMILES IDX 56 47 36 48 55 49 37 50 40 51 54 52 73 53 38 54 39 55 53 57
REMARK SMILES IDX 74 58 41 59 25 60 26 61 34 62 27 63 29 64 35 65 28 66 30 67
REMARK SMILES IDX 31 68 32 69 33 70 57 71 58 72 66 73 59 74 61 75 67 76 60 77
REMARK SMILES IDX 62 78 63 79 64 80 65 81 42 82 43 83 51 84 44 85 46 86 52 87
REMARK SMILES IDX 45 88 47 89 48 90 49 91 50 92
REMARK H PARENT 9 6 3 9 13 26 72 45 40 56
REMARK Flexibility Score: inf
ROOT
ATOM      1  C   UNL     1       1.276  -3.629  -4.993  1.00  0.00     0.042 C 
ENDROOT
BRANCH   1   2
ATOM      2  C   UNL     1       2.473  -3.499  -4.029  1.00  0.00     0.118 C 
BRANCH   2   3
ATOM      3  N   UNL     1       2.907  -2.134  -3.771  1.00  0.00    -0.351 N 
ATOM      4  C   UNL     1       2.841  -1.281  -2.700  1.00  0.00     0.283 C 
ATOM      5  O   UNL     1       3.282  -0.150  -2.940  1.00  0.00    -0.268 OA
ATOM      6  H   UNL     1       3.353  -1.727  -4.548  1.00  0.00     0.163 HD
BRANCH   4   7
ATOM      7  C   UNL     1       2.253  -1.696  -1.308  1.00  0.00     0.305 C 
BRANCH   7   8
ATOM      8  N   UNL     1       0.798  -1.361  -1.144  1.00  0.00    -0.321 N 
ATOM      9  H   UNL     1       0.621  -1.930  -0.317  1.00  0.00     0.349 HD
BRANCH   8  10
ATOM     10  C   UNL     1       0.434  -0.010  -0.701  1.00  0.00     0.259 C 
ATOM     11  C   UNL     1       0.268   0.098   0.814  1.00  0.00     0.071 C 
ENDBRANCH   8  10
BRANCH   8  12
ATOM     12  C   UNL     1      -0.089  -1.846  -2.201  1.00  0.00     0.259 C 
ATOM     13  C   UNL     1      -0.277  -0.922  -3.409  1.00  0.00     0.071 C 
ENDBRANCH   8  12
ENDBRANCH   7   8
BRANCH   7  14
ATOM     14  C   UNL     1       3.075  -1.201  -0.093  1.00  0.00     0.019 A 
ATOM     15  C   UNL     1       3.063  -1.942   1.101  1.00  0.00     0.011 A 
ATOM     16  C   UNL     1       3.656   0.076  -0.044  1.00  0.00     0.011 A 
ATOM     17  C   UNL     1       3.493  -1.367   2.310  1.00  0.00     0.004 A 
ATOM     18  C   UNL     1       4.094   0.637   1.163  1.00  0.00     0.004 A 
ATOM     19  C   UNL     1       3.952  -0.040   2.379  1.00  0.00    -0.045 A 
BRANCH  19  20
ATOM     20  C   UNL     1       4.184   0.631   3.718  1.00  0.00     0.019 C 
ATOM     21  C   UNL     1       4.116   2.132   3.908  1.00  0.00     0.009 C 
ATOM     22  C   UNL     1       2.982   1.279   4.383  1.00  0.00     0.009 C 
ENDBRANCH  19  20
ENDBRANCH   7  14
ENDBRANCH   4   7
ENDBRANCH   2   3
ENDBRANCH   1   2
BRANCH   1  23
ATOM     23  C   UNL     1       1.226  -2.672  -6.189  1.00  0.00     0.118 C 
BRANCH  23  24
ATOM     24  N   UNL     1       1.871  -3.228  -7.365  1.00  0.00    -0.352 N 
ATOM     25  C   UNL     1       1.335  -3.494  -8.604  1.00  0.00     0.251 C 
ATOM     26  H   UNL     1       2.826  -3.445  -7.262  1.00  0.00     0.163 HD
ATOM     27  O   UNL     1       1.974  -4.188  -9.393  1.00  0.00    -0.269 OA
BRANCH  25  28
ATOM     28  C   UNL     1       0.004  -2.967  -9.006  1.00  0.00     0.039 A 
ATOM     29  C   UNL     1      -0.875  -3.816  -9.688  1.00  0.00     0.014 A 
ATOM     30  C   UNL     1      -0.351  -1.629  -8.804  1.00  0.00     0.014 A 
ATOM     31  C   UNL     1      -2.111  -3.337 -10.142  1.00  0.00     0.010 A 
ATOM     32  C   UNL     1      -1.604  -1.162  -9.225  1.00  0.00     0.010 A 
ATOM     33  C   UNL     1      -2.494  -2.006  -9.910  1.00  0.00    -0.014 A 
BRANCH  33  34
ATOM     34  C   UNL     1      -3.818  -1.499 -10.375  1.00  0.00     0.031 A 
ATOM     35  C   UNL     1      -3.909  -0.448 -11.454  1.00  0.00     0.074 A 
ATOM     36  C   UNL     1      -4.949  -1.938  -9.786  1.00  0.00     0.049 A 
ATOM     37  N   UNL     1      -4.974   0.115 -11.968  1.00  0.00    -0.248 NA
ATOM     38  C   UNL     1      -2.643   0.046 -12.019  1.00  0.00     0.031 C 
ATOM     39  C   UNL     1      -5.006  -2.896  -8.680  1.00  0.00     0.029 A 
ATOM     40  N   UNL     1      -6.266  -1.613 -10.011  1.00  0.00    -0.354 N 
ATOM     41  C   UNL     1      -4.510   1.054 -12.883  1.00  0.00     0.074 A 
ATOM     42  C   UNL     1      -3.064   0.993 -12.848  1.00  0.00     0.031 C 
ATOM     43  C   UNL     1      -6.287  -3.068  -8.313  1.00  0.00     0.029 A 
ATOM     44  C   UNL     1      -7.142  -2.221  -9.140  1.00  0.00     0.049 A 
ATOM     45  H   UNL     1      -6.555  -1.003 -10.727  1.00  0.00     0.167 HD
ATOM     46  C   UNL     1      -5.219   1.876 -13.695  1.00  0.00     0.034 A 
ATOM     47  C   UNL     1      -8.480  -2.104  -9.011  1.00  0.00     0.034 A 
ATOM     48  C   UNL     1      -6.656   1.901 -13.775  1.00  0.00     0.049 A 
ATOM     49  C   UNL     1      -9.243  -1.224  -9.965  1.00  0.00     0.074 A 
ATOM     50  C   UNL     1      -7.454   2.616 -14.653  1.00  0.00     0.029 A 
ATOM     51  N   UNL     1      -7.511   1.195 -12.946  1.00  0.00    -0.354 N 
ATOM     52  N   UNL     1      -8.791  -0.494 -10.955  1.00  0.00    -0.248 NA
ATOM     53  C   UNL     1     -10.706  -1.181  -9.810  1.00  0.00     0.031 C 
ATOM     54  C   UNL     1      -8.792   2.363 -14.337  1.00  0.00     0.029 A 
ATOM     55  C   UNL     1      -8.827   1.471 -13.278  1.00  0.00     0.049 A 
ATOM     56  H   UNL     1      -7.226   0.587 -12.226  1.00  0.00     0.167 HD
ATOM     57  C   UNL     1      -9.912   0.065 -11.559  1.00  0.00     0.074 A 
ATOM     58  C   UNL     1     -11.067  -0.431 -10.842  1.00  0.00     0.031 C 
ATOM     59  C   UNL     1      -9.976   0.928 -12.603  1.00  0.00     0.034 A 
BRANCH  46  60
ATOM     60  C   UNL     1      -4.462   2.795 -14.619  1.00  0.00     0.023 A 
ATOM     61  C   UNL     1      -3.840   2.265 -15.767  1.00  0.00     0.012 A 
ATOM     62  C   UNL     1      -4.468   4.189 -14.415  1.00  0.00     0.148 A 
ATOM     63  C   UNL     1      -3.219   3.107 -16.689  1.00  0.00     0.002 A 
ATOM     64  C   UNL     1      -3.882   5.025 -15.359  1.00  0.00     0.091 A 
ATOM     65  F   UNL     1      -5.055   4.671 -13.310  1.00  0.00    -0.205 F 
ATOM     66  C   UNL     1      -3.250   4.485 -16.491  1.00  0.00     0.022 A 
BRANCH  64  67
ATOM     67  S   UNL     1      -3.938   6.817 -15.241  1.00  0.00     0.127 S 
ATOM     68  O   UNL     1      -2.532   7.141 -14.999  1.00  0.00    -0.237 OA
ATOM     69  O   UNL     1      -4.431   7.197 -16.565  1.00  0.00    -0.237 OA
ATOM     70  O   UNL     1      -4.843   7.122 -14.142  1.00  0.00    -0.744 OA
ENDBRANCH  64  67
ENDBRANCH  46  60
BRANCH  47  71
ATOM     71  C   UNL     1      -9.199  -2.880  -7.959  1.00  0.00     0.023 A 
ATOM     72  C   UNL     1     -10.057  -3.932  -8.333  1.00  0.00     0.012 A 
ATOM     73  C   UNL     1      -9.033  -2.583  -6.593  1.00  0.00     0.148 A 
ATOM     74  C   UNL     1     -10.768  -4.648  -7.369  1.00  0.00     0.002 A 
ATOM     75  C   UNL     1      -9.698  -3.339  -5.634  1.00  0.00     0.091 A 
ATOM     76  F   UNL     1      -8.229  -1.565  -6.254  1.00  0.00    -0.205 F 
ATOM     77  C   UNL     1     -10.580  -4.359  -6.020  1.00  0.00     0.022 A 
BRANCH  75  78
ATOM     78  S   UNL     1      -9.396  -3.119  -3.877  1.00  0.00     0.127 S 
ATOM     79  O   UNL     1     -10.570  -2.353  -3.465  1.00  0.00    -0.237 OA
ATOM     80  O   UNL     1      -9.364  -4.502  -3.395  1.00  0.00    -0.237 OA
ATOM     81  O   UNL     1      -8.118  -2.431  -3.789  1.00  0.00    -0.744 OA
ENDBRANCH  75  78
ENDBRANCH  47  71
BRANCH  59  82
ATOM     82  C   UNL     1     -11.338   1.376 -13.066  1.00  0.00     0.023 A 
ATOM     83  C   UNL     1     -12.081   2.282 -12.283  1.00  0.00     0.012 A 
ATOM     84  C   UNL     1     -11.849   0.961 -14.312  1.00  0.00     0.148 A 
ATOM     85  C   UNL     1     -13.322   2.744 -12.717  1.00  0.00     0.002 A 
ATOM     86  C   UNL     1     -13.066   1.462 -14.761  1.00  0.00     0.091 A 
ATOM     87  F   UNL     1     -11.138   0.084 -15.036  1.00  0.00    -0.205 F 
ATOM     88  C   UNL     1     -13.809   2.345 -13.960  1.00  0.00     0.022 A 
BRANCH  86  89
ATOM     89  S   UNL     1     -13.725   1.077 -16.388  1.00  0.00     0.127 S 
ATOM     90  O   UNL     1     -14.810   0.155 -16.059  1.00  0.00    -0.237 OA
ATOM     91  O   UNL     1     -14.163   2.389 -16.866  1.00  0.00    -0.237 OA
ATOM     92  O   UNL     1     -12.619   0.500 -17.141  1.00  0.00    -0.744 OA
ENDBRANCH  86  89
ENDBRANCH  59  82
ENDBRANCH  33  34
ENDBRANCH  25  28
ENDBRANCH  23  24
ENDBRANCH   1  23
TORSDOF 18
