REMARK SMILES O=C(C[NH2+][C@H]1CCCC[C@H]1[N@@H+](Cc1ccccc1)C1CC1)NCCCNC(=O)c1ccc(-c2c3nc(c(-c4cccc(S(=O)(=O)[O-])c4F)c4ccc([nH]4)c(-c4cccc(S(=O)(=O)[O-])c4F)c4nc(c(-c5cccc(S(=O)(=O)[O-])c5F)c5ccc2[nH]5)C=C4)C=C3)cc1
REMARK SMILES IDX 23 1 22 2 1 3 2 4 3 6 4 7 5 10 6 11 10 12 7 13 9 14 8 15
REMARK SMILES IDX 11 16 12 18 13 19 14 20 18 21 15 22 17 23 16 24 19 25 20 26
REMARK SMILES IDX 21 27 24 28 25 29 26 30 27 31 28 33 29 34 30 35 91 36 31 37
REMARK SMILES IDX 90 38 32 39 33 40 34 41 84 42 35 43 89 44 83 45 85 46 36 47
REMARK SMILES IDX 88 48 82 49 81 50 37 52 69 53 49 54 68 55 50 56 53 57 67 58
REMARK SMILES IDX 86 59 51 60 52 61 66 63 87 64 54 65 38 66 39 67 47 68 40 69
REMARK SMILES IDX 42 70 48 71 41 72 43 73 44 74 45 75 46 76 70 77 71 78 79 79
REMARK SMILES IDX 72 80 74 81 80 82 73 83 75 84 76 85 77 86 78 87 55 88 56 89
REMARK SMILES IDX 64 90 57 91 59 92 65 93 58 94 60 95 61 96 62 97 63 98
REMARK H PARENT 22 5 4 8 4 9 11 17 26 32 85 51 53 62
REMARK Flexibility Score: inf
ROOT
ATOM      1  C   UNL     1       9.931  -0.388   1.016  1.00  0.00     0.118 C 
ENDROOT
BRANCH   1   2
ATOM      2  N   UNL     1       8.535  -0.770   1.098  1.00  0.00    -0.351 N 
ATOM      3  O   UNL     1       8.649  -1.570   3.256  1.00  0.00    -0.269 OA
ATOM      4  C   UNL     1       7.985  -1.254   2.271  1.00  0.00     0.275 C 
ATOM      5  H   UNL     1       7.966  -0.684   0.300  1.00  0.00     0.163 HD
BRANCH   4   6
ATOM      6  C   UNL     1       6.447  -1.230   2.303  1.00  0.00     0.362 C 
BRANCH   6   7
ATOM      7  N   UNL     1       6.060   0.002   2.998  1.00  0.00    -0.331 N 
ATOM      8  H   UNL     1       6.600   0.769   2.597  1.00  0.00     0.347 HD
ATOM      9  H   UNL     1       6.248  -0.169   3.986  1.00  0.00     0.347 HD
BRANCH   7  10
ATOM     10  C   UNL     1       4.647   0.364   2.924  1.00  0.00     0.241 C 
ATOM     11  C   UNL     1       3.885  -0.457   3.998  1.00  0.00     0.071 C 
ATOM     12  C   UNL     1       4.338   1.923   3.111  1.00  0.00     0.243 C 
ATOM     13  C   UNL     1       4.158   0.017   5.426  1.00  0.00     0.007 C 
ATOM     14  C   UNL     1       4.489   2.363   4.583  1.00  0.00     0.071 C 
ATOM     15  C   UNL     1       3.754   1.469   5.576  1.00  0.00     0.007 C 
BRANCH  12  16
ATOM     16  N   UNL     1       4.833   2.923   2.111  1.00  0.00    -0.321 N 
ATOM     17  H   UNL     1       4.647   2.235   1.381  1.00  0.00     0.349 HD
BRANCH  16  18
ATOM     18  C   UNL     1       4.059   4.191   2.083  1.00  0.00     0.299 C 
BRANCH  18  19
ATOM     19  C   UNL     1       4.484   5.341   2.998  1.00  0.00     0.006 A 
ATOM     20  C   UNL     1       5.535   5.273   3.928  1.00  0.00     0.009 A 
ATOM     21  C   UNL     1       3.760   6.542   2.932  1.00  0.00     0.009 A 
ATOM     22  C   UNL     1       5.785   6.308   4.830  1.00  0.00     0.001 A 
ATOM     23  C   UNL     1       4.030   7.596   3.812  1.00  0.00     0.001 A 
ATOM     24  C   UNL     1       5.024   7.467   4.779  1.00  0.00     0.000 A 
ENDBRANCH  18  19
ENDBRANCH  16  18
BRANCH  16  25
ATOM     25  C   UNL     1       6.231   3.168   1.701  1.00  0.00     0.185 C 
ATOM     26  C   UNL     1       7.464   2.582   2.303  1.00  0.00     0.071 C 
ATOM     27  C   UNL     1       7.000   2.140   0.938  1.00  0.00     0.071 C 
ENDBRANCH  16  25
ENDBRANCH  12  16
ENDBRANCH   7  10
ENDBRANCH   6   7
ENDBRANCH   4   6
ENDBRANCH   1   2
BRANCH   1  28
ATOM     28  C   UNL     1      10.479  -0.384  -0.406  1.00  0.00     0.042 C 
BRANCH  28  29
ATOM     29  C   UNL     1       9.903   0.692  -1.325  1.00  0.00     0.118 C 
BRANCH  29  30
ATOM     30  N   UNL     1      10.394   2.036  -1.037  1.00  0.00    -0.352 N 
ATOM     31  C   UNL     1      10.960   2.957  -1.893  1.00  0.00     0.251 C 
ATOM     32  H   UNL     1      10.309   2.326  -0.100  1.00  0.00     0.163 HD
ATOM     33  O   UNL     1      11.420   4.008  -1.452  1.00  0.00    -0.269 OA
BRANCH  31  34
ATOM     34  C   UNL     1      11.046   2.667  -3.344  1.00  0.00     0.039 A 
ATOM     35  C   UNL     1      12.269   2.832  -4.001  1.00  0.00     0.014 A 
ATOM     36  C   UNL     1       9.932   2.204  -4.048  1.00  0.00     0.014 A 
ATOM     37  C   UNL     1      12.401   2.435  -5.337  1.00  0.00     0.010 A 
ATOM     38  C   UNL     1      10.082   1.748  -5.356  1.00  0.00     0.010 A 
ATOM     39  C   UNL     1      11.322   1.841  -6.010  1.00  0.00    -0.014 A 
BRANCH  39  40
ATOM     40  C   UNL     1      11.466   1.257  -7.372  1.00  0.00     0.031 A 
ATOM     41  C   UNL     1      10.646   1.787  -8.517  1.00  0.00     0.074 A 
ATOM     42  C   UNL     1      12.233   0.161  -7.550  1.00  0.00     0.049 A 
ATOM     43  N   UNL     1      10.516   1.313  -9.729  1.00  0.00    -0.248 NA
ATOM     44  C   UNL     1       9.844   2.993  -8.256  1.00  0.00     0.031 C 
ATOM     45  C   UNL     1      13.029  -0.493  -6.510  1.00  0.00     0.029 A 
ATOM     46  N   UNL     1      12.435  -0.623  -8.662  1.00  0.00    -0.354 N 
ATOM     47  C   UNL     1       9.587   2.131 -10.361  1.00  0.00     0.074 A 
ATOM     48  C   UNL     1       9.171   3.121  -9.391  1.00  0.00     0.031 C 
ATOM     49  C   UNL     1      13.621  -1.582  -7.027  1.00  0.00     0.029 A 
ATOM     50  C   UNL     1      13.219  -1.729  -8.422  1.00  0.00     0.049 A 
ATOM     51  H   UNL     1      12.055  -0.413  -9.545  1.00  0.00     0.167 HD
ATOM     52  C   UNL     1       9.137   2.077 -11.638  1.00  0.00     0.034 A 
ATOM     53  C   UNL     1      13.559  -2.758  -9.224  1.00  0.00     0.034 A 
ATOM     54  C   UNL     1       9.587   1.122 -12.615  1.00  0.00     0.049 A 
ATOM     55  C   UNL     1      13.069  -2.776 -10.647  1.00  0.00     0.074 A 
ATOM     56  C   UNL     1       9.252   1.043 -13.956  1.00  0.00     0.029 A 
ATOM     57  N   UNL     1      10.462   0.078 -12.360  1.00  0.00    -0.354 N 
ATOM     58  N   UNL     1      12.304  -1.911 -11.266  1.00  0.00    -0.248 NA
ATOM     59  C   UNL     1      13.515  -3.893 -11.493  1.00  0.00     0.031 C 
ATOM     60  C   UNL     1       9.910  -0.061 -14.507  1.00  0.00     0.029 A 
ATOM     61  C   UNL     1      10.675  -0.653 -13.515  1.00  0.00     0.049 A 
ATOM     62  H   UNL     1      10.872  -0.114 -11.485  1.00  0.00     0.167 HD
ATOM     63  C   UNL     1      12.214  -2.352 -12.581  1.00  0.00     0.074 A 
ATOM     64  C   UNL     1      13.011  -3.558 -12.674  1.00  0.00     0.031 C 
ATOM     65  C   UNL     1      11.526  -1.811 -13.615  1.00  0.00     0.034 A 
BRANCH  52  66
ATOM     66  C   UNL     1       8.138   3.116 -12.074  1.00  0.00     0.023 A 
ATOM     67  C   UNL     1       8.558   4.449 -12.260  1.00  0.00     0.012 A 
ATOM     68  C   UNL     1       6.805   2.765 -12.367  1.00  0.00     0.148 A 
ATOM     69  C   UNL     1       7.661   5.422 -12.698  1.00  0.00     0.002 A 
ATOM     70  C   UNL     1       5.928   3.731 -12.846  1.00  0.00     0.091 A 
ATOM     71  F   UNL     1       6.419   1.497 -12.167  1.00  0.00    -0.205 F 
ATOM     72  C   UNL     1       6.351   5.062 -13.001  1.00  0.00     0.022 A 
BRANCH  70  73
ATOM     73  S   UNL     1       4.244   3.350 -13.341  1.00  0.00     0.127 S 
ATOM     74  O   UNL     1       3.474   3.958 -12.257  1.00  0.00    -0.237 OA
ATOM     75  O   UNL     1       4.135   4.040 -14.627  1.00  0.00    -0.237 OA
ATOM     76  O   UNL     1       4.170   1.898 -13.424  1.00  0.00    -0.744 OA
ENDBRANCH  70  73
ENDBRANCH  52  66
BRANCH  53  77
ATOM     77  C   UNL     1      14.459  -3.832  -8.715  1.00  0.00     0.023 A 
ATOM     78  C   UNL     1      15.777  -3.916  -9.206  1.00  0.00     0.012 A 
ATOM     79  C   UNL     1      14.032  -4.749  -7.736  1.00  0.00     0.148 A 
ATOM     80  C   UNL     1      16.643  -4.912  -8.754  1.00  0.00     0.002 A 
ATOM     81  C   UNL     1      14.917  -5.705  -7.250  1.00  0.00     0.091 A 
ATOM     82  F   UNL     1      12.771  -4.661  -7.290  1.00  0.00    -0.205 F 
ATOM     83  C   UNL     1      16.217  -5.799  -7.770  1.00  0.00     0.022 A 
BRANCH  81  84
ATOM     84  S   UNL     1      14.497  -6.805  -5.893  1.00  0.00     0.127 S 
ATOM     85  O   UNL     1      14.374  -8.090  -6.576  1.00  0.00    -0.237 OA
ATOM     86  O   UNL     1      15.669  -6.676  -5.026  1.00  0.00    -0.237 OA
ATOM     87  O   UNL     1      13.268  -6.270  -5.321  1.00  0.00    -0.744 OA
ENDBRANCH  81  84
ENDBRANCH  53  77
BRANCH  65  88
ATOM     88  C   UNL     1      11.637  -2.472 -14.964  1.00  0.00     0.023 A 
ATOM     89  C   UNL     1      10.964  -3.683 -15.213  1.00  0.00     0.012 A 
ATOM     90  C   UNL     1      12.324  -1.832 -16.016  1.00  0.00     0.148 A 
ATOM     91  C   UNL     1      10.989  -4.259 -16.483  1.00  0.00     0.002 A 
ATOM     92  C   UNL     1      12.306  -2.386 -17.289  1.00  0.00     0.091 A 
ATOM     93  F   UNL     1      12.973  -0.689 -15.752  1.00  0.00    -0.205 F 
ATOM     94  C   UNL     1      11.647  -3.605 -17.523  1.00  0.00     0.022 A 
BRANCH  92  95
ATOM     95  S   UNL     1      13.040  -1.567 -18.710  1.00  0.00     0.127 S 
ATOM     96  O   UNL     1      14.187  -2.430 -18.991  1.00  0.00    -0.237 OA
ATOM     97  O   UNL     1      11.965  -1.640 -19.699  1.00  0.00    -0.237 OA
ATOM     98  O   UNL     1      13.369  -0.218 -18.271  1.00  0.00    -0.744 OA
ENDBRANCH  92  95
ENDBRANCH  65  88
ENDBRANCH  39  40
ENDBRANCH  31  34
ENDBRANCH  29  30
ENDBRANCH  28  29
ENDBRANCH   1  28
TORSDOF 19
