REMARK SMILES C[NH2+][C@]1(C(=O)NCCCNC(=O)c2ccc(-c3c4nc(c(-c5cccc(S(=O)(=O)[O-])c5F)c5ccc([nH]5)c(-c5cccc(S(=O)(=O)[O-])c5F)c5nc(c(-c6cccc(S(=O)(=O)[O-])c6F)c6ccc3[nH]6)C=C5)C=C4)cc2)CCC[C@H]1CCOC1C[C@@H](C)C[C@H](C)C1
REMARK SMILES IDX 7 1 6 2 4 3 5 4 3 6 76 7 79 8 77 9 78 10 2 11 1 12 80 15
REMARK SMILES IDX 81 16 82 17 83 18 84 19 90 20 85 21 88 22 86 23 87 24 89 25
REMARK SMILES IDX 8 26 9 27 10 28 11 29 12 31 13 32 14 33 75 34 15 35 74 36
REMARK SMILES IDX 16 37 17 38 18 39 68 40 19 41 73 42 67 43 69 44 20 45 72 46
REMARK SMILES IDX 66 47 65 48 21 50 53 51 33 52 52 53 34 54 37 55 51 56 70 57
REMARK SMILES IDX 35 58 36 59 50 61 71 62 38 63 22 64 23 65 31 66 24 67 26 68
REMARK SMILES IDX 32 69 25 70 27 71 28 72 29 73 30 74 54 75 55 76 63 77 56 78
REMARK SMILES IDX 58 79 64 80 57 81 59 82 60 83 61 84 62 85 39 86 40 87 48 88
REMARK SMILES IDX 41 89 43 90 49 91 42 92 44 93 45 94 46 95 47 96
REMARK H PARENT 6 5 2 13 2 14 10 30 69 49 37 60
REMARK Flexibility Score: inf
ROOT
ATOM      1  C   UNL     1       0.473   1.482  -4.461  1.00  0.00     0.118 C 
ENDROOT
BRANCH   1   2
ATOM      2  N   UNL     1       0.814   1.809  -3.104  1.00  0.00    -0.351 N 
ATOM      3  C   UNL     1       0.075   1.868  -1.984  1.00  0.00     0.281 C 
ATOM      4  O   UNL     1       0.695   2.362  -1.035  1.00  0.00    -0.268 OA
ATOM      5  H   UNL     1       1.764   2.030  -2.971  1.00  0.00     0.163 HD
BRANCH   3   6
ATOM      6  C   UNL     1      -1.425   1.448  -1.937  1.00  0.00     0.178 C 
ATOM      7  C   UNL     1      -2.256   2.572  -2.610  1.00  0.00     0.079 C 
ATOM      8  C   UNL     1      -1.936   0.088  -2.650  1.00  0.00     0.063 C 
ATOM      9  C   UNL     1      -3.557   1.910  -3.026  1.00  0.00     0.008 C 
ATOM     10  C   UNL     1      -3.106   0.564  -3.562  1.00  0.00     0.011 C 
BRANCH   6  11
ATOM     11  N   UNL     1      -1.955   1.335  -0.521  1.00  0.00    -0.336 N 
ATOM     12  C   UNL     1      -1.395   2.155   0.541  1.00  0.00     0.331 C 
ATOM     13  H   UNL     1      -2.951   1.550  -0.563  1.00  0.00     0.346 HD
ATOM     14  H   UNL     1      -1.685   0.390  -0.249  1.00  0.00     0.346 HD
ENDBRANCH   6  11
BRANCH   8  15
ATOM     15  C   UNL     1      -1.167  -1.072  -3.434  1.00  0.00     0.039 C 
BRANCH  15  16
ATOM     16  C   UNL     1       0.046  -1.973  -2.978  1.00  0.00     0.161 C 
BRANCH  16  17
ATOM     17  O   UNL     1      -0.144  -3.300  -2.473  1.00  0.00    -0.378 OA
BRANCH  17  18
ATOM     18  C   UNL     1      -0.225  -3.809  -1.135  1.00  0.00     0.118 C 
ATOM     19  C   UNL     1       0.386  -3.142   0.103  1.00  0.00     0.035 C 
ATOM     20  C   UNL     1      -1.687  -4.116  -0.822  1.00  0.00     0.035 C 
ATOM     21  C   UNL     1      -0.266  -1.822   0.485  1.00  0.00    -0.011 C 
ATOM     22  C   UNL     1      -2.411  -2.788  -0.751  1.00  0.00    -0.011 C 
ATOM     23  C   UNL     1       0.508  -0.737  -0.246  1.00  0.00     0.008 C 
ATOM     24  C   UNL     1      -1.826  -1.894   0.369  1.00  0.00     0.006 C 
ATOM     25  C   UNL     1      -3.926  -2.958  -0.750  1.00  0.00     0.008 C 
ENDBRANCH  17  18
ENDBRANCH  16  17
ENDBRANCH  15  16
ENDBRANCH   8  15
ENDBRANCH   3   6
ENDBRANCH   1   2
BRANCH   1  26
ATOM     26  C   UNL     1       1.162   2.415  -5.425  1.00  0.00     0.042 C 
BRANCH  26  27
ATOM     27  C   UNL     1       2.668   2.240  -5.354  1.00  0.00     0.118 C 
BRANCH  27  28
ATOM     28  N   UNL     1       3.105   0.957  -5.900  1.00  0.00    -0.352 N 
ATOM     29  C   UNL     1       3.719   0.702  -7.114  1.00  0.00     0.251 C 
ATOM     30  H   UNL     1       2.941   0.171  -5.330  1.00  0.00     0.163 HD
ATOM     31  O   UNL     1       3.841  -0.416  -7.544  1.00  0.00    -0.269 OA
BRANCH  29  32
ATOM     32  C   UNL     1       4.189   1.884  -7.867  1.00  0.00     0.039 A 
ATOM     33  C   UNL     1       3.739   2.097  -9.167  1.00  0.00     0.014 A 
ATOM     34  C   UNL     1       4.916   2.858  -7.183  1.00  0.00     0.014 A 
ATOM     35  C   UNL     1       3.948   3.346  -9.753  1.00  0.00     0.010 A 
ATOM     36  C   UNL     1       4.954   4.140  -7.698  1.00  0.00     0.010 A 
ATOM     37  C   UNL     1       4.507   4.395  -9.002  1.00  0.00    -0.014 A 
BRANCH  37  38
ATOM     38  C   UNL     1       4.684   5.760  -9.558  1.00  0.00     0.031 A 
ATOM     39  C   UNL     1       6.056   6.389  -9.534  1.00  0.00     0.074 A 
ATOM     40  C   UNL     1       3.619   6.467  -9.987  1.00  0.00     0.049 A 
ATOM     41  N   UNL     1       6.415   7.596  -9.879  1.00  0.00    -0.248 NA
ATOM     42  C   UNL     1       7.162   5.573  -8.997  1.00  0.00     0.031 C 
ATOM     43  C   UNL     1       2.225   6.013  -9.963  1.00  0.00     0.029 A 
ATOM     44  N   UNL     1       3.541   7.731 -10.515  1.00  0.00    -0.354 N 
ATOM     45  C   UNL     1       7.760   7.698  -9.543  1.00  0.00     0.074 A 
ATOM     46  C   UNL     1       8.136   6.461  -8.902  1.00  0.00     0.031 C 
ATOM     47  C   UNL     1       1.439   6.970 -10.483  1.00  0.00     0.029 A 
ATOM     48  C   UNL     1       2.263   8.119 -10.845  1.00  0.00     0.049 A 
ATOM     49  H   UNL     1       4.328   8.309 -10.646  1.00  0.00     0.167 HD
ATOM     50  C   UNL     1       8.626   8.706  -9.793  1.00  0.00     0.034 A 
ATOM     51  C   UNL     1       1.810   9.270 -11.380  1.00  0.00     0.034 A 
ATOM     52  C   UNL     1       8.268   9.895 -10.510  1.00  0.00     0.049 A 
ATOM     53  C   UNL     1       2.805  10.348 -11.722  1.00  0.00     0.074 A 
ATOM     54  C   UNL     1       9.085  10.929 -10.923  1.00  0.00     0.029 A 
ATOM     55  N   UNL     1       6.982  10.205 -10.924  1.00  0.00    -0.354 N 
ATOM     56  N   UNL     1       4.105  10.356 -11.549  1.00  0.00    -0.248 NA
ATOM     57  C   UNL     1       2.278  11.559 -12.367  1.00  0.00     0.031 C 
ATOM     58  C   UNL     1       8.287  11.880 -11.565  1.00  0.00     0.029 A 
ATOM     59  C   UNL     1       6.979  11.419 -11.582  1.00  0.00     0.049 A 
ATOM     60  H   UNL     1       6.188   9.643 -10.771  1.00  0.00     0.167 HD
ATOM     61  C   UNL     1       4.556  11.551 -12.098  1.00  0.00     0.074 A 
ATOM     62  C   UNL     1       3.391  12.231 -12.627  1.00  0.00     0.031 C 
ATOM     63  C   UNL     1       5.816  12.049 -12.150  1.00  0.00     0.034 A 
BRANCH  50  64
ATOM     64  C   UNL     1      10.052   8.530  -9.341  1.00  0.00     0.023 A 
ATOM     65  C   UNL     1      10.871   7.561  -9.960  1.00  0.00     0.012 A 
ATOM     66  C   UNL     1      10.591   9.339  -8.324  1.00  0.00     0.148 A 
ATOM     67  C   UNL     1      12.186   7.368  -9.541  1.00  0.00     0.002 A 
ATOM     68  C   UNL     1      11.919   9.179  -7.950  1.00  0.00     0.091 A 
ATOM     69  F   UNL     1       9.791  10.237  -7.729  1.00  0.00    -0.205 F 
ATOM     70  C   UNL     1      12.713   8.184  -8.545  1.00  0.00     0.022 A 
BRANCH  68  71
ATOM     71  S   UNL     1      12.718  10.237  -6.739  1.00  0.00     0.127 S 
ATOM     72  O   UNL     1      12.915   9.312  -5.623  1.00  0.00    -0.237 OA
ATOM     73  O   UNL     1      13.946  10.623  -7.435  1.00  0.00    -0.237 OA
ATOM     74  O   UNL     1      11.792  11.331  -6.487  1.00  0.00    -0.744 OA
ENDBRANCH  68  71
ENDBRANCH  50  64
BRANCH  51  75
ATOM     75  C   UNL     1       0.363   9.432 -11.704  1.00  0.00     0.023 A 
ATOM     76  C   UNL     1      -0.044   9.469 -13.052  1.00  0.00     0.012 A 
ATOM     77  C   UNL     1      -0.611   9.530 -10.692  1.00  0.00     0.148 A 
ATOM     78  C   UNL     1      -1.388   9.639 -13.388  1.00  0.00     0.002 A 
ATOM     79  C   UNL     1      -1.955   9.644 -11.032  1.00  0.00     0.091 A 
ATOM     80  F   UNL     1      -0.205   9.500  -9.415  1.00  0.00    -0.205 F 
ATOM     81  C   UNL     1      -2.344   9.719 -12.379  1.00  0.00     0.022 A 
BRANCH  79  82
ATOM     82  S   UNL     1      -3.267   9.622  -9.805  1.00  0.00     0.127 S 
ATOM     83  O   UNL     1      -3.761  10.994  -9.870  1.00  0.00    -0.237 OA
ATOM     84  O   UNL     1      -4.174   8.612 -10.353  1.00  0.00    -0.237 OA
ATOM     85  O   UNL     1      -2.628   9.238  -8.553  1.00  0.00    -0.744 OA
ENDBRANCH  79  82
ENDBRANCH  51  75
BRANCH  63  86
ATOM     86  C   UNL     1       6.019  13.368 -12.844  1.00  0.00     0.023 A 
ATOM     87  C   UNL     1       5.579  14.559 -12.235  1.00  0.00     0.012 A 
ATOM     88  C   UNL     1       6.729  13.431 -14.059  1.00  0.00     0.148 A 
ATOM     89  C   UNL     1       5.814  15.792 -12.842  1.00  0.00     0.002 A 
ATOM     90  C   UNL     1       7.007  14.665 -14.630  1.00  0.00     0.091 A 
ATOM     91  F   UNL     1       7.124  12.283 -14.628  1.00  0.00    -0.205 F 
ATOM     92  C   UNL     1       6.538  15.845 -14.031  1.00  0.00     0.022 A 
BRANCH  90  93
ATOM     93  S   UNL     1       8.023  14.836 -16.101  1.00  0.00     0.127 S 
ATOM     94  O   UNL     1       7.032  15.222 -17.104  1.00  0.00    -0.237 OA
ATOM     95  O   UNL     1       8.949  15.901 -15.716  1.00  0.00    -0.237 OA
ATOM     96  O   UNL     1       8.650  13.537 -16.310  1.00  0.00    -0.744 OA
ENDBRANCH  90  93
ENDBRANCH  63  86
ENDBRANCH  37  38
ENDBRANCH  29  32
ENDBRANCH  27  28
ENDBRANCH  26  27
ENDBRANCH   1  26
TORSDOF 18
