REMARK SMILES O=C(NCCCNC(=O)[C@@]1(Cc2ccnc3ccccc23)CCC[NH2+]C1)c1ccc(-c2c3nc(c(-c4cccc(S(=O)(=O)[O-])c4F)c4ccc([nH]4)c(-c4cccc(S(=O)(=O)[O-])c4F)c4nc(c(-c5cccc(S(=O)(=O)[O-])c5F)c5ccc2[nH]5)C=C4)C=C3)cc1
REMARK SMILES IDX 4 1 3 2 1 3 2 4 27 6 28 7 89 8 29 9 88 10 30 11 31 12 32 13
REMARK SMILES IDX 82 14 33 15 87 16 81 17 83 18 34 19 86 20 80 21 79 22 35 24
REMARK SMILES IDX 67 25 47 26 66 27 48 28 51 29 65 30 84 31 49 32 50 33 64 35
REMARK SMILES IDX 85 36 52 37 36 38 37 39 45 40 38 41 40 42 46 43 39 44 41 45
REMARK SMILES IDX 42 46 43 47 44 48 68 49 69 50 77 51 70 52 72 53 78 54 71 55
REMARK SMILES IDX 73 56 74 57 75 58 76 59 53 60 54 61 62 62 55 63 57 64 63 65
REMARK SMILES IDX 56 66 58 67 59 68 60 69 61 70 5 71 6 72 7 73 8 74 9 76 10 77
REMARK SMILES IDX 22 78 26 79 23 80 25 81 24 82 11 85 12 86 13 87 21 88 14 89
REMARK SMILES IDX 16 90 20 91 15 92 17 93 19 94 18 95
REMARK H PARENT 3 5 83 23 51 34 7 75 25 83 25 84
REMARK Flexibility Score: inf
ROOT
ATOM      1  C   UNL     1       6.921   0.533  10.954  1.00  0.00     0.118 C 
ENDROOT
BRANCH   1   2
ATOM      2  N   UNL     1       8.319   0.466  11.359  1.00  0.00    -0.352 N 
ATOM      3  O   UNL     1      10.281   1.160  12.202  1.00  0.00    -0.269 OA
ATOM      4  C   UNL     1       9.065   1.297  12.166  1.00  0.00     0.251 C 
ATOM      5  H   UNL     1       8.814  -0.302  10.994  1.00  0.00     0.163 HD
BRANCH   4   6
ATOM      6  C   UNL     1       8.406   2.368  12.947  1.00  0.00     0.039 A 
ATOM      7  C   UNL     1       7.170   2.150  13.552  1.00  0.00     0.014 A 
ATOM      8  C   UNL     1       9.039   3.606  13.093  1.00  0.00     0.014 A 
ATOM      9  C   UNL     1       6.468   3.209  14.104  1.00  0.00     0.010 A 
ATOM     10  C   UNL     1       8.392   4.636  13.782  1.00  0.00     0.010 A 
ATOM     11  C   UNL     1       7.084   4.458  14.259  1.00  0.00    -0.014 A 
BRANCH  11  12
ATOM     12  C   UNL     1       6.379   5.523  15.014  1.00  0.00     0.031 A 
ATOM     13  C   UNL     1       6.072   6.851  14.386  1.00  0.00     0.074 A 
ATOM     14  C   UNL     1       6.040   5.281  16.296  1.00  0.00     0.049 A 
ATOM     15  N   UNL     1       5.515   7.903  14.927  1.00  0.00    -0.248 NA
ATOM     16  C   UNL     1       6.448   7.029  12.975  1.00  0.00     0.031 C 
ATOM     17  C   UNL     1       6.325   4.038  17.020  1.00  0.00     0.029 A 
ATOM     18  N   UNL     1       5.407   6.066  17.224  1.00  0.00    -0.354 N 
ATOM     19  C   UNL     1       5.524   8.886  13.945  1.00  0.00     0.074 A 
ATOM     20  C   UNL     1       6.141   8.303  12.773  1.00  0.00     0.031 C 
ATOM     21  C   UNL     1       5.866   4.141  18.273  1.00  0.00     0.029 A 
ATOM     22  C   UNL     1       5.329   5.481  18.466  1.00  0.00     0.049 A 
ATOM     23  H   UNL     1       5.045   6.959  17.022  1.00  0.00     0.167 HD
ATOM     24  C   UNL     1       5.057  10.156  14.017  1.00  0.00     0.034 A 
ATOM     25  C   UNL     1       4.921   5.977  19.648  1.00  0.00     0.034 A 
ATOM     26  C   UNL     1       4.425  10.713  15.184  1.00  0.00     0.049 A 
ATOM     27  C   UNL     1       4.403   7.381  19.702  1.00  0.00     0.074 A 
ATOM     28  C   UNL     1       3.845  11.960  15.335  1.00  0.00     0.029 A 
ATOM     29  N   UNL     1       4.311  10.069  16.408  1.00  0.00    -0.354 N 
ATOM     30  N   UNL     1       4.301   8.254  18.729  1.00  0.00    -0.248 NA
ATOM     31  C   UNL     1       3.918   7.863  21.001  1.00  0.00     0.031 C 
ATOM     32  C   UNL     1       3.417  12.085  16.661  1.00  0.00     0.029 A 
ATOM     33  C   UNL     1       3.691  10.900  17.326  1.00  0.00     0.049 A 
ATOM     34  H   UNL     1       4.625   9.155  16.596  1.00  0.00     0.167 HD
ATOM     35  C   UNL     1       3.717   9.381  19.290  1.00  0.00     0.074 A 
ATOM     36  C   UNL     1       3.473   9.073  20.686  1.00  0.00     0.031 C 
ATOM     37  C   UNL     1       3.417  10.565  18.702  1.00  0.00     0.034 A 
BRANCH  24  38
ATOM     38  C   UNL     1       5.209  11.030  12.798  1.00  0.00     0.023 A 
ATOM     39  C   UNL     1       4.439  10.775  11.645  1.00  0.00     0.012 A 
ATOM     40  C   UNL     1       6.090  12.130  12.808  1.00  0.00     0.148 A 
ATOM     41  C   UNL     1       4.577  11.570  10.507  1.00  0.00     0.002 A 
ATOM     42  C   UNL     1       6.187  12.946  11.686  1.00  0.00     0.091 A 
ATOM     43  F   UNL     1       6.830  12.349  13.904  1.00  0.00    -0.205 F 
ATOM     44  C   UNL     1       5.443  12.659  10.531  1.00  0.00     0.022 A 
BRANCH  42  45
ATOM     45  S   UNL     1       7.216  14.419  11.653  1.00  0.00     0.127 S 
ATOM     46  O   UNL     1       8.341  13.973  10.833  1.00  0.00    -0.237 OA
ATOM     47  O   UNL     1       6.339  15.395  11.005  1.00  0.00    -0.237 OA
ATOM     48  O   UNL     1       7.529  14.717  13.044  1.00  0.00    -0.744 OA
ENDBRANCH  42  45
ENDBRANCH  24  38
BRANCH  25  49
ATOM     49  C   UNL     1       4.999   5.114  20.858  1.00  0.00     0.023 A 
ATOM     50  C   UNL     1       3.820   4.599  21.426  1.00  0.00     0.012 A 
ATOM     51  C   UNL     1       6.248   4.721  21.381  1.00  0.00     0.148 A 
ATOM     52  C   UNL     1       3.883   3.715  22.504  1.00  0.00     0.002 A 
ATOM     53  C   UNL     1       6.305   3.795  22.413  1.00  0.00     0.091 A 
ATOM     54  F   UNL     1       7.356   5.228  20.822  1.00  0.00    -0.205 F 
ATOM     55  C   UNL     1       5.123   3.302  22.987  1.00  0.00     0.022 A 
BRANCH  53  56
ATOM     56  S   UNL     1       7.852   3.090  22.992  1.00  0.00     0.127 S 
ATOM     57  O   UNL     1       7.931   3.623  24.350  1.00  0.00    -0.237 OA
ATOM     58  O   UNL     1       7.577   1.655  22.907  1.00  0.00    -0.237 OA
ATOM     59  O   UNL     1       8.874   3.563  22.069  1.00  0.00    -0.744 OA
ENDBRANCH  53  56
ENDBRANCH  25  49
BRANCH  37  60
ATOM     60  C   UNL     1       2.750  11.615  19.548  1.00  0.00     0.023 A 
ATOM     61  C   UNL     1       3.495  12.323  20.511  1.00  0.00     0.012 A 
ATOM     62  C   UNL     1       1.406  11.966  19.313  1.00  0.00     0.148 A 
ATOM     63  C   UNL     1       2.905  13.354  21.241  1.00  0.00     0.002 A 
ATOM     64  C   UNL     1       0.841  13.027  20.007  1.00  0.00     0.091 A 
ATOM     65  F   UNL     1       0.713  11.263  18.406  1.00  0.00    -0.205 F 
ATOM     66  C   UNL     1       1.585  13.716  20.979  1.00  0.00     0.022 A 
BRANCH  64  67
ATOM     67  S   UNL     1      -0.816  13.629  19.666  1.00  0.00     0.127 S 
ATOM     68  O   UNL     1      -1.518  13.284  20.901  1.00  0.00    -0.237 OA
ATOM     69  O   UNL     1      -0.590  15.061  19.471  1.00  0.00    -0.237 OA
ATOM     70  O   UNL     1      -1.269  12.918  18.477  1.00  0.00    -0.744 OA
ENDBRANCH  64  67
ENDBRANCH  37  60
ENDBRANCH  11  12
ENDBRANCH   4   6
ENDBRANCH   1   2
BRANCH   1  71
ATOM     71  C   UNL     1       6.730   1.190   9.602  1.00  0.00     0.042 C 
BRANCH  71  72
ATOM     72  C   UNL     1       7.325   0.400   8.459  1.00  0.00     0.117 C 
BRANCH  72  73
ATOM     73  N   UNL     1       6.774  -0.940   8.294  1.00  0.00    -0.355 N 
ATOM     74  C   UNL     1       6.452  -1.651   7.172  1.00  0.00     0.232 C 
ATOM     75  H   UNL     1       6.604  -1.415   9.139  1.00  0.00     0.163 HD
ATOM     76  O   UNL     1       6.137  -2.832   7.354  1.00  0.00    -0.274 OA
BRANCH  74  77
ATOM     77  C   UNL     1       6.412  -1.004   5.766  1.00  0.00     0.102 C 
ATOM     78  C   UNL     1       5.242   0.021   5.790  1.00  0.00     0.029 C 
ATOM     79  C   UNL     1       7.785  -0.343   5.482  1.00  0.00     0.277 C 
ATOM     80  C   UNL     1       5.373   1.164   4.789  1.00  0.00     0.063 C 
ATOM     81  N   UNL     1       7.768   0.718   4.481  1.00  0.00    -0.345 N 
ATOM     82  C   UNL     1       6.777   1.748   4.747  1.00  0.00     0.260 C 
ATOM     83  H   UNL     1       8.689   1.154   4.456  1.00  0.00     0.346 HD
ATOM     84  H   UNL     1       7.521   0.286   3.590  1.00  0.00     0.346 HD
BRANCH  77  85
ATOM     85  C   UNL     1       6.122  -2.177   4.727  1.00  0.00     0.059 C 
BRANCH  85  86
ATOM     86  C   UNL     1       6.017  -1.818   3.250  1.00  0.00    -0.036 A 
ATOM     87  C   UNL     1       4.744  -1.629   2.702  1.00  0.00     0.024 A 
ATOM     88  C   UNL     1       7.150  -1.509   2.449  1.00  0.00     0.003 A 
ATOM     89  C   UNL     1       4.641  -1.017   1.468  1.00  0.00     0.112 A 
ATOM     90  C   UNL     1       6.924  -0.755   1.279  1.00  0.00     0.070 A 
ATOM     91  C   UNL     1       8.484  -1.845   2.783  1.00  0.00     0.010 A 
ATOM     92  N   UNL     1       5.695  -0.536   0.779  1.00  0.00    -0.256 NA
ATOM     93  C   UNL     1       8.018  -0.178   0.643  1.00  0.00     0.029 A 
ATOM     94  C   UNL     1       9.566  -1.259   2.129  1.00  0.00     0.001 A 
ATOM     95  C   UNL     1       9.328  -0.383   1.083  1.00  0.00     0.002 A 
ENDBRANCH  85  86
ENDBRANCH  77  85
ENDBRANCH  74  77
ENDBRANCH  72  73
ENDBRANCH  71  72
ENDBRANCH   1  71
TORSDOF 15
