REMARK SMILES O=C(CSc1nc(-c2ccccc2)c(-c2ccccc2)n1-c1ccccc1)NCCCNC(=O)c1ccc(-c2c3nc(c(-c4cccc(S(=O)(=O)[O-])c4F)c4ccc([nH]4)c(-c4cccc(S(=O)(=O)[O-])c4F)c4nc(c(-c5cccc(S(=O)(=O)[O-])c5F)c5ccc2[nH]5)C=C4)C=C3)cc1
REMARK SMILES IDX 30 1 29 2 28 3 1 4 2 5 3 7 4 8 5 9 6 10 21 11 7 12 14 13
REMARK SMILES IDX 22 14 23 15 27 16 24 17 26 18 25 19 8 20 9 21 13 22 10 23
REMARK SMILES IDX 12 24 11 25 15 26 16 27 20 28 17 29 19 30 18 31 31 32 32 33
REMARK SMILES IDX 33 34 34 36 35 37 36 38 97 39 37 40 96 41 38 42 39 43 40 44
REMARK SMILES IDX 90 45 41 46 95 47 89 48 91 49 42 50 94 51 88 52 87 53 43 55
REMARK SMILES IDX 75 56 55 57 74 58 56 59 59 60 73 61 92 62 57 63 58 64 72 66
REMARK SMILES IDX 93 67 60 68 44 69 45 70 53 71 46 72 48 73 54 74 47 75 49 76
REMARK SMILES IDX 50 77 51 78 52 79 76 80 77 81 85 82 78 83 80 84 86 85 79 86
REMARK SMILES IDX 81 87 82 88 83 89 84 90 61 91 62 92 70 93 63 94 65 95 71 96
REMARK SMILES IDX 64 97 66 98 67 99 68 100 69 101
REMARK H PARENT 28 6 32 35 91 54 59 65
REMARK Flexibility Score: inf
ROOT
ATOM      1  C   UNL     1       2.147  -3.405  -0.488  1.00  0.00     0.042 C 
ENDROOT
BRANCH   1   2
ATOM      2  C   UNL     1       1.954  -2.408   0.656  1.00  0.00     0.117 C 
BRANCH   2   3
ATOM      3  N   UNL     1       2.678  -1.164   0.474  1.00  0.00    -0.355 N 
ATOM      4  O   UNL     1       0.832   0.162   0.126  1.00  0.00    -0.274 OA
ATOM      5  C   UNL     1       2.047   0.047   0.281  1.00  0.00     0.230 C 
ATOM      6  H   UNL     1       3.662  -1.186   0.489  1.00  0.00     0.163 HD
BRANCH   5   7
ATOM      7  C   UNL     1       2.977   1.242   0.181  1.00  0.00     0.178 C 
BRANCH   7   8
ATOM      8  S   UNL     1       3.988   1.474   1.668  1.00  0.00    -0.078 SA
BRANCH   8   9
ATOM      9  C   UNL     1       2.800   1.859   2.882  1.00  0.00     0.174 A 
ATOM     10  N   UNL     1       2.219   0.939   3.622  1.00  0.00    -0.221 NA
ATOM     11  N   UNL     1       2.581   3.141   3.368  1.00  0.00    -0.287 N 
ATOM     12  C   UNL     1       1.555   1.634   4.598  1.00  0.00     0.098 A 
ATOM     13  C   UNL     1       1.784   3.001   4.505  1.00  0.00     0.082 A 
BRANCH  11  14
ATOM     14  C   UNL     1       3.030   4.376   2.834  1.00  0.00     0.048 A 
ATOM     15  C   UNL     1       3.697   5.288   3.660  1.00  0.00     0.027 A 
ATOM     16  C   UNL     1       2.696   4.724   1.522  1.00  0.00     0.027 A 
ATOM     17  C   UNL     1       4.040   6.546   3.164  1.00  0.00     0.002 A 
ATOM     18  C   UNL     1       3.032   5.988   1.038  1.00  0.00     0.002 A 
ATOM     19  C   UNL     1       3.703   6.896   1.856  1.00  0.00     0.000 A 
ENDBRANCH  11  14
BRANCH  12  20
ATOM     20  C   UNL     1       0.709   1.017   5.605  1.00  0.00     0.002 A 
ATOM     21  C   UNL     1       1.244   0.103   6.518  1.00  0.00     0.010 A 
ATOM     22  C   UNL     1      -0.632   1.407   5.731  1.00  0.00     0.010 A 
ATOM     23  C   UNL     1       0.458  -0.377   7.570  1.00  0.00     0.001 A 
ATOM     24  C   UNL     1      -1.415   0.929   6.782  1.00  0.00     0.001 A 
ATOM     25  C   UNL     1      -0.866   0.044   7.707  1.00  0.00     0.000 A 
ENDBRANCH  12  20
BRANCH  13  26
ATOM     26  C   UNL     1       1.221   4.095   5.304  1.00  0.00     0.001 A 
ATOM     27  C   UNL     1       1.425   4.138   6.690  1.00  0.00     0.010 A 
ATOM     28  C   UNL     1       0.398   5.060   4.709  1.00  0.00     0.010 A 
ATOM     29  C   UNL     1       0.810   5.123   7.466  1.00  0.00     0.001 A 
ATOM     30  C   UNL     1      -0.209   6.049   5.484  1.00  0.00     0.001 A 
ATOM     31  C   UNL     1      -0.007   6.077   6.862  1.00  0.00     0.000 A 
ENDBRANCH  13  26
ENDBRANCH   8   9
ENDBRANCH   7   8
ENDBRANCH   5   7
ENDBRANCH   2   3
ENDBRANCH   1   2
BRANCH   1  32
ATOM     32  C   UNL     1       3.589  -3.862  -0.656  1.00  0.00     0.118 C 
BRANCH  32  33
ATOM     33  N   UNL     1       4.082  -4.677   0.454  1.00  0.00    -0.352 N 
ATOM     34  C   UNL     1       5.290  -5.349   0.546  1.00  0.00     0.251 C 
ATOM     35  H   UNL     1       3.481  -4.759   1.230  1.00  0.00     0.163 HD
ATOM     36  O   UNL     1       5.458  -6.214   1.388  1.00  0.00    -0.269 OA
BRANCH  34  37
ATOM     37  C   UNL     1       6.365  -5.011  -0.411  1.00  0.00     0.039 A 
ATOM     38  C   UNL     1       7.129  -6.018  -1.004  1.00  0.00     0.014 A 
ATOM     39  C   UNL     1       6.578  -3.675  -0.741  1.00  0.00     0.014 A 
ATOM     40  C   UNL     1       8.040  -5.674  -2.002  1.00  0.00     0.010 A 
ATOM     41  C   UNL     1       7.371  -3.352  -1.818  1.00  0.00     0.010 A 
ATOM     42  C   UNL     1       8.136  -4.339  -2.431  1.00  0.00    -0.014 A 
BRANCH  42  43
ATOM     43  C   UNL     1       8.947  -4.003  -3.600  1.00  0.00     0.031 A 
ATOM     44  C   UNL     1       8.679  -4.826  -4.815  1.00  0.00     0.074 A 
ATOM     45  C   UNL     1       9.741  -2.913  -3.682  1.00  0.00     0.049 A 
ATOM     46  N   UNL     1       9.479  -5.665  -5.388  1.00  0.00    -0.248 NA
ATOM     47  C   UNL     1       7.327  -4.805  -5.393  1.00  0.00     0.031 C 
ATOM     48  C   UNL     1       9.885  -1.812  -2.722  1.00  0.00     0.029 A 
ATOM     49  N   UNL     1      10.490  -2.487  -4.737  1.00  0.00    -0.354 N 
ATOM     50  C   UNL     1       8.816  -6.112  -6.529  1.00  0.00     0.074 A 
ATOM     51  C   UNL     1       7.446  -5.692  -6.383  1.00  0.00     0.031 C 
ATOM     52  C   UNL     1      10.430  -0.744  -3.344  1.00  0.00     0.029 A 
ATOM     53  C   UNL     1      10.839  -1.143  -4.677  1.00  0.00     0.049 A 
ATOM     54  H   UNL     1      10.760  -3.078  -5.477  1.00  0.00     0.167 HD
ATOM     55  C   UNL     1       9.500  -6.593  -7.606  1.00  0.00     0.034 A 
ATOM     56  C   UNL     1      11.379  -0.400  -5.673  1.00  0.00     0.034 A 
ATOM     57  C   UNL     1      10.868  -6.900  -7.266  1.00  0.00     0.049 A 
ATOM     58  C   UNL     1      12.007  -1.343  -6.627  1.00  0.00     0.074 A 
ATOM     59  C   UNL     1      11.486  -7.698  -6.322  1.00  0.00     0.029 A 
ATOM     60  N   UNL     1      11.838  -6.033  -7.708  1.00  0.00    -0.354 N 
ATOM     61  N   UNL     1      13.047  -2.074  -6.336  1.00  0.00    -0.248 NA
ATOM     62  C   UNL     1      11.220  -1.791  -7.763  1.00  0.00     0.031 C 
ATOM     63  C   UNL     1      12.606  -6.933  -5.882  1.00  0.00     0.029 A 
ATOM     64  C   UNL     1      12.640  -5.757  -6.634  1.00  0.00     0.049 A 
ATOM     65  H   UNL     1      11.937  -5.679  -8.621  1.00  0.00     0.167 HD
ATOM     66  C   UNL     1      12.782  -3.298  -6.934  1.00  0.00     0.074 A 
ATOM     67  C   UNL     1      11.705  -3.029  -7.886  1.00  0.00     0.031 C 
ATOM     68  C   UNL     1      13.249  -4.467  -6.401  1.00  0.00     0.034 A 
BRANCH  55  69
ATOM     69  C   UNL     1       9.073  -6.458  -9.054  1.00  0.00     0.023 A 
ATOM     70  C   UNL     1       9.868  -7.115 -10.024  1.00  0.00     0.012 A 
ATOM     71  C   UNL     1       8.141  -5.511  -9.532  1.00  0.00     0.148 A 
ATOM     72  C   UNL     1       9.799  -6.786 -11.382  1.00  0.00     0.002 A 
ATOM     73  C   UNL     1       8.021  -5.243 -10.892  1.00  0.00     0.091 A 
ATOM     74  F   UNL     1       7.450  -4.757  -8.675  1.00  0.00    -0.205 F 
ATOM     75  C   UNL     1       8.873  -5.849 -11.818  1.00  0.00     0.022 A 
BRANCH  73  76
ATOM     76  S   UNL     1       6.803  -4.078 -11.517  1.00  0.00     0.127 S 
ATOM     77  O   UNL     1       7.643  -2.932 -11.853  1.00  0.00    -0.237 OA
ATOM     78  O   UNL     1       6.256  -4.804 -12.664  1.00  0.00    -0.237 OA
ATOM     79  O   UNL     1       5.855  -3.884 -10.427  1.00  0.00    -0.744 OA
ENDBRANCH  73  76
ENDBRANCH  55  69
BRANCH  56  80
ATOM     80  C   UNL     1      11.200   1.037  -5.984  1.00  0.00     0.023 A 
ATOM     81  C   UNL     1      12.125   1.685  -6.827  1.00  0.00     0.012 A 
ATOM     82  C   UNL     1       9.986   1.700  -5.693  1.00  0.00     0.148 A 
ATOM     83  C   UNL     1      11.835   2.933  -7.393  1.00  0.00     0.002 A 
ATOM     84  C   UNL     1       9.706   2.944  -6.252  1.00  0.00     0.091 A 
ATOM     85  F   UNL     1       9.068   1.071  -4.948  1.00  0.00    -0.205 F 
ATOM     86  C   UNL     1      10.623   3.558  -7.113  1.00  0.00     0.022 A 
BRANCH  84  87
ATOM     87  S   UNL     1       8.151   3.797  -5.950  1.00  0.00     0.127 S 
ATOM     88  O   UNL     1       8.601   5.160  -5.664  1.00  0.00    -0.237 OA
ATOM     89  O   UNL     1       7.463   3.636  -7.227  1.00  0.00    -0.237 OA
ATOM     90  O   UNL     1       7.541   3.121  -4.811  1.00  0.00    -0.744 OA
ENDBRANCH  84  87
ENDBRANCH  56  80
BRANCH  68  91
ATOM     91  C   UNL     1      14.267  -4.406  -5.290  1.00  0.00     0.023 A 
ATOM     92  C   UNL     1      14.000  -3.779  -4.054  1.00  0.00     0.012 A 
ATOM     93  C   UNL     1      15.441  -5.167  -5.422  1.00  0.00     0.148 A 
ATOM     94  C   UNL     1      14.893  -3.892  -2.985  1.00  0.00     0.002 A 
ATOM     95  C   UNL     1      16.303  -5.318  -4.342  1.00  0.00     0.091 A 
ATOM     96  F   UNL     1      15.682  -5.762  -6.601  1.00  0.00    -0.205 F 
ATOM     97  C   UNL     1      16.038  -4.674  -3.124  1.00  0.00     0.022 A 
BRANCH  95  98
ATOM     98  S   UNL     1      17.719  -6.418  -4.420  1.00  0.00     0.127 S 
ATOM     99  O   UNL     1      18.829  -5.477  -4.553  1.00  0.00    -0.237 OA
ATOM    100  O   UNL     1      17.654  -7.108  -3.130  1.00  0.00    -0.237 OA
ATOM    101  O   UNL     1      17.489  -7.286  -5.568  1.00  0.00    -0.744 OA
ENDBRANCH  95  98
ENDBRANCH  68  91
ENDBRANCH  42  43
ENDBRANCH  34  37
ENDBRANCH  32  33
ENDBRANCH   1  32
TORSDOF 18
