REMARK SMILES Cc1ccc(NC(=O)C[NH+]2CCC(C(=O)NCCCNC(=O)c3ccc(-c4c5nc(c(-c6cccc(S(=O)(=O)[O-])c6F)c6ccc([nH]6)c(-c6cccc(S(=O)(=O)[O-])c6F)c6nc(c(-c7cccc(S(=O)(=O)[O-])c7F)c7ccc4[nH]7)C=C6)C=C5)cc3)CC2)cc1Cl
REMARK SMILES IDX 18 1 17 2 16 3 14 4 15 5 13 7 10 8 11 9 87 10 12 12 86 13
REMARK SMILES IDX 9 14 7 15 6 16 8 18 5 19 1 20 2 21 3 22 89 23 4 24 88 25
REMARK SMILES IDX 90 26 19 27 20 28 21 29 22 31 23 32 24 33 85 34 25 35 84 36
REMARK SMILES IDX 26 37 27 38 28 39 78 40 29 41 83 42 77 43 79 44 30 45 82 46
REMARK SMILES IDX 76 47 75 48 31 50 63 51 43 52 62 53 44 54 47 55 61 56 80 57
REMARK SMILES IDX 45 58 46 59 60 61 81 62 48 63 32 64 33 65 41 66 34 67 36 68
REMARK SMILES IDX 42 69 35 70 37 71 38 72 39 73 40 74 64 75 65 76 73 77 66 78
REMARK SMILES IDX 68 79 74 80 67 81 69 82 70 83 71 84 72 85 49 86 50 87 58 88
REMARK SMILES IDX 51 89 53 90 59 91 52 92 54 93 55 94 56 95 57 96
REMARK H PARENT 16 6 10 11 6 17 20 30 79 49 47 60
REMARK Flexibility Score: inf
ROOT
ATOM      1  C   UNL     1       3.494  -3.017  -4.633  1.00  0.00     0.042 C 
ENDROOT
BRANCH   1   2
ATOM      2  C   UNL     1       2.548  -1.939  -4.139  1.00  0.00     0.117 C 
BRANCH   2   3
ATOM      3  N   UNL     1       1.633  -1.500  -5.187  1.00  0.00    -0.356 N 
ATOM      4  C   UNL     1       0.281  -1.614  -5.296  1.00  0.00     0.223 C 
ATOM      5  O   UNL     1      -0.259  -1.172  -6.312  1.00  0.00    -0.275 OA
ATOM      6  H   UNL     1       2.068  -1.044  -5.944  1.00  0.00     0.163 HD
BRANCH   4   7
ATOM      7  C   UNL     1      -0.550  -2.182  -4.162  1.00  0.00     0.089 C 
ATOM      8  N   UNL     1      -0.367  -3.364  -1.498  1.00  0.00    -0.327 N 
ATOM      9  C   UNL     1      -0.919  -4.161  -2.592  1.00  0.00     0.263 C 
ATOM     10  C   UNL     1      -0.717  -1.961  -1.647  1.00  0.00     0.263 C 
ATOM     11  H   UNL     1       0.648  -3.441  -1.565  1.00  0.00     0.348 HD
ATOM     12  C   UNL     1      -0.325  -3.679  -3.922  1.00  0.00     0.075 C 
ATOM     13  C   UNL     1      -0.354  -1.290  -2.945  1.00  0.00     0.075 C 
BRANCH   8  14
ATOM     14  C   UNL     1      -0.704  -3.895  -0.146  1.00  0.00     0.363 C 
BRANCH  14  15
ATOM     15  C   UNL     1      -2.146  -3.643   0.339  1.00  0.00     0.279 C 
ATOM     16  N   UNL     1      -2.569  -2.452   0.891  1.00  0.00    -0.321 N 
ATOM     17  H   UNL     1      -3.498  -2.460   1.216  1.00  0.00     0.170 HD
ATOM     18  O   UNL     1      -3.019  -4.505   0.172  1.00  0.00    -0.268 OA
BRANCH  16  19
ATOM     19  C   UNL     1      -1.898  -1.228   1.069  1.00  0.00     0.042 A 
ATOM     20  C   UNL     1       0.294   2.398   0.278  1.00  0.00     0.046 C 
ATOM     21  C   UNL     1      -0.485   1.188   0.715  1.00  0.00    -0.032 A 
ATOM     22  C   UNL     1      -1.850   1.105   0.401  1.00  0.00     0.007 A 
ATOM     23  C   UNL     1       0.126   0.077   1.320  1.00  0.00     0.046 A 
ATOM     24  C   UNL     1      -2.558  -0.083   0.606  1.00  0.00     0.026 A 
ATOM     25  C   UNL     1      -0.584  -1.117   1.517  1.00  0.00     0.047 A 
ATOM     26  Cl  UNL     1       1.805   0.086   1.728  1.00  0.00    -0.084 Cl
ENDBRANCH  16  19
ENDBRANCH  14  15
ENDBRANCH   8  14
ENDBRANCH   4   7
ENDBRANCH   2   3
ENDBRANCH   1   2
BRANCH   1  27
ATOM     27  C   UNL     1       4.375  -2.558  -5.782  1.00  0.00     0.118 C 
BRANCH  27  28
ATOM     28  N   UNL     1       5.285  -1.483  -5.400  1.00  0.00    -0.352 N 
ATOM     29  C   UNL     1       6.659  -1.473  -5.374  1.00  0.00     0.251 C 
ATOM     30  H   UNL     1       4.853  -0.644  -5.121  1.00  0.00     0.163 HD
ATOM     31  O   UNL     1       7.255  -0.535  -4.849  1.00  0.00    -0.269 OA
BRANCH  29  32
ATOM     32  C   UNL     1       7.409  -2.608  -5.949  1.00  0.00     0.039 A 
ATOM     33  C   UNL     1       8.467  -3.158  -5.224  1.00  0.00     0.014 A 
ATOM     34  C   UNL     1       7.036  -3.157  -7.179  1.00  0.00     0.014 A 
ATOM     35  C   UNL     1       9.089  -4.317  -5.690  1.00  0.00     0.010 A 
ATOM     36  C   UNL     1       7.589  -4.365  -7.589  1.00  0.00     0.010 A 
ATOM     37  C   UNL     1       8.618  -4.961  -6.847  1.00  0.00    -0.014 A 
BRANCH  37  38
ATOM     38  C   UNL     1       9.153  -6.282  -7.266  1.00  0.00     0.031 A 
ATOM     39  C   UNL     1       9.809  -6.447  -8.610  1.00  0.00     0.074 A 
ATOM     40  C   UNL     1       8.957  -7.355  -6.472  1.00  0.00     0.049 A 
ATOM     41  N   UNL     1      10.279  -7.534  -9.165  1.00  0.00    -0.248 NA
ATOM     42  C   UNL     1       9.932  -5.245  -9.453  1.00  0.00     0.031 C 
ATOM     43  C   UNL     1       8.252  -7.340  -5.186  1.00  0.00     0.029 A 
ATOM     44  N   UNL     1       9.301  -8.673  -6.642  1.00  0.00    -0.354 N 
ATOM     45  C   UNL     1      10.717  -7.157 -10.429  1.00  0.00     0.074 A 
ATOM     46  C   UNL     1      10.435  -5.746 -10.572  1.00  0.00     0.031 C 
ATOM     47  C   UNL     1       8.219  -8.585  -4.686  1.00  0.00     0.029 A 
ATOM     48  C   UNL     1       8.862  -9.494  -5.628  1.00  0.00     0.049 A 
ATOM     49  H   UNL     1       9.815  -9.000  -7.415  1.00  0.00     0.167 HD
ATOM     50  C   UNL     1      11.320  -7.914 -11.375  1.00  0.00     0.034 A 
ATOM     51  C   UNL     1       8.947 -10.831  -5.482  1.00  0.00     0.034 A 
ATOM     52  C   UNL     1      11.637  -9.307 -11.213  1.00  0.00     0.049 A 
ATOM     53  C   UNL     1       9.652 -11.636  -6.539  1.00  0.00     0.074 A 
ATOM     54  C   UNL     1      12.348 -10.129 -12.070  1.00  0.00     0.029 A 
ATOM     55  N   UNL     1      11.251 -10.088 -10.136  1.00  0.00    -0.354 N 
ATOM     56  N   UNL     1      10.229 -11.225  -7.642  1.00  0.00    -0.248 NA
ATOM     57  C   UNL     1       9.747 -13.086  -6.318  1.00  0.00     0.031 C 
ATOM     58  C   UNL     1      12.357 -11.418 -11.530  1.00  0.00     0.029 A 
ATOM     59  C   UNL     1      11.684 -11.390 -10.319  1.00  0.00     0.049 A 
ATOM     60  H   UNL     1      10.743  -9.765  -9.357  1.00  0.00     0.167 HD
ATOM     61  C   UNL     1      10.777 -12.359  -8.230  1.00  0.00     0.074 A 
ATOM     62  C   UNL     1      10.495 -13.468  -7.344  1.00  0.00     0.031 C 
ATOM     63  C   UNL     1      11.437 -12.476  -9.408  1.00  0.00     0.034 A 
BRANCH  50  64
ATOM     64  C   UNL     1      11.726  -7.251 -12.665  1.00  0.00     0.023 A 
ATOM     65  C   UNL     1      12.826  -6.370 -12.680  1.00  0.00     0.012 A 
ATOM     66  C   UNL     1      11.089  -7.585 -13.876  1.00  0.00     0.148 A 
ATOM     67  C   UNL     1      13.275  -5.818 -13.879  1.00  0.00     0.002 A 
ATOM     68  C   UNL     1      11.571  -7.067 -15.072  1.00  0.00     0.091 A 
ATOM     69  F   UNL     1      10.034  -8.411 -13.835  1.00  0.00    -0.205 F 
ATOM     70  C   UNL     1      12.658  -6.177 -15.074  1.00  0.00     0.022 A 
BRANCH  68  71
ATOM     71  S   UNL     1      10.901  -7.530 -16.672  1.00  0.00     0.127 S 
ATOM     72  O   UNL     1      10.333  -6.263 -17.132  1.00  0.00    -0.237 OA
ATOM     73  O   UNL     1      12.101  -7.958 -17.392  1.00  0.00    -0.237 OA
ATOM     74  O   UNL     1       9.932  -8.586 -16.416  1.00  0.00    -0.744 OA
ENDBRANCH  68  71
ENDBRANCH  50  64
BRANCH  51  75
ATOM     75  C   UNL     1       8.371 -11.496  -4.278  1.00  0.00     0.023 A 
ATOM     76  C   UNL     1       9.229 -12.107  -3.342  1.00  0.00     0.012 A 
ATOM     77  C   UNL     1       6.981 -11.535  -4.059  1.00  0.00     0.148 A 
ATOM     78  C   UNL     1       8.711 -12.785  -2.238  1.00  0.00     0.002 A 
ATOM     79  C   UNL     1       6.474 -12.158  -2.925  1.00  0.00     0.091 A 
ATOM     80  F   UNL     1       6.178 -10.961  -4.967  1.00  0.00    -0.205 F 
ATOM     81  C   UNL     1       7.336 -12.803  -2.024  1.00  0.00     0.022 A 
BRANCH  79  82
ATOM     82  S   UNL     1       4.729 -12.108  -2.505  1.00  0.00     0.127 S 
ATOM     83  O   UNL     1       4.310 -13.474  -2.806  1.00  0.00    -0.237 OA
ATOM     84  O   UNL     1       4.769 -11.775  -1.080  1.00  0.00    -0.237 OA
ATOM     85  O   UNL     1       4.156 -11.065  -3.345  1.00  0.00    -0.744 OA
ENDBRANCH  79  82
ENDBRANCH  51  75
BRANCH  63  86
ATOM     86  C   UNL     1      11.926 -13.846  -9.801  1.00  0.00     0.023 A 
ATOM     87  C   UNL     1      11.000 -14.832 -10.196  1.00  0.00     0.012 A 
ATOM     88  C   UNL     1      13.304 -14.133  -9.843  1.00  0.00     0.148 A 
ATOM     89  C   UNL     1      11.437 -16.096 -10.591  1.00  0.00     0.002 A 
ATOM     90  C   UNL     1      13.735 -15.377 -10.289  1.00  0.00     0.091 A 
ATOM     91  F   UNL     1      14.167 -13.186  -9.450  1.00  0.00    -0.205 F 
ATOM     92  C   UNL     1      12.803 -16.364 -10.649  1.00  0.00     0.022 A 
BRANCH  90  93
ATOM     93  S   UNL     1      15.473 -15.782 -10.490  1.00  0.00     0.127 S 
ATOM     94  O   UNL     1      15.675 -16.760  -9.422  1.00  0.00    -0.237 OA
ATOM     95  O   UNL     1      15.506 -16.339 -11.842  1.00  0.00    -0.237 OA
ATOM     96  O   UNL     1      16.200 -14.530 -10.333  1.00  0.00    -0.744 OA
ENDBRANCH  90  93
ENDBRANCH  63  86
ENDBRANCH  37  38
ENDBRANCH  29  32
ENDBRANCH  27  28
ENDBRANCH   1  27
TORSDOF 16
