REMARK SMILES CC(C)(C)OC(=O)N[C@H](Cc1ccc(N=[N+]=[N-])cc1)C(=O)NCCCNC(=O)c1ccc(-c2c3nc(c(-c4cccc(S(=O)(=O)[O-])c4F)c4ccc([nH]4)c(-c4cccc(S(=O)(=O)[O-])c4F)c4nc(c(-c5cccc(S(=O)(=O)[O-])c5F)c5ccc2[nH]5)C=C4)C=C3)cc1
REMARK SMILES IDX 24 1 23 2 22 3 20 4 21 5 9 7 8 8 6 9 7 10 5 12 2 13 1 14
REMARK SMILES IDX 3 15 4 16 10 17 11 18 12 19 19 20 13 21 18 22 14 23 15 24
REMARK SMILES IDX 16 25 17 26 25 27 26 28 27 29 28 31 29 32 30 33 91 34 31 35
REMARK SMILES IDX 90 36 32 37 33 38 34 39 84 40 35 41 89 42 83 43 85 44 36 45
REMARK SMILES IDX 88 46 82 47 81 48 37 50 69 51 49 52 68 53 50 54 53 55 67 56
REMARK SMILES IDX 86 57 51 58 52 59 66 61 87 62 54 63 38 64 39 65 47 66 40 67
REMARK SMILES IDX 42 68 48 69 41 70 43 71 44 72 45 73 46 74 70 75 71 76 79 77
REMARK SMILES IDX 72 78 74 79 80 80 73 81 75 82 76 83 77 84 78 85 55 86 56 87
REMARK SMILES IDX 64 88 57 89 59 90 65 91 58 92 60 93 61 94 62 95 63 96
REMARK H PARENT 22 6 8 11 26 30 85 49 53 60
REMARK Flexibility Score: inf
ROOT
ATOM      1  C   UNL     1       0.214  -7.470   3.703  1.00  0.00     0.042 C 
ENDROOT
BRANCH   1   2
ATOM      2  C   UNL     1       1.394  -7.283   2.765  1.00  0.00     0.117 C 
BRANCH   2   3
ATOM      3  N   UNL     1       0.954  -6.968   1.416  1.00  0.00    -0.354 N 
ATOM      4  C   UNL     1       1.209  -5.860   0.659  1.00  0.00     0.243 C 
ATOM      5  O   UNL     1       0.596  -5.726  -0.404  1.00  0.00    -0.273 OA
ATOM      6  H   UNL     1       0.391  -7.652   0.986  1.00  0.00     0.163 HD
BRANCH   4   7
ATOM      7  C   UNL     1       2.122  -4.739   1.197  1.00  0.00     0.179 C 
BRANCH   7   8
ATOM      8  N   UNL     1       3.385  -5.231   1.765  1.00  0.00    -0.309 N 
ATOM      9  C   UNL     1       4.230  -6.149   1.205  1.00  0.00     0.408 C 
ATOM     10  O   UNL     1       5.344  -6.345   1.668  1.00  0.00    -0.225 OA
ATOM     11  H   UNL     1       3.651  -4.861   2.638  1.00  0.00     0.167 HD
BRANCH   9  12
ATOM     12  O   UNL     1       3.663  -6.840   0.192  1.00  0.00    -0.444 OA
BRANCH  12  13
ATOM     13  C   UNL     1       4.253  -8.058  -0.331  1.00  0.00     0.106 C 
ATOM     14  C   UNL     1       3.237  -8.583  -1.359  1.00  0.00     0.056 C 
ATOM     15  C   UNL     1       4.415  -9.124   0.761  1.00  0.00     0.056 C 
ATOM     16  C   UNL     1       5.574  -7.766  -1.043  1.00  0.00     0.056 C 
ENDBRANCH  12  13
ENDBRANCH   9  12
ENDBRANCH   7   8
BRANCH   7  17
ATOM     17  C   UNL     1       1.248  -3.947   2.203  1.00  0.00     0.070 C 
BRANCH  17  18
ATOM     18  C   UNL     1       1.976  -3.034   3.155  1.00  0.00    -0.045 A 
ATOM     19  C   UNL     1       2.208  -3.433   4.478  1.00  0.00     0.004 A 
ATOM     20  C   UNL     1       2.405  -1.771   2.746  1.00  0.00     0.004 A 
ATOM     21  C   UNL     1       2.859  -2.579   5.371  1.00  0.00     0.010 A 
ATOM     22  C   UNL     1       3.052  -0.918   3.648  1.00  0.00     0.010 A 
ATOM     23  C   UNL     1       3.292  -1.310   4.974  1.00  0.00     0.038 A 
BRANCH  23  24
ATOM     24  N   UNL     1       3.933  -0.526   5.953  1.00  0.00    -0.061 NA
ATOM     25  N   UNL     1       4.354   0.581   5.586  1.00  0.00     0.005 N 
ATOM     26  N   UNL     1       4.754   1.600   5.257  1.00  0.00    -0.003 NA
ENDBRANCH  23  24
ENDBRANCH  17  18
ENDBRANCH   7  17
ENDBRANCH   4   7
ENDBRANCH   2   3
ENDBRANCH   1   2
BRANCH   1  27
ATOM     27  C   UNL     1      -0.630  -8.683   3.356  1.00  0.00     0.118 C 
BRANCH  27  28
ATOM     28  N   UNL     1       0.109  -9.930   3.506  1.00  0.00    -0.352 N 
ATOM     29  C   UNL     1      -0.166 -11.009   4.307  1.00  0.00     0.251 C 
ATOM     30  H   UNL     1       0.921 -10.009   2.954  1.00  0.00     0.163 HD
ATOM     31  O   UNL     1       0.679 -11.885   4.464  1.00  0.00    -0.269 OA
BRANCH  29  32
ATOM     32  C   UNL     1      -1.473 -11.095   4.989  1.00  0.00     0.039 A 
ATOM     33  C   UNL     1      -1.515 -11.500   6.324  1.00  0.00     0.014 A 
ATOM     34  C   UNL     1      -2.652 -10.762   4.316  1.00  0.00     0.014 A 
ATOM     35  C   UNL     1      -2.736 -11.513   7.000  1.00  0.00     0.010 A 
ATOM     36  C   UNL     1      -3.848 -10.680   5.018  1.00  0.00     0.010 A 
ATOM     37  C   UNL     1      -3.907 -11.069   6.363  1.00  0.00    -0.014 A 
BRANCH  37  38
ATOM     38  C   UNL     1      -5.201 -11.005   7.089  1.00  0.00     0.031 A 
ATOM     39  C   UNL     1      -6.378 -11.813   6.609  1.00  0.00     0.074 A 
ATOM     40  C   UNL     1      -5.339 -10.159   8.130  1.00  0.00     0.049 A 
ATOM     41  N   UNL     1      -7.596 -11.850   7.083  1.00  0.00    -0.248 NA
ATOM     42  C   UNL     1      -6.172 -12.673   5.430  1.00  0.00     0.031 C 
ATOM     43  C   UNL     1      -4.297  -9.261   8.637  1.00  0.00     0.029 A 
ATOM     44  N   UNL     1      -6.421  -9.893   8.932  1.00  0.00    -0.354 N 
ATOM     45  C   UNL     1      -8.308 -12.693   6.239  1.00  0.00     0.074 A 
ATOM     46  C   UNL     1      -7.395 -13.133   5.209  1.00  0.00     0.031 C 
ATOM     47  C   UNL     1      -4.790  -8.546   9.660  1.00  0.00     0.029 A 
ATOM     48  C   UNL     1      -6.191  -8.902   9.859  1.00  0.00     0.049 A 
ATOM     49  H   UNL     1      -7.280 -10.367   8.852  1.00  0.00     0.167 HD
ATOM     50  C   UNL     1      -9.601 -13.079   6.324  1.00  0.00     0.034 A 
ATOM     51  C   UNL     1      -7.021  -8.327  10.752  1.00  0.00     0.034 A 
ATOM     52  C   UNL     1     -10.493 -12.678   7.377  1.00  0.00     0.049 A 
ATOM     53  C   UNL     1      -8.441  -8.815  10.848  1.00  0.00     0.074 A 
ATOM     54  C   UNL     1     -11.787 -13.110   7.614  1.00  0.00     0.029 A 
ATOM     55  N   UNL     1     -10.198 -11.741   8.352  1.00  0.00    -0.354 N 
ATOM     56  N   UNL     1      -9.042  -9.749  10.151  1.00  0.00    -0.248 NA
ATOM     57  C   UNL     1      -9.290  -8.196  11.876  1.00  0.00     0.031 C 
ATOM     58  C   UNL     1     -12.292 -12.395   8.702  1.00  0.00     0.029 A 
ATOM     59  C   UNL     1     -11.294 -11.561   9.177  1.00  0.00     0.049 A 
ATOM     60  H   UNL     1      -9.337 -11.273   8.445  1.00  0.00     0.167 HD
ATOM     61  C   UNL     1     -10.321  -9.857  10.684  1.00  0.00     0.074 A 
ATOM     62  C   UNL     1     -10.401  -8.911  11.777  1.00  0.00     0.031 C 
ATOM     63  C   UNL     1     -11.343 -10.657  10.296  1.00  0.00     0.034 A 
BRANCH  50  64
ATOM     64  C   UNL     1     -10.142 -14.009   5.272  1.00  0.00     0.023 A 
ATOM     65  C   UNL     1      -9.752 -15.363   5.259  1.00  0.00     0.012 A 
ATOM     66  C   UNL     1     -11.128 -13.563   4.370  1.00  0.00     0.148 A 
ATOM     67  C   UNL     1     -10.325 -16.256   4.354  1.00  0.00     0.002 A 
ATOM     68  C   UNL     1     -11.729 -14.467   3.505  1.00  0.00     0.091 A 
ATOM     69  F   UNL     1     -11.468 -12.266   4.388  1.00  0.00    -0.205 F 
ATOM     70  C   UNL     1     -11.322 -15.812   3.489  1.00  0.00     0.022 A 
BRANCH  68  71
ATOM     71  S   UNL     1     -13.084 -14.015   2.417  1.00  0.00     0.127 S 
ATOM     72  O   UNL     1     -12.480 -14.209   1.099  1.00  0.00    -0.237 OA
ATOM     73  O   UNL     1     -14.102 -15.004   2.773  1.00  0.00    -0.237 OA
ATOM     74  O   UNL     1     -13.425 -12.638   2.744  1.00  0.00    -0.744 OA
ENDBRANCH  68  71
ENDBRANCH  50  64
BRANCH  51  75
ATOM     75  C   UNL     1      -6.534  -7.234  11.643  1.00  0.00     0.023 A 
ATOM     76  C   UNL     1      -6.453  -7.445  13.033  1.00  0.00     0.012 A 
ATOM     77  C   UNL     1      -6.175  -5.978  11.118  1.00  0.00     0.148 A 
ATOM     78  C   UNL     1      -6.079  -6.408  13.889  1.00  0.00     0.002 A 
ATOM     79  C   UNL     1      -5.742  -4.969  11.970  1.00  0.00     0.091 A 
ATOM     80  F   UNL     1      -6.268  -5.791   9.794  1.00  0.00    -0.205 F 
ATOM     81  C   UNL     1      -5.716  -5.173  13.358  1.00  0.00     0.022 A 
BRANCH  79  82
ATOM     82  S   UNL     1      -5.128  -3.398  11.356  1.00  0.00     0.127 S 
ATOM     83  O   UNL     1      -6.217  -2.492  11.712  1.00  0.00    -0.237 OA
ATOM     84  O   UNL     1      -3.902  -3.226  12.136  1.00  0.00    -0.237 OA
ATOM     85  O   UNL     1      -4.905  -3.595   9.930  1.00  0.00    -0.744 OA
ENDBRANCH  79  82
ENDBRANCH  51  75
BRANCH  63  86
ATOM     86  C   UNL     1     -12.623 -10.598  11.089  1.00  0.00     0.023 A 
ATOM     87  C   UNL     1     -13.455  -9.465  11.010  1.00  0.00     0.012 A 
ATOM     88  C   UNL     1     -13.032 -11.706  11.857  1.00  0.00     0.148 A 
ATOM     89  C   UNL     1     -14.656  -9.419  11.717  1.00  0.00     0.002 A 
ATOM     90  C   UNL     1     -14.255 -11.676  12.512  1.00  0.00     0.091 A 
ATOM     91  F   UNL     1     -12.217 -12.769  11.931  1.00  0.00    -0.205 F 
ATOM     92  C   UNL     1     -15.062 -10.528  12.457  1.00  0.00     0.022 A 
BRANCH  90  93
ATOM     93  S   UNL     1     -14.906 -13.094  13.402  1.00  0.00     0.127 S 
ATOM     94  O   UNL     1     -14.826 -12.637  14.788  1.00  0.00    -0.237 OA
ATOM     95  O   UNL     1     -16.265 -13.194  12.870  1.00  0.00    -0.237 OA
ATOM     96  O   UNL     1     -14.040 -14.215  13.065  1.00  0.00    -0.744 OA
ENDBRANCH  90  93
ENDBRANCH  63  86
ENDBRANCH  37  38
ENDBRANCH  29  32
ENDBRANCH  27  28
ENDBRANCH   1  27
TORSDOF 19
