REMARK SMILES Cc1[nH]c2c(C(=O)N3CC[C@H](O)C[C@@H]3C(=O)NCCCNC(=O)c3ccc(-c4c5nc(c(-c6cccc(S(=O)(=O)[O-])c6F)c6ccc([nH]6)c(-c6cccc(S(=O)(=O)[O-])c6F)c6nc(c(-c7cccc(S(=O)(=O)[O-])c7F)c7ccc4[nH]7)C=C6)C=C5)cc3)cccc2c1C
REMARK SMILES IDX 19 1 18 2 17 3 15 4 16 5 14 7 8 8 9 9 10 10 13 11 11 12 6 13
REMARK SMILES IDX 7 14 5 15 1 16 2 17 3 18 91 19 4 20 90 22 92 23 89 24 87 25
REMARK SMILES IDX 88 26 12 27 20 29 21 30 22 31 23 33 24 34 25 35 86 36 26 37
REMARK SMILES IDX 85 38 27 39 28 40 29 41 79 42 30 43 84 44 78 45 80 46 31 47
REMARK SMILES IDX 83 48 77 49 76 50 32 52 64 53 44 54 63 55 45 56 48 57 62 58
REMARK SMILES IDX 81 59 46 60 47 61 61 63 82 64 49 65 33 66 34 67 42 68 35 69
REMARK SMILES IDX 37 70 43 71 36 72 38 73 39 74 40 75 41 76 65 77 66 78 74 79
REMARK SMILES IDX 67 80 69 81 75 82 68 83 70 84 71 85 72 86 73 87 50 88 51 89
REMARK SMILES IDX 59 90 52 91 54 92 60 93 53 94 55 95 56 96 57 97 58 98
REMARK H PARENT 17 6 3 21 12 28 21 32 80 51 48 62
REMARK Flexibility Score: inf
ROOT
ATOM      1  C   UNL     1      -3.267  -4.543  -1.320  1.00  0.00     0.042 C 
ENDROOT
BRANCH   1   2
ATOM      2  C   UNL     1      -2.134  -3.793  -0.640  1.00  0.00     0.117 C 
BRANCH   2   3
ATOM      3  N   UNL     1      -2.011  -4.092   0.776  1.00  0.00    -0.354 N 
ATOM      4  C   UNL     1      -0.972  -4.573   1.512  1.00  0.00     0.242 C 
ATOM      5  O   UNL     1      -1.275  -5.012   2.631  1.00  0.00    -0.273 OA
ATOM      6  H   UNL     1      -2.826  -3.913   1.299  1.00  0.00     0.163 HD
BRANCH   4   7
ATOM      7  C   UNL     1       0.503  -4.678   1.027  1.00  0.00     0.177 C 
ATOM      8  N   UNL     1       1.005  -3.652   0.104  1.00  0.00    -0.326 N 
ATOM      9  C   UNL     1       1.153  -3.954  -1.321  1.00  0.00     0.123 C 
ATOM     10  C   UNL     1       0.840  -5.384  -1.808  1.00  0.00     0.053 C 
ATOM     11  C   UNL     1       0.920  -6.086   0.629  1.00  0.00     0.067 C 
ATOM     12  C   UNL     1       0.452  -6.431  -0.765  1.00  0.00     0.118 C 
BRANCH   8  13
ATOM     13  C   UNL     1       1.874  -2.697   0.646  1.00  0.00     0.256 C 
ATOM     14  O   UNL     1       2.731  -2.972   1.482  1.00  0.00    -0.269 OA
BRANCH  13  15
ATOM     15  C   UNL     1       1.728  -1.286   0.224  1.00  0.00     0.064 A 
ATOM     16  C   UNL     1      -3.129  -0.273   0.792  1.00  0.00     0.064 C 
ATOM     17  C   UNL     1      -1.685  -0.049   0.520  1.00  0.00     0.016 A 
ATOM     18  N   UNL     1      -0.759  -1.056   0.631  1.00  0.00    -0.358 N 
ATOM     19  C   UNL     1      -1.011   1.100   0.149  1.00  0.00    -0.023 A 
ATOM     20  C   UNL     1       0.492  -0.616   0.274  1.00  0.00     0.059 A 
ATOM     21  H   UNL     1      -0.965  -1.971   0.928  1.00  0.00     0.166 HD
ATOM     22  C   UNL     1       0.373   0.751   0.018  1.00  0.00     0.003 A 
ATOM     23  C   UNL     1      -1.603   2.451  -0.051  1.00  0.00     0.047 C 
ATOM     24  C   UNL     1       1.539   1.488  -0.276  1.00  0.00     0.010 A 
ATOM     25  C   UNL     1       2.874  -0.523  -0.042  1.00  0.00     0.016 A 
ATOM     26  C   UNL     1       2.781   0.844  -0.294  1.00  0.00     0.002 A 
ENDBRANCH  13  15
ENDBRANCH   8  13
BRANCH  12  27
ATOM     27  O   UNL     1      -0.961  -6.600  -0.760  1.00  0.00    -0.393 OA
ATOM     28  H   UNL     1      -1.385  -5.766  -0.505  1.00  0.00     0.210 HD
ENDBRANCH  12  27
ENDBRANCH   4   7
ENDBRANCH   2   3
ENDBRANCH   1   2
BRANCH   1  29
ATOM     29  C   UNL     1      -4.640  -4.011  -0.952  1.00  0.00     0.118 C 
BRANCH  29  30
ATOM     30  N   UNL     1      -4.887  -2.666  -1.463  1.00  0.00    -0.352 N 
ATOM     31  C   UNL     1      -5.648  -2.218  -2.516  1.00  0.00     0.251 C 
ATOM     32  H   UNL     1      -4.427  -1.952  -0.964  1.00  0.00     0.163 HD
ATOM     33  O   UNL     1      -5.583  -1.036  -2.849  1.00  0.00    -0.269 OA
BRANCH  31  34
ATOM     34  C   UNL     1      -6.508  -3.153  -3.268  1.00  0.00     0.039 A 
ATOM     35  C   UNL     1      -6.583  -3.052  -4.660  1.00  0.00     0.014 A 
ATOM     36  C   UNL     1      -7.229  -4.141  -2.603  1.00  0.00     0.014 A 
ATOM     37  C   UNL     1      -7.309  -4.002  -5.385  1.00  0.00     0.010 A 
ATOM     38  C   UNL     1      -7.824  -5.162  -3.328  1.00  0.00     0.010 A 
ATOM     39  C   UNL     1      -7.894  -5.093  -4.726  1.00  0.00    -0.014 A 
BRANCH  39  40
ATOM     40  C   UNL     1      -8.625  -6.166  -5.448  1.00  0.00     0.031 A 
ATOM     41  C   UNL     1     -10.053  -6.467  -5.067  1.00  0.00     0.074 A 
ATOM     42  C   UNL     1      -7.978  -6.946  -6.336  1.00  0.00     0.049 A 
ATOM     43  N   UNL     1     -10.812  -7.468  -5.428  1.00  0.00    -0.248 NA
ATOM     44  C   UNL     1     -10.692  -5.554  -4.101  1.00  0.00     0.031 C 
ATOM     45  C   UNL     1      -6.570  -6.814  -6.719  1.00  0.00     0.029 A 
ATOM     46  N   UNL     1      -8.414  -8.030  -7.056  1.00  0.00    -0.354 N 
ATOM     47  C   UNL     1     -11.978  -7.345  -4.681  1.00  0.00     0.074 A 
ATOM     48  C   UNL     1     -11.810  -6.202  -3.814  1.00  0.00     0.031 C 
ATOM     49  C   UNL     1      -6.263  -7.769  -7.611  1.00  0.00     0.029 A 
ATOM     50  C   UNL     1      -7.438  -8.603  -7.839  1.00  0.00     0.049 A 
ATOM     51  H   UNL     1      -9.338  -8.366  -7.016  1.00  0.00     0.167 HD
ATOM     52  C   UNL     1     -13.107  -8.090  -4.740  1.00  0.00     0.034 A 
ATOM     53  C   UNL     1      -7.489  -9.680  -8.647  1.00  0.00     0.034 A 
ATOM     54  C   UNL     1     -13.304  -9.155  -5.683  1.00  0.00     0.049 A 
ATOM     55  C   UNL     1      -8.793 -10.419  -8.784  1.00  0.00     0.074 A 
ATOM     56  C   UNL     1     -14.445  -9.899  -5.915  1.00  0.00     0.029 A 
ATOM     57  N   UNL     1     -12.338  -9.610  -6.567  1.00  0.00    -0.354 N 
ATOM     58  N   UNL     1      -9.933 -10.198  -8.174  1.00  0.00    -0.248 NA
ATOM     59  C   UNL     1      -8.832 -11.530  -9.745  1.00  0.00     0.031 C 
ATOM     60  C   UNL     1     -14.168 -10.807  -6.943  1.00  0.00     0.029 A 
ATOM     61  C   UNL     1     -12.858 -10.617  -7.356  1.00  0.00     0.049 A 
ATOM     62  H   UNL     1     -11.417  -9.265  -6.624  1.00  0.00     0.167 HD
ATOM     63  C   UNL     1     -10.834 -11.114  -8.706  1.00  0.00     0.074 A 
ATOM     64  C   UNL     1     -10.111 -11.881  -9.700  1.00  0.00     0.031 C 
ATOM     65  C   UNL     1     -12.137 -11.315  -8.389  1.00  0.00     0.034 A 
BRANCH  52  66
ATOM     66  C   UNL     1     -14.238  -7.722  -3.815  1.00  0.00     0.023 A 
ATOM     67  C   UNL     1     -14.949  -6.523  -4.030  1.00  0.00     0.012 A 
ATOM     68  C   UNL     1     -14.619  -8.569  -2.757  1.00  0.00     0.148 A 
ATOM     69  C   UNL     1     -15.990  -6.150  -3.182  1.00  0.00     0.002 A 
ATOM     70  C   UNL     1     -15.690  -8.214  -1.944  1.00  0.00     0.091 A 
ATOM     71  F   UNL     1     -13.918  -9.694  -2.552  1.00  0.00    -0.205 F 
ATOM     72  C   UNL     1     -16.366  -6.999  -2.145  1.00  0.00     0.022 A 
BRANCH  70  73
ATOM     73  S   UNL     1     -16.304  -9.277  -0.632  1.00  0.00     0.127 S 
ATOM     74  O   UNL     1     -15.847  -8.567   0.562  1.00  0.00    -0.237 OA
ATOM     75  O   UNL     1     -17.750  -9.233  -0.851  1.00  0.00    -0.237 OA
ATOM     76  O   UNL     1     -15.697 -10.581  -0.858  1.00  0.00    -0.744 OA
ENDBRANCH  70  73
ENDBRANCH  52  66
BRANCH  53  77
ATOM     77  C   UNL     1      -6.298 -10.060  -9.460  1.00  0.00     0.023 A 
ATOM     78  C   UNL     1      -6.323  -9.839 -10.852  1.00  0.00     0.012 A 
ATOM     79  C   UNL     1      -5.137 -10.597  -8.872  1.00  0.00     0.148 A 
ATOM     80  C   UNL     1      -5.227 -10.176 -11.647  1.00  0.00     0.002 A 
ATOM     81  C   UNL     1      -4.029 -10.883  -9.664  1.00  0.00     0.091 A 
ATOM     82  F   UNL     1      -5.134 -10.809  -7.549  1.00  0.00    -0.205 F 
ATOM     83  C   UNL     1      -4.078 -10.688 -11.053  1.00  0.00     0.022 A 
BRANCH  81  84
ATOM     84  S   UNL     1      -2.463 -11.423  -8.967  1.00  0.00     0.127 S 
ATOM     85  O   UNL     1      -2.440 -12.835  -9.340  1.00  0.00    -0.237 OA
ATOM     86  O   UNL     1      -1.504 -10.581  -9.683  1.00  0.00    -0.237 OA
ATOM     87  O   UNL     1      -2.553 -11.143  -7.540  1.00  0.00    -0.744 OA
ENDBRANCH  81  84
ENDBRANCH  53  77
BRANCH  65  88
ATOM     88  C   UNL     1     -12.887 -12.373  -9.151  1.00  0.00     0.023 A 
ATOM     89  C   UNL     1     -12.658 -13.732  -8.866  1.00  0.00     0.012 A 
ATOM     90  C   UNL     1     -13.888 -12.013 -10.074  1.00  0.00     0.148 A 
ATOM     91  C   UNL     1     -13.401 -14.722  -9.507  1.00  0.00     0.002 A 
ATOM     92  C   UNL     1     -14.656 -13.003 -10.674  1.00  0.00     0.091 A 
ATOM     93  F   UNL     1     -14.074 -10.713 -10.344  1.00  0.00    -0.205 F 
ATOM     94  C   UNL     1     -14.408 -14.358 -10.399  1.00  0.00     0.022 A 
BRANCH  92  95
ATOM     95  S   UNL     1     -16.037 -12.619 -11.757  1.00  0.00     0.127 S 
ATOM     96  O   UNL     1     -15.484 -12.943 -13.071  1.00  0.00    -0.237 OA
ATOM     97  O   UNL     1     -17.070 -13.543 -11.285  1.00  0.00    -0.237 OA
ATOM     98  O   UNL     1     -16.341 -11.212 -11.533  1.00  0.00    -0.744 OA
ENDBRANCH  92  95
ENDBRANCH  65  88
ENDBRANCH  39  40
ENDBRANCH  31  34
ENDBRANCH  29  30
ENDBRANCH   1  29
TORSDOF 16
