REMARK SMILES CCSc1nc(CC(=O)N[C@@H](C(=O)NCCCNC(=O)c2ccc(-c3c4nc(c(-c5cccc(S(=O)(=O)[O-])c5F)c5ccc([nH]5)c(-c5cccc(S(=O)(=O)[O-])c5F)c5nc(c(-c6cccc(S(=O)(=O)[O-])c6F)c6ccc3[nH]6)C=C5)C=C4)cc2)C2=C(C)N=N[C@@H]2C)cs1
REMARK SMILES IDX 15 1 14 2 12 3 13 4 11 6 10 7 8 8 9 9 7 11 6 12 4 13 5 14
REMARK SMILES IDX 92 15 91 16 3 17 2 18 1 19 84 20 85 21 89 22 86 23 87 24
REMARK SMILES IDX 88 25 90 26 16 27 17 28 18 29 19 30 20 32 21 33 22 34 83 35
REMARK SMILES IDX 23 36 82 37 24 38 25 39 26 40 76 41 27 42 81 43 75 44 77 45
REMARK SMILES IDX 28 46 80 47 74 48 73 49 29 51 61 52 41 53 60 54 42 55 45 56
REMARK SMILES IDX 59 57 78 58 43 59 44 60 58 62 79 63 46 64 30 65 31 66 39 67
REMARK SMILES IDX 32 68 34 69 40 70 33 71 35 72 36 73 37 74 38 75 62 76 63 77
REMARK SMILES IDX 71 78 64 79 66 80 72 81 65 82 67 83 68 84 69 85 70 86 47 87
REMARK SMILES IDX 48 88 56 89 49 90 51 91 57 92 50 93 52 94 53 95 54 96 55 97
REMARK H PARENT 14 5 10 10 18 31 77 50 45 61
REMARK Flexibility Score: inf
ROOT
ATOM      1  C   UNL     1       4.777   0.472  -4.973  1.00  0.00     0.117 C 
ENDROOT
BRANCH   1   2
ATOM      2  N   UNL     1       4.324  -0.156  -6.184  1.00  0.00    -0.354 N 
ATOM      3  C   UNL     1       3.864  -1.446  -6.256  1.00  0.00     0.247 C 
ATOM      4  O   UNL     1       2.846  -1.610  -6.938  1.00  0.00    -0.272 OA
ATOM      5  H   UNL     1       4.345   0.373  -7.014  1.00  0.00     0.163 HD
BRANCH   3   6
ATOM      6  C   UNL     1       4.557  -2.637  -5.466  1.00  0.00     0.202 C 
BRANCH   6   7
ATOM      7  N   UNL     1       5.953  -2.374  -5.100  1.00  0.00    -0.340 N 
ATOM      8  C   UNL     1       6.546  -2.194  -3.882  1.00  0.00     0.226 C 
ATOM      9  O   UNL     1       7.712  -1.788  -3.878  1.00  0.00    -0.275 OA
ATOM     10  H   UNL     1       6.570  -2.318  -5.865  1.00  0.00     0.164 HD
BRANCH   8  11
ATOM     11  C   UNL     1       5.835  -2.478  -2.564  1.00  0.00     0.157 C 
BRANCH  11  12
ATOM     12  C   UNL     1       4.935  -1.376  -2.120  1.00  0.00     0.062 A 
ATOM     13  C   UNL     1       2.931  -0.416  -2.038  1.00  0.00     0.150 A 
ATOM     14  N   UNL     1       3.582  -1.496  -2.406  1.00  0.00    -0.234 NA
ATOM     15  S   UNL     1       3.891   0.797  -1.300  1.00  0.00    -0.116 S 
ATOM     16  C   UNL     1       5.281  -0.197  -1.485  1.00  0.00     0.092 A 
BRANCH  13  17
ATOM     17  S   UNL     1       1.237  -0.281  -2.454  1.00  0.00    -0.096 SA
BRANCH  17  18
ATOM     18  C   UNL     1       0.524   0.644  -1.073  1.00  0.00     0.074 C 
ATOM     19  C   UNL     1       0.624  -0.107   0.244  1.00  0.00     0.016 C 
ENDBRANCH  17  18
ENDBRANCH  13  17
ENDBRANCH  11  12
ENDBRANCH   8  11
ENDBRANCH   6   7
BRANCH   6  20
ATOM     20  C   UNL     1       4.550  -3.906  -6.286  1.00  0.00     0.011 C 
ATOM     21  C   UNL     1       4.780  -5.178  -5.929  1.00  0.00     0.064 C 
ATOM     22  C   UNL     1       4.166  -3.997  -7.736  1.00  0.00     0.156 C 
ATOM     23  C   UNL     1       5.171  -5.744  -4.613  1.00  0.00     0.069 C 
ATOM     24  N   UNL     1       4.606  -6.064  -6.963  1.00  0.00    -0.160 NA
ATOM     25  N   UNL     1       4.255  -5.460  -8.007  1.00  0.00    -0.181 NA
ATOM     26  C   UNL     1       5.098  -3.285  -8.707  1.00  0.00     0.040 C 
ENDBRANCH   6  20
ENDBRANCH   3   6
ENDBRANCH   1   2
BRANCH   1  27
ATOM     27  C   UNL     1       5.985   1.371  -5.118  1.00  0.00     0.042 C 
BRANCH  27  28
ATOM     28  C   UNL     1       5.623   2.788  -5.529  1.00  0.00     0.118 C 
BRANCH  28  29
ATOM     29  N   UNL     1       4.793   3.475  -4.539  1.00  0.00    -0.352 N 
ATOM     30  C   UNL     1       4.991   4.669  -3.882  1.00  0.00     0.251 C 
ATOM     31  H   UNL     1       3.959   3.009  -4.304  1.00  0.00     0.163 HD
ATOM     32  O   UNL     1       4.238   4.993  -2.975  1.00  0.00    -0.269 OA
BRANCH  30  33
ATOM     33  C   UNL     1       6.125   5.539  -4.262  1.00  0.00     0.039 A 
ATOM     34  C   UNL     1       6.863   6.175  -3.259  1.00  0.00     0.014 A 
ATOM     35  C   UNL     1       6.472   5.710  -5.602  1.00  0.00     0.014 A 
ATOM     36  C   UNL     1       8.002   6.909  -3.601  1.00  0.00     0.010 A 
ATOM     37  C   UNL     1       7.662   6.345  -5.929  1.00  0.00     0.010 A 
ATOM     38  C   UNL     1       8.437   6.959  -4.935  1.00  0.00    -0.014 A 
BRANCH  38  39
ATOM     39  C   UNL     1       9.688   7.652  -5.334  1.00  0.00     0.031 A 
ATOM     40  C   UNL     1       9.628   8.776  -6.336  1.00  0.00     0.074 A 
ATOM     41  C   UNL     1      10.877   7.199  -4.890  1.00  0.00     0.049 A 
ATOM     42  N   UNL     1      10.607   9.410  -6.924  1.00  0.00    -0.248 NA
ATOM     43  C   UNL     1       8.288   9.217  -6.764  1.00  0.00     0.031 C 
ATOM     44  C   UNL     1      11.071   6.067  -3.979  1.00  0.00     0.029 A 
ATOM     45  N   UNL     1      12.154   7.617  -5.169  1.00  0.00    -0.354 N 
ATOM     46  C   UNL     1      10.006  10.289  -7.818  1.00  0.00     0.074 A 
ATOM     47  C   UNL     1       8.579  10.075  -7.730  1.00  0.00     0.031 C 
ATOM     48  C   UNL     1      12.385   5.889  -3.767  1.00  0.00     0.029 A 
ATOM     49  C   UNL     1      13.130   6.867  -4.552  1.00  0.00     0.049 A 
ATOM     50  H   UNL     1      12.354   8.382  -5.756  1.00  0.00     0.167 HD
ATOM     51  C   UNL     1      10.585  11.220  -8.612  1.00  0.00     0.034 A 
ATOM     52  C   UNL     1      14.473   6.958  -4.618  1.00  0.00     0.034 A 
ATOM     53  C   UNL     1      11.998  11.476  -8.645  1.00  0.00     0.049 A 
ATOM     54  C   UNL     1      15.086   8.039  -5.469  1.00  0.00     0.074 A 
ATOM     55  C   UNL     1      12.681  12.443  -9.359  1.00  0.00     0.029 A 
ATOM     56  N   UNL     1      12.943  10.770  -7.918  1.00  0.00    -0.354 N 
ATOM     57  N   UNL     1      14.492   8.946  -6.205  1.00  0.00    -0.248 NA
ATOM     58  C   UNL     1      16.553   8.131  -5.470  1.00  0.00     0.031 C 
ATOM     59  C   UNL     1      14.043  12.321  -9.064  1.00  0.00     0.029 A 
ATOM     60  C   UNL     1      14.204  11.287  -8.156  1.00  0.00     0.049 A 
ATOM     61  H   UNL     1      12.747  10.013  -7.320  1.00  0.00     0.167 HD
ATOM     62  C   UNL     1      15.508   9.744  -6.719  1.00  0.00     0.074 A 
ATOM     63  C   UNL     1      16.754   9.223  -6.195  1.00  0.00     0.031 C 
ATOM     64  C   UNL     1      15.421  10.802  -7.562  1.00  0.00     0.034 A 
BRANCH  51  65
ATOM     65  C   UNL     1       9.680  12.088  -9.447  1.00  0.00     0.023 A 
ATOM     66  C   UNL     1       8.890  13.068  -8.812  1.00  0.00     0.012 A 
ATOM     67  C   UNL     1       9.652  11.981 -10.851  1.00  0.00     0.148 A 
ATOM     68  C   UNL     1       8.060  13.905  -9.555  1.00  0.00     0.002 A 
ATOM     69  C   UNL     1       8.855  12.849 -11.589  1.00  0.00     0.091 A 
ATOM     70  F   UNL     1      10.395  11.030 -11.435  1.00  0.00    -0.205 F 
ATOM     71  C   UNL     1       8.051  13.803 -10.943  1.00  0.00     0.022 A 
BRANCH  69  72
ATOM     72  S   UNL     1       8.826  12.854 -13.385  1.00  0.00     0.127 S 
ATOM     73  O   UNL     1       7.481  12.349 -13.660  1.00  0.00    -0.237 OA
ATOM     74  O   UNL     1       9.021  14.271 -13.692  1.00  0.00    -0.237 OA
ATOM     75  O   UNL     1       9.916  11.984 -13.807  1.00  0.00    -0.744 OA
ENDBRANCH  69  72
ENDBRANCH  51  65
BRANCH  52  76
ATOM     76  C   UNL     1      15.332   6.059  -3.796  1.00  0.00     0.023 A 
ATOM     77  C   UNL     1      16.055   6.603  -2.715  1.00  0.00     0.012 A 
ATOM     78  C   UNL     1      15.441   4.682  -4.067  1.00  0.00     0.148 A 
ATOM     79  C   UNL     1      16.903   5.803  -1.948  1.00  0.00     0.002 A 
ATOM     80  C   UNL     1      16.247   3.880  -3.265  1.00  0.00     0.091 A 
ATOM     81  F   UNL     1      14.758   4.181  -5.106  1.00  0.00    -0.205 F 
ATOM     82  C   UNL     1      16.992   4.441  -2.217  1.00  0.00     0.022 A 
BRANCH  80  83
ATOM     83  S   UNL     1      16.320   2.096  -3.465  1.00  0.00     0.127 S 
ATOM     84  O   UNL     1      17.598   1.923  -4.149  1.00  0.00    -0.237 OA
ATOM     85  O   UNL     1      16.295   1.629  -2.078  1.00  0.00    -0.237 OA
ATOM     86  O   UNL     1      15.132   1.746  -4.232  1.00  0.00    -0.744 OA
ENDBRANCH  80  83
ENDBRANCH  52  76
BRANCH  64  87
ATOM     87  C   UNL     1      16.698  11.508  -7.930  1.00  0.00     0.023 A 
ATOM     88  C   UNL     1      17.597  10.906  -8.831  1.00  0.00     0.012 A 
ATOM     89  C   UNL     1      16.960  12.806  -7.449  1.00  0.00     0.148 A 
ATOM     90  C   UNL     1      18.754  11.574  -9.227  1.00  0.00     0.002 A 
ATOM     91  C   UNL     1      18.091  13.485  -7.885  1.00  0.00     0.091 A 
ATOM     92  F   UNL     1      16.100  13.353  -6.578  1.00  0.00    -0.205 F 
ATOM     93  C   UNL     1      18.995  12.866  -8.765  1.00  0.00     0.022 A 
BRANCH  91  94
ATOM     94  S   UNL     1      18.430  15.186  -7.420  1.00  0.00     0.127 S 
ATOM     95  O   UNL     1      19.532  15.022  -6.473  1.00  0.00    -0.237 OA
ATOM     96  O   UNL     1      18.808  15.789  -8.698  1.00  0.00    -0.237 OA
ATOM     97  O   UNL     1      17.190  15.701  -6.854  1.00  0.00    -0.744 OA
ENDBRANCH  91  94
ENDBRANCH  64  87
ENDBRANCH  38  39
ENDBRANCH  30  33
ENDBRANCH  28  29
ENDBRANCH  27  28
ENDBRANCH   1  27
TORSDOF 19
