REMARK SMILES O=C(NCCCNC(=O)c1ccc(-c2c3nc(c(-c4cccc(S(=O)(=O)[O-])c4F)c4ccc([nH]4)c(-c4cccc(S(=O)(=O)[O-])c4F)c4nc(c(-c5cccc(S(=O)(=O)[O-])c5F)c5ccc2[nH]5)C=C4)C=C3)cc1)C1=CCc2ccccc21
REMARK SMILES IDX 7 1 8 2 9 3 6 5 5 6 4 7 3 8 1 9 2 10 73 12 74 13 81 14 75 15
REMARK SMILES IDX 76 16 80 17 77 18 79 19 78 20 10 21 11 22 72 23 12 24 71 25
REMARK SMILES IDX 13 26 14 27 15 28 65 29 16 30 70 31 64 32 66 33 17 34 69 35
REMARK SMILES IDX 63 36 62 37 18 39 50 40 30 41 49 42 31 43 34 44 48 45 67 46
REMARK SMILES IDX 32 47 33 48 47 50 68 51 35 52 19 53 20 54 28 55 21 56 23 57
REMARK SMILES IDX 29 58 22 59 24 60 25 61 26 62 27 63 51 64 52 65 60 66 53 67
REMARK SMILES IDX 55 68 61 69 54 70 56 71 57 72 58 73 59 74 36 75 37 76 45 77
REMARK SMILES IDX 38 78 40 79 46 80 39 81 41 82 42 83 43 84 44 85
REMARK H PARENT 7 4 3 11 66 38 34 49
REMARK Flexibility Score: inf
ROOT
ATOM      1  N   UNL     1       4.523   3.097   3.565  1.00  0.00    -0.352 N 
ATOM      2  C   UNL     1       5.526   3.724   4.268  1.00  0.00     0.251 C 
ATOM      3  O   UNL     1       6.084   3.142   5.194  1.00  0.00    -0.269 OA
ATOM      4  H   UNL     1       4.160   2.290   3.996  1.00  0.00     0.163 HD
ENDROOT
BRANCH   1   5
ATOM      5  C   UNL     1       3.910   3.435   2.282  1.00  0.00     0.118 C 
BRANCH   5   6
ATOM      6  C   UNL     1       4.611   2.773   1.108  1.00  0.00     0.042 C 
BRANCH   6   7
ATOM      7  C   UNL     1       4.619   1.261   1.205  1.00  0.00     0.118 C 
BRANCH   7   8
ATOM      8  N   UNL     1       3.282   0.688   1.213  1.00  0.00    -0.352 N 
ATOM      9  O   UNL     1       1.802  -0.998   0.930  1.00  0.00    -0.269 OA
ATOM     10  C   UNL     1       2.929  -0.563   0.786  1.00  0.00     0.251 C 
ATOM     11  H   UNL     1       2.558   1.258   1.560  1.00  0.00     0.163 HD
BRANCH  10  12
ATOM     12  C   UNL     1       3.993  -1.327   0.120  1.00  0.00     0.043 C 
ATOM     13  C   UNL     1       4.224  -1.258  -1.202  1.00  0.00    -0.008 C 
ATOM     14  C   UNL     1       5.074  -2.071   0.747  1.00  0.00    -0.010 A 
ATOM     15  C   UNL     1       5.498  -1.960  -1.587  1.00  0.00     0.064 C 
ATOM     16  C   UNL     1       5.952  -2.494  -0.261  1.00  0.00    -0.036 A 
ATOM     17  C   UNL     1       5.324  -2.356   2.079  1.00  0.00     0.009 A 
ATOM     18  C   UNL     1       7.065  -3.260   0.034  1.00  0.00     0.004 A 
ATOM     19  C   UNL     1       6.455  -3.116   2.389  1.00  0.00     0.001 A 
ATOM     20  C   UNL     1       7.308  -3.580   1.372  1.00  0.00     0.000 A 
ENDBRANCH  10  12
ENDBRANCH   7   8
ENDBRANCH   6   7
ENDBRANCH   5   6
ENDBRANCH   1   5
BRANCH   2  21
ATOM     21  C   UNL     1       5.938   5.090   3.888  1.00  0.00     0.039 A 
ATOM     22  C   UNL     1       7.289   5.449   3.889  1.00  0.00     0.014 A 
ATOM     23  C   UNL     1       4.971   6.018   3.517  1.00  0.00     0.014 A 
ATOM     24  C   UNL     1       7.666   6.716   3.433  1.00  0.00     0.010 A 
ATOM     25  C   UNL     1       5.354   7.205   2.921  1.00  0.00     0.010 A 
ATOM     26  C   UNL     1       6.703   7.587   2.901  1.00  0.00    -0.014 A 
BRANCH  26  27
ATOM     27  C   UNL     1       7.022   8.933   2.361  1.00  0.00     0.031 A 
ATOM     28  C   UNL     1       6.291  10.129   2.919  1.00  0.00     0.074 A 
ATOM     29  C   UNL     1       7.821   9.063   1.285  1.00  0.00     0.049 A 
ATOM     30  N   UNL     1       6.201  11.342   2.444  1.00  0.00    -0.248 NA
ATOM     31  C   UNL     1       5.492   9.906   4.139  1.00  0.00     0.031 C 
ATOM     32  C   UNL     1       8.524   7.971   0.607  1.00  0.00     0.029 A 
ATOM     33  N   UNL     1       8.142  10.172   0.543  1.00  0.00    -0.354 N 
ATOM     34  C   UNL     1       5.278  11.995   3.253  1.00  0.00     0.074 A 
ATOM     35  C   UNL     1       4.798  11.030   4.216  1.00  0.00     0.031 C 
ATOM     36  C   UNL     1       9.199   8.466  -0.443  1.00  0.00     0.029 A 
ATOM     37  C   UNL     1       8.940   9.898  -0.543  1.00  0.00     0.049 A 
ATOM     38  H   UNL     1       7.829  11.079   0.768  1.00  0.00     0.167 HD
ATOM     39  C   UNL     1       4.891  13.292   3.225  1.00  0.00     0.034 A 
ATOM     40  C   UNL     1       9.399  10.711  -1.514  1.00  0.00     0.034 A 
ATOM     41  C   UNL     1       5.450  14.262   2.327  1.00  0.00     0.049 A 
ATOM     42  C   UNL     1       9.029  12.169  -1.473  1.00  0.00     0.074 A 
ATOM     43  C   UNL     1       5.223  15.624   2.279  1.00  0.00     0.029 A 
ATOM     44  N   UNL     1       6.365  13.969   1.327  1.00  0.00    -0.354 N 
ATOM     45  N   UNL     1       8.253  12.799  -0.624  1.00  0.00    -0.248 NA
ATOM     46  C   UNL     1       9.624  13.037  -2.499  1.00  0.00     0.031 C 
ATOM     47  C   UNL     1       5.995  16.155   1.240  1.00  0.00     0.029 A 
ATOM     48  C   UNL     1       6.721  15.126   0.660  1.00  0.00     0.049 A 
ATOM     49  H   UNL     1       6.711  13.070   1.123  1.00  0.00     0.167 HD
ATOM     50  C   UNL     1       8.303  14.140  -0.983  1.00  0.00     0.074 A 
ATOM     51  C   UNL     1       9.193  14.233  -2.122  1.00  0.00     0.031 C 
ATOM     52  C   UNL     1       7.664  15.200  -0.427  1.00  0.00     0.034 A 
BRANCH  39  53
ATOM     53  C   UNL     1       3.867  13.740   4.239  1.00  0.00     0.023 A 
ATOM     54  C   UNL     1       4.206  13.772   5.608  1.00  0.00     0.012 A 
ATOM     55  C   UNL     1       2.580  14.149   3.840  1.00  0.00     0.148 A 
ATOM     56  C   UNL     1       3.266  14.146   6.567  1.00  0.00     0.002 A 
ATOM     57  C   UNL     1       1.665  14.575   4.798  1.00  0.00     0.091 A 
ATOM     58  F   UNL     1       2.264  14.095   2.538  1.00  0.00    -0.205 F 
ATOM     59  C   UNL     1       2.001  14.556   6.162  1.00  0.00     0.022 A 
BRANCH  57  60
ATOM     60  S   UNL     1       0.039  15.207   4.370  1.00  0.00     0.127 S 
ATOM     61  O   UNL     1      -0.826  14.108   4.796  1.00  0.00    -0.237 OA
ATOM     62  O   UNL     1      -0.051  16.410   5.197  1.00  0.00    -0.237 OA
ATOM     63  O   UNL     1       0.073  15.459   2.936  1.00  0.00    -0.744 OA
ENDBRANCH  57  60
ENDBRANCH  39  53
BRANCH  40  64
ATOM     64  C   UNL     1      10.332  10.180  -2.549  1.00  0.00     0.023 A 
ATOM     65  C   UNL     1      11.689  10.556  -2.501  1.00  0.00     0.012 A 
ATOM     66  C   UNL     1       9.906   9.278  -3.544  1.00  0.00     0.148 A 
ATOM     67  C   UNL     1      12.599  10.070  -3.440  1.00  0.00     0.002 A 
ATOM     68  C   UNL     1      10.828   8.757  -4.445  1.00  0.00     0.091 A 
ATOM     69  F   UNL     1       8.611   8.935  -3.575  1.00  0.00    -0.205 F 
ATOM     70  C   UNL     1      12.171   9.164  -4.406  1.00  0.00     0.022 A 
BRANCH  68  71
ATOM     71  S   UNL     1      10.399   7.487  -5.643  1.00  0.00     0.127 S 
ATOM     72  O   UNL     1      10.514   8.215  -6.904  1.00  0.00    -0.237 OA
ATOM     73  O   UNL     1      11.443   6.489  -5.410  1.00  0.00    -0.237 OA
ATOM     74  O   UNL     1       9.057   7.047  -5.288  1.00  0.00    -0.744 OA
ENDBRANCH  68  71
ENDBRANCH  40  64
BRANCH  52  75
ATOM     75  C   UNL     1       7.947  16.565  -0.991  1.00  0.00     0.023 A 
ATOM     76  C   UNL     1       7.396  16.944  -2.230  1.00  0.00     0.012 A 
ATOM     77  C   UNL     1       8.672  17.507  -0.234  1.00  0.00     0.148 A 
ATOM     78  C   UNL     1       7.583  18.236  -2.719  1.00  0.00     0.002 A 
ATOM     79  C   UNL     1       8.811  18.806  -0.704  1.00  0.00     0.091 A 
ATOM     80  F   UNL     1       9.202  17.116   0.934  1.00  0.00    -0.205 F 
ATOM     81  C   UNL     1       8.276  19.169  -1.951  1.00  0.00     0.022 A 
BRANCH  79  82
ATOM     82  S   UNL     1       9.595  20.100   0.264  1.00  0.00     0.127 S 
ATOM     83  O   UNL     1      10.842  20.307  -0.471  1.00  0.00    -0.237 OA
ATOM     84  O   UNL     1       8.632  21.196   0.153  1.00  0.00    -0.237 OA
ATOM     85  O   UNL     1       9.746  19.561   1.609  1.00  0.00    -0.744 OA
ENDBRANCH  79  82
ENDBRANCH  52  75
ENDBRANCH  26  27
ENDBRANCH   2  21
TORSDOF 13
