REMARK SMILES CC(C)[C@H](NC(=O)[C@H](Cc1ccccc1)n1c(=O)[nH]c2ccccc2c1=O)C(=O)NCCCNC(=O)c1ccc(-c2c3nc(c(-c4cccc(S(=O)(=O)[O-])c4F)c4ccc([nH]4)c(-c4cccc(S(=O)(=O)[O-])c4F)c4nc(c(-c5cccc(S(=O)(=O)[O-])c5F)c5ccc2[nH]5)C=C4)C=C3)cc1
REMARK SMILES IDX 31 1 30 2 28 3 29 4 4 6 2 7 1 8 3 9 5 10 6 11 7 13 8 14
REMARK SMILES IDX 16 15 17 16 26 17 18 18 19 19 25 20 27 21 20 22 24 24 21 25
REMARK SMILES IDX 23 26 22 27 9 28 10 29 11 30 15 31 12 32 14 33 13 34 32 35
REMARK SMILES IDX 33 36 34 37 35 38 36 40 37 41 38 42 99 43 39 44 98 45 40 46
REMARK SMILES IDX 41 47 42 48 92 49 43 50 97 51 91 52 93 53 44 54 96 55 90 56
REMARK SMILES IDX 89 57 45 59 77 60 57 61 76 62 58 63 61 64 75 65 94 66 59 67
REMARK SMILES IDX 60 68 74 70 95 71 62 72 46 73 47 74 55 75 48 76 50 77 56 78
REMARK SMILES IDX 49 79 51 80 52 81 53 82 54 83 78 84 79 85 87 86 80 87 82 88
REMARK SMILES IDX 88 89 81 90 83 91 84 92 85 93 86 94 63 95 64 96 72 97 65 98
REMARK SMILES IDX 67 99 73 100 66 101 68 102 69 103 70 104 71 105
REMARK H PARENT 30 5 5 12 19 23 34 39 93 58 61 69
REMARK Flexibility Score: inf
ROOT
ATOM      1  C   UNL     1      -3.523  -4.948  -1.873  1.00  0.00     0.117 C 
ENDROOT
BRANCH   1   2
ATOM      2  N   UNL     1      -4.323  -4.500  -0.756  1.00  0.00    -0.354 N 
ATOM      3  C   UNL     1      -4.229  -4.816   0.561  1.00  0.00     0.242 C 
ATOM      4  O   UNL     1      -5.065  -4.310   1.319  1.00  0.00    -0.273 OA
ATOM      5  H   UNL     1      -5.045  -3.872  -0.985  1.00  0.00     0.163 HD
BRANCH   3   6
ATOM      6  C   UNL     1      -3.038  -5.622   1.148  1.00  0.00     0.173 C 
BRANCH   6   7
ATOM      7  C   UNL     1      -1.764  -4.809   1.332  1.00  0.00     0.015 C 
ATOM      8  C   UNL     1      -1.911  -3.305   1.587  1.00  0.00     0.010 C 
ATOM      9  C   UNL     1      -0.912  -5.447   2.434  1.00  0.00     0.010 C 
ENDBRANCH   6   7
BRANCH   6  10
ATOM     10  N   UNL     1      -2.849  -6.929   0.485  1.00  0.00    -0.342 N 
ATOM     11  C   UNL     1      -2.087  -7.570  -0.421  1.00  0.00     0.244 C 
ATOM     12  H   UNL     1      -3.525  -7.557   0.829  1.00  0.00     0.164 HD
ATOM     13  O   UNL     1      -2.775  -8.450  -0.975  1.00  0.00    -0.273 OA
BRANCH  11  14
ATOM     14  C   UNL     1      -0.636  -7.302  -0.997  1.00  0.00     0.189 C 
BRANCH  14  15
ATOM     15  N   UNL     1       0.509  -6.573  -0.333  1.00  0.00    -0.247 N 
ATOM     16  C   UNL     1       1.458  -7.245   0.413  1.00  0.00     0.329 A 
ATOM     17  C   UNL     1       0.720  -5.226  -0.677  1.00  0.00     0.264 A 
ATOM     18  O   UNL     1       1.535  -8.455   0.602  1.00  0.00    -0.248 OA
ATOM     19  N   UNL     1       2.456  -6.530   0.995  1.00  0.00    -0.307 N 
ATOM     20  C   UNL     1       1.688  -4.453   0.142  1.00  0.00     0.064 A 
ATOM     21  O   UNL     1       0.127  -4.633  -1.576  1.00  0.00    -0.268 OA
ATOM     22  C   UNL     1       2.562  -5.157   0.950  1.00  0.00     0.055 A 
ATOM     23  H   UNL     1       3.153  -7.027   1.481  1.00  0.00     0.171 HD
ATOM     24  C   UNL     1       1.702  -3.055   0.174  1.00  0.00     0.016 A 
ATOM     25  C   UNL     1       3.497  -4.506   1.753  1.00  0.00     0.027 A 
ATOM     26  C   UNL     1       2.598  -2.389   1.018  1.00  0.00     0.001 A 
ATOM     27  C   UNL     1       3.504  -3.114   1.796  1.00  0.00     0.002 A 
ENDBRANCH  14  15
BRANCH  14  28
ATOM     28  C   UNL     1      -0.184  -8.627  -1.718  1.00  0.00     0.071 C 
BRANCH  28  29
ATOM     29  C   UNL     1      -0.240  -9.970  -0.994  1.00  0.00    -0.045 A 
ATOM     30  C   UNL     1       0.042 -11.131  -1.728  1.00  0.00     0.004 A 
ATOM     31  C   UNL     1      -0.547 -10.122   0.370  1.00  0.00     0.004 A 
ATOM     32  C   UNL     1       0.059 -12.385  -1.110  1.00  0.00     0.000 A 
ATOM     33  C   UNL     1      -0.509 -11.369   0.993  1.00  0.00     0.000 A 
ATOM     34  C   UNL     1      -0.201 -12.502   0.253  1.00  0.00     0.000 A 
ENDBRANCH  28  29
ENDBRANCH  14  28
ENDBRANCH  11  14
ENDBRANCH   6  10
ENDBRANCH   3   6
ENDBRANCH   1   2
BRANCH   1  35
ATOM     35  C   UNL     1      -4.205  -6.085  -2.623  1.00  0.00     0.042 C 
BRANCH  35  36
ATOM     36  C   UNL     1      -5.407  -5.631  -3.440  1.00  0.00     0.118 C 
BRANCH  36  37
ATOM     37  N   UNL     1      -5.035  -4.704  -4.500  1.00  0.00    -0.352 N 
ATOM     38  C   UNL     1      -5.293  -4.764  -5.846  1.00  0.00     0.251 C 
ATOM     39  H   UNL     1      -4.521  -3.916  -4.207  1.00  0.00     0.163 HD
ATOM     40  O   UNL     1      -4.721  -3.990  -6.608  1.00  0.00    -0.269 OA
BRANCH  38  41
ATOM     41  C   UNL     1      -6.247  -5.761  -6.372  1.00  0.00     0.039 A 
ATOM     42  C   UNL     1      -5.939  -6.426  -7.561  1.00  0.00     0.014 A 
ATOM     43  C   UNL     1      -7.443  -6.033  -5.702  1.00  0.00     0.014 A 
ATOM     44  C   UNL     1      -6.810  -7.399  -8.051  1.00  0.00     0.010 A 
ATOM     45  C   UNL     1      -8.261  -7.067  -6.141  1.00  0.00     0.010 A 
ATOM     46  C   UNL     1      -7.963  -7.748  -7.329  1.00  0.00    -0.014 A 
BRANCH  46  47
ATOM     47  C   UNL     1      -8.862  -8.830  -7.800  1.00  0.00     0.031 A 
ATOM     48  C   UNL     1     -10.300  -8.535  -8.131  1.00  0.00     0.074 A 
ATOM     49  C   UNL     1      -8.404 -10.096  -7.845  1.00  0.00     0.049 A 
ATOM     50  N   UNL     1     -11.239  -9.354  -8.524  1.00  0.00    -0.248 NA
ATOM     51  C   UNL     1     -10.751  -7.143  -7.967  1.00  0.00     0.031 C 
ATOM     52  C   UNL     1      -7.059 -10.521  -7.451  1.00  0.00     0.029 A 
ATOM     53  N   UNL     1      -9.027 -11.262  -8.212  1.00  0.00    -0.354 N 
ATOM     54  C   UNL     1     -12.397  -8.592  -8.609  1.00  0.00     0.074 A 
ATOM     55  C   UNL     1     -12.052  -7.251  -8.195  1.00  0.00     0.031 C 
ATOM     56  C   UNL     1      -6.957 -11.851  -7.600  1.00  0.00     0.029 A 
ATOM     57  C   UNL     1      -8.236 -12.377  -8.065  1.00  0.00     0.049 A 
ATOM     58  H   UNL     1      -9.952 -11.297  -8.549  1.00  0.00     0.167 HD
ATOM     59  C   UNL     1     -13.632  -8.969  -9.017  1.00  0.00     0.034 A 
ATOM     60  C   UNL     1      -8.514 -13.679  -8.265  1.00  0.00     0.034 A 
ATOM     61  C   UNL     1     -13.958 -10.297  -9.461  1.00  0.00     0.049 A 
ATOM     62  C   UNL     1      -9.873 -14.065  -8.776  1.00  0.00     0.074 A 
ATOM     63  C   UNL     1     -15.144 -10.755 -10.006  1.00  0.00     0.029 A 
ATOM     64  N   UNL     1     -13.104 -11.387  -9.389  1.00  0.00    -0.354 N 
ATOM     65  N   UNL     1     -10.906 -13.298  -9.030  1.00  0.00    -0.248 NA
ATOM     66  C   UNL     1     -10.095 -15.488  -9.064  1.00  0.00     0.031 C 
ATOM     67  C   UNL     1     -15.022 -12.132 -10.221  1.00  0.00     0.029 A 
ATOM     68  C   UNL     1     -13.744 -12.523  -9.855  1.00  0.00     0.049 A 
ATOM     69  H   UNL     1     -12.178 -11.358  -9.055  1.00  0.00     0.167 HD
ATOM     70  C   UNL     1     -11.891 -14.139  -9.533  1.00  0.00     0.074 A 
ATOM     71  C   UNL     1     -11.321 -15.471  -9.570  1.00  0.00     0.031 C 
ATOM     72  C   UNL     1     -13.156 -13.837  -9.918  1.00  0.00     0.034 A 
BRANCH  59  73
ATOM     73  C   UNL     1     -14.717  -7.921  -9.025  1.00  0.00     0.023 A 
ATOM     74  C   UNL     1     -14.661  -6.855  -9.947  1.00  0.00     0.012 A 
ATOM     75  C   UNL     1     -15.813  -8.014  -8.146  1.00  0.00     0.148 A 
ATOM     76  C   UNL     1     -15.651  -5.874  -9.961  1.00  0.00     0.002 A 
ATOM     77  C   UNL     1     -16.823  -7.061  -8.201  1.00  0.00     0.091 A 
ATOM     78  F   UNL     1     -15.841  -9.021  -7.261  1.00  0.00    -0.205 F 
ATOM     79  C   UNL     1     -16.736  -5.982  -9.096  1.00  0.00     0.022 A 
BRANCH  77  80
ATOM     80  S   UNL     1     -18.303  -7.161  -7.189  1.00  0.00     0.127 S 
ATOM     81  O   UNL     1     -18.088  -6.066  -6.244  1.00  0.00    -0.237 OA
ATOM     82  O   UNL     1     -19.362  -6.920  -8.169  1.00  0.00    -0.237 OA
ATOM     83  O   UNL     1     -18.305  -8.497  -6.610  1.00  0.00    -0.744 OA
ENDBRANCH  77  80
ENDBRANCH  59  73
BRANCH  60  84
ATOM     84  C   UNL     1      -7.457 -14.700  -8.021  1.00  0.00     0.023 A 
ATOM     85  C   UNL     1      -6.857 -15.360  -9.111  1.00  0.00     0.012 A 
ATOM     86  C   UNL     1      -7.006 -14.976  -6.716  1.00  0.00     0.148 A 
ATOM     87  C   UNL     1      -5.843 -16.296  -8.903  1.00  0.00     0.002 A 
ATOM     88  C   UNL     1      -5.958 -15.866  -6.520  1.00  0.00     0.091 A 
ATOM     89  F   UNL     1      -7.596 -14.340  -5.694  1.00  0.00    -0.205 F 
ATOM     90  C   UNL     1      -5.386 -16.540  -7.610  1.00  0.00     0.022 A 
BRANCH  88  91
ATOM     91  S   UNL     1      -5.214 -16.144  -4.909  1.00  0.00     0.127 S 
ATOM     92  O   UNL     1      -5.560 -17.541  -4.658  1.00  0.00    -0.237 OA
ATOM     93  O   UNL     1      -3.798 -15.901  -5.190  1.00  0.00    -0.237 OA
ATOM     94  O   UNL     1      -5.830 -15.173  -4.016  1.00  0.00    -0.744 OA
ENDBRANCH  88  91
ENDBRANCH  60  84
BRANCH  72  95
ATOM     95  C   UNL     1     -14.011 -14.960 -10.445  1.00  0.00     0.023 A 
ATOM     96  C   UNL     1     -14.492 -15.953  -9.569  1.00  0.00     0.012 A 
ATOM     97  C   UNL     1     -14.396 -14.990 -11.801  1.00  0.00     0.148 A 
ATOM     98  C   UNL     1     -15.312 -16.978 -10.040  1.00  0.00     0.002 A 
ATOM     99  C   UNL     1     -15.256 -15.982 -12.252  1.00  0.00     0.091 A 
ATOM    100  F   UNL     1     -13.914 -14.046 -12.623  1.00  0.00    -0.205 F 
ATOM    101  C   UNL     1     -15.704 -16.985 -11.377  1.00  0.00     0.022 A 
BRANCH  99 102
ATOM    102  S   UNL     1     -15.894 -16.014 -13.931  1.00  0.00     0.127 S 
ATOM    103  O   UNL     1     -15.195 -17.168 -14.493  1.00  0.00    -0.237 OA
ATOM    104  O   UNL     1     -17.327 -16.215 -13.714  1.00  0.00    -0.237 OA
ATOM    105  O   UNL     1     -15.547 -14.727 -14.519  1.00  0.00    -0.744 OA
ENDBRANCH  99 102
ENDBRANCH  72  95
ENDBRANCH  46  47
ENDBRANCH  38  41
ENDBRANCH  36  37
ENDBRANCH  35  36
ENDBRANCH   1  35
TORSDOF 19
