REMARK SMILES O=C(Cn1c2ccccc2c(=O)c2ccccc21)N[C@@H](Cc1ccccc1)C(=O)NCCCNC(=O)c1ccc(-c2c3nc(c(-c4cccc(S(=O)(=O)[O-])c4F)c4ccc([nH]4)c(-c4cccc(S(=O)(=O)[O-])c4F)c4nc(c(-c5cccc(S(=O)(=O)[O-])c5F)c5ccc2[nH]5)C=C4)C=C3)cc1
REMARK SMILES IDX 32 1 31 2 30 3 28 4 29 5 20 7 19 8 1 9 2 10 3 12 4 13 5 14
REMARK SMILES IDX 18 15 6 16 10 17 13 18 17 19 7 20 9 21 11 22 14 23 16 24
REMARK SMILES IDX 8 25 12 26 15 27 21 28 22 29 23 30 27 31 24 32 26 33 25 34
REMARK SMILES IDX 33 35 34 36 35 37 36 39 37 40 38 41 99 42 39 43 98 44 40 45
REMARK SMILES IDX 41 46 42 47 92 48 43 49 97 50 91 51 93 52 44 53 96 54 90 55
REMARK SMILES IDX 89 56 45 58 77 59 57 60 76 61 58 62 61 63 75 64 94 65 59 66
REMARK SMILES IDX 60 67 74 69 95 70 62 71 46 72 47 73 55 74 48 75 50 76 56 77
REMARK SMILES IDX 49 78 51 79 52 80 53 81 54 82 78 83 79 84 87 85 80 86 82 87
REMARK SMILES IDX 88 88 81 89 83 90 84 91 85 92 86 93 63 94 64 95 72 96 65 97
REMARK SMILES IDX 67 98 73 99 66 100 68 101 69 102 70 103 71 104
REMARK H PARENT 30 6 19 11 34 38 93 57 61 68
REMARK Flexibility Score: inf
ROOT
ATOM      1  C   UNL     1       5.417  -0.143   3.817  1.00  0.00     0.042 C 
ENDROOT
BRANCH   1   2
ATOM      2  C   UNL     1       4.468  -1.133   4.473  1.00  0.00     0.117 C 
BRANCH   2   3
ATOM      3  N   UNL     1       3.087  -0.711   4.419  1.00  0.00    -0.354 N 
ATOM      4  C   UNL     1       2.101  -0.870   3.504  1.00  0.00     0.242 C 
ATOM      5  O   UNL     1       0.988  -0.456   3.860  1.00  0.00    -0.273 OA
ATOM      6  H   UNL     1       2.803  -0.203   5.213  1.00  0.00     0.163 HD
BRANCH   4   7
ATOM      7  C   UNL     1       2.288  -1.439   2.077  1.00  0.00     0.175 C 
BRANCH   7   8
ATOM      8  N   UNL     1       2.922  -0.511   1.132  1.00  0.00    -0.342 N 
ATOM      9  O   UNL     1       1.087  -0.336  -0.233  1.00  0.00    -0.273 OA
ATOM     10  C   UNL     1       2.263  -0.053   0.002  1.00  0.00     0.240 C 
ATOM     11  H   UNL     1       3.841  -0.205   1.307  1.00  0.00     0.164 HD
BRANCH  10  12
ATOM     12  C   UNL     1       3.110   0.670  -1.057  1.00  0.00     0.222 C 
BRANCH  12  13
ATOM     13  N   UNL     1       3.865   1.835  -0.545  1.00  0.00    -0.331 N 
ATOM     14  C   UNL     1       3.270   3.124  -0.589  1.00  0.00     0.053 A 
ATOM     15  C   UNL     1       5.173   1.641  -0.041  1.00  0.00     0.053 A 
ATOM     16  C   UNL     1       2.107   3.440  -1.313  1.00  0.00     0.027 A 
ATOM     17  C   UNL     1       3.901   4.202   0.065  1.00  0.00     0.046 A 
ATOM     18  C   UNL     1       5.782   2.650   0.729  1.00  0.00     0.046 A 
ATOM     19  C   UNL     1       5.946   0.494  -0.281  1.00  0.00     0.027 A 
ATOM     20  C   UNL     1       1.649   4.762  -1.436  1.00  0.00     0.002 A 
ATOM     21  C   UNL     1       3.446   5.526  -0.048  1.00  0.00     0.014 A 
ATOM     22  C   UNL     1       5.087   3.938   0.900  1.00  0.00     0.197 A 
ATOM     23  C   UNL     1       7.040   2.482   1.322  1.00  0.00     0.014 A 
ATOM     24  C   UNL     1       7.213   0.326   0.289  1.00  0.00     0.002 A 
ATOM     25  C   UNL     1       2.326   5.807  -0.817  1.00  0.00     0.001 A 
ATOM     26  O   UNL     1       5.486   4.766   1.711  1.00  0.00    -0.288 OA
ATOM     27  C   UNL     1       7.742   1.303   1.118  1.00  0.00     0.001 A 
ENDBRANCH  12  13
ENDBRANCH  10  12
ENDBRANCH   7   8
BRANCH   7  28
ATOM     28  C   UNL     1       2.672  -2.933   1.921  1.00  0.00     0.070 C 
BRANCH  28  29
ATOM     29  C   UNL     1       4.097  -3.431   2.025  1.00  0.00    -0.045 A 
ATOM     30  C   UNL     1       5.169  -2.801   1.386  1.00  0.00     0.004 A 
ATOM     31  C   UNL     1       4.366  -4.609   2.745  1.00  0.00     0.004 A 
ATOM     32  C   UNL     1       6.479  -3.262   1.551  1.00  0.00     0.000 A 
ATOM     33  C   UNL     1       5.673  -5.084   2.893  1.00  0.00     0.000 A 
ATOM     34  C   UNL     1       6.733  -4.395   2.315  1.00  0.00     0.000 A 
ENDBRANCH  28  29
ENDBRANCH   7  28
ENDBRANCH   4   7
ENDBRANCH   2   3
ENDBRANCH   1   2
BRANCH   1  35
ATOM     35  C   UNL     1       6.458   0.412   4.782  1.00  0.00     0.118 C 
BRANCH  35  36
ATOM     36  N   UNL     1       7.366  -0.600   5.310  1.00  0.00    -0.352 N 
ATOM     37  C   UNL     1       8.741  -0.639   5.386  1.00  0.00     0.251 C 
ATOM     38  H   UNL     1       6.917  -1.395   5.677  1.00  0.00     0.163 HD
ATOM     39  O   UNL     1       9.278  -1.650   5.821  1.00  0.00    -0.269 OA
BRANCH  37  40
ATOM     40  C   UNL     1       9.571   0.487   4.889  1.00  0.00     0.039 A 
ATOM     41  C   UNL     1       9.175   1.816   5.024  1.00  0.00     0.014 A 
ATOM     42  C   UNL     1      10.779   0.194   4.246  1.00  0.00     0.014 A 
ATOM     43  C   UNL     1       9.844   2.813   4.320  1.00  0.00     0.010 A 
ATOM     44  C   UNL     1      11.518   1.217   3.641  1.00  0.00     0.010 A 
ATOM     45  C   UNL     1      11.017   2.526   3.605  1.00  0.00    -0.014 A 
BRANCH  45  46
ATOM     46  C   UNL     1      11.684   3.593   2.810  1.00  0.00     0.031 A 
ATOM     47  C   UNL     1      11.860   3.453   1.317  1.00  0.00     0.074 A 
ATOM     48  C   UNL     1      12.093   4.722   3.421  1.00  0.00     0.049 A 
ATOM     49  N   UNL     1      12.393   4.292   0.466  1.00  0.00    -0.248 NA
ATOM     50  C   UNL     1      11.369   2.214   0.693  1.00  0.00     0.031 C 
ATOM     51  C   UNL     1      11.993   4.987   4.858  1.00  0.00     0.029 A 
ATOM     52  N   UNL     1      12.667   5.860   2.913  1.00  0.00    -0.354 N 
ATOM     53  C   UNL     1      12.317   3.679  -0.779  1.00  0.00     0.074 A 
ATOM     54  C   UNL     1      11.689   2.393  -0.580  1.00  0.00     0.031 C 
ATOM     55  C   UNL     1      12.454   6.220   5.111  1.00  0.00     0.029 A 
ATOM     56  C   UNL     1      12.941   6.809   3.868  1.00  0.00     0.049 A 
ATOM     57  H   UNL     1      12.864   5.984   1.957  1.00  0.00     0.167 HD
ATOM     58  C   UNL     1      12.721   4.141  -1.985  1.00  0.00     0.034 A 
ATOM     59  C   UNL     1      13.541   8.011   3.769  1.00  0.00     0.034 A 
ATOM     60  C   UNL     1      13.344   5.417  -2.197  1.00  0.00     0.049 A 
ATOM     61  C   UNL     1      14.015   8.489   2.430  1.00  0.00     0.074 A 
ATOM     62  C   UNL     1      13.790   5.969  -3.385  1.00  0.00     0.029 A 
ATOM     63  N   UNL     1      13.615   6.338  -1.198  1.00  0.00    -0.354 N 
ATOM     64  N   UNL     1      13.886   7.912   1.260  1.00  0.00    -0.248 NA
ATOM     65  C   UNL     1      14.715   9.780   2.394  1.00  0.00     0.031 C 
ATOM     66  C   UNL     1      14.340   7.224  -3.102  1.00  0.00     0.029 A 
ATOM     67  C   UNL     1      14.229   7.454  -1.740  1.00  0.00     0.049 A 
ATOM     68  H   UNL     1      13.402   6.217  -0.245  1.00  0.00     0.167 HD
ATOM     69  C   UNL     1      14.493   8.766   0.348  1.00  0.00     0.074 A 
ATOM     70  C   UNL     1      14.961   9.915   1.097  1.00  0.00     0.031 C 
ATOM     71  C   UNL     1      14.668   8.598  -0.986  1.00  0.00     0.034 A 
BRANCH  58  72
ATOM     72  C   UNL     1      12.468   3.268  -3.183  1.00  0.00     0.023 A 
ATOM     73  C   UNL     1      11.178   3.241  -3.751  1.00  0.00     0.012 A 
ATOM     74  C   UNL     1      13.503   2.518  -3.773  1.00  0.00     0.148 A 
ATOM     75  C   UNL     1      10.918   2.470  -4.883  1.00  0.00     0.002 A 
ATOM     76  C   UNL     1      13.242   1.770  -4.916  1.00  0.00     0.091 A 
ATOM     77  F   UNL     1      14.714   2.540  -3.200  1.00  0.00    -0.205 F 
ATOM     78  C   UNL     1      11.950   1.742  -5.469  1.00  0.00     0.022 A 
BRANCH  76  79
ATOM     79  S   UNL     1      14.507   0.823  -5.770  1.00  0.00     0.127 S 
ATOM     80  O   UNL     1      14.069  -0.549  -5.512  1.00  0.00    -0.237 OA
ATOM     81  O   UNL     1      14.341   1.266  -7.154  1.00  0.00    -0.237 OA
ATOM     82  O   UNL     1      15.773   1.196  -5.156  1.00  0.00    -0.744 OA
ENDBRANCH  76  79
ENDBRANCH  58  72
BRANCH  59  83
ATOM     83  C   UNL     1      13.704   8.834   4.997  1.00  0.00     0.023 A 
ATOM     84  C   UNL     1      12.860   9.940   5.204  1.00  0.00     0.012 A 
ATOM     85  C   UNL     1      14.612   8.455   6.004  1.00  0.00     0.148 A 
ATOM     86  C   UNL     1      12.916  10.655   6.401  1.00  0.00     0.002 A 
ATOM     87  C   UNL     1      14.629   9.142   7.211  1.00  0.00     0.091 A 
ATOM     88  F   UNL     1      15.403   7.397   5.777  1.00  0.00    -0.205 F 
ATOM     89  C   UNL     1      13.788  10.248   7.408  1.00  0.00     0.022 A 
BRANCH  87  90
ATOM     90  S   UNL     1      15.625   8.617   8.611  1.00  0.00     0.127 S 
ATOM     91  O   UNL     1      16.483   9.781   8.820  1.00  0.00    -0.237 OA
ATOM     92  O   UNL     1      14.604   8.410   9.638  1.00  0.00    -0.237 OA
ATOM     93  O   UNL     1      16.311   7.407   8.181  1.00  0.00    -0.744 OA
ENDBRANCH  87  90
ENDBRANCH  59  83
BRANCH  71  94
ATOM     94  C   UNL     1      15.422   9.665  -1.728  1.00  0.00     0.023 A 
ATOM     95  C   UNL     1      16.828   9.694  -1.641  1.00  0.00     0.012 A 
ATOM     96  C   UNL     1      14.758  10.569  -2.578  1.00  0.00     0.148 A 
ATOM     97  C   UNL     1      17.562  10.619  -2.381  1.00  0.00     0.002 A 
ATOM     98  C   UNL     1      15.498  11.466  -3.338  1.00  0.00     0.091 A 
ATOM     99  F   UNL     1      13.418  10.528  -2.632  1.00  0.00    -0.205 F 
ATOM    100  C   UNL     1      16.899  11.496  -3.237  1.00  0.00     0.022 A 
BRANCH  98 101
ATOM    101  S   UNL     1      14.740  12.586  -4.520  1.00  0.00     0.127 S 
ATOM    102  O   UNL     1      14.911  13.878  -3.858  1.00  0.00    -0.237 OA
ATOM    103  O   UNL     1      15.573  12.394  -5.708  1.00  0.00    -0.237 OA
ATOM    104  O   UNL     1      13.362  12.139  -4.670  1.00  0.00    -0.744 OA
ENDBRANCH  98 101
ENDBRANCH  71  94
ENDBRANCH  45  46
ENDBRANCH  37  40
ENDBRANCH  35  36
ENDBRANCH   1  35
TORSDOF 18
