REMARK SMILES Cc1ccc(-c2cc(Cl)cc3c2O[C@@H](C(F)(F)F)C(C(=O)NCCCNC(=O)c2ccc(-c4c5nc(c(-c6cccc(S(=O)(=O)[O-])c6F)c6ccc([nH]6)c(-c6cccc(S(=O)(=O)[O-])c6F)c6nc(c(-c7cccc(S(=O)(=O)[O-])c7F)c7ccc4[nH]7)C=C6)C=C5)cc2)=C3)cc1
REMARK SMILES IDX 25 1 24 2 23 3 22 4 20 5 21 6 19 8 6 9 7 10 12 11 8 12 11 13
REMARK SMILES IDX 13 14 9 15 10 16 92 17 14 18 5 19 1 20 2 21 3 22 94 23 4 24
REMARK SMILES IDX 93 25 15 26 16 27 17 28 18 29 26 30 27 31 28 33 29 34 30 35
REMARK SMILES IDX 91 36 31 37 90 38 32 39 33 40 34 41 84 42 35 43 89 44 83 45
REMARK SMILES IDX 85 46 36 47 88 48 82 49 81 50 37 52 69 53 49 54 68 55 50 56
REMARK SMILES IDX 53 57 67 58 86 59 51 60 52 61 66 63 87 64 54 65 38 66 39 67
REMARK SMILES IDX 47 68 40 69 42 70 48 71 41 72 43 73 44 74 45 75 46 76 70 77
REMARK SMILES IDX 71 78 79 79 72 80 74 81 80 82 73 83 75 84 76 85 77 86 78 87
REMARK SMILES IDX 55 88 56 89 64 90 57 91 59 92 65 93 58 94 60 95 61 96 62 97
REMARK SMILES IDX 63 98
REMARK H PARENT 22 7 26 32 85 51 53 62
REMARK Flexibility Score: inf
ROOT
ATOM      1  C   UNL     1      -3.842  -5.036   5.662  1.00  0.00     0.118 C 
ENDROOT
BRANCH   1   2
ATOM      2  C   UNL     1      -4.594  -3.779   5.236  1.00  0.00     0.042 C 
BRANCH   2   3
ATOM      3  C   UNL     1      -4.118  -2.401   5.727  1.00  0.00     0.118 C 
BRANCH   3   4
ATOM      4  N   UNL     1      -3.717  -1.457   4.672  1.00  0.00    -0.352 N 
ATOM      5  C   UNL     1      -4.309  -0.302   4.221  1.00  0.00     0.251 C 
ATOM      6  O   UNL     1      -3.597   0.703   4.131  1.00  0.00    -0.270 OA
ATOM      7  H   UNL     1      -2.882  -1.694   4.209  1.00  0.00     0.163 HD
BRANCH   5   8
ATOM      8  C   UNL     1      -5.730  -0.261   3.643  1.00  0.00     0.067 C 
ATOM      9  C   UNL     1      -3.882  -1.115   0.180  1.00  0.00     0.026 A 
ATOM     10  C   UNL     1      -4.315  -0.532  -1.029  1.00  0.00     0.033 A 
ATOM     11  C   UNL     1      -4.734  -0.920   1.269  1.00  0.00     0.135 A 
ATOM     12  C   UNL     1      -5.309   0.454  -1.025  1.00  0.00     0.042 A 
ATOM     13  C   UNL     1      -5.473   0.288   1.361  1.00  0.00     0.019 A 
ATOM     14  O   UNL     1      -5.038  -1.982   2.162  1.00  0.00    -0.475 OA
ATOM     15  Cl  UNL     1      -5.784   1.185  -2.509  1.00  0.00    -0.084 Cl
ATOM     16  C   UNL     1      -5.818   0.938   0.182  1.00  0.00     0.032 A 
ATOM     17  C   UNL     1      -5.910   0.736   2.734  1.00  0.00     0.025 C 
ATOM     18  C   UNL     1      -6.169  -1.553   2.987  1.00  0.00     0.314 C 
BRANCH   9  19
ATOM     19  C   UNL     1      -2.403  -1.026   0.376  1.00  0.00    -0.015 A 
ATOM     20  C   UNL     1       1.887  -0.351   0.197  1.00  0.00     0.044 C 
ATOM     21  C   UNL     1       0.408  -0.586   0.317  1.00  0.00    -0.051 A 
ATOM     22  C   UNL     1      -0.130  -1.881   0.239  1.00  0.00     0.004 A 
ATOM     23  C   UNL     1      -0.461   0.486   0.498  1.00  0.00     0.004 A 
ATOM     24  C   UNL     1      -1.522  -2.101   0.261  1.00  0.00     0.009 A 
ATOM     25  C   UNL     1      -1.838   0.265   0.538  1.00  0.00     0.009 A 
ENDBRANCH   9  19
BRANCH  18  26
ATOM     26  C   UNL     1      -7.016  -2.440   3.901  1.00  0.00     0.429 C 
ATOM     27  F   UNL     1      -8.339  -2.152   3.704  1.00  0.00    -0.167 F 
ATOM     28  F   UNL     1      -6.886  -3.757   3.655  1.00  0.00    -0.167 F 
ATOM     29  F   UNL     1      -6.818  -2.210   5.217  1.00  0.00    -0.167 F 
ENDBRANCH  18  26
ENDBRANCH   5   8
ENDBRANCH   3   4
ENDBRANCH   2   3
ENDBRANCH   1   2
BRANCH   1  30
ATOM     30  N   UNL     1      -3.645  -5.127   7.106  1.00  0.00    -0.352 N 
ATOM     31  C   UNL     1      -2.601  -5.578   7.898  1.00  0.00     0.251 C 
ATOM     32  H   UNL     1      -4.415  -4.799   7.625  1.00  0.00     0.163 HD
ATOM     33  O   UNL     1      -2.852  -5.834   9.066  1.00  0.00    -0.269 OA
BRANCH  31  34
ATOM     34  C   UNL     1      -1.231  -5.752   7.353  1.00  0.00     0.039 A 
ATOM     35  C   UNL     1      -0.200  -6.391   8.059  1.00  0.00     0.014 A 
ATOM     36  C   UNL     1      -0.929  -5.176   6.136  1.00  0.00     0.014 A 
ATOM     37  C   UNL     1       1.110  -6.367   7.547  1.00  0.00     0.010 A 
ATOM     38  C   UNL     1       0.227  -5.470   5.481  1.00  0.00     0.010 A 
ATOM     39  C   UNL     1       1.310  -5.860   6.264  1.00  0.00    -0.014 A 
BRANCH  39  40
ATOM     40  C   UNL     1       2.552  -5.316   5.715  1.00  0.00     0.031 A 
ATOM     41  C   UNL     1       3.523  -6.110   4.963  1.00  0.00     0.074 A 
ATOM     42  C   UNL     1       2.473  -3.978   5.497  1.00  0.00     0.049 A 
ATOM     43  N   UNL     1       4.674  -5.660   4.591  1.00  0.00    -0.248 NA
ATOM     44  C   UNL     1       3.241  -7.468   4.527  1.00  0.00     0.031 C 
ATOM     45  C   UNL     1       3.049  -3.190   4.421  1.00  0.00     0.029 A 
ATOM     46  N   UNL     1       1.748  -3.044   6.245  1.00  0.00    -0.354 N 
ATOM     47  C   UNL     1       5.139  -6.524   3.625  1.00  0.00     0.074 A 
ATOM     48  C   UNL     1       4.266  -7.679   3.695  1.00  0.00     0.031 C 
ATOM     49  C   UNL     1       2.871  -1.888   4.705  1.00  0.00     0.029 A 
ATOM     50  C   UNL     1       2.364  -1.808   6.067  1.00  0.00     0.049 A 
ATOM     51  H   UNL     1       0.951  -3.226   6.793  1.00  0.00     0.167 HD
ATOM     52  C   UNL     1       6.073  -6.100   2.724  1.00  0.00     0.034 A 
ATOM     53  C   UNL     1       2.947  -1.148   7.111  1.00  0.00     0.034 A 
ATOM     54  C   UNL     1       6.386  -4.671   2.903  1.00  0.00     0.049 A 
ATOM     55  C   UNL     1       4.449  -1.034   6.926  1.00  0.00     0.074 A 
ATOM     56  C   UNL     1       5.945  -3.533   2.243  1.00  0.00     0.029 A 
ATOM     57  N   UNL     1       7.012  -4.222   4.063  1.00  0.00    -0.354 N 
ATOM     58  N   UNL     1       5.104  -1.533   5.914  1.00  0.00    -0.248 NA
ATOM     59  C   UNL     1       5.337  -0.380   7.881  1.00  0.00     0.031 C 
ATOM     60  C   UNL     1       6.219  -2.407   3.064  1.00  0.00     0.029 A 
ATOM     61  C   UNL     1       6.851  -2.848   4.214  1.00  0.00     0.049 A 
ATOM     62  H   UNL     1       7.501  -4.799   4.693  1.00  0.00     0.167 HD
ATOM     63  C   UNL     1       6.447  -1.465   6.150  1.00  0.00     0.074 A 
ATOM     64  C   UNL     1       6.542  -0.631   7.338  1.00  0.00     0.031 C 
ATOM     65  C   UNL     1       7.356  -2.166   5.405  1.00  0.00     0.034 A 
BRANCH  52  66
ATOM     66  C   UNL     1       6.383  -6.880   1.457  1.00  0.00     0.023 A 
ATOM     67  C   UNL     1       6.720  -6.160   0.290  1.00  0.00     0.012 A 
ATOM     68  C   UNL     1       6.309  -8.285   1.322  1.00  0.00     0.148 A 
ATOM     69  C   UNL     1       6.848  -6.776  -0.960  1.00  0.00     0.002 A 
ATOM     70  C   UNL     1       6.351  -8.891   0.062  1.00  0.00     0.091 A 
ATOM     71  F   UNL     1       6.263  -9.051   2.421  1.00  0.00    -0.205 F 
ATOM     72  C   UNL     1       6.617  -8.136  -1.083  1.00  0.00     0.022 A 
BRANCH  70  73
ATOM     73  S   UNL     1       5.921 -10.625  -0.177  1.00  0.00     0.127 S 
ATOM     74  O   UNL     1       5.096 -10.582  -1.387  1.00  0.00    -0.237 OA
ATOM     75  O   UNL     1       7.227 -11.254  -0.355  1.00  0.00    -0.237 OA
ATOM     76  O   UNL     1       5.183 -11.009   1.021  1.00  0.00    -0.744 OA
ENDBRANCH  70  73
ENDBRANCH  52  66
BRANCH  53  77
ATOM     77  C   UNL     1       2.231  -1.371   8.411  1.00  0.00     0.023 A 
ATOM     78  C   UNL     1       0.927  -0.827   8.514  1.00  0.00     0.012 A 
ATOM     79  C   UNL     1       2.593  -2.420   9.280  1.00  0.00     0.148 A 
ATOM     80  C   UNL     1      -0.027  -1.396   9.362  1.00  0.00     0.002 A 
ATOM     81  C   UNL     1       1.628  -2.994  10.111  1.00  0.00     0.091 A 
ATOM     82  F   UNL     1       3.836  -2.913   9.204  1.00  0.00    -0.205 F 
ATOM     83  C   UNL     1       0.312  -2.504  10.131  1.00  0.00     0.022 A 
BRANCH  81  84
ATOM     84  S   UNL     1       1.982  -4.479  11.066  1.00  0.00     0.127 S 
ATOM     85  O   UNL     1       2.403  -3.912  12.343  1.00  0.00    -0.237 OA
ATOM     86  O   UNL     1       0.690  -5.164  11.095  1.00  0.00    -0.237 OA
ATOM     87  O   UNL     1       3.002  -5.177  10.297  1.00  0.00    -0.744 OA
ENDBRANCH  81  84
ENDBRANCH  53  77
BRANCH  65  88
ATOM     88  C   UNL     1       8.820  -2.282   5.756  1.00  0.00     0.023 A 
ATOM     89  C   UNL     1       9.273  -2.230   7.088  1.00  0.00     0.012 A 
ATOM     90  C   UNL     1       9.778  -2.594   4.760  1.00  0.00     0.148 A 
ATOM     91  C   UNL     1      10.621  -2.398   7.415  1.00  0.00     0.002 A 
ATOM     92  C   UNL     1      11.099  -2.868   5.103  1.00  0.00     0.091 A 
ATOM     93  F   UNL     1       9.416  -2.608   3.469  1.00  0.00    -0.205 F 
ATOM     94  C   UNL     1      11.532  -2.738   6.424  1.00  0.00     0.022 A 
BRANCH  92  95
ATOM     95  S   UNL     1      12.242  -3.539   3.888  1.00  0.00     0.127 S 
ATOM     96  O   UNL     1      12.832  -2.329   3.321  1.00  0.00    -0.237 OA
ATOM     97  O   UNL     1      13.156  -4.332   4.712  1.00  0.00    -0.237 OA
ATOM     98  O   UNL     1      11.410  -4.332   2.992  1.00  0.00    -0.744 OA
ENDBRANCH  92  95
ENDBRANCH  65  88
ENDBRANCH  39  40
ENDBRANCH  31  34
ENDBRANCH   1  30
TORSDOF 15
