REMARK SMILES C[NH+]1CCN(c2nc3c(cc2F)c(=O)c(C(=O)NCCCNC(=O)c2ccc(-c4c5nc(c(-c6cccc(S(=O)(=O)[O-])c6F)c6ccc([nH]6)c(-c6cccc(S(=O)(=O)[O-])c6F)c6nc(c(-c7cccc(S(=O)(=O)[O-])c7F)c7ccc4[nH]7)C=C6)C=C5)cc2)cn3-c2ccc(F)cc2F)CC1
REMARK SMILES IDX 21 1 20 2 19 3 18 4 16 5 17 6 15 8 6 9 7 10 11 11 8 12 10 13
REMARK SMILES IDX 12 14 9 15 89 16 13 17 88 18 14 19 5 20 1 21 2 22 3 23 99 24
REMARK SMILES IDX 4 26 98 27 90 28 91 29 96 30 92 31 95 32 97 33 93 34 94 35
REMARK SMILES IDX 22 36 23 37 24 39 25 40 26 41 87 42 27 43 86 44 28 45 29 46
REMARK SMILES IDX 30 47 80 48 31 49 85 50 79 51 81 52 32 53 84 54 78 55 77 56
REMARK SMILES IDX 33 58 65 59 45 60 64 61 46 62 49 63 63 64 82 65 47 66 48 67
REMARK SMILES IDX 62 69 83 70 50 71 34 72 35 73 43 74 36 75 38 76 44 77 37 78
REMARK SMILES IDX 39 79 40 80 41 81 42 82 66 83 67 84 75 85 68 86 70 87 76 88
REMARK SMILES IDX 69 89 71 90 72 91 73 92 74 93 51 94 52 95 60 96 53 97 55 98
REMARK SMILES IDX 61 99 54 100 56 101 57 102 58 103 59 104
REMARK H PARENT 18 7 2 25 22 38 81 57 49 68
REMARK Flexibility Score: inf
ROOT
ATOM      1  C   UNL     1      -9.643  -0.468   6.729  1.00  0.00     0.118 C 
ENDROOT
BRANCH   1   2
ATOM      2  C   UNL     1      -8.503  -0.596   5.731  1.00  0.00     0.042 C 
BRANCH   2   3
ATOM      3  C   UNL     1      -8.943  -1.165   4.384  1.00  0.00     0.118 C 
BRANCH   3   4
ATOM      4  N   UNL     1      -9.584  -0.152   3.563  1.00  0.00    -0.352 N 
ATOM      5  C   UNL     1      -9.115   0.665   2.584  1.00  0.00     0.256 C 
ATOM      6  O   UNL     1      -9.952   1.396   2.043  1.00  0.00    -0.269 OA
ATOM      7  H   UNL     1     -10.543  -0.036   3.752  1.00  0.00     0.163 HD
BRANCH   5   8
ATOM      8  C   UNL     1      -7.708   0.652   2.091  1.00  0.00     0.104 A 
ATOM      9  C   UNL     1      -2.905  -0.097   0.600  1.00  0.00     0.167 A 
ATOM     10  N   UNL     1      -3.970   0.545   0.058  1.00  0.00    -0.209 NA
ATOM     11  C   UNL     1      -2.991  -0.701   1.857  1.00  0.00     0.166 A 
ATOM     12  C   UNL     1      -5.146   0.594   0.737  1.00  0.00     0.151 A 
ATOM     13  C   UNL     1      -4.158  -0.605   2.588  1.00  0.00     0.059 A 
ATOM     14  F   UNL     1      -1.940  -1.341   2.394  1.00  0.00    -0.203 F 
ATOM     15  C   UNL     1      -5.244   0.058   2.020  1.00  0.00     0.069 A 
ATOM     16  N   UNL     1      -6.307   1.192   0.148  1.00  0.00    -0.297 N 
ATOM     17  C   UNL     1      -6.481   0.224   2.796  1.00  0.00     0.203 A 
ATOM     18  C   UNL     1      -7.508   1.136   0.852  1.00  0.00     0.111 A 
ATOM     19  O   UNL     1      -6.417   0.021   4.000  1.00  0.00    -0.288 OA
BRANCH   9  20
ATOM     20  N   UNL     1      -1.746  -0.108  -0.131  1.00  0.00    -0.343 N 
ATOM     21  C   UNL     1       2.491   0.109   0.149  1.00  0.00     0.332 C 
ATOM     22  N   UNL     1       1.130   0.023  -0.376  1.00  0.00    -0.334 N 
ATOM     23  C   UNL     1       0.336   1.211   0.026  1.00  0.00     0.283 C 
ATOM     24  C   UNL     1       0.459  -1.196   0.133  1.00  0.00     0.283 C 
ATOM     25  H   UNL     1       1.190  -0.015  -1.394  1.00  0.00     0.347 HD
ATOM     26  C   UNL     1      -1.125   1.163  -0.496  1.00  0.00     0.179 C 
ATOM     27  C   UNL     1      -0.988  -1.326  -0.384  1.00  0.00     0.179 C 
ENDBRANCH   9  20
BRANCH  16  28
ATOM     28  C   UNL     1      -6.281   1.780  -1.153  1.00  0.00     0.083 A 
ATOM     29  C   UNL     1      -5.873   1.032  -2.271  1.00  0.00     0.033 A 
ATOM     30  C   UNL     1      -6.666   3.117  -1.357  1.00  0.00     0.150 A 
ATOM     31  C   UNL     1      -5.856   1.607  -3.544  1.00  0.00     0.041 A 
ATOM     32  C   UNL     1      -6.637   3.701  -2.619  1.00  0.00     0.080 A 
ATOM     33  F   UNL     1      -7.053   3.871  -0.317  1.00  0.00    -0.205 F 
ATOM     34  C   UNL     1      -6.232   2.937  -3.703  1.00  0.00     0.126 A 
ATOM     35  F   UNL     1      -6.205   3.486  -4.924  1.00  0.00    -0.207 F 
ENDBRANCH  16  28
ENDBRANCH   5   8
ENDBRANCH   3   4
ENDBRANCH   2   3
ENDBRANCH   1   2
BRANCH   1  36
ATOM     36  N   UNL     1     -10.028  -1.760   7.280  1.00  0.00    -0.352 N 
ATOM     37  C   UNL     1      -9.843  -2.243   8.553  1.00  0.00     0.251 C 
ATOM     38  H   UNL     1     -10.482  -2.371   6.655  1.00  0.00     0.163 HD
ATOM     39  O   UNL     1     -10.008  -3.438   8.785  1.00  0.00    -0.269 OA
BRANCH  37  40
ATOM     40  C   UNL     1      -9.439  -1.322   9.636  1.00  0.00     0.039 A 
ATOM     41  C   UNL     1      -8.412  -1.699  10.504  1.00  0.00     0.014 A 
ATOM     42  C   UNL     1     -10.089  -0.095   9.801  1.00  0.00     0.014 A 
ATOM     43  C   UNL     1      -8.008  -0.824  11.515  1.00  0.00     0.010 A 
ATOM     44  C   UNL     1      -9.639   0.804  10.763  1.00  0.00     0.010 A 
ATOM     45  C   UNL     1      -8.612   0.438  11.643  1.00  0.00    -0.014 A 
BRANCH  45  46
ATOM     46  C   UNL     1      -8.218   1.360  12.733  1.00  0.00     0.031 A 
ATOM     47  C   UNL     1      -9.187   1.651  13.845  1.00  0.00     0.074 A 
ATOM     48  C   UNL     1      -7.012   1.961  12.706  1.00  0.00     0.049 A 
ATOM     49  N   UNL     1      -9.021   2.400  14.903  1.00  0.00    -0.248 NA
ATOM     50  C   UNL     1     -10.523   1.036  13.753  1.00  0.00     0.031 C 
ATOM     51  C   UNL     1      -6.018   1.813  11.641  1.00  0.00     0.029 A 
ATOM     52  N   UNL     1      -6.423   2.824  13.594  1.00  0.00    -0.354 N 
ATOM     53  C   UNL     1     -10.229   2.362  15.586  1.00  0.00     0.074 A 
ATOM     54  C   UNL     1     -11.136   1.550  14.809  1.00  0.00     0.031 C 
ATOM     55  C   UNL     1      -4.935   2.547  11.947  1.00  0.00     0.029 A 
ATOM     56  C   UNL     1      -5.160   3.222  13.223  1.00  0.00     0.049 A 
ATOM     57  H   UNL     1      -6.862   3.129  14.421  1.00  0.00     0.167 HD
ATOM     58  C   UNL     1     -10.541   2.916  16.779  1.00  0.00     0.034 A 
ATOM     59  C   UNL     1      -4.278   4.027  13.849  1.00  0.00     0.034 A 
ATOM     60  C   UNL     1      -9.618   3.667  17.579  1.00  0.00     0.049 A 
ATOM     61  C   UNL     1      -4.636   4.603  15.192  1.00  0.00     0.074 A 
ATOM     62  C   UNL     1      -9.811   4.186  18.846  1.00  0.00     0.029 A 
ATOM     63  N   UNL     1      -8.332   4.004  17.191  1.00  0.00    -0.354 N 
ATOM     64  N   UNL     1      -5.729   4.428  15.895  1.00  0.00    -0.248 NA
ATOM     65  C   UNL     1      -3.634   5.460  15.845  1.00  0.00     0.031 C 
ATOM     66  C   UNL     1      -8.639   4.846  19.224  1.00  0.00     0.029 A 
ATOM     67  C   UNL     1      -7.719   4.732  18.192  1.00  0.00     0.049 A 
ATOM     68  H   UNL     1      -7.918   3.762  16.332  1.00  0.00     0.167 HD
ATOM     69  C   UNL     1      -5.539   5.130  17.079  1.00  0.00     0.074 A 
ATOM     70  C   UNL     1      -4.222   5.728  17.006  1.00  0.00     0.031 C 
ATOM     71  C   UNL     1      -6.387   5.274  18.125  1.00  0.00     0.034 A 
BRANCH  58  72
ATOM     72  C   UNL     1     -11.909   2.655  17.340  1.00  0.00     0.023 A 
ATOM     73  C   UNL     1     -12.174   1.405  17.934  1.00  0.00     0.012 A 
ATOM     74  C   UNL     1     -12.893   3.660  17.361  1.00  0.00     0.148 A 
ATOM     75  C   UNL     1     -13.406   1.153  18.533  1.00  0.00     0.002 A 
ATOM     76  C   UNL     1     -14.109   3.412  17.985  1.00  0.00     0.091 A 
ATOM     77  F   UNL     1     -12.618   4.835  16.777  1.00  0.00    -0.205 F 
ATOM     78  C   UNL     1     -14.369   2.159  18.567  1.00  0.00     0.022 A 
BRANCH  76  79
ATOM     79  S   UNL     1     -15.401   4.651  18.131  1.00  0.00     0.127 S 
ATOM     80  O   UNL     1     -16.477   4.048  17.343  1.00  0.00    -0.237 OA
ATOM     81  O   UNL     1     -15.641   4.674  19.573  1.00  0.00    -0.237 OA
ATOM     82  O   UNL     1     -14.848   5.880  17.579  1.00  0.00    -0.744 OA
ENDBRANCH  76  79
ENDBRANCH  58  72
BRANCH  59  83
ATOM     83  C   UNL     1      -2.933   4.245  13.250  1.00  0.00     0.023 A 
ATOM     84  C   UNL     1      -1.827   3.558  13.787  1.00  0.00     0.012 A 
ATOM     85  C   UNL     1      -2.754   5.066  12.120  1.00  0.00     0.148 A 
ATOM     86  C   UNL     1      -0.562   3.693  13.216  1.00  0.00     0.002 A 
ATOM     87  C   UNL     1      -1.497   5.170  11.535  1.00  0.00     0.091 A 
ATOM     88  F   UNL     1      -3.823   5.707  11.628  1.00  0.00    -0.205 F 
ATOM     89  C   UNL     1      -0.398   4.491  12.086  1.00  0.00     0.022 A 
BRANCH  87  90
ATOM     90  S   UNL     1      -1.197   6.099  10.027  1.00  0.00     0.127 S 
ATOM     91  O   UNL     1      -0.272   7.131  10.491  1.00  0.00    -0.237 OA
ATOM     92  O   UNL     1      -0.600   5.081   9.163  1.00  0.00    -0.237 OA
ATOM     93  O   UNL     1      -2.500   6.579   9.590  1.00  0.00    -0.744 OA
ENDBRANCH  87  90
ENDBRANCH  59  83
BRANCH  71  94
ATOM     94  C   UNL     1      -5.950   6.101  19.300  1.00  0.00     0.023 A 
ATOM     95  C   UNL     1      -6.091   7.500  19.237  1.00  0.00     0.012 A 
ATOM     96  C   UNL     1      -5.603   5.486  20.518  1.00  0.00     0.148 A 
ATOM     97  C   UNL     1      -5.902   8.278  20.378  1.00  0.00     0.002 A 
ATOM     98  C   UNL     1      -5.450   6.264  21.658  1.00  0.00     0.091 A 
ATOM     99  F   UNL     1      -5.482   4.151  20.545  1.00  0.00    -0.205 F 
ATOM    100  C   UNL     1      -5.598   7.660  21.590  1.00  0.00     0.022 A 
BRANCH  98 101
ATOM    101  S   UNL     1      -5.145   5.559  23.282  1.00  0.00     0.127 S 
ATOM    102  O   UNL     1      -3.856   6.156  23.630  1.00  0.00    -0.237 OA
ATOM    103  O   UNL     1      -6.280   6.064  24.053  1.00  0.00    -0.237 OA
ATOM    104  O   UNL     1      -5.121   4.114  23.100  1.00  0.00    -0.744 OA
ENDBRANCH  98 101
ENDBRANCH  71  94
ENDBRANCH  45  46
ENDBRANCH  37  40
ENDBRANCH   1  36
TORSDOF 15
