REMARK SMILES COc1ccc([C@H]2CC(c3ccc(S(C)(=O)=O)cc3)=NN2c2ccc(C(=O)NCCCNC(=O)c3ccc(-c4c5nc(c(-c6cccc(S(=O)(=O)[O-])c6F)c6ccc([nH]6)c(-c6cccc(S(=O)(=O)[O-])c6F)c6nc(c(-c7cccc(S(=O)(=O)[O-])c7F)c7ccc4[nH]7)C=C6)C=C5)cc3)cc2)cc1
REMARK SMILES IDX 30 1 29 2 28 3 26 4 27 5 25 7 22 8 23 9 99 10 24 11 98 12
REMARK SMILES IDX 21 13 7 14 8 15 9 16 20 17 6 18 3 19 4 20 101 21 5 22 100 23
REMARK SMILES IDX 2 24 1 25 10 26 11 27 19 28 12 29 18 30 13 31 14 32 15 33
REMARK SMILES IDX 16 34 17 35 31 36 32 37 33 38 34 40 35 41 36 42 97 43 37 44
REMARK SMILES IDX 96 45 38 46 39 47 40 48 90 49 41 50 95 51 89 52 91 53 42 54
REMARK SMILES IDX 94 55 88 56 87 57 43 59 75 60 55 61 74 62 56 63 59 64 73 65
REMARK SMILES IDX 92 66 57 67 58 68 72 70 93 71 60 72 44 73 45 74 53 75 46 76
REMARK SMILES IDX 48 77 54 78 47 79 49 80 50 81 51 82 52 83 76 84 77 85 85 86
REMARK SMILES IDX 78 87 80 88 86 89 79 90 81 91 82 92 83 93 84 94 61 95 62 96
REMARK SMILES IDX 70 97 63 98 65 99 71 100 64 101 66 102 67 103 68 104 69 105
REMARK H PARENT 28 6 32 39 91 58 59 69
REMARK Flexibility Score: inf
ROOT
ATOM      1  C   UNL     1      -0.247 -11.469  -1.028  1.00  0.00     0.042 C 
ENDROOT
BRANCH   1   2
ATOM      2  C   UNL     1       0.132 -10.313  -0.104  1.00  0.00     0.118 C 
BRANCH   2   3
ATOM      3  N   UNL     1       1.519 -10.405   0.311  1.00  0.00    -0.352 N 
ATOM      4  C   UNL     1       2.657  -9.758  -0.095  1.00  0.00     0.251 C 
ATOM      5  O   UNL     1       3.696 -10.017   0.514  1.00  0.00    -0.269 OA
ATOM      6  H   UNL     1       1.674 -11.062   1.027  1.00  0.00     0.163 HD
BRANCH   4   7
ATOM      7  C   UNL     1       2.686  -8.730  -1.174  1.00  0.00     0.039 A 
ATOM      8  C   UNL     1       2.875  -6.655  -3.098  1.00  0.00     0.060 A 
ATOM      9  C   UNL     1       3.828  -6.783  -2.083  1.00  0.00     0.029 A 
ATOM     10  C   UNL     1       1.863  -7.616  -3.171  1.00  0.00     0.029 A 
ATOM     11  C   UNL     1       3.725  -7.791  -1.121  1.00  0.00     0.016 A 
ATOM     12  C   UNL     1       1.791  -8.664  -2.243  1.00  0.00     0.016 A 
BRANCH   8  13
ATOM     13  N   UNL     1       2.969  -5.613  -4.004  1.00  0.00    -0.257 N 
ATOM     14  C   UNL     1       1.866  -4.721  -4.357  1.00  0.00     0.144 C 
ATOM     15  C   UNL     1       2.418  -3.965  -5.573  1.00  0.00     0.091 C 
ATOM     16  C   UNL     1       3.733  -4.669  -5.742  1.00  0.00     0.071 C 
ATOM     17  N   UNL     1       4.024  -5.568  -4.857  1.00  0.00    -0.176 NA
BRANCH  14  18
ATOM     18  C   UNL     1       1.518  -3.792  -3.205  1.00  0.00    -0.023 A 
ATOM     19  C   UNL     1       0.856  -2.065  -1.078  1.00  0.00     0.118 A 
ATOM     20  C   UNL     1      -0.122  -2.866  -1.667  1.00  0.00     0.047 A 
ATOM     21  C   UNL     1       2.174  -2.152  -1.518  1.00  0.00     0.047 A 
ATOM     22  C   UNL     1       0.201  -3.716  -2.729  1.00  0.00     0.010 A 
ATOM     23  C   UNL     1       2.502  -3.009  -2.574  1.00  0.00     0.010 A 
BRANCH  19  24
ATOM     24  O   UNL     1       0.439  -1.273  -0.043  1.00  0.00    -0.497 OA
ATOM     25  C   UNL     1       1.047   0.015  -0.012  1.00  0.00     0.278 C 
ENDBRANCH  19  24
ENDBRANCH  14  18
BRANCH  16  26
ATOM     26  C   UNL     1       4.610  -4.364  -6.872  1.00  0.00    -0.002 A 
ATOM     27  C   UNL     1       4.866  -5.365  -7.814  1.00  0.00     0.011 A 
ATOM     28  C   UNL     1       5.199  -3.103  -6.978  1.00  0.00     0.011 A 
ATOM     29  C   UNL     1       5.716  -5.099  -8.887  1.00  0.00     0.021 A 
ATOM     30  C   UNL     1       6.070  -2.843  -8.037  1.00  0.00     0.021 A 
ATOM     31  C   UNL     1       6.327  -3.844  -8.982  1.00  0.00     0.067 A 
BRANCH  31  32
ATOM     32  S   UNL     1       7.444  -3.523 -10.327  1.00  0.00     0.175 S 
ATOM     33  C   UNL     1       8.729  -4.730 -10.127  1.00  0.00     0.163 C 
ATOM     34  O   UNL     1       6.723  -3.808 -11.551  1.00  0.00    -0.224 OA
ATOM     35  O   UNL     1       8.038  -2.217 -10.100  1.00  0.00    -0.224 OA
ENDBRANCH  31  32
ENDBRANCH  16  26
ENDBRANCH   8  13
ENDBRANCH   4   7
ENDBRANCH   2   3
ENDBRANCH   1   2
BRANCH   1  36
ATOM     36  C   UNL     1      -0.364 -12.810  -0.305  1.00  0.00     0.118 C 
BRANCH  36  37
ATOM     37  N   UNL     1      -1.506 -12.841   0.601  1.00  0.00    -0.352 N 
ATOM     38  C   UNL     1      -2.578 -13.696   0.638  1.00  0.00     0.251 C 
ATOM     39  H   UNL     1      -1.507 -12.140   1.292  1.00  0.00     0.163 HD
ATOM     40  O   UNL     1      -3.549 -13.411   1.335  1.00  0.00    -0.269 OA
BRANCH  38  41
ATOM     41  C   UNL     1      -2.578 -14.947  -0.152  1.00  0.00     0.039 A 
ATOM     42  C   UNL     1      -3.758 -15.341  -0.791  1.00  0.00     0.014 A 
ATOM     43  C   UNL     1      -1.442 -15.758  -0.222  1.00  0.00     0.014 A 
ATOM     44  C   UNL     1      -3.785 -16.522  -1.537  1.00  0.00     0.010 A 
ATOM     45  C   UNL     1      -1.452 -16.902  -1.017  1.00  0.00     0.010 A 
ATOM     46  C   UNL     1      -2.625 -17.300  -1.675  1.00  0.00    -0.014 A 
BRANCH  46  47
ATOM     47  C   UNL     1      -2.613 -18.525  -2.514  1.00  0.00     0.031 A 
ATOM     48  C   UNL     1      -2.379 -19.874  -1.889  1.00  0.00     0.074 A 
ATOM     49  C   UNL     1      -2.716 -18.411  -3.852  1.00  0.00     0.049 A 
ATOM     50  N   UNL     1      -2.279 -21.043  -2.466  1.00  0.00    -0.248 NA
ATOM     51  C   UNL     1      -2.211 -19.910  -0.427  1.00  0.00     0.031 C 
ATOM     52  C   UNL     1      -2.872 -17.151  -4.582  1.00  0.00     0.029 A 
ATOM     53  N   UNL     1      -2.678 -19.364  -4.839  1.00  0.00    -0.354 N 
ATOM     54  C   UNL     1      -1.991 -21.946  -1.450  1.00  0.00     0.074 A 
ATOM     55  C   UNL     1      -1.912 -21.185  -0.221  1.00  0.00     0.031 C 
ATOM     56  C   UNL     1      -2.922 -17.410  -5.898  1.00  0.00     0.029 A 
ATOM     57  C   UNL     1      -2.774 -18.846  -6.109  1.00  0.00     0.049 A 
ATOM     58  H   UNL     1      -2.589 -20.327  -4.654  1.00  0.00     0.167 HD
ATOM     59  C   UNL     1      -1.834 -23.289  -1.526  1.00  0.00     0.034 A 
ATOM     60  C   UNL     1      -2.746 -19.459  -7.309  1.00  0.00     0.034 A 
ATOM     61  C   UNL     1      -1.969 -24.047  -2.741  1.00  0.00     0.049 A 
ATOM     62  C   UNL     1      -2.611 -20.956  -7.363  1.00  0.00     0.074 A 
ATOM     63  C   UNL     1      -1.948 -25.421  -2.906  1.00  0.00     0.029 A 
ATOM     64  N   UNL     1      -2.141 -23.497  -4.002  1.00  0.00    -0.354 N 
ATOM     65  N   UNL     1      -2.519 -21.812  -6.374  1.00  0.00    -0.248 NA
ATOM     66  C   UNL     1      -2.608 -21.575  -8.696  1.00  0.00     0.031 C 
ATOM     67  C   UNL     1      -2.086 -25.700  -4.270  1.00  0.00     0.029 A 
ATOM     68  C   UNL     1      -2.209 -24.500  -4.953  1.00  0.00     0.049 A 
ATOM     69  H   UNL     1      -2.205 -22.533  -4.193  1.00  0.00     0.167 HD
ATOM     70  C   UNL     1      -2.478 -23.071  -6.962  1.00  0.00     0.074 A 
ATOM     71  C   UNL     1      -2.577 -22.866  -8.393  1.00  0.00     0.031 C 
ATOM     72  C   UNL     1      -2.354 -24.286  -6.371  1.00  0.00     0.034 A 
BRANCH  59  73
ATOM     73  C   UNL     1      -1.549 -24.033  -0.247  1.00  0.00     0.023 A 
ATOM     74  C   UNL     1      -2.573 -24.186   0.710  1.00  0.00     0.012 A 
ATOM     75  C   UNL     1      -0.289 -24.614  -0.009  1.00  0.00     0.148 A 
ATOM     76  C   UNL     1      -2.337 -24.873   1.901  1.00  0.00     0.002 A 
ATOM     77  C   UNL     1      -0.073 -25.333   1.163  1.00  0.00     0.091 A 
ATOM     78  F   UNL     1       0.682 -24.438  -0.916  1.00  0.00    -0.205 F 
ATOM     79  C   UNL     1      -1.091 -25.454   2.123  1.00  0.00     0.022 A 
BRANCH  77  80
ATOM     80  S   UNL     1       1.476 -26.180   1.499  1.00  0.00     0.127 S 
ATOM     81  O   UNL     1       2.107 -25.272   2.455  1.00  0.00    -0.237 OA
ATOM     82  O   UNL     1       1.021 -27.447   2.073  1.00  0.00    -0.237 OA
ATOM     83  O   UNL     1       2.144 -26.307   0.212  1.00  0.00    -0.744 OA
ENDBRANCH  77  80
ENDBRANCH  59  73
BRANCH  60  84
ATOM     84  C   UNL     1      -2.938 -18.659  -8.550  1.00  0.00     0.023 A 
ATOM     85  C   UNL     1      -4.153 -18.774  -9.254  1.00  0.00     0.012 A 
ATOM     86  C   UNL     1      -1.963 -17.752  -9.008  1.00  0.00     0.148 A 
ATOM     87  C   UNL     1      -4.386 -18.017 -10.402  1.00  0.00     0.002 A 
ATOM     88  C   UNL     1      -2.221 -16.963 -10.123  1.00  0.00     0.091 A 
ATOM     89  F   UNL     1      -0.810 -17.665  -8.329  1.00  0.00    -0.205 F 
ATOM     90  C   UNL     1      -3.426 -17.104 -10.829  1.00  0.00     0.022 A 
BRANCH  88  91
ATOM     91  S   UNL     1      -1.103 -15.668 -10.672  1.00  0.00     0.127 S 
ATOM     92  O   UNL     1      -0.609 -16.214 -11.934  1.00  0.00    -0.237 OA
ATOM     93  O   UNL     1      -2.007 -14.525 -10.806  1.00  0.00    -0.237 OA
ATOM     94  O   UNL     1      -0.112 -15.528  -9.613  1.00  0.00    -0.744 OA
ENDBRANCH  88  91
ENDBRANCH  60  84
BRANCH  72  95
ATOM     95  C   UNL     1      -2.334 -25.497  -7.266  1.00  0.00     0.023 A 
ATOM     96  C   UNL     1      -1.187 -25.774  -8.035  1.00  0.00     0.012 A 
ATOM     97  C   UNL     1      -3.417 -26.398  -7.289  1.00  0.00     0.148 A 
ATOM     98  C   UNL     1      -1.128 -26.914  -8.835  1.00  0.00     0.002 A 
ATOM     99  C   UNL     1      -3.333 -27.556  -8.054  1.00  0.00     0.091 A 
ATOM    100  F   UNL     1      -4.509 -26.106  -6.567  1.00  0.00    -0.205 F 
ATOM    101  C   UNL     1      -2.194 -27.810  -8.835  1.00  0.00     0.022 A 
BRANCH  99 102
ATOM    102  S   UNL     1      -4.620 -28.810  -8.041  1.00  0.00     0.127 S 
ATOM    103  O   UNL     1      -5.269 -28.584  -9.331  1.00  0.00    -0.237 OA
ATOM    104  O   UNL     1      -3.848 -30.050  -7.955  1.00  0.00    -0.237 OA
ATOM    105  O   UNL     1      -5.438 -28.529  -6.868  1.00  0.00    -0.744 OA
ENDBRANCH  99 102
ENDBRANCH  72  95
ENDBRANCH  46  47
ENDBRANCH  38  41
ENDBRANCH  36  37
ENDBRANCH   1  36
TORSDOF 18
