REMARK SMILES O=C(COc1cc(-c2ccccc2)nc(Nc2ccccc2Br)n1)NCCCNC(=O)c1ccc(-c2c3nc(c(-c4cccc(S(=O)(=O)[O-])c4F)c4ccc([nH]4)c(-c4cccc(S(=O)(=O)[O-])c4F)c4nc(c(-c5cccc(S(=O)(=O)[O-])c5F)c5ccc2[nH]5)C=C4)C=C3)cc1
REMARK SMILES IDX 26 1 25 2 1 3 2 4 3 6 4 7 5 8 6 9 24 10 7 11 15 12 14 13
REMARK SMILES IDX 8 14 9 15 13 16 10 17 12 18 11 19 16 20 17 22 18 23 22 24
REMARK SMILES IDX 19 25 21 26 23 27 20 28 27 29 28 30 29 31 30 32 31 34 32 35
REMARK SMILES IDX 33 36 94 37 34 38 93 39 35 40 36 41 37 42 87 43 38 44 92 45
REMARK SMILES IDX 86 46 88 47 39 48 91 49 85 50 84 51 40 53 72 54 52 55 71 56
REMARK SMILES IDX 53 57 56 58 70 59 89 60 54 61 55 62 69 64 90 65 57 66 41 67
REMARK SMILES IDX 42 68 50 69 43 70 45 71 51 72 44 73 46 74 47 75 48 76 49 77
REMARK SMILES IDX 73 78 74 79 82 80 75 81 77 82 83 83 76 84 78 85 79 86 80 87
REMARK SMILES IDX 81 88 58 89 59 90 67 91 60 92 62 93 68 94 61 95 63 96 64 97
REMARK SMILES IDX 65 98 66 99
REMARK H PARENT 25 5 16 21 29 33 88 52 56 63
REMARK Flexibility Score: inf
ROOT
ATOM      1  C   UNL     1       2.095  -0.261   2.320  1.00  0.00     0.117 C 
ENDROOT
BRANCH   1   2
ATOM      2  N   UNL     1       2.792  -0.196   1.050  1.00  0.00    -0.353 N 
ATOM      3  O   UNL     1       0.989  -0.744  -0.274  1.00  0.00    -0.271 OA
ATOM      4  C   UNL     1       2.139  -0.333  -0.161  1.00  0.00     0.258 C 
ATOM      5  H   UNL     1       3.765  -0.049   1.050  1.00  0.00     0.163 HD
BRANCH   4   6
ATOM      6  C   UNL     1       2.955   0.163  -1.357  1.00  0.00     0.331 C 
BRANCH   6   7
ATOM      7  O   UNL     1       3.794   1.279  -1.055  1.00  0.00    -0.467 OA
BRANCH   7   8
ATOM      8  C   UNL     1       3.123   2.478  -1.058  1.00  0.00     0.219 A 
ATOM      9  C   UNL     1       2.154   2.762  -0.135  1.00  0.00     0.097 A 
ATOM     10  N   UNL     1       3.597   3.390  -1.910  1.00  0.00    -0.177 NA
ATOM     11  C   UNL     1       1.665   4.047  -0.126  1.00  0.00     0.080 A 
ATOM     12  C   UNL     1       3.051   4.617  -1.863  1.00  0.00     0.231 A 
ATOM     13  N   UNL     1       2.101   4.986  -0.987  1.00  0.00    -0.212 NA
BRANCH  11  14
ATOM     14  C   UNL     1       0.646   4.435   0.858  1.00  0.00     0.000 A 
ATOM     15  C   UNL     1      -0.585   4.971   0.455  1.00  0.00     0.010 A 
ATOM     16  C   UNL     1       0.845   4.190   2.231  1.00  0.00     0.010 A 
ATOM     17  C   UNL     1      -1.595   5.223   1.389  1.00  0.00     0.001 A 
ATOM     18  C   UNL     1      -0.161   4.445   3.164  1.00  0.00     0.001 A 
ATOM     19  C   UNL     1      -1.384   4.955   2.740  1.00  0.00     0.000 A 
ENDBRANCH  11  14
BRANCH  12  20
ATOM     20  N   UNL     1       3.522   5.622  -2.704  1.00  0.00    -0.323 N 
ATOM     21  H   UNL     1       3.170   6.523  -2.522  1.00  0.00     0.170 HD
BRANCH  20  22
ATOM     22  C   UNL     1       4.423   5.532  -3.771  1.00  0.00     0.055 A 
ATOM     23  C   UNL     1       5.581   6.328  -3.724  1.00  0.00     0.027 A 
ATOM     24  C   UNL     1       4.275   4.649  -4.857  1.00  0.00     0.041 A 
ATOM     25  C   UNL     1       6.565   6.237  -4.713  1.00  0.00     0.002 A 
ATOM     26  C   UNL     1       5.261   4.560  -5.848  1.00  0.00     0.018 A 
ATOM     27  Br  UNL     1       2.689   3.631  -5.143  1.00  0.00    -0.049 Br
ATOM     28  C   UNL     1       6.407   5.348  -5.772  1.00  0.00     0.001 A 
ENDBRANCH  20  22
ENDBRANCH  12  20
ENDBRANCH   7   8
ENDBRANCH   6   7
ENDBRANCH   4   6
ENDBRANCH   1   2
BRANCH   1  29
ATOM     29  C   UNL     1       2.422  -1.504   3.127  1.00  0.00     0.042 C 
BRANCH  29  30
ATOM     30  C   UNL     1       3.896  -1.654   3.482  1.00  0.00     0.118 C 
BRANCH  30  31
ATOM     31  N   UNL     1       4.405  -0.580   4.325  1.00  0.00    -0.352 N 
ATOM     32  C   UNL     1       5.116  -0.641   5.500  1.00  0.00     0.251 C 
ATOM     33  H   UNL     1       4.210   0.330   4.004  1.00  0.00     0.163 HD
ATOM     34  O   UNL     1       5.342   0.401   6.116  1.00  0.00    -0.269 OA
BRANCH  32  35
ATOM     35  C   UNL     1       5.583  -1.937   6.043  1.00  0.00     0.039 A 
ATOM     36  C   UNL     1       5.488  -2.158   7.420  1.00  0.00     0.014 A 
ATOM     37  C   UNL     1       6.116  -2.931   5.218  1.00  0.00     0.014 A 
ATOM     38  C   UNL     1       5.860  -3.394   7.954  1.00  0.00     0.010 A 
ATOM     39  C   UNL     1       6.403  -4.192   5.739  1.00  0.00     0.010 A 
ATOM     40  C   UNL     1       6.281  -4.439   7.114  1.00  0.00    -0.014 A 
BRANCH  40  41
ATOM     41  C   UNL     1       6.553  -5.795   7.663  1.00  0.00     0.031 A 
ATOM     42  C   UNL     1       7.918  -6.420   7.552  1.00  0.00     0.074 A 
ATOM     43  C   UNL     1       5.540  -6.496   8.214  1.00  0.00     0.049 A 
ATOM     44  N   UNL     1       8.329  -7.583   7.990  1.00  0.00    -0.248 NA
ATOM     45  C   UNL     1       8.951  -5.654   6.837  1.00  0.00     0.031 C 
ATOM     46  C   UNL     1       4.149  -6.046   8.298  1.00  0.00     0.029 A 
ATOM     47  N   UNL     1       5.520  -7.741   8.792  1.00  0.00    -0.354 N 
ATOM     48  C   UNL     1       9.652  -7.701   7.582  1.00  0.00     0.074 A 
ATOM     49  C   UNL     1       9.966  -6.507   6.828  1.00  0.00     0.031 C 
ATOM     50  C   UNL     1       3.416  -6.990   8.910  1.00  0.00     0.029 A 
ATOM     51  C   UNL     1       4.275  -8.124   9.234  1.00  0.00     0.049 A 
ATOM     52  H   UNL     1       6.321  -8.306   8.883  1.00  0.00     0.167 HD
ATOM     53  C   UNL     1      10.536  -8.697   7.835  1.00  0.00     0.034 A 
ATOM     54  C   UNL     1       3.866  -9.261   9.832  1.00  0.00     0.034 A 
ATOM     55  C   UNL     1      10.230  -9.872   8.609  1.00  0.00     0.049 A 
ATOM     56  C   UNL     1       4.878 -10.329  10.141  1.00  0.00     0.074 A 
ATOM     57  C   UNL     1      11.080 -10.896   8.991  1.00  0.00     0.029 A 
ATOM     58  N   UNL     1       8.976 -10.190   9.107  1.00  0.00    -0.354 N 
ATOM     59  N   UNL     1       6.164 -10.346   9.892  1.00  0.00    -0.248 NA
ATOM     60  C   UNL     1       4.388 -11.517  10.855  1.00  0.00     0.031 C 
ATOM     61  C   UNL     1      10.332 -11.848   9.692  1.00  0.00     0.029 A 
ATOM     62  C   UNL     1       9.026 -11.398   9.784  1.00  0.00     0.049 A 
ATOM     63  H   UNL     1       8.169  -9.638   8.997  1.00  0.00     0.167 HD
ATOM     64  C   UNL     1       6.645 -11.525  10.450  1.00  0.00     0.074 A 
ATOM     65  C   UNL     1       5.514 -12.182  11.073  1.00  0.00     0.031 C 
ATOM     66  C   UNL     1       7.905 -12.025  10.437  1.00  0.00     0.034 A 
BRANCH  53  67
ATOM     67  C   UNL     1      11.940  -8.540   7.307  1.00  0.00     0.023 A 
ATOM     68  C   UNL     1      12.793  -7.568   7.870  1.00  0.00     0.012 A 
ATOM     69  C   UNL     1      12.438  -9.394   6.302  1.00  0.00     0.148 A 
ATOM     70  C   UNL     1      14.104  -7.423   7.418  1.00  0.00     0.002 A 
ATOM     71  C   UNL     1      13.761  -9.275   5.891  1.00  0.00     0.091 A 
ATOM     72  F   UNL     1      11.609 -10.300   5.765  1.00  0.00    -0.205 F 
ATOM     73  C   UNL     1      14.591  -8.282   6.437  1.00  0.00     0.022 A 
BRANCH  71  74
ATOM     74  S   UNL     1      14.509 -10.388   4.695  1.00  0.00     0.127 S 
ATOM     75  O   UNL     1      14.697  -9.502   3.546  1.00  0.00    -0.237 OA
ATOM     76  O   UNL     1      15.746 -10.779   5.372  1.00  0.00    -0.237 OA
ATOM     77  O   UNL     1      13.554 -11.469   4.499  1.00  0.00    -0.744 OA
ENDBRANCH  71  74
ENDBRANCH  53  67
BRANCH  54  78
ATOM     78  C   UNL     1       2.440  -9.418  10.237  1.00  0.00     0.023 A 
ATOM     79  C   UNL     1       2.102  -9.422  11.605  1.00  0.00     0.012 A 
ATOM     80  C   UNL     1       1.418  -9.541   9.277  1.00  0.00     0.148 A 
ATOM     81  C   UNL     1       0.777  -9.586  12.010  1.00  0.00     0.002 A 
ATOM     82  C   UNL     1       0.094  -9.643   9.686  1.00  0.00     0.091 A 
ATOM     83  F   UNL     1       1.761  -9.543   7.981  1.00  0.00    -0.205 F 
ATOM     84  C   UNL     1      -0.227  -9.685  11.052  1.00  0.00     0.022 A 
BRANCH  82  85
ATOM     85  S   UNL     1      -1.275  -9.639   8.523  1.00  0.00     0.127 S 
ATOM     86  O   UNL     1      -1.769 -11.008   8.639  1.00  0.00    -0.237 OA
ATOM     87  O   UNL     1      -2.152  -8.616   9.095  1.00  0.00    -0.237 OA
ATOM     88  O   UNL     1      -0.697  -9.281   7.236  1.00  0.00    -0.744 OA
ENDBRANCH  82  85
ENDBRANCH  54  78
BRANCH  66  89
ATOM     89  C   UNL     1       8.143 -13.329  11.157  1.00  0.00     0.023 A 
ATOM     90  C   UNL     1       7.609 -14.528  10.644  1.00  0.00     0.012 A 
ATOM     91  C   UNL     1       8.928 -13.368  12.326  1.00  0.00     0.148 A 
ATOM     92  C   UNL     1       7.809 -15.737  11.311  1.00  0.00     0.002 A 
ATOM     93  C   UNL     1       9.170 -14.584  12.955  1.00  0.00     0.091 A 
ATOM     94  F   UNL     1       9.413 -12.216  12.812  1.00  0.00    -0.205 F 
ATOM     95  C   UNL     1       8.597 -15.766  12.460  1.00  0.00     0.022 A 
BRANCH  93  96
ATOM     96  S   UNL     1      10.253 -14.728  14.380  1.00  0.00     0.127 S 
ATOM     97  O   UNL     1       9.294 -14.930  15.465  1.00  0.00    -0.237 OA
ATOM     98  O   UNL     1      11.052 -15.908  14.046  1.00  0.00    -0.237 OA
ATOM     99  O   UNL     1      11.010 -13.485  14.435  1.00  0.00    -0.744 OA
ENDBRANCH  93  96
ENDBRANCH  66  89
ENDBRANCH  40  41
ENDBRANCH  32  35
ENDBRANCH  30  31
ENDBRANCH  29  30
ENDBRANCH   1  29
TORSDOF 18
