REMARK SMILES CCC(CC)(C(=O)NCCCNC(=O)c1ccc(-c2c3nc(c(-c4cccc(S(=O)(=O)[O-])c4F)c4ccc([nH]4)c(-c4cccc(S(=O)(=O)[O-])c4F)c4nc(c(-c5cccc(S(=O)(=O)[O-])c5F)c5ccc2[nH]5)C=C4)C=C3)cc1)n1nnnc1CC[C@@H]1CCCO1
REMARK SMILES IDX 9 1 8 2 6 3 7 4 3 6 2 7 1 8 4 9 5 10 78 11 79 12 82 13 80 14
REMARK SMILES IDX 81 15 83 16 84 17 85 18 86 19 89 20 87 21 88 22 10 23 11 24
REMARK SMILES IDX 12 25 13 26 14 28 15 29 16 30 77 31 17 32 76 33 18 34 19 35
REMARK SMILES IDX 20 36 70 37 21 38 75 39 69 40 71 41 22 42 74 43 68 44 67 45
REMARK SMILES IDX 23 47 55 48 35 49 54 50 36 51 39 52 53 53 72 54 37 55 38 56
REMARK SMILES IDX 52 58 73 59 40 60 24 61 25 62 33 63 26 64 28 65 34 66 27 67
REMARK SMILES IDX 29 68 30 69 31 70 32 71 56 72 57 73 65 74 58 75 60 76 66 77
REMARK SMILES IDX 59 78 61 79 62 80 63 81 64 82 41 83 42 84 50 85 43 86 45 87
REMARK SMILES IDX 51 88 44 89 46 90 47 91 48 92 49 93
REMARK H PARENT 8 5 12 27 71 46 39 57
REMARK Flexibility Score: inf
ROOT
ATOM      1  C   UNL     1      -2.086   3.076   0.477  1.00  0.00     0.117 C 
ENDROOT
BRANCH   1   2
ATOM      2  N   UNL     1      -0.908   3.806   0.916  1.00  0.00    -0.354 N 
ATOM      3  C   UNL     1       0.429   3.534   0.879  1.00  0.00     0.248 C 
ATOM      4  O   UNL     1       1.098   4.282   1.598  1.00  0.00    -0.272 OA
ATOM      5  H   UNL     1      -1.119   4.676   1.324  1.00  0.00     0.163 HD
BRANCH   3   6
ATOM      6  C   UNL     1       1.054   2.343   0.061  1.00  0.00     0.144 C 
BRANCH   6   7
ATOM      7  C   UNL     1       0.449   1.050   0.683  1.00  0.00     0.037 C 
ATOM      8  C   UNL     1       0.217  -0.138  -0.238  1.00  0.00     0.007 C 
ENDBRANCH   6   7
BRANCH   6   9
ATOM      9  C   UNL     1       0.889   2.554  -1.487  1.00  0.00     0.037 C 
ATOM     10  C   UNL     1      -0.466   2.583  -2.172  1.00  0.00     0.007 C 
ENDBRANCH   6   9
BRANCH   6  11
ATOM     11  N   UNL     1       2.549   2.401   0.258  1.00  0.00    -0.214 N 
ATOM     12  N   UNL     1       3.175   3.573  -0.046  1.00  0.00    -0.044 NA
ATOM     13  C   UNL     1       3.545   1.465   0.505  1.00  0.00     0.152 A 
ATOM     14  N   UNL     1       4.452   3.400   0.228  1.00  0.00    -0.024 NA
ATOM     15  N   UNL     1       4.695   2.112   0.576  1.00  0.00    -0.114 NA
BRANCH  13  16
ATOM     16  C   UNL     1       3.477  -0.013   0.642  1.00  0.00     0.082 C 
BRANCH  16  17
ATOM     17  C   UNL     1       3.733  -0.753  -0.673  1.00  0.00     0.040 C 
BRANCH  17  18
ATOM     18  C   UNL     1       5.199  -0.766  -1.102  1.00  0.00     0.118 C 
ATOM     19  C   UNL     1       5.617   0.366  -2.026  1.00  0.00     0.034 C 
ATOM     20  O   UNL     1       5.444  -1.964  -1.869  1.00  0.00    -0.378 OA
ATOM     21  C   UNL     1       6.844  -0.224  -2.675  1.00  0.00     0.031 C 
ATOM     22  C   UNL     1       6.451  -1.676  -2.849  1.00  0.00     0.160 C 
ENDBRANCH  17  18
ENDBRANCH  16  17
ENDBRANCH  13  16
ENDBRANCH   6  11
ENDBRANCH   3   6
ENDBRANCH   1   2
BRANCH   1  23
ATOM     23  C   UNL     1      -2.916   2.556   1.641  1.00  0.00     0.042 C 
BRANCH  23  24
ATOM     24  C   UNL     1      -3.607   3.654   2.431  1.00  0.00     0.118 C 
BRANCH  24  25
ATOM     25  N   UNL     1      -4.544   4.415   1.615  1.00  0.00    -0.352 N 
ATOM     26  C   UNL     1      -5.912   4.487   1.673  1.00  0.00     0.251 C 
ATOM     27  H   UNL     1      -4.130   4.964   0.910  1.00  0.00     0.163 HD
ATOM     28  O   UNL     1      -6.526   5.001   0.735  1.00  0.00    -0.269 OA
BRANCH  26  29
ATOM     29  C   UNL     1      -6.645   3.953   2.838  1.00  0.00     0.039 A 
ATOM     30  C   UNL     1      -7.889   3.345   2.645  1.00  0.00     0.014 A 
ATOM     31  C   UNL     1      -6.126   4.077   4.128  1.00  0.00     0.014 A 
ATOM     32  C   UNL     1      -8.583   2.827   3.740  1.00  0.00     0.010 A 
ATOM     33  C   UNL     1      -6.756   3.453   5.195  1.00  0.00     0.010 A 
ATOM     34  C   UNL     1      -8.010   2.854   5.022  1.00  0.00    -0.014 A 
BRANCH  34  35
ATOM     35  C   UNL     1      -8.722   2.309   6.205  1.00  0.00     0.031 A 
ATOM     36  C   UNL     1      -9.046   3.212   7.369  1.00  0.00     0.074 A 
ATOM     37  C   UNL     1      -9.006   0.994   6.267  1.00  0.00     0.049 A 
ATOM     38  N   UNL     1      -9.612   2.916   8.509  1.00  0.00    -0.248 NA
ATOM     39  C   UNL     1      -8.646   4.626   7.253  1.00  0.00     0.031 C 
ATOM     40  C   UNL     1      -8.657   0.002   5.248  1.00  0.00     0.029 A 
ATOM     41  N   UNL     1      -9.633   0.260   7.242  1.00  0.00    -0.354 N 
ATOM     42  C   UNL     1      -9.596   4.088   9.257  1.00  0.00     0.074 A 
ATOM     43  C   UNL     1      -8.916   5.087   8.465  1.00  0.00     0.031 C 
ATOM     44  C   UNL     1      -9.087  -1.207   5.643  1.00  0.00     0.029 A 
ATOM     45  C   UNL     1      -9.716  -1.082   6.954  1.00  0.00     0.049 A 
ATOM     46  H   UNL     1      -9.991   0.657   8.069  1.00  0.00     0.167 HD
ATOM     47  C   UNL     1     -10.133   4.327  10.476  1.00  0.00     0.034 A 
ATOM     48  C   UNL     1     -10.241  -2.097   7.668  1.00  0.00     0.034 A 
ATOM     49  C   UNL     1     -10.860   3.346  11.233  1.00  0.00     0.049 A 
ATOM     50  C   UNL     1     -10.898  -1.792   8.987  1.00  0.00     0.074 A 
ATOM     51  C   UNL     1     -11.524   3.504  12.436  1.00  0.00     0.029 A 
ATOM     52  N   UNL     1     -11.018   2.021  10.859  1.00  0.00    -0.354 N 
ATOM     53  N   UNL     1     -11.010  -0.642   9.607  1.00  0.00    -0.248 NA
ATOM     54  C   UNL     1     -11.540  -2.915   9.684  1.00  0.00     0.031 C 
ATOM     55  C   UNL     1     -12.068   2.267  12.799  1.00  0.00     0.029 A 
ATOM     56  C   UNL     1     -11.769   1.348  11.806  1.00  0.00     0.049 A 
ATOM     57  H   UNL     1     -10.650   1.618  10.039  1.00  0.00     0.167 HD
ATOM     58  C   UNL     1     -11.767  -0.894  10.745  1.00  0.00     0.074 A 
ATOM     59  C   UNL     1     -12.104  -2.303  10.716  1.00  0.00     0.031 C 
ATOM     60  C   UNL     1     -12.139  -0.042  11.732  1.00  0.00     0.034 A 
BRANCH  47  61
ATOM     61  C   UNL     1     -10.008   5.722  11.035  1.00  0.00     0.023 A 
ATOM     62  C   UNL     1     -10.722   6.781  10.436  1.00  0.00     0.012 A 
ATOM     63  C   UNL     1      -9.220   5.981  12.174  1.00  0.00     0.148 A 
ATOM     64  C   UNL     1     -10.621   8.080  10.932  1.00  0.00     0.002 A 
ATOM     65  C   UNL     1      -9.165   7.269  12.693  1.00  0.00     0.091 A 
ATOM     66  F   UNL     1      -8.530   4.968  12.718  1.00  0.00    -0.205 F 
ATOM     67  C   UNL     1      -9.852   8.322  12.066  1.00  0.00     0.022 A 
BRANCH  65  68
ATOM     68  S   UNL     1      -8.271   7.670  14.199  1.00  0.00     0.127 S 
ATOM     69  O   UNL     1      -7.157   8.462  13.678  1.00  0.00    -0.237 OA
ATOM     70  O   UNL     1      -9.265   8.437  14.950  1.00  0.00    -0.237 OA
ATOM     71  O   UNL     1      -7.904   6.396  14.800  1.00  0.00    -0.744 OA
ENDBRANCH  65  68
ENDBRANCH  47  61
BRANCH  48  72
ATOM     72  C   UNL     1     -10.236  -3.479   7.110  1.00  0.00     0.023 A 
ATOM     73  C   UNL     1     -11.448  -4.063   6.692  1.00  0.00     0.012 A 
ATOM     74  C   UNL     1      -9.038  -4.203   6.960  1.00  0.00     0.148 A 
ATOM     75  C   UNL     1     -11.471  -5.356   6.169  1.00  0.00     0.002 A 
ATOM     76  C   UNL     1      -9.061  -5.468   6.386  1.00  0.00     0.091 A 
ATOM     77  F   UNL     1      -7.896  -3.632   7.370  1.00  0.00    -0.205 F 
ATOM     78  C   UNL     1     -10.278  -6.055   6.007  1.00  0.00     0.022 A 
BRANCH  76  79
ATOM     79  S   UNL     1      -7.560  -6.382   6.011  1.00  0.00     0.127 S 
ATOM     80  O   UNL     1      -7.619  -7.467   6.987  1.00  0.00    -0.237 OA
ATOM     81  O   UNL     1      -7.792  -6.787   4.624  1.00  0.00    -0.237 OA
ATOM     82  O   UNL     1      -6.469  -5.434   6.183  1.00  0.00    -0.744 OA
ENDBRANCH  76  79
ENDBRANCH  48  72
BRANCH  60  83
ATOM     83  C   UNL     1     -12.994  -0.594  12.842  1.00  0.00     0.023 A 
ATOM     84  C   UNL     1     -12.436  -1.469  13.794  1.00  0.00     0.012 A 
ATOM     85  C   UNL     1     -14.336  -0.187  12.977  1.00  0.00     0.148 A 
ATOM     86  C   UNL     1     -13.212  -1.963  14.841  1.00  0.00     0.002 A 
ATOM     87  C   UNL     1     -15.088  -0.642  14.053  1.00  0.00     0.091 A 
ATOM     88  F   UNL     1     -14.854   0.632  12.050  1.00  0.00    -0.205 F 
ATOM     89  C   UNL     1     -14.532  -1.541  14.978  1.00  0.00     0.022 A 
BRANCH  87  90
ATOM     90  S   UNL     1     -16.762  -0.070  14.363  1.00  0.00     0.127 S 
ATOM     91  O   UNL     1     -17.552  -1.236  13.969  1.00  0.00    -0.237 OA
ATOM     92  O   UNL     1     -16.740   0.194  15.802  1.00  0.00    -0.237 OA
ATOM     93  O   UNL     1     -16.939   1.116  13.535  1.00  0.00    -0.744 OA
ENDBRANCH  87  90
ENDBRANCH  60  83
ENDBRANCH  34  35
ENDBRANCH  26  29
ENDBRANCH  24  25
ENDBRANCH  23  24
ENDBRANCH   1  23
TORSDOF 19
