REMARK SMILES C[C@@H](C(=O)NCCCNC(=O)c1ccc(-c2c3nc(c(-c4cccc(S(=O)(=O)[O-])c4F)c4ccc([nH]4)c(-c4cccc(S(=O)(=O)[O-])c4F)c4nc(c(-c5cccc(S(=O)(=O)[O-])c5F)c5ccc2[nH]5)C=C4)C=C3)cc1)N(C)c1ccc(C(N)=O)nn1
REMARK SMILES IDX 7 1 6 2 5 3 3 4 4 5 2 7 1 8 75 9 76 10 77 11 78 12 85 13
REMARK SMILES IDX 79 14 84 15 80 16 81 17 82 18 83 19 8 22 9 23 10 24 11 26
REMARK SMILES IDX 12 27 13 28 74 29 14 30 73 31 15 32 16 33 17 34 67 35 18 36
REMARK SMILES IDX 72 37 66 38 68 39 19 40 71 41 65 42 64 43 20 45 52 46 32 47
REMARK SMILES IDX 51 48 33 49 36 50 50 51 69 52 34 53 35 54 49 56 70 57 37 58
REMARK SMILES IDX 21 59 22 60 30 61 23 62 25 63 31 64 24 65 26 66 27 67 28 68
REMARK SMILES IDX 29 69 53 70 54 71 62 72 55 73 57 74 63 75 56 76 58 77 59 78
REMARK SMILES IDX 60 79 61 80 38 81 39 82 47 83 40 84 42 85 48 86 41 87 43 88
REMARK SMILES IDX 44 89 45 90 46 91
REMARK H PARENT 5 6 82 20 82 21 9 25 68 44 36 55
REMARK Flexibility Score: inf
ROOT
ATOM      1  C   UNL     1       4.309   1.245  -0.771  1.00  0.00     0.042 C 
ENDROOT
BRANCH   1   2
ATOM      2  C   UNL     1       3.428   2.142   0.096  1.00  0.00     0.117 C 
BRANCH   2   3
ATOM      3  N   UNL     1       2.299   2.676  -0.642  1.00  0.00    -0.354 N 
ATOM      4  C   UNL     1       0.978   2.321  -0.638  1.00  0.00     0.242 C 
ATOM      5  O   UNL     1       0.239   3.004  -1.353  1.00  0.00    -0.273 OA
ATOM      6  H   UNL     1       2.521   3.419  -1.248  1.00  0.00     0.163 HD
BRANCH   4   7
ATOM      7  C   UNL     1       0.464   1.181   0.292  1.00  0.00     0.169 C 
ATOM      8  C   UNL     1       1.132  -0.172   0.058  1.00  0.00     0.042 C 
BRANCH   7   9
ATOM      9  N   UNL     1      -1.025   1.061   0.298  1.00  0.00    -0.346 N 
ATOM     10  C   UNL     1      -1.736   1.821   1.322  1.00  0.00     0.146 C 
BRANCH   9  11
ATOM     11  C   UNL     1      -1.754   0.869  -0.880  1.00  0.00     0.151 A 
ATOM     12  C   UNL     1      -1.418  -0.114  -1.807  1.00  0.00     0.051 A 
ATOM     13  N   UNL     1      -2.864   1.613  -1.124  1.00  0.00    -0.132 NA
ATOM     14  C   UNL     1      -2.163  -0.290  -2.974  1.00  0.00     0.040 A 
ATOM     15  N   UNL     1      -3.611   1.467  -2.282  1.00  0.00    -0.143 NA
ATOM     16  C   UNL     1      -3.247   0.532  -3.184  1.00  0.00     0.150 A 
BRANCH  16  17
ATOM     17  C   UNL     1      -4.078   0.402  -4.412  1.00  0.00     0.269 C 
ATOM     18  N   UNL     1      -5.092   1.310  -4.561  1.00  0.00    -0.364 N 
ATOM     19  O   UNL     1      -3.878  -0.467  -5.254  1.00  0.00    -0.268 OA
ATOM     20  H   UNL     1      -5.239   2.001  -3.876  1.00  0.00     0.160 HD
ATOM     21  H   UNL     1      -5.674   1.271  -5.354  1.00  0.00     0.160 HD
ENDBRANCH  16  17
ENDBRANCH   9  11
ENDBRANCH   7   9
ENDBRANCH   4   7
ENDBRANCH   2   3
ENDBRANCH   1   2
BRANCH   1  22
ATOM     22  C   UNL     1       5.056   1.986  -1.881  1.00  0.00     0.118 C 
BRANCH  22  23
ATOM     23  N   UNL     1       6.022   2.947  -1.363  1.00  0.00    -0.352 N 
ATOM     24  C   UNL     1       7.388   2.997  -1.501  1.00  0.00     0.251 C 
ATOM     25  H   UNL     1       5.634   3.677  -0.829  1.00  0.00     0.163 HD
ATOM     26  O   UNL     1       8.033   3.788  -0.816  1.00  0.00    -0.269 OA
BRANCH  24  27
ATOM     27  C   UNL     1       8.089   2.098  -2.445  1.00  0.00     0.039 A 
ATOM     28  C   UNL     1       9.259   1.460  -2.023  1.00  0.00     0.014 A 
ATOM     29  C   UNL     1       7.611   1.893  -3.742  1.00  0.00     0.014 A 
ATOM     30  C   UNL     1       9.896   0.545  -2.867  1.00  0.00     0.010 A 
ATOM     31  C   UNL     1       8.211   0.935  -4.559  1.00  0.00     0.010 A 
ATOM     32  C   UNL     1       9.347   0.235  -4.122  1.00  0.00    -0.014 A 
BRANCH  32  33
ATOM     33  C   UNL     1       9.886  -0.879  -4.947  1.00  0.00     0.031 A 
ATOM     34  C   UNL     1      10.462  -0.624  -6.313  1.00  0.00     0.074 A 
ATOM     35  C   UNL     1       9.743  -2.146  -4.503  1.00  0.00     0.049 A 
ATOM     36  N   UNL     1      10.886  -1.487  -7.198  1.00  0.00    -0.248 NA
ATOM     37  C   UNL     1      10.559   0.779  -6.750  1.00  0.00     0.031 C 
ATOM     38  C   UNL     1       9.132  -2.529  -3.227  1.00  0.00     0.029 A 
ATOM     39  N   UNL     1      10.060  -3.347  -5.090  1.00  0.00    -0.354 N 
ATOM     40  C   UNL     1      11.260  -0.743  -8.311  1.00  0.00     0.074 A 
ATOM     41  C   UNL     1      11.009   0.646  -7.992  1.00  0.00     0.031 C 
ATOM     42  C   UNL     1       9.103  -3.868  -3.135  1.00  0.00     0.029 A 
ATOM     43  C   UNL     1       9.650  -4.441  -4.360  1.00  0.00     0.049 A 
ATOM     44  H   UNL     1      10.534  -3.419  -5.949  1.00  0.00     0.167 HD
ATOM     45  C   UNL     1      11.775  -1.179  -9.485  1.00  0.00     0.034 A 
ATOM     46  C   UNL     1       9.678  -5.756  -4.654  1.00  0.00     0.034 A 
ATOM     47  C   UNL     1      12.061  -2.557  -9.783  1.00  0.00     0.049 A 
ATOM     48  C   UNL     1      10.268  -6.203  -5.964  1.00  0.00     0.074 A 
ATOM     49  C   UNL     1      12.699  -3.077 -10.897  1.00  0.00     0.029 A 
ATOM     50  N   UNL     1      11.704  -3.633  -8.989  1.00  0.00    -0.354 N 
ATOM     51  N   UNL     1      10.803  -5.479  -6.916  1.00  0.00    -0.248 NA
ATOM     52  C   UNL     1      10.283  -7.649  -6.231  1.00  0.00     0.031 C 
ATOM     53  C   UNL     1      12.685  -4.471 -10.798  1.00  0.00     0.029 A 
ATOM     54  C   UNL     1      12.073  -4.817  -9.605  1.00  0.00     0.049 A 
ATOM     55  H   UNL     1      11.255  -3.567  -8.115  1.00  0.00     0.167 HD
ATOM     56  C   UNL     1      11.238  -6.380  -7.881  1.00  0.00     0.074 A 
ATOM     57  C   UNL     1      10.938  -7.706  -7.382  1.00  0.00     0.031 C 
ATOM     58  C   UNL     1      11.814  -6.133  -9.082  1.00  0.00     0.034 A 
BRANCH  45  59
ATOM     59  C   UNL     1      12.107  -0.163 -10.546  1.00  0.00     0.023 A 
ATOM     60  C   UNL     1      13.247   0.651 -10.402  1.00  0.00     0.012 A 
ATOM     61  C   UNL     1      11.365  -0.114 -11.743  1.00  0.00     0.148 A 
ATOM     62  C   UNL     1      13.638   1.510 -11.429  1.00  0.00     0.002 A 
ATOM     63  C   UNL     1      11.784   0.712 -12.778  1.00  0.00     0.091 A 
ATOM     64  F   UNL     1      10.275  -0.888 -11.850  1.00  0.00    -0.205 F 
ATOM     65  C   UNL     1      12.916   1.529 -12.620  1.00  0.00     0.022 A 
BRANCH  63  66
ATOM     66  S   UNL     1      10.976   0.750 -14.382  1.00  0.00     0.127 S 
ATOM     67  O   UNL     1      10.450   2.114 -14.414  1.00  0.00    -0.237 OA
ATOM     68  O   UNL     1      12.094   0.506 -15.293  1.00  0.00    -0.237 OA
ATOM     69  O   UNL     1       9.968  -0.301 -14.352  1.00  0.00    -0.744 OA
ENDBRANCH  63  66
ENDBRANCH  45  59
BRANCH  46  70
ATOM     70  C   UNL     1       9.134  -6.757  -3.690  1.00  0.00     0.023 A 
ATOM     71  C   UNL     1      10.005  -7.674  -3.071  1.00  0.00     0.012 A 
ATOM     72  C   UNL     1       7.758  -6.813  -3.394  1.00  0.00     0.148 A 
ATOM     73  C   UNL     1       9.510  -8.659  -2.216  1.00  0.00     0.002 A 
ATOM     74  C   UNL     1       7.280  -7.755  -2.492  1.00  0.00     0.091 A 
ATOM     75  F   UNL     1       6.939  -5.944  -4.004  1.00  0.00    -0.205 F 
ATOM     76  C   UNL     1       8.151  -8.695  -1.919  1.00  0.00     0.022 A 
BRANCH  74  77
ATOM     77  S   UNL     1       5.569  -7.773  -1.947  1.00  0.00     0.127 S 
ATOM     78  O   UNL     1       5.036  -8.924  -2.670  1.00  0.00    -0.237 OA
ATOM     79  O   UNL     1       5.710  -7.963  -0.503  1.00  0.00    -0.237 OA
ATOM     80  O   UNL     1       5.027  -6.474  -2.325  1.00  0.00    -0.744 OA
ENDBRANCH  74  77
ENDBRANCH  46  70
BRANCH  58  81
ATOM     81  C   UNL     1      12.180  -7.313  -9.942  1.00  0.00     0.023 A 
ATOM     82  C   UNL     1      11.164  -8.056 -10.576  1.00  0.00     0.012 A 
ATOM     83  C   UNL     1      13.529  -7.636 -10.188  1.00  0.00     0.148 A 
ATOM     84  C   UNL     1      11.485  -9.119 -11.419  1.00  0.00     0.002 A 
ATOM     85  C   UNL     1      13.842  -8.664 -11.069  1.00  0.00     0.091 A 
ATOM     86  F   UNL     1      14.480  -6.925  -9.564  1.00  0.00    -0.205 F 
ATOM     87  C   UNL     1      12.822  -9.415 -11.675  1.00  0.00     0.022 A 
BRANCH  85  88
ATOM     88  S   UNL     1      15.531  -9.060 -11.535  1.00  0.00     0.127 S 
ATOM     89  O   UNL     1      15.699 -10.387 -10.945  1.00  0.00    -0.237 OA
ATOM     90  O   UNL     1      15.459  -9.045 -12.996  1.00  0.00    -0.237 OA
ATOM     91  O   UNL     1      16.366  -8.016 -10.957  1.00  0.00    -0.744 OA
ENDBRANCH  85  88
ENDBRANCH  58  81
ENDBRANCH  32  33
ENDBRANCH  24  27
ENDBRANCH  22  23
ENDBRANCH   1  22
TORSDOF 16
