REMARK SMILES CC(C)c1ccc(CNC(=O)N[C@H](CC2=c3ccccc3=NC2)C(=O)NCCCNC(=O)c2ccc(-c3c4nc(c(-c5cccc(S(=O)(=O)[O-])c5F)c5ccc([nH]5)c(-c5cccc(S(=O)(=O)[O-])c5F)c5nc(c(-c6cccc(S(=O)(=O)[O-])c6F)c6ccc3[nH]6)C=C5)C=C4)cc2)cc1
REMARK SMILES IDX 27 1 26 2 24 3 25 4 13 6 12 7 9 8 10 9 11 11 8 13 7 14 4 15
REMARK SMILES IDX 5 16 97 17 6 18 96 19 2 20 1 21 3 22 14 23 15 24 16 25 23 26
REMARK SMILES IDX 17 27 21 28 22 29 18 30 20 31 19 32 28 33 29 34 30 35 31 36
REMARK SMILES IDX 32 38 33 39 34 40 95 41 35 42 94 43 36 44 37 45 38 46 88 47
REMARK SMILES IDX 39 48 93 49 87 50 89 51 40 52 92 53 86 54 85 55 41 57 73 58
REMARK SMILES IDX 53 59 72 60 54 61 57 62 71 63 90 64 55 65 56 66 70 68 91 69
REMARK SMILES IDX 58 70 42 71 43 72 51 73 44 74 46 75 52 76 45 77 47 78 48 79
REMARK SMILES IDX 49 80 50 81 74 82 75 83 83 84 76 85 78 86 84 87 77 88 79 89
REMARK SMILES IDX 80 90 81 91 82 92 59 93 60 94 68 95 61 96 63 97 69 98 62 99
REMARK SMILES IDX 64 100 65 101 66 102 67 103
REMARK H PARENT 26 5 9 10 12 12 30 37 89 56 57 67
REMARK Flexibility Score: inf
ROOT
ATOM      1  C   UNL     1      -7.522   2.702  -4.971  1.00  0.00     0.117 C 
ENDROOT
BRANCH   1   2
ATOM      2  N   UNL     1      -6.437   1.801  -4.517  1.00  0.00    -0.354 N 
ATOM      3  C   UNL     1      -6.220   0.862  -3.550  1.00  0.00     0.242 C 
ATOM      4  O   UNL     1      -5.117   0.292  -3.664  1.00  0.00    -0.273 OA
ATOM      5  H   UNL     1      -5.637   1.912  -5.079  1.00  0.00     0.163 HD
BRANCH   3   6
ATOM      6  C   UNL     1      -7.043   0.563  -2.228  1.00  0.00     0.177 C 
BRANCH   6   7
ATOM      7  N   UNL     1      -8.508   0.502  -2.287  1.00  0.00    -0.326 N 
ATOM      8  N   UNL     1      -9.724   0.638  -0.194  1.00  0.00    -0.334 N 
ATOM      9  C   UNL     1      -9.569   0.392  -1.489  1.00  0.00     0.315 C 
ATOM     10  H   UNL     1     -10.682   0.533   0.008  1.00  0.00     0.165 HD
ATOM     11  O   UNL     1     -10.600   0.024  -2.073  1.00  0.00    -0.249 OA
ATOM     12  H   UNL     1      -8.805   0.561  -3.224  1.00  0.00     0.166 HD
BRANCH   8  13
ATOM     13  C   UNL     1      -9.053   1.005   1.070  1.00  0.00     0.153 C 
BRANCH  13  14
ATOM     14  C   UNL     1      -9.037   2.477   1.456  1.00  0.00    -0.029 A 
ATOM     15  C   UNL     1      -8.724   5.290   1.854  1.00  0.00    -0.045 A 
ATOM     16  C   UNL     1      -9.883   4.769   1.266  1.00  0.00     0.004 A 
ATOM     17  C   UNL     1      -7.801   4.377   2.380  1.00  0.00     0.004 A 
ATOM     18  C   UNL     1     -10.056   3.380   1.101  1.00  0.00     0.006 A 
ATOM     19  C   UNL     1      -7.952   2.995   2.182  1.00  0.00     0.006 A 
BRANCH  15  20
ATOM     20  C   UNL     1      -8.409   6.781   1.898  1.00  0.00     0.013 C 
ATOM     21  C   UNL     1      -8.797   7.534   0.624  1.00  0.00     0.012 C 
ATOM     22  C   UNL     1      -9.040   7.480   3.096  1.00  0.00     0.012 C 
ENDBRANCH  15  20
ENDBRANCH  13  14
ENDBRANCH   8  13
ENDBRANCH   6   7
BRANCH   6  23
ATOM     23  C   UNL     1      -6.427   1.401  -1.115  1.00  0.00     0.068 C 
BRANCH  23  24
ATOM     24  C   UNL     1      -6.753   2.846  -1.189  1.00  0.00    -0.037 C 
ATOM     25  C   UNL     1      -5.896   3.856  -1.102  1.00  0.00     0.001 A 
ATOM     26  C   UNL     1      -8.117   3.351  -1.535  1.00  0.00     0.174 C 
ATOM     27  C   UNL     1      -4.483   3.972  -0.957  1.00  0.00     0.010 A 
ATOM     28  C   UNL     1      -6.752   5.020  -1.356  1.00  0.00     0.065 A 
ATOM     29  N   UNL     1      -8.010   4.818  -1.591  1.00  0.00    -0.280 NA
ATOM     30  C   UNL     1      -3.924   5.182  -1.114  1.00  0.00     0.001 A 
ATOM     31  C   UNL     1      -6.068   6.317  -1.437  1.00  0.00     0.028 A 
ATOM     32  C   UNL     1      -4.731   6.362  -1.364  1.00  0.00     0.002 A 
ENDBRANCH  23  24
ENDBRANCH   6  23
ENDBRANCH   3   6
ENDBRANCH   1   2
BRANCH   1  33
ATOM     33  C   UNL     1      -7.425   4.145  -4.429  1.00  0.00     0.042 C 
BRANCH  33  34
ATOM     34  C   UNL     1      -7.042   5.372  -5.269  1.00  0.00     0.118 C 
BRANCH  34  35
ATOM     35  N   UNL     1      -8.190   6.113  -5.788  1.00  0.00    -0.352 N 
ATOM     36  C   UNL     1      -8.943   7.215  -5.435  1.00  0.00     0.251 C 
ATOM     37  H   UNL     1      -8.519   5.715  -6.626  1.00  0.00     0.163 HD
ATOM     38  O   UNL     1      -9.912   7.414  -6.181  1.00  0.00    -0.269 OA
BRANCH  36  39
ATOM     39  C   UNL     1      -8.749   8.194  -4.301  1.00  0.00     0.039 A 
ATOM     40  C   UNL     1      -9.880   8.950  -3.926  1.00  0.00     0.014 A 
ATOM     41  C   UNL     1      -7.556   8.537  -3.672  1.00  0.00     0.014 A 
ATOM     42  C   UNL     1      -9.829   9.993  -2.970  1.00  0.00     0.010 A 
ATOM     43  C   UNL     1      -7.519   9.547  -2.655  1.00  0.00     0.010 A 
ATOM     44  C   UNL     1      -8.649  10.308  -2.285  1.00  0.00    -0.014 A 
BRANCH  44  45
ATOM     45  C   UNL     1      -8.620  11.416  -1.238  1.00  0.00     0.031 A 
ATOM     46  C   UNL     1      -7.637  12.578  -1.320  1.00  0.00     0.074 A 
ATOM     47  C   UNL     1      -9.460  11.420  -0.171  1.00  0.00     0.049 A 
ATOM     48  N   UNL     1      -7.501  13.611  -0.516  1.00  0.00    -0.248 NA
ATOM     49  C   UNL     1      -6.690  12.588  -2.444  1.00  0.00     0.031 C 
ATOM     50  C   UNL     1     -10.469  10.405   0.125  1.00  0.00     0.029 A 
ATOM     51  N   UNL     1      -9.576  12.297   0.895  1.00  0.00    -0.354 N 
ATOM     52  C   UNL     1      -6.451  14.373  -1.021  1.00  0.00     0.074 A 
ATOM     53  C   UNL     1      -5.954  13.660  -2.180  1.00  0.00     0.031 C 
ATOM     54  C   UNL     1     -11.050  10.674   1.307  1.00  0.00     0.029 A 
ATOM     55  C   UNL     1     -10.480  11.899   1.859  1.00  0.00     0.049 A 
ATOM     56  H   UNL     1      -9.059  13.133   0.960  1.00  0.00     0.167 HD
ATOM     57  C   UNL     1      -5.963  15.573  -0.609  1.00  0.00     0.034 A 
ATOM     58  C   UNL     1     -10.833  12.434   3.050  1.00  0.00     0.034 A 
ATOM     59  C   UNL     1      -6.472  16.352   0.492  1.00  0.00     0.049 A 
ATOM     60  C   UNL     1     -10.278  13.765   3.490  1.00  0.00     0.074 A 
ATOM     61  C   UNL     1      -6.103  17.633   0.877  1.00  0.00     0.029 A 
ATOM     62  N   UNL     1      -7.437  15.937   1.390  1.00  0.00    -0.354 N 
ATOM     63  N   UNL     1      -9.431  14.549   2.874  1.00  0.00    -0.248 NA
ATOM     64  C   UNL     1     -10.781  14.316   4.763  1.00  0.00     0.031 C 
ATOM     65  C   UNL     1      -6.825  17.980   2.024  1.00  0.00     0.029 A 
ATOM     66  C   UNL     1      -7.662  16.925   2.338  1.00  0.00     0.049 A 
ATOM     67  H   UNL     1      -7.898  15.067   1.362  1.00  0.00     0.167 HD
ATOM     68  C   UNL     1      -9.343  15.702   3.650  1.00  0.00     0.074 A 
ATOM     69  C   UNL     1     -10.228  15.522   4.779  1.00  0.00     0.031 C 
ATOM     70  C   UNL     1      -8.586  16.806   3.436  1.00  0.00     0.034 A 
BRANCH  57  71
ATOM     71  C   UNL     1      -4.842  16.191  -1.411  1.00  0.00     0.023 A 
ATOM     72  C   UNL     1      -5.125  16.751  -2.673  1.00  0.00     0.012 A 
ATOM     73  C   UNL     1      -3.545  16.321  -0.873  1.00  0.00     0.148 A 
ATOM     74  C   UNL     1      -4.131  17.400  -3.403  1.00  0.00     0.002 A 
ATOM     75  C   UNL     1      -2.568  17.006  -1.589  1.00  0.00     0.091 A 
ATOM     76  F   UNL     1      -3.292  15.779   0.327  1.00  0.00    -0.205 F 
ATOM     77  C   UNL     1      -2.857  17.536  -2.858  1.00  0.00     0.022 A 
BRANCH  75  78
ATOM     78  S   UNL     1      -0.920  17.308  -0.941  1.00  0.00     0.127 S 
ATOM     79  O   UNL     1      -0.111  16.412  -1.767  1.00  0.00    -0.237 OA
ATOM     80  O   UNL     1      -0.732  18.731  -1.223  1.00  0.00    -0.237 OA
ATOM     81  O   UNL     1      -0.977  16.971   0.474  1.00  0.00    -0.744 OA
ENDBRANCH  75  78
ENDBRANCH  57  71
BRANCH  58  82
ATOM     82  C   UNL     1     -11.836  11.742   3.916  1.00  0.00     0.023 A 
ATOM     83  C   UNL     1     -13.130  12.283   4.052  1.00  0.00     0.012 A 
ATOM     84  C   UNL     1     -11.504  10.572   4.626  1.00  0.00     0.148 A 
ATOM     85  C   UNL     1     -14.064  11.690   4.904  1.00  0.00     0.002 A 
ATOM     86  C   UNL     1     -12.454   9.959   5.436  1.00  0.00     0.091 A 
ATOM     87  F   UNL     1     -10.259  10.091   4.506  1.00  0.00    -0.205 F 
ATOM     88  C   UNL     1     -13.729  10.525   5.588  1.00  0.00     0.022 A 
BRANCH  86  89
ATOM     89  S   UNL     1     -12.152   8.408   6.291  1.00  0.00     0.127 S 
ATOM     90  O   UNL     1     -12.149   8.831   7.689  1.00  0.00    -0.237 OA
ATOM     91  O   UNL     1     -13.313   7.614   5.890  1.00  0.00    -0.237 OA
ATOM     92  O   UNL     1     -10.878   7.918   5.781  1.00  0.00    -0.744 OA
ENDBRANCH  86  89
ENDBRANCH  58  82
BRANCH  70  93
ATOM     93  C   UNL     1      -8.699  17.957   4.406  1.00  0.00     0.023 A 
ATOM     94  C   UNL     1      -8.159  17.842   5.703  1.00  0.00     0.012 A 
ATOM     95  C   UNL     1      -9.275  19.182   4.010  1.00  0.00     0.148 A 
ATOM     96  C   UNL     1      -8.217  18.913   6.597  1.00  0.00     0.002 A 
ATOM     97  C   UNL     1      -9.289  20.260   4.890  1.00  0.00     0.091 A 
ATOM     98  F   UNL     1      -9.803  19.273   2.781  1.00  0.00    -0.205 F 
ATOM     99  C   UNL     1      -8.770  20.123   6.188  1.00  0.00     0.022 A 
BRANCH  97 100
ATOM    100  S   UNL     1      -9.897  21.886   4.420  1.00  0.00     0.127 S 
ATOM    101  O   UNL     1     -11.160  21.956   5.153  1.00  0.00    -0.237 OA
ATOM    102  O   UNL     1      -8.848  22.770   4.929  1.00  0.00    -0.237 OA
ATOM    103  O   UNL     1     -10.016  21.864   2.969  1.00  0.00    -0.744 OA
ENDBRANCH  97 100
ENDBRANCH  70  93
ENDBRANCH  44  45
ENDBRANCH  36  39
ENDBRANCH  34  35
ENDBRANCH  33  34
ENDBRANCH   1  33
TORSDOF 19
