REMARK SMILES COc1ccc(C[N@@H+]2C[C@@H](C(=O)NCCCNC(=O)c3ccc(-c4c5nc(c(-c6cccc(S(=O)(=O)[O-])c6F)c6ccc([nH]6)c(-c6cccc(S(=O)(=O)[O-])c6F)c6nc(c(-c7cccc(S(=O)(=O)[O-])c7F)c7ccc4[nH]7)C=C6)C=C5)cc3)[C@H](c3ccccc3OC)C2)c(OC)c1
REMARK SMILES IDX 15 1 14 2 13 3 11 4 12 5 10 7 8 8 9 9 92 10 83 12 7 13 6 14
REMARK SMILES IDX 3 15 4 16 96 17 5 18 93 19 2 20 1 21 94 22 95 23 84 24 85 25
REMARK SMILES IDX 89 26 86 27 88 28 87 29 90 30 91 31 16 32 17 33 18 34 19 36
REMARK SMILES IDX 20 37 21 38 82 39 22 40 81 41 23 42 24 43 25 44 75 45 26 46
REMARK SMILES IDX 80 47 74 48 76 49 27 50 79 51 73 52 72 53 28 55 60 56 40 57
REMARK SMILES IDX 59 58 41 59 44 60 58 61 77 62 42 63 43 64 57 66 78 67 45 68
REMARK SMILES IDX 29 69 30 70 38 71 31 72 33 73 39 74 32 75 34 76 35 77 36 78
REMARK SMILES IDX 37 79 61 80 62 81 70 82 63 83 65 84 71 85 64 86 66 87 67 88
REMARK SMILES IDX 68 89 69 90 46 91 47 92 55 93 48 94 50 95 56 96 49 97 51 98
REMARK SMILES IDX 52 99 53 100 54 101
REMARK H PARENT 13 6 8 11 17 35 76 54 44 65
REMARK Flexibility Score: inf
ROOT
ATOM      1  C   UNL     1      -2.461   2.119   8.362  1.00  0.00     0.042 C 
ENDROOT
BRANCH   1   2
ATOM      2  C   UNL     1      -2.326   1.652   6.918  1.00  0.00     0.117 C 
BRANCH   2   3
ATOM      3  N   UNL     1      -2.075   2.752   6.013  1.00  0.00    -0.356 N 
ATOM      4  C   UNL     1      -0.982   3.243   5.384  1.00  0.00     0.229 C 
ATOM      5  O   UNL     1      -1.285   3.994   4.455  1.00  0.00    -0.275 OA
ATOM      6  H   UNL     1      -2.891   3.262   5.804  1.00  0.00     0.163 HD
BRANCH   4   7
ATOM      7  C   UNL     1       0.462   2.808   5.628  1.00  0.00     0.146 C 
ATOM      8  N   UNL     1       2.153   1.822   6.993  1.00  0.00    -0.330 N 
ATOM      9  C   UNL     1       0.720   2.070   6.940  1.00  0.00     0.276 C 
ATOM     10  C   UNL     1       2.740   3.055   6.455  1.00  0.00     0.272 C 
ATOM     11  H   UNL     1       2.498   1.652   7.938  1.00  0.00     0.348 HD
ATOM     12  C   UNL     1       1.636   3.834   5.632  1.00  0.00     0.096 C 
BRANCH   8  13
ATOM     13  C   UNL     1       2.580   0.535   6.373  1.00  0.00     0.303 C 
BRANCH  13  14
ATOM     14  C   UNL     1       2.151   0.233   4.941  1.00  0.00     0.048 A 
ATOM     15  C   UNL     1       1.118   0.259   2.324  1.00  0.00     0.122 A 
ATOM     16  C   UNL     1       0.316  -0.159   3.380  1.00  0.00     0.047 A 
ATOM     17  C   UNL     1       2.462   0.555   2.548  1.00  0.00     0.093 A 
ATOM     18  C   UNL     1       0.840  -0.215   4.674  1.00  0.00     0.017 A 
ATOM     19  C   UNL     1       2.990   0.500   3.848  1.00  0.00     0.131 A 
BRANCH  15  20
ATOM     20  O   UNL     1       0.485   0.486   1.133  1.00  0.00    -0.497 OA
ATOM     21  C   UNL     1       1.098  -0.155   0.022  1.00  0.00     0.278 C 
ENDBRANCH  15  20
BRANCH  19  22
ATOM     22  O   UNL     1       4.304   0.777   4.123  1.00  0.00    -0.496 OA
ATOM     23  C   UNL     1       5.223   0.275   3.157  1.00  0.00     0.278 C 
ENDBRANCH  19  22
ENDBRANCH  13  14
ENDBRANCH   8  13
BRANCH  12  24
ATOM     24  C   UNL     1       2.102   4.435   4.296  1.00  0.00     0.004 A 
ATOM     25  C   UNL     1       3.333   4.029   3.723  1.00  0.00     0.008 A 
ATOM     26  C   UNL     1       1.384   5.396   3.554  1.00  0.00     0.122 A 
ATOM     27  C   UNL     1       3.802   4.490   2.487  1.00  0.00     0.001 A 
ATOM     28  C   UNL     1       1.836   5.815   2.286  1.00  0.00     0.047 A 
ATOM     29  C   UNL     1       3.040   5.375   1.753  1.00  0.00     0.004 A 
BRANCH  26  30
ATOM     30  O   UNL     1       0.184   5.973   3.853  1.00  0.00    -0.496 OA
ATOM     31  C   UNL     1       0.031   6.575   5.126  1.00  0.00     0.278 C 
ENDBRANCH  26  30
ENDBRANCH  12  24
ENDBRANCH   4   7
ENDBRANCH   2   3
ENDBRANCH   1   2
BRANCH   1  32
ATOM     32  C   UNL     1      -3.794   2.817   8.623  1.00  0.00     0.118 C 
BRANCH  32  33
ATOM     33  N   UNL     1      -4.919   1.924   8.367  1.00  0.00    -0.352 N 
ATOM     34  C   UNL     1      -5.759   1.297   9.248  1.00  0.00     0.251 C 
ATOM     35  H   UNL     1      -5.102   1.744   7.417  1.00  0.00     0.163 HD
ATOM     36  O   UNL     1      -6.389   0.306   8.879  1.00  0.00    -0.269 OA
BRANCH  34  37
ATOM     37  C   UNL     1      -5.936   1.827  10.613  1.00  0.00     0.039 A 
ATOM     38  C   UNL     1      -6.155   0.939  11.669  1.00  0.00     0.014 A 
ATOM     39  C   UNL     1      -5.967   3.206  10.837  1.00  0.00     0.014 A 
ATOM     40  C   UNL     1      -6.380   1.437  12.954  1.00  0.00     0.010 A 
ATOM     41  C   UNL     1      -6.104   3.697  12.129  1.00  0.00     0.010 A 
ATOM     42  C   UNL     1      -6.342   2.820  13.194  1.00  0.00    -0.014 A 
BRANCH  42  43
ATOM     43  C   UNL     1      -6.577   3.375  14.548  1.00  0.00     0.031 A 
ATOM     44  C   UNL     1      -7.757   4.279  14.795  1.00  0.00     0.074 A 
ATOM     45  C   UNL     1      -5.680   3.138  15.525  1.00  0.00     0.049 A 
ATOM     46  N   UNL     1      -8.099   4.904  15.891  1.00  0.00    -0.248 NA
ATOM     47  C   UNL     1      -8.653   4.544  13.654  1.00  0.00     0.031 C 
ATOM     48  C   UNL     1      -4.452   2.352  15.373  1.00  0.00     0.029 A 
ATOM     49  N   UNL     1      -5.647   3.554  16.831  1.00  0.00    -0.354 N 
ATOM     50  C   UNL     1      -9.212   5.670  15.560  1.00  0.00     0.074 A 
ATOM     51  C   UNL     1      -9.474   5.455  14.156  1.00  0.00     0.031 C 
ATOM     52  C   UNL     1      -3.792   2.337  16.542  1.00  0.00     0.029 A 
ATOM     53  C   UNL     1      -4.533   3.130  17.517  1.00  0.00     0.049 A 
ATOM     54  H   UNL     1      -6.354   4.105  17.238  1.00  0.00     0.167 HD
ATOM     55  C   UNL     1      -9.967   6.456  16.364  1.00  0.00     0.034 A 
ATOM     56  C   UNL     1      -4.155   3.358  18.790  1.00  0.00     0.034 A 
ATOM     57  C   UNL     1      -9.741   6.603  17.775  1.00  0.00     0.049 A 
ATOM     58  C   UNL     1      -5.059   4.171  19.677  1.00  0.00     0.074 A 
ATOM     59  C   UNL     1     -10.513   7.277  18.703  1.00  0.00     0.029 A 
ATOM     60  N   UNL     1      -8.663   6.066  18.461  1.00  0.00    -0.354 N 
ATOM     61  N   UNL     1      -6.206   4.737  19.390  1.00  0.00    -0.248 NA
ATOM     62  C   UNL     1      -4.638   4.343  21.075  1.00  0.00     0.031 C 
ATOM     63  C   UNL     1      -9.890   7.164  19.950  1.00  0.00     0.029 A 
ATOM     64  C   UNL     1      -8.743   6.401  19.800  1.00  0.00     0.049 A 
ATOM     65  H   UNL     1      -7.946   5.527  18.055  1.00  0.00     0.167 HD
ATOM     66  C   UNL     1      -6.663   5.296  20.577  1.00  0.00     0.074 A 
ATOM     67  C   UNL     1      -5.679   4.981  21.592  1.00  0.00     0.031 C 
ATOM     68  C   UNL     1      -7.786   6.020  20.806  1.00  0.00     0.034 A 
BRANCH  55  69
ATOM     69  C   UNL     1     -11.146   7.170  15.757  1.00  0.00     0.023 A 
ATOM     70  C   UNL     1     -12.291   6.434  15.389  1.00  0.00     0.012 A 
ATOM     71  C   UNL     1     -11.156   8.573  15.631  1.00  0.00     0.148 A 
ATOM     72  C   UNL     1     -13.418   7.080  14.881  1.00  0.00     0.002 A 
ATOM     73  C   UNL     1     -12.298   9.214  15.165  1.00  0.00     0.091 A 
ATOM     74  F   UNL     1     -10.050   9.252  15.968  1.00  0.00    -0.205 F 
ATOM     75  C   UNL     1     -13.425   8.469  14.781  1.00  0.00     0.022 A 
BRANCH  73  76
ATOM     76  S   UNL     1     -12.441  11.002  15.074  1.00  0.00     0.127 S 
ATOM     77  O   UNL     1     -12.497  11.220  13.628  1.00  0.00    -0.237 OA
ATOM     78  O   UNL     1     -13.702  11.245  15.775  1.00  0.00    -0.237 OA
ATOM     79  O   UNL     1     -11.261  11.536  15.737  1.00  0.00    -0.744 OA
ENDBRANCH  73  76
ENDBRANCH  55  69
BRANCH  56  80
ATOM     80  C   UNL     1      -2.907   2.743  19.325  1.00  0.00     0.023 A 
ATOM     81  C   UNL     1      -3.002   1.718  20.287  1.00  0.00     0.012 A 
ATOM     82  C   UNL     1      -1.635   3.153  18.885  1.00  0.00     0.148 A 
ATOM     83  C   UNL     1      -1.854   1.143  20.831  1.00  0.00     0.002 A 
ATOM     84  C   UNL     1      -0.495   2.537  19.391  1.00  0.00     0.091 A 
ATOM     85  F   UNL     1      -1.560   4.138  17.978  1.00  0.00    -0.205 F 
ATOM     86  C   UNL     1      -0.602   1.546  20.378  1.00  0.00     0.022 A 
BRANCH  84  87
ATOM     87  S   UNL     1       1.146   2.906  18.759  1.00  0.00     0.127 S 
ATOM     88  O   UNL     1       1.687   3.762  19.815  1.00  0.00    -0.237 OA
ATOM     89  O   UNL     1       1.751   1.574  18.680  1.00  0.00    -0.237 OA
ATOM     90  O   UNL     1       0.930   3.540  17.470  1.00  0.00    -0.744 OA
ENDBRANCH  84  87
ENDBRANCH  56  80
BRANCH  68  91
ATOM     91  C   UNL     1      -8.041   6.486  22.214  1.00  0.00     0.023 A 
ATOM     92  C   UNL     1      -7.270   7.534  22.754  1.00  0.00     0.012 A 
ATOM     93  C   UNL     1      -9.098   5.940  22.968  1.00  0.00     0.148 A 
ATOM     94  C   UNL     1      -7.528   8.011  24.038  1.00  0.00     0.002 A 
ATOM     95  C   UNL     1      -9.381   6.455  24.226  1.00  0.00     0.091 A 
ATOM     96  F   UNL     1      -9.806   4.931  22.441  1.00  0.00    -0.205 F 
ATOM     97  C   UNL     1      -8.590   7.481  24.768  1.00  0.00     0.022 A 
BRANCH  95  98
ATOM     98  S   UNL     1     -10.791   5.904  25.193  1.00  0.00     0.127 S 
ATOM     99  O   UNL     1     -10.145   5.103  26.232  1.00  0.00    -0.237 OA
ATOM    100  O   UNL     1     -11.360   7.168  25.662  1.00  0.00    -0.237 OA
ATOM    101  O   UNL     1     -11.644   5.165  24.271  1.00  0.00    -0.744 OA
ENDBRANCH  95  98
ENDBRANCH  68  91
ENDBRANCH  42  43
ENDBRANCH  34  37
ENDBRANCH  32  33
ENDBRANCH   1  32
TORSDOF 19
