REMARK SMILES O=C(NCCCNC(=O)c1ccc(-c2ccc(F)c(C(F)(F)F)c2)cc1[N+](=O)[O-])c1ccc(-c2c3nc(c(-c4cccc(S(=O)(=O)[O-])c4F)c4ccc([nH]4)c(-c4cccc(S(=O)(=O)[O-])c4F)c4nc(c(-c5cccc(S(=O)(=O)[O-])c5F)c5ccc2[nH]5)C=C4)C=C3)cc1
REMARK SMILES IDX 4 1 3 2 1 3 2 4 30 6 31 7 92 8 32 9 91 10 33 11 34 12 35 13
REMARK SMILES IDX 85 14 36 15 90 16 84 17 86 18 37 19 89 20 83 21 82 22 38 24
REMARK SMILES IDX 70 25 50 26 69 27 51 28 54 29 68 30 87 31 52 32 53 33 67 35
REMARK SMILES IDX 88 36 55 37 39 38 40 39 48 40 41 41 43 42 49 43 42 44 44 45
REMARK SMILES IDX 45 46 46 47 47 48 71 49 72 50 80 51 73 52 75 53 81 54 74 55
REMARK SMILES IDX 76 56 77 57 78 58 79 59 56 60 57 61 65 62 58 63 60 64 66 65
REMARK SMILES IDX 59 66 61 67 62 68 63 69 64 70 5 71 6 72 7 73 8 74 9 76 10 77
REMARK SMILES IDX 11 78 26 79 12 80 25 81 13 82 27 83 28 84 29 85 14 86 15 87
REMARK SMILES IDX 24 88 16 89 19 90 17 91 18 92 20 93 21 94 22 95 23 96
REMARK H PARENT 3 5 86 23 54 34 7 75
REMARK Flexibility Score: inf
ROOT
ATOM      1  C   UNL     1       4.593  -0.647   0.938  1.00  0.00     0.118 C 
ENDROOT
BRANCH   1   2
ATOM      2  N   UNL     1       3.144  -0.670   0.804  1.00  0.00    -0.352 N 
ATOM      3  O   UNL     1       1.116  -0.063   0.051  1.00  0.00    -0.269 OA
ATOM      4  C   UNL     1       2.327  -0.064  -0.122  1.00  0.00     0.251 C 
ATOM      5  H   UNL     1       2.674  -1.205   1.484  1.00  0.00     0.163 HD
BRANCH   4   6
ATOM      6  C   UNL     1       2.917   0.610  -1.299  1.00  0.00     0.039 A 
ATOM      7  C   UNL     1       3.962   0.021  -2.014  1.00  0.00     0.014 A 
ATOM      8  C   UNL     1       2.406   1.847  -1.699  1.00  0.00     0.014 A 
ATOM      9  C   UNL     1       4.608   0.736  -3.014  1.00  0.00     0.010 A 
ATOM     10  C   UNL     1       2.991   2.522  -2.773  1.00  0.00     0.010 A 
ATOM     11  C   UNL     1       4.120   1.989  -3.415  1.00  0.00    -0.014 A 
BRANCH  11  12
ATOM     12  C   UNL     1       4.752   2.695  -4.556  1.00  0.00     0.031 A 
ATOM     13  C   UNL     1       5.383   4.046  -4.379  1.00  0.00     0.074 A 
ATOM     14  C   UNL     1       4.710   2.119  -5.773  1.00  0.00     0.049 A 
ATOM     15  N   UNL     1       5.918   4.827  -5.281  1.00  0.00    -0.248 NA
ATOM     16  C   UNL     1       5.405   4.601  -3.016  1.00  0.00     0.031 C 
ATOM     17  C   UNL     1       4.083   0.829  -6.070  1.00  0.00     0.029 A 
ATOM     18  N   UNL     1       5.177   2.550  -6.988  1.00  0.00    -0.354 N 
ATOM     19  C   UNL     1       6.294   5.984  -4.610  1.00  0.00     0.074 A 
ATOM     20  C   UNL     1       5.926   5.804  -3.222  1.00  0.00     0.031 C 
ATOM     21  C   UNL     1       4.196   0.575  -7.380  1.00  0.00     0.029 A 
ATOM     22  C   UNL     1       4.849   1.708  -8.025  1.00  0.00     0.049 A 
ATOM     23  H   UNL     1       5.694   3.379  -7.107  1.00  0.00     0.167 HD
ATOM     24  C   UNL     1       6.900   7.090  -5.106  1.00  0.00     0.034 A 
ATOM     25  C   UNL     1       5.016   1.845  -9.354  1.00  0.00     0.034 A 
ATOM     26  C   UNL     1       7.295   7.242  -6.481  1.00  0.00     0.049 A 
ATOM     27  C   UNL     1       5.710   3.067  -9.876  1.00  0.00     0.074 A 
ATOM     28  C   UNL     1       7.994   8.283  -7.065  1.00  0.00     0.029 A 
ATOM     29  N   UNL     1       7.014   6.333  -7.491  1.00  0.00    -0.354 N 
ATOM     30  N   UNL     1       6.186   4.088  -9.206  1.00  0.00    -0.248 NA
ATOM     31  C   UNL     1       5.921   3.145 -11.327  1.00  0.00     0.031 C 
ATOM     32  C   UNL     1       8.113   8.016  -8.433  1.00  0.00     0.029 A 
ATOM     33  C   UNL     1       7.510   6.796  -8.697  1.00  0.00     0.049 A 
ATOM     34  H   UNL     1       6.532   5.483  -7.368  1.00  0.00     0.167 HD
ATOM     35  C   UNL     1       6.773   4.922 -10.149  1.00  0.00     0.074 A 
ATOM     36  C   UNL     1       6.608   4.276 -11.436  1.00  0.00     0.031 C 
ATOM     37  C   UNL     1       7.381   6.119  -9.964  1.00  0.00     0.034 A 
BRANCH  24  38
ATOM     38  C   UNL     1       7.199   8.214  -4.148  1.00  0.00     0.023 A 
ATOM     39  C   UNL     1       8.234   8.071  -3.202  1.00  0.00     0.012 A 
ATOM     40  C   UNL     1       6.490   9.430  -4.215  1.00  0.00     0.148 A 
ATOM     41  C   UNL     1       8.533   9.103  -2.313  1.00  0.00     0.002 A 
ATOM     42  C   UNL     1       6.821  10.470  -3.352  1.00  0.00     0.091 A 
ATOM     43  F   UNL     1       5.492   9.544  -5.104  1.00  0.00    -0.205 F 
ATOM     44  C   UNL     1       7.834  10.305  -2.394  1.00  0.00     0.022 A 
BRANCH  42  45
ATOM     45  S   UNL     1       6.021  12.076  -3.439  1.00  0.00     0.127 S 
ATOM     46  O   UNL     1       5.060  11.988  -2.341  1.00  0.00    -0.237 OA
ATOM     47  O   UNL     1       7.135  12.995  -3.200  1.00  0.00    -0.237 OA
ATOM     48  O   UNL     1       5.451  12.159  -4.777  1.00  0.00    -0.744 OA
ENDBRANCH  42  45
ENDBRANCH  24  38
BRANCH  25  49
ATOM     49  C   UNL     1       4.526   0.766 -10.254  1.00  0.00     0.023 A 
ATOM     50  C   UNL     1       5.450  -0.094 -10.875  1.00  0.00     0.012 A 
ATOM     51  C   UNL     1       3.146   0.521 -10.403  1.00  0.00     0.148 A 
ATOM     52  C   UNL     1       5.008  -1.177 -11.636  1.00  0.00     0.002 A 
ATOM     53  C   UNL     1       2.714  -0.592 -11.112  1.00  0.00     0.091 A 
ATOM     54  F   UNL     1       2.286   1.359  -9.807  1.00  0.00    -0.205 F 
ATOM     55  C   UNL     1       3.643  -1.435 -11.741  1.00  0.00     0.022 A 
BRANCH  53  56
ATOM     56  S   UNL     1       0.988  -1.089 -11.168  1.00  0.00     0.127 S 
ATOM     57  O   UNL     1       0.651  -0.840 -12.567  1.00  0.00    -0.237 OA
ATOM     58  O   UNL     1       1.070  -2.502 -10.795  1.00  0.00    -0.237 OA
ATOM     59  O   UNL     1       0.304  -0.250 -10.194  1.00  0.00    -0.744 OA
ENDBRANCH  53  56
ENDBRANCH  25  49
BRANCH  37  60
ATOM     60  C   UNL     1       7.947   6.809 -11.175  1.00  0.00     0.023 A 
ATOM     61  C   UNL     1       7.082   7.456 -12.078  1.00  0.00     0.012 A 
ATOM     62  C   UNL     1       9.341   6.904 -11.357  1.00  0.00     0.148 A 
ATOM     63  C   UNL     1       7.597   8.176 -13.155  1.00  0.00     0.002 A 
ATOM     64  C   UNL     1       9.847   7.661 -12.406  1.00  0.00     0.091 A 
ATOM     65  F   UNL     1      10.143   6.264 -10.494  1.00  0.00    -0.205 F 
ATOM     66  C   UNL     1       8.976   8.290 -13.312  1.00  0.00     0.022 A 
BRANCH  64  67
ATOM     67  S   UNL     1      11.607   7.943 -12.632  1.00  0.00     0.127 S 
ATOM     68  O   UNL     1      11.878   7.175 -13.846  1.00  0.00    -0.237 OA
ATOM     69  O   UNL     1      11.668   9.395 -12.800  1.00  0.00    -0.237 OA
ATOM     70  O   UNL     1      12.253   7.445 -11.424  1.00  0.00    -0.744 OA
ENDBRANCH  64  67
ENDBRANCH  37  60
ENDBRANCH  11  12
ENDBRANCH   4   6
ENDBRANCH   1   2
BRANCH   1  71
ATOM     71  C   UNL     1       5.065   0.115   2.167  1.00  0.00     0.042 C 
BRANCH  71  72
ATOM     72  C   UNL     1       4.565  -0.454   3.485  1.00  0.00     0.118 C 
BRANCH  72  73
ATOM     73  N   UNL     1       4.941  -1.848   3.674  1.00  0.00    -0.352 N 
ATOM     74  C   UNL     1       5.565  -2.463   4.723  1.00  0.00     0.258 C 
ATOM     75  H   UNL     1       4.709  -2.444   2.925  1.00  0.00     0.163 HD
ATOM     76  O   UNL     1       5.917  -3.635   4.646  1.00  0.00    -0.269 OA
BRANCH  74  77
ATOM     77  C   UNL     1       5.871  -1.709   5.947  1.00  0.00     0.117 A 
ATOM     78  C   UNL     1       7.204  -1.684   6.367  1.00  0.00     0.022 A 
ATOM     79  C   UNL     1       4.910  -1.064   6.721  1.00  0.00     0.282 A 
ATOM     80  C   UNL     1       7.562  -0.993   7.531  1.00  0.00     0.010 A 
ATOM     81  C   UNL     1       5.266  -0.341   7.867  1.00  0.00     0.095 A 
ATOM     82  C   UNL     1       6.602  -0.308   8.299  1.00  0.00    -0.012 A 
BRANCH  79  83
ATOM     83  N   UNL     1       3.500  -1.157   6.397  1.00  0.00     0.063 N 
ATOM     84  O   UNL     1       2.873  -0.091   6.333  1.00  0.00    -0.258 OA
ATOM     85  O   UNL     1       3.018  -2.286   6.249  1.00  0.00    -0.258 OA
ENDBRANCH  79  83
BRANCH  82  86
ATOM     86  C   UNL     1       6.972   0.375   9.551  1.00  0.00    -0.017 A 
ATOM     87  C   UNL     1       8.105   1.202   9.634  1.00  0.00     0.012 A 
ATOM     88  C   UNL     1       6.199   0.199  10.715  1.00  0.00     0.025 A 
ATOM     89  C   UNL     1       8.455   1.819  10.837  1.00  0.00     0.040 A 
ATOM     90  C   UNL     1       6.536   0.824  11.927  1.00  0.00     0.092 A 
ATOM     91  C   UNL     1       7.671   1.623  11.969  1.00  0.00     0.135 A 
ATOM     92  F   UNL     1       8.031   2.215  13.115  1.00  0.00    -0.206 F 
BRANCH  90  93
ATOM     93  C   UNL     1       5.717   0.629  13.165  1.00  0.00     0.419 C 
ATOM     94  F   UNL     1       6.381  -0.060  14.134  1.00  0.00    -0.166 F 
ATOM     95  F   UNL     1       5.314   1.798  13.733  1.00  0.00    -0.166 F 
ATOM     96  F   UNL     1       4.571  -0.077  12.938  1.00  0.00    -0.166 F 
ENDBRANCH  90  93
ENDBRANCH  82  86
ENDBRANCH  74  77
ENDBRANCH  72  73
ENDBRANCH  71  72
ENDBRANCH   1  71
TORSDOF 16
