REMARK SMILES Cc1ccccc1/[NH+]=C1\S[C@@H](CC(=O)Nc2ccc(C(=O)NCCCNC(=O)c3ccc(-c4c5nc(c(-c6cccc(S(=O)(=O)[O-])c6F)c6ccc([nH]6)c(-c6cccc(S(=O)(=O)[O-])c6F)c6nc(c(-c7cccc(S(=O)(=O)[O-])c7F)c7ccc4[nH]7)C=C6)C=C5)cc3)cc2)C(=O)N1C
REMARK SMILES IDX 23 1 22 2 20 3 21 4 19 6 16 7 17 8 93 9 18 10 92 11 15 12
REMARK SMILES IDX 13 13 14 14 12 16 11 17 8 18 9 19 10 21 96 22 94 23 97 24
REMARK SMILES IDX 95 25 7 26 1 27 2 28 3 29 4 30 6 31 5 32 24 33 25 34 26 35
REMARK SMILES IDX 27 36 28 38 29 39 30 40 91 41 31 42 90 43 32 44 33 45 34 46
REMARK SMILES IDX 84 47 35 48 89 49 83 50 85 51 36 52 88 53 82 54 81 55 37 57
REMARK SMILES IDX 69 58 49 59 68 60 50 61 53 62 67 63 86 64 51 65 52 66 66 68
REMARK SMILES IDX 87 69 54 70 38 71 39 72 47 73 40 74 42 75 48 76 41 77 43 78
REMARK SMILES IDX 44 79 45 80 46 81 70 82 71 83 79 84 72 85 74 86 80 87 73 88
REMARK SMILES IDX 75 89 76 90 77 91 78 92 55 93 56 94 64 95 57 96 59 97 65 98
REMARK SMILES IDX 58 99 60 100 61 101 62 102 63 103
REMARK H PARENT 22 5 15 15 8 20 26 37 85 56 53 67
REMARK Flexibility Score: inf
ROOT
ATOM      1  C   UNL     1       3.247   4.939  -3.005  1.00  0.00     0.118 C 
ENDROOT
BRANCH   1   2
ATOM      2  N   UNL     1       4.220   5.903  -3.515  1.00  0.00    -0.352 N 
ATOM      3  C   UNL     1       5.559   6.074  -3.227  1.00  0.00     0.251 C 
ATOM      4  O   UNL     1       6.259   6.757  -3.970  1.00  0.00    -0.269 OA
ATOM      5  H   UNL     1       3.860   6.538  -4.175  1.00  0.00     0.163 HD
BRANCH   3   6
ATOM      6  C   UNL     1       6.201   5.434  -2.050  1.00  0.00     0.039 A 
ATOM      7  C   UNL     1       7.403   4.104   0.100  1.00  0.00     0.041 A 
ATOM      8  C   UNL     1       6.154   4.697   0.240  1.00  0.00     0.027 A 
ATOM      9  C   UNL     1       8.145   4.339  -1.050  1.00  0.00     0.027 A 
ATOM     10  C   UNL     1       5.555   5.355  -0.824  1.00  0.00     0.016 A 
ATOM     11  C   UNL     1       7.534   4.993  -2.132  1.00  0.00     0.016 A 
BRANCH   7  12
ATOM     12  N   UNL     1       7.870   3.248   1.105  1.00  0.00    -0.326 N 
ATOM     13  C   UNL     1       7.183   2.153   1.591  1.00  0.00     0.226 C 
ATOM     14  O   UNL     1       7.521   1.607   2.641  1.00  0.00    -0.275 OA
ATOM     15  H   UNL     1       8.754   3.441   1.493  1.00  0.00     0.169 HD
BRANCH  13  16
ATOM     16  C   UNL     1       6.148   1.515   0.671  1.00  0.00     0.128 C 
BRANCH  16  17
ATOM     17  C   UNL     1       4.717   1.493   1.163  1.00  0.00     0.183 C 
ATOM     18  N   UNL     1       1.061   1.837   0.691  1.00  0.00    -0.234 N 
ATOM     19  C   UNL     1       2.321   2.053   0.609  1.00  0.00     0.319 C 
ATOM     20  H   UNL     1       0.552   2.512   1.195  1.00  0.00     0.313 HD
ATOM     21  S   UNL     1       3.574   1.218  -0.248  1.00  0.00    -0.022 SA
ATOM     22  N   UNL     1       2.901   3.045   1.345  1.00  0.00    -0.193 N 
ATOM     23  C   UNL     1       4.161   2.744   1.820  1.00  0.00     0.324 C 
ATOM     24  C   UNL     1       2.183   4.215   1.808  1.00  0.00     0.301 C 
ATOM     25  O   UNL     1       4.709   3.333   2.745  1.00  0.00    -0.245 OA
BRANCH  18  26
ATOM     26  C   UNL     1       0.298   0.783   0.168  1.00  0.00     0.128 A 
ATOM     27  C   UNL     1       1.855  -1.198   0.764  1.00  0.00     0.049 C 
ATOM     28  C   UNL     1       0.572  -0.600   0.262  1.00  0.00    -0.004 A 
ATOM     29  C   UNL     1      -0.417  -1.530  -0.126  1.00  0.00     0.008 A 
ATOM     30  C   UNL     1      -1.687  -1.119  -0.518  1.00  0.00     0.001 A 
ATOM     31  C   UNL     1      -0.989   1.168  -0.252  1.00  0.00     0.052 A 
ATOM     32  C   UNL     1      -1.976   0.235  -0.577  1.00  0.00     0.004 A 
ENDBRANCH  18  26
ENDBRANCH  16  17
ENDBRANCH  13  16
ENDBRANCH   7  12
ENDBRANCH   3   6
ENDBRANCH   1   2
BRANCH   1  33
ATOM     33  C   UNL     1       2.316   5.520  -1.942  1.00  0.00     0.042 C 
BRANCH  33  34
ATOM     34  C   UNL     1       1.074   6.213  -2.484  1.00  0.00     0.118 C 
BRANCH  34  35
ATOM     35  N   UNL     1      -0.161   5.475  -2.237  1.00  0.00    -0.352 N 
ATOM     36  C   UNL     1      -1.484   5.867  -2.443  1.00  0.00     0.251 C 
ATOM     37  H   UNL     1      -0.044   4.568  -1.872  1.00  0.00     0.163 HD
ATOM     38  O   UNL     1      -2.386   5.125  -2.143  1.00  0.00    -0.269 OA
BRANCH  36  39
ATOM     39  C   UNL     1      -1.728   7.154  -3.153  1.00  0.00     0.039 A 
ATOM     40  C   UNL     1      -2.475   7.119  -4.335  1.00  0.00     0.014 A 
ATOM     41  C   UNL     1      -0.984   8.279  -2.822  1.00  0.00     0.014 A 
ATOM     42  C   UNL     1      -2.234   8.079  -5.317  1.00  0.00     0.010 A 
ATOM     43  C   UNL     1      -0.654   9.158  -3.831  1.00  0.00     0.010 A 
ATOM     44  C   UNL     1      -1.218   9.006  -5.105  1.00  0.00    -0.014 A 
BRANCH  44  45
ATOM     45  C   UNL     1      -0.602   9.822  -6.145  1.00  0.00     0.031 A 
ATOM     46  C   UNL     1      -0.835  11.289  -6.149  1.00  0.00     0.074 A 
ATOM     47  C   UNL     1       0.325   9.275  -6.971  1.00  0.00     0.049 A 
ATOM     48  N   UNL     1      -0.414  12.082  -7.071  1.00  0.00    -0.248 NA
ATOM     49  C   UNL     1      -1.574  11.980  -5.098  1.00  0.00     0.031 C 
ATOM     50  C   UNL     1       1.310  10.002  -7.775  1.00  0.00     0.029 A 
ATOM     51  N   UNL     1       0.508   7.953  -7.395  1.00  0.00    -0.354 N 
ATOM     52  C   UNL     1      -0.622  13.379  -6.659  1.00  0.00     0.074 A 
ATOM     53  C   UNL     1      -1.371  13.259  -5.431  1.00  0.00     0.031 C 
ATOM     54  C   UNL     1       1.716   9.212  -8.780  1.00  0.00     0.029 A 
ATOM     55  C   UNL     1       0.856   8.047  -8.758  1.00  0.00     0.049 A 
ATOM     56  H   UNL     1       0.413   7.134  -6.857  1.00  0.00     0.167 HD
ATOM     57  C   UNL     1      -0.049  14.388  -7.375  1.00  0.00     0.034 A 
ATOM     58  C   UNL     1       0.058   7.653  -9.800  1.00  0.00     0.034 A 
ATOM     59  C   UNL     1       0.556  13.878  -8.614  1.00  0.00     0.049 A 
ATOM     60  C   UNL     1      -0.238   8.753 -10.827  1.00  0.00     0.074 A 
ATOM     61  C   UNL     1       1.832  13.523  -9.021  1.00  0.00     0.029 A 
ATOM     62  N   UNL     1      -0.298  13.411  -9.594  1.00  0.00    -0.354 N 
ATOM     63  N   UNL     1       0.205   9.980 -10.754  1.00  0.00    -0.248 NA
ATOM     64  C   UNL     1      -1.145   8.572 -11.966  1.00  0.00     0.031 C 
ATOM     65  C   UNL     1       1.718  12.806 -10.253  1.00  0.00     0.029 A 
ATOM     66  C   UNL     1       0.379  12.746 -10.597  1.00  0.00     0.049 A 
ATOM     67  H   UNL     1      -1.274  13.538  -9.578  1.00  0.00     0.167 HD
ATOM     68  C   UNL     1      -0.469  10.765 -11.656  1.00  0.00     0.074 A 
ATOM     69  C   UNL     1      -1.264   9.829 -12.429  1.00  0.00     0.031 C 
ATOM     70  C   UNL     1      -0.404  12.132 -11.661  1.00  0.00     0.034 A 
BRANCH  57  71
ATOM     71  C   UNL     1       0.133  15.820  -6.912  1.00  0.00     0.023 A 
ATOM     72  C   UNL     1       1.138  16.580  -7.553  1.00  0.00     0.012 A 
ATOM     73  C   UNL     1      -0.555  16.469  -5.862  1.00  0.00     0.148 A 
ATOM     74  C   UNL     1       1.503  17.861  -7.127  1.00  0.00     0.002 A 
ATOM     75  C   UNL     1      -0.144  17.718  -5.387  1.00  0.00     0.091 A 
ATOM     76  F   UNL     1      -1.667  15.930  -5.361  1.00  0.00    -0.205 F 
ATOM     77  C   UNL     1       0.886  18.417  -6.019  1.00  0.00     0.022 A 
BRANCH  75  78
ATOM     78  S   UNL     1      -0.834  18.458  -3.895  1.00  0.00     0.127 S 
ATOM     79  O   UNL     1       0.369  18.716  -3.100  1.00  0.00    -0.237 OA
ATOM     80  O   UNL     1      -1.488  19.658  -4.410  1.00  0.00    -0.237 OA
ATOM     81  O   UNL     1      -1.722  17.457  -3.315  1.00  0.00    -0.744 OA
ENDBRANCH  75  78
ENDBRANCH  57  71
BRANCH  58  82
ATOM     82  C   UNL     1      -0.888   6.553  -9.448  1.00  0.00     0.023 A 
ATOM     83  C   UNL     1      -0.327   5.336  -8.992  1.00  0.00     0.012 A 
ATOM     84  C   UNL     1      -2.253   6.795  -9.223  1.00  0.00     0.148 A 
ATOM     85  C   UNL     1      -1.064   4.465  -8.190  1.00  0.00     0.002 A 
ATOM     86  C   UNL     1      -2.989   5.909  -8.440  1.00  0.00     0.091 A 
ATOM     87  F   UNL     1      -2.805   7.909  -9.720  1.00  0.00    -0.205 F 
ATOM     88  C   UNL     1      -2.385   4.772  -7.884  1.00  0.00     0.022 A 
BRANCH  86  89
ATOM     89  S   UNL     1      -4.694   6.258  -7.991  1.00  0.00     0.127 S 
ATOM     90  O   UNL     1      -5.422   5.528  -9.024  1.00  0.00    -0.237 OA
ATOM     91  O   UNL     1      -4.785   5.686  -6.647  1.00  0.00    -0.237 OA
ATOM     92  O   UNL     1      -4.795   7.710  -8.025  1.00  0.00    -0.744 OA
ENDBRANCH  86  89
ENDBRANCH  58  82
BRANCH  70  93
ATOM     93  C   UNL     1      -1.112  13.004 -12.681  1.00  0.00     0.023 A 
ATOM     94  C   UNL     1      -1.132  12.633 -14.040  1.00  0.00     0.012 A 
ATOM     95  C   UNL     1      -1.642  14.279 -12.355  1.00  0.00     0.148 A 
ATOM     96  C   UNL     1      -1.693  13.461 -15.020  1.00  0.00     0.002 A 
ATOM     97  C   UNL     1      -2.105  15.140 -13.346  1.00  0.00     0.091 A 
ATOM     98  F   UNL     1      -1.750  14.648 -11.074  1.00  0.00    -0.205 F 
ATOM     99  C   UNL     1      -2.159  14.723 -14.677  1.00  0.00     0.022 A 
BRANCH  97 100
ATOM    100  S   UNL     1      -2.533  16.856 -13.007  1.00  0.00     0.127 S 
ATOM    101  O   UNL     1      -1.775  17.562 -14.043  1.00  0.00    -0.237 OA
ATOM    102  O   UNL     1      -3.980  16.850 -13.210  1.00  0.00    -0.237 OA
ATOM    103  O   UNL     1      -2.080  17.120 -11.649  1.00  0.00    -0.744 OA
ENDBRANCH  97 100
ENDBRANCH  70  93
ENDBRANCH  44  45
ENDBRANCH  36  39
ENDBRANCH  34  35
ENDBRANCH  33  34
ENDBRANCH   1  33
TORSDOF 17
