REMARK SMILES C[C@H]1C[C@H]([N@@H+]2CCOC[C@@H]2C(=O)NCCCNC(=O)c2ccc(-c3c4nc(c(-c5cccc(S(=O)(=O)[O-])c5F)c5ccc([nH]5)c(-c5cccc(S(=O)(=O)[O-])c5F)c5nc(c(-c6cccc(S(=O)(=O)[O-])c6F)c6ccc3[nH]6)C=C5)C=C4)cc2)CS1
REMARK SMILES IDX 16 1 15 2 14 3 13 4 11 5 12 6 10 8 5 9 6 10 7 12 9 13 8 14
REMARK SMILES IDX 4 15 1 16 2 17 3 18 84 19 83 20 17 21 18 22 19 24 20 25
REMARK SMILES IDX 21 26 82 27 22 28 81 29 23 30 24 31 25 32 75 33 26 34 80 35
REMARK SMILES IDX 74 36 76 37 27 38 79 39 73 40 72 41 28 43 60 44 40 45 59 46
REMARK SMILES IDX 41 47 44 48 58 49 77 50 42 51 43 52 57 54 78 55 45 56 29 57
REMARK SMILES IDX 30 58 38 59 31 60 33 61 39 62 32 63 34 64 35 65 36 66 37 67
REMARK SMILES IDX 61 68 62 69 70 70 63 71 65 72 71 73 64 74 66 75 67 76 68 77
REMARK SMILES IDX 69 78 46 79 47 80 55 81 48 82 50 83 56 84 49 85 51 86 52 87
REMARK SMILES IDX 53 88 54 89
REMARK H PARENT 13 7 5 11 17 23 76 42 44 53
REMARK Flexibility Score: inf
ROOT
ATOM      1  C   UNL     1       5.379  -1.512  -2.283  1.00  0.00     0.118 C 
ENDROOT
BRANCH   1   2
ATOM      2  C   UNL     1       5.062  -1.189  -0.830  1.00  0.00     0.042 C 
BRANCH   2   3
ATOM      3  C   UNL     1       3.634  -1.549  -0.456  1.00  0.00     0.118 C 
BRANCH   3   4
ATOM      4  N   UNL     1       3.470  -2.983  -0.344  1.00  0.00    -0.351 N 
ATOM      5  C   UNL     1       3.112  -3.820   0.656  1.00  0.00     0.280 C 
ATOM      6  O   UNL     1       3.135  -5.025   0.365  1.00  0.00    -0.268 OA
ATOM      7  H   UNL     1       3.662  -3.456  -1.186  1.00  0.00     0.163 HD
BRANCH   5   8
ATOM      8  C   UNL     1       2.662  -3.386   2.059  1.00  0.00     0.300 C 
ATOM      9  N   UNL     1       1.251  -3.768   2.373  1.00  0.00    -0.318 N 
ATOM     10  C   UNL     1       1.029  -3.572   3.822  1.00  0.00     0.292 C 
ATOM     11  H   UNL     1       1.213  -4.747   2.091  1.00  0.00     0.349 HD
ATOM     12  C   UNL     1       1.499  -2.216   4.370  1.00  0.00     0.221 C 
ATOM     13  C   UNL     1       3.080  -2.025   2.627  1.00  0.00     0.235 C 
ATOM     14  O   UNL     1       2.872  -1.966   4.049  1.00  0.00    -0.369 OA
BRANCH   9  15
ATOM     15  C   UNL     1       0.118  -3.360   1.521  1.00  0.00     0.195 C 
ATOM     16  C   UNL     1      -1.411  -0.822  -0.661  1.00  0.00     0.019 C 
ATOM     17  C   UNL     1      -0.118  -1.475  -0.184  1.00  0.00     0.049 C 
ATOM     18  C   UNL     1      -0.182  -1.871   1.292  1.00  0.00     0.080 C 
ATOM     19  S   UNL     1       0.202  -2.961  -1.158  1.00  0.00    -0.152 SA
ATOM     20  C   UNL     1      -0.043  -4.125   0.196  1.00  0.00     0.134 C 
ENDBRANCH   9  15
ENDBRANCH   5   8
ENDBRANCH   3   4
ENDBRANCH   2   3
ENDBRANCH   1   2
BRANCH   1  21
ATOM     21  N   UNL     1       4.605  -0.687  -3.204  1.00  0.00    -0.352 N 
ATOM     22  C   UNL     1       5.034   0.244  -4.117  1.00  0.00     0.251 C 
ATOM     23  H   UNL     1       3.630  -0.819  -3.167  1.00  0.00     0.163 HD
ATOM     24  O   UNL     1       4.228   1.022  -4.617  1.00  0.00    -0.269 OA
BRANCH  22  25
ATOM     25  C   UNL     1       6.463   0.302  -4.491  1.00  0.00     0.039 A 
ATOM     26  C   UNL     1       7.060   1.543  -4.722  1.00  0.00     0.014 A 
ATOM     27  C   UNL     1       7.204  -0.872  -4.643  1.00  0.00     0.014 A 
ATOM     28  C   UNL     1       8.409   1.601  -5.077  1.00  0.00     0.010 A 
ATOM     29  C   UNL     1       8.569  -0.805  -4.878  1.00  0.00     0.010 A 
ATOM     30  C   UNL     1       9.178   0.427  -5.144  1.00  0.00    -0.014 A 
BRANCH  30  31
ATOM     31  C   UNL     1      10.602   0.459  -5.556  1.00  0.00     0.031 A 
ATOM     32  C   UNL     1      11.040  -0.285  -6.792  1.00  0.00     0.074 A 
ATOM     33  C   UNL     1      11.508   1.097  -4.790  1.00  0.00     0.049 A 
ATOM     34  N   UNL     1      12.237  -0.402  -7.304  1.00  0.00    -0.248 NA
ATOM     35  C   UNL     1      10.004  -1.028  -7.532  1.00  0.00     0.031 C 
ATOM     36  C   UNL     1      11.221   1.773  -3.522  1.00  0.00     0.029 A 
ATOM     37  N   UNL     1      12.857   1.267  -4.958  1.00  0.00    -0.354 N 
ATOM     38  C   UNL     1      12.104  -1.259  -8.391  1.00  0.00     0.074 A 
ATOM     39  C   UNL     1      10.722  -1.678  -8.434  1.00  0.00     0.031 C 
ATOM     40  C   UNL     1      12.357   2.301  -3.038  1.00  0.00     0.029 A 
ATOM     41  C   UNL     1      13.454   1.981  -3.946  1.00  0.00     0.049 A 
ATOM     42  H   UNL     1      13.353   0.911  -5.731  1.00  0.00     0.167 HD
ATOM     43  C   UNL     1      13.035  -1.634  -9.299  1.00  0.00     0.034 A 
ATOM     44  C   UNL     1      14.740   2.342  -3.776  1.00  0.00     0.034 A 
ATOM     45  C   UNL     1      14.394  -1.168  -9.284  1.00  0.00     0.049 A 
ATOM     46  C   UNL     1      15.741   1.978  -4.840  1.00  0.00     0.074 A 
ATOM     47  C   UNL     1      15.400  -1.412 -10.201  1.00  0.00     0.029 A 
ATOM     48  N   UNL     1      14.938  -0.358  -8.299  1.00  0.00    -0.354 N 
ATOM     49  N   UNL     1      15.562   1.295  -5.945  1.00  0.00    -0.248 NA
ATOM     50  C   UNL     1      17.111   2.477  -4.657  1.00  0.00     0.031 C 
ATOM     51  C   UNL     1      16.559  -0.766  -9.758  1.00  0.00     0.029 A 
ATOM     52  C   UNL     1      16.265  -0.090  -8.584  1.00  0.00     0.049 A 
ATOM     53  H   UNL     1      14.451  -0.023  -7.511  1.00  0.00     0.167 HD
ATOM     54  C   UNL     1      16.782   1.320  -6.611  1.00  0.00     0.074 A 
ATOM     55  C   UNL     1      17.684   2.106  -5.793  1.00  0.00     0.031 C 
ATOM     56  C   UNL     1      17.130   0.738  -7.785  1.00  0.00     0.034 A 
BRANCH  43  57
ATOM     57  C   UNL     1      12.596  -2.548 -10.415  1.00  0.00     0.023 A 
ATOM     58  C   UNL     1      11.715  -2.068 -11.407  1.00  0.00     0.012 A 
ATOM     59  C   UNL     1      13.081  -3.867 -10.506  1.00  0.00     0.148 A 
ATOM     60  C   UNL     1      11.289  -2.897 -12.444  1.00  0.00     0.002 A 
ATOM     61  C   UNL     1      12.693  -4.671 -11.572  1.00  0.00     0.091 A 
ATOM     62  F   UNL     1      13.900  -4.316  -9.544  1.00  0.00    -0.205 F 
ATOM     63  C   UNL     1      11.786  -4.194 -12.532  1.00  0.00     0.022 A 
BRANCH  61  64
ATOM     64  S   UNL     1      13.342  -6.327 -11.825  1.00  0.00     0.127 S 
ATOM     65  O   UNL     1      12.165  -7.151 -11.552  1.00  0.00    -0.237 OA
ATOM     66  O   UNL     1      13.745  -6.286 -13.231  1.00  0.00    -0.237 OA
ATOM     67  O   UNL     1      14.441  -6.477 -10.882  1.00  0.00    -0.744 OA
ENDBRANCH  61  64
ENDBRANCH  43  57
BRANCH  44  68
ATOM     68  C   UNL     1      15.136   3.167  -2.599  1.00  0.00     0.023 A 
ATOM     69  C   UNL     1      15.514   4.511  -2.790  1.00  0.00     0.012 A 
ATOM     70  C   UNL     1      15.123   2.636  -1.295  1.00  0.00     0.148 A 
ATOM     71  C   UNL     1      15.911   5.299  -1.710  1.00  0.00     0.002 A 
ATOM     72  C   UNL     1      15.465   3.444  -0.217  1.00  0.00     0.091 A 
ATOM     73  F   UNL     1      14.765   1.355  -1.135  1.00  0.00    -0.205 F 
ATOM     74  C   UNL     1      15.879   4.769  -0.424  1.00  0.00     0.022 A 
BRANCH  72  75
ATOM     75  S   UNL     1      15.328   2.888   1.485  1.00  0.00     0.127 S 
ATOM     76  O   UNL     1      16.730   2.786   1.881  1.00  0.00    -0.237 OA
ATOM     77  O   UNL     1      14.591   3.991   2.104  1.00  0.00    -0.237 OA
ATOM     78  O   UNL     1      14.592   1.632   1.431  1.00  0.00    -0.744 OA
ENDBRANCH  72  75
ENDBRANCH  44  68
BRANCH  56  79
ATOM     79  C   UNL     1      18.531   0.973  -8.287  1.00  0.00     0.023 A 
ATOM     80  C   UNL     1      19.628   0.382  -7.628  1.00  0.00     0.012 A 
ATOM     81  C   UNL     1      18.753   1.746  -9.444  1.00  0.00     0.148 A 
ATOM     82  C   UNL     1      20.927   0.599  -8.084  1.00  0.00     0.002 A 
ATOM     83  C   UNL     1      20.047   1.910  -9.924  1.00  0.00     0.091 A 
ATOM     84  F   UNL     1      17.700   2.316 -10.047  1.00  0.00    -0.205 F 
ATOM     85  C   UNL     1      21.136   1.353  -9.236  1.00  0.00     0.022 A 
BRANCH  83  86
ATOM     86  S   UNL     1      20.391   2.778 -11.458  1.00  0.00     0.127 S 
ATOM     87  O   UNL     1      20.890   4.062 -10.970  1.00  0.00    -0.237 OA
ATOM     88  O   UNL     1      21.406   1.925 -12.079  1.00  0.00    -0.237 OA
ATOM     89  O   UNL     1      19.126   2.827 -12.179  1.00  0.00    -0.744 OA
ENDBRANCH  83  86
ENDBRANCH  56  79
ENDBRANCH  30  31
ENDBRANCH  22  25
ENDBRANCH   1  21
TORSDOF 14
