REMARK SMILES Cc1nc(-c2cccc(N3C[C@H](C(=O)NCCCNC(=O)c4ccc(-c5c6nc(c(-c7cccc(S(=O)(=O)[O-])c7F)c7ccc([nH]7)c(-c7cccc(S(=O)(=O)[O-])c7F)c7nc(c(-c8cccc(S(=O)(=O)[O-])c8F)c8ccc5[nH]8)C=C7)C=C6)cc4)CC3=O)c2)no1
REMARK SMILES IDX 17 1 16 2 15 3 13 4 14 5 12 7 10 8 11 9 86 10 85 11 87 12
REMARK SMILES IDX 9 13 5 14 6 15 88 16 7 17 8 18 4 19 1 20 2 21 3 22 90 23
REMARK SMILES IDX 89 24 18 25 19 26 20 27 21 29 22 30 23 31 84 32 24 33 83 34
REMARK SMILES IDX 25 35 26 36 27 37 77 38 28 39 82 40 76 41 78 42 29 43 81 44
REMARK SMILES IDX 75 45 74 46 30 48 62 49 42 50 61 51 43 52 46 53 60 54 79 55
REMARK SMILES IDX 44 56 45 57 59 59 80 60 47 61 31 62 32 63 40 64 33 65 35 66
REMARK SMILES IDX 41 67 34 68 36 69 37 70 38 71 39 72 63 73 64 74 72 75 65 76
REMARK SMILES IDX 67 77 73 78 66 79 68 80 69 81 70 82 71 83 48 84 49 85 57 86
REMARK SMILES IDX 50 87 52 88 58 89 51 90 53 91 54 92 55 93 56 94
REMARK H PARENT 15 6 19 28 78 47 46 58
REMARK Flexibility Score: inf
ROOT
ATOM      1  C   UNL     1       5.997   9.486   4.149  1.00  0.00     0.042 C 
ENDROOT
BRANCH   1   2
ATOM      2  C   UNL     1       5.905   8.469   3.015  1.00  0.00     0.117 C 
BRANCH   2   3
ATOM      3  N   UNL     1       6.545   7.211   3.367  1.00  0.00    -0.356 N 
ATOM      4  C   UNL     1       5.985   6.030   3.763  1.00  0.00     0.225 C 
ATOM      5  O   UNL     1       6.726   5.111   4.102  1.00  0.00    -0.275 OA
ATOM      6  H   UNL     1       7.528   7.210   3.311  1.00  0.00     0.163 HD
BRANCH   4   7
ATOM      7  C   UNL     1       4.482   5.873   3.665  1.00  0.00     0.107 C 
ATOM      8  N   UNL     1       3.887   4.018   2.349  1.00  0.00    -0.312 N 
ATOM      9  C   UNL     1       4.149   5.431   2.250  1.00  0.00     0.139 C 
ATOM     10  C   UNL     1       3.686   3.605   3.664  1.00  0.00     0.227 C 
ATOM     11  C   UNL     1       3.924   4.782   4.572  1.00  0.00     0.116 C 
ATOM     12  O   UNL     1       3.358   2.496   4.063  1.00  0.00    -0.274 OA
BRANCH   8  13
ATOM     13  C   UNL     1       3.727   3.192   1.218  1.00  0.00     0.044 A 
ATOM     14  C   UNL     1       2.508   1.445   0.041  1.00  0.00     0.025 A 
ATOM     15  C   UNL     1       3.443   1.497  -0.999  1.00  0.00     0.012 A 
ATOM     16  C   UNL     1       2.674   2.274   1.158  1.00  0.00     0.038 A 
ATOM     17  C   UNL     1       4.497   2.409  -0.946  1.00  0.00     0.003 A 
ATOM     18  C   UNL     1       4.622   3.272   0.145  1.00  0.00     0.026 A 
BRANCH  14  19
ATOM     19  C   UNL     1       1.335   0.593  -0.054  1.00  0.00     0.202 A 
ATOM     20  C   UNL     1      -2.148  -0.092   0.091  1.00  0.00     0.114 C 
ATOM     21  C   UNL     1      -0.685   0.035  -0.002  1.00  0.00     0.223 A 
ATOM     22  N   UNL     1       0.086   1.048   0.312  1.00  0.00    -0.191 NA
ATOM     23  O   UNL     1      -0.003  -1.028  -0.514  1.00  0.00    -0.339 OA
ATOM     24  N   UNL     1       1.339  -0.647  -0.569  1.00  0.00    -0.057 NA
ENDBRANCH  14  19
ENDBRANCH   8  13
ENDBRANCH   4   7
ENDBRANCH   2   3
ENDBRANCH   1   2
BRANCH   1  25
ATOM     25  C   UNL     1       7.423   9.932   4.471  1.00  0.00     0.118 C 
BRANCH  25  26
ATOM     26  N   UNL     1       8.072  10.590   3.345  1.00  0.00    -0.352 N 
ATOM     27  C   UNL     1       8.687  11.815   3.267  1.00  0.00     0.251 C 
ATOM     28  H   UNL     1       8.070  10.073   2.507  1.00  0.00     0.163 HD
ATOM     29  O   UNL     1       9.017  12.246   2.165  1.00  0.00    -0.269 OA
BRANCH  27  30
ATOM     30  C   UNL     1       8.942  12.619   4.483  1.00  0.00     0.039 A 
ATOM     31  C   UNL     1       8.750  14.003   4.424  1.00  0.00     0.014 A 
ATOM     32  C   UNL     1       9.404  12.030   5.663  1.00  0.00     0.014 A 
ATOM     33  C   UNL     1       8.968  14.786   5.561  1.00  0.00     0.010 A 
ATOM     34  C   UNL     1       9.552  12.801   6.814  1.00  0.00     0.010 A 
ATOM     35  C   UNL     1       9.343  14.188   6.775  1.00  0.00    -0.014 A 
BRANCH  35  36
ATOM     36  C   UNL     1       9.509  14.994   8.012  1.00  0.00     0.031 A 
ATOM     37  C   UNL     1      10.849  15.086   8.691  1.00  0.00     0.074 A 
ATOM     38  C   UNL     1       8.431  15.577   8.574  1.00  0.00     0.049 A 
ATOM     39  N   UNL     1      11.171  15.702   9.799  1.00  0.00    -0.248 NA
ATOM     40  C   UNL     1      11.969  14.370   8.058  1.00  0.00     0.031 C 
ATOM     41  C   UNL     1       7.062  15.498   8.059  1.00  0.00     0.029 A 
ATOM     42  N   UNL     1       8.311  16.329   9.716  1.00  0.00    -0.354 N 
ATOM     43  C   UNL     1      12.514  15.417  10.018  1.00  0.00     0.074 A 
ATOM     44  C   UNL     1      12.940  14.548   8.943  1.00  0.00     0.031 C 
ATOM     45  C   UNL     1       6.243  16.178   8.877  1.00  0.00     0.029 A 
ATOM     46  C   UNL     1       7.020  16.718   9.988  1.00  0.00     0.049 A 
ATOM     47  H   UNL     1       9.077  16.567  10.287  1.00  0.00     0.167 HD
ATOM     48  C   UNL     1      13.328  15.860  11.007  1.00  0.00     0.034 A 
ATOM     49  C   UNL     1       6.516  17.427  11.018  1.00  0.00     0.034 A 
ATOM     50  C   UNL     1      12.915  16.765  12.046  1.00  0.00     0.049 A 
ATOM     51  C   UNL     1       7.451  17.947  12.076  1.00  0.00     0.074 A 
ATOM     52  C   UNL     1      13.688  17.351  13.033  1.00  0.00     0.029 A 
ATOM     53  N   UNL     1      11.617  17.210  12.238  1.00  0.00    -0.354 N 
ATOM     54  N   UNL     1       8.751  17.807  12.170  1.00  0.00    -0.248 NA
ATOM     55  C   UNL     1       6.855  18.755  13.150  1.00  0.00     0.031 C 
ATOM     56  C   UNL     1      12.851  18.134  13.836  1.00  0.00     0.029 A 
ATOM     57  C   UNL     1      11.563  18.055  13.334  1.00  0.00     0.049 A 
ATOM     58  H   UNL     1      10.846  16.962  11.678  1.00  0.00     0.167 HD
ATOM     59  C   UNL     1       9.134  18.540  13.287  1.00  0.00     0.074 A 
ATOM     60  C   UNL     1       7.930  19.139  13.826  1.00  0.00     0.031 C 
ATOM     61  C   UNL     1      10.368  18.692  13.827  1.00  0.00     0.034 A 
BRANCH  48  62
ATOM     62  C   UNL     1      14.768  15.416  10.982  1.00  0.00     0.023 A 
ATOM     63  C   UNL     1      15.637  15.930   9.998  1.00  0.00     0.012 A 
ATOM     64  C   UNL     1      15.275  14.540  11.961  1.00  0.00     0.148 A 
ATOM     65  C   UNL     1      16.979  15.552   9.966  1.00  0.00     0.002 A 
ATOM     66  C   UNL     1      16.624  14.203  11.950  1.00  0.00     0.091 A 
ATOM     67  F   UNL     1      14.431  14.044  12.877  1.00  0.00    -0.205 F 
ATOM     68  C   UNL     1      17.474  14.698  10.947  1.00  0.00     0.022 A 
BRANCH  66  69
ATOM     69  S   UNL     1      17.375  13.175  13.218  1.00  0.00     0.127 S 
ATOM     70  O   UNL     1      17.600  11.927  12.490  1.00  0.00    -0.237 OA
ATOM     71  O   UNL     1      18.593  13.920  13.540  1.00  0.00    -0.237 OA
ATOM     72  O   UNL     1      16.405  13.103  14.301  1.00  0.00    -0.744 OA
ENDBRANCH  66  69
ENDBRANCH  48  62
BRANCH  49  73
ATOM     73  C   UNL     1       5.063  17.755  11.055  1.00  0.00     0.023 A 
ATOM     74  C   UNL     1       4.653  19.085  10.838  1.00  0.00     0.012 A 
ATOM     75  C   UNL     1       4.088  16.763  11.272  1.00  0.00     0.148 A 
ATOM     76  C   UNL     1       3.301  19.428  10.870  1.00  0.00     0.002 A 
ATOM     77  C   UNL     1       2.739  17.101  11.247  1.00  0.00     0.091 A 
ATOM     78  F   UNL     1       4.498  15.505  11.487  1.00  0.00    -0.205 F 
ATOM     79  C   UNL     1       2.344  18.436  11.064  1.00  0.00     0.022 A 
BRANCH  77  80
ATOM     80  S   UNL     1       1.436  15.869  11.353  1.00  0.00     0.127 S 
ATOM     81  O   UNL     1       0.899  16.115  12.688  1.00  0.00    -0.237 OA
ATOM     82  O   UNL     1       0.556  16.263  10.252  1.00  0.00    -0.237 OA
ATOM     83  O   UNL     1       2.096  14.585  11.160  1.00  0.00    -0.744 OA
ENDBRANCH  77  80
ENDBRANCH  49  73
BRANCH  61  84
ATOM     84  C   UNL     1      10.496  19.570  15.044  1.00  0.00     0.023 A 
ATOM     85  C   UNL     1      10.011  19.119  16.288  1.00  0.00     0.012 A 
ATOM     86  C   UNL     1      11.159  20.811  14.969  1.00  0.00     0.148 A 
ATOM     87  C   UNL     1      10.155  19.905  17.432  1.00  0.00     0.002 A 
ATOM     88  C   UNL     1      11.342  21.566  16.122  1.00  0.00     0.091 A 
ATOM     89  F   UNL     1      11.596  21.232  13.773  1.00  0.00    -0.205 F 
ATOM     90  C   UNL     1      10.830  21.120  17.351  1.00  0.00     0.022 A 
BRANCH  88  91
ATOM     91  S   UNL     1      12.284  23.096  16.128  1.00  0.00     0.127 S 
ATOM     92  O   UNL     1      11.225  24.097  16.237  1.00  0.00    -0.237 OA
ATOM     93  O   UNL     1      13.110  22.950  17.326  1.00  0.00    -0.237 OA
ATOM     94  O   UNL     1      13.033  23.108  14.878  1.00  0.00    -0.744 OA
ENDBRANCH  88  91
ENDBRANCH  61  84
ENDBRANCH  35  36
ENDBRANCH  27  30
ENDBRANCH  25  26
ENDBRANCH   1  25
TORSDOF 15
