REMARK SMILES COc1ccc2c(c1C)OC(=O)[C@@H](CC(=O)N[C@@H](CC1=c3ccccc3=NC1)C(=O)NCCCNC(=O)c1ccc(-c3c4nc(c(-c5cccc(S(=O)(=O)[O-])c5F)c5ccc([nH]5)c(-c5cccc(S(=O)(=O)[O-])c5F)c5nc(c(-c6cccc(S(=O)(=O)[O-])c6F)c6ccc3[nH]6)C=C5)C=C4)cc1)[C@H]2C
REMARK SMILES IDX 32 1 31 2 29 3 30 4 18 6 17 7 15 8 16 9 14 11 13 12 3 13
REMARK SMILES IDX 4 14 8 15 5 16 7 17 9 18 6 19 10 20 101 21 11 22 102 23
REMARK SMILES IDX 12 24 2 25 1 26 19 27 20 28 21 29 28 30 22 31 26 32 27 33
REMARK SMILES IDX 23 34 25 35 24 36 33 37 34 38 35 39 36 40 37 42 38 43 39 44
REMARK SMILES IDX 100 45 40 46 99 47 41 48 42 49 43 50 93 51 44 52 98 53 92 54
REMARK SMILES IDX 94 55 45 56 97 57 91 58 90 59 46 61 78 62 58 63 77 64 59 65
REMARK SMILES IDX 62 66 76 67 95 68 60 69 61 70 75 72 96 73 63 74 47 75 48 76
REMARK SMILES IDX 56 77 49 78 51 79 57 80 50 81 52 82 53 83 54 84 55 85 79 86
REMARK SMILES IDX 80 87 88 88 81 89 83 90 89 91 82 92 84 93 85 94 86 95 87 96
REMARK SMILES IDX 64 97 65 98 73 99 66 100 68 101 74 102 67 103 69 104 70 105
REMARK SMILES IDX 71 106 72 107
REMARK H PARENT 31 5 17 10 35 41 94 60 62 71
REMARK Flexibility Score: inf
ROOT
ATOM      1  C   UNL     1       6.481   9.081  -0.640  1.00  0.00     0.117 C 
ENDROOT
BRANCH   1   2
ATOM      2  N   UNL     1       6.588   8.148   0.457  1.00  0.00    -0.354 N 
ATOM      3  C   UNL     1       5.633   7.355   1.000  1.00  0.00     0.242 C 
ATOM      4  O   UNL     1       6.004   6.476   1.786  1.00  0.00    -0.273 OA
ATOM      5  H   UNL     1       7.479   8.079   0.868  1.00  0.00     0.163 HD
BRANCH   3   6
ATOM      6  C   UNL     1       4.143   7.471   0.629  1.00  0.00     0.175 C 
BRANCH   6   7
ATOM      7  N   UNL     1       3.514   8.758   0.916  1.00  0.00    -0.344 N 
ATOM      8  C   UNL     1       2.447   9.078   1.701  1.00  0.00     0.221 C 
ATOM      9  O   UNL     1       2.021  10.231   1.631  1.00  0.00    -0.275 OA
ATOM     10  H   UNL     1       3.933   9.526   0.464  1.00  0.00     0.164 HD
BRANCH   8  11
ATOM     11  C   UNL     1       1.839   8.089   2.687  1.00  0.00     0.116 C 
BRANCH  11  12
ATOM     12  C   UNL     1       1.311   6.792   2.064  1.00  0.00     0.116 C 
ATOM     13  C   UNL     1       0.762   2.261   0.172  1.00  0.00     0.125 A 
ATOM     14  C   UNL     1       2.081   2.332   0.639  1.00  0.00     0.047 A 
ATOM     15  C   UNL     1      -0.158   3.279   0.479  1.00  0.00     0.034 A 
ATOM     16  C   UNL     1       2.483   3.380   1.464  1.00  0.00     0.012 A 
ATOM     17  C   UNL     1       0.277   4.333   1.297  1.00  0.00     0.140 A 
ATOM     18  C   UNL     1      -1.557   3.276  -0.067  1.00  0.00     0.052 C 
ATOM     19  C   UNL     1       1.573   4.378   1.812  1.00  0.00    -0.001 A 
ATOM     20  O   UNL     1      -0.631   5.373   1.616  1.00  0.00    -0.426 OA
ATOM     21  C   UNL     1       1.981   5.540   2.671  1.00  0.00     0.035 C 
ATOM     22  C   UNL     1      -0.194   6.598   2.144  1.00  0.00     0.315 C 
ATOM     23  C   UNL     1       1.694   5.308   4.153  1.00  0.00     0.014 C 
ATOM     24  O   UNL     1      -0.989   7.431   2.557  1.00  0.00    -0.251 OA
BRANCH  13  25
ATOM     25  O   UNL     1       0.337   1.236  -0.636  1.00  0.00    -0.496 OA
ATOM     26  C   UNL     1       0.808  -0.050  -0.238  1.00  0.00     0.278 C 
ENDBRANCH  13  25
ENDBRANCH  11  12
ENDBRANCH   8  11
ENDBRANCH   6   7
BRANCH   6  27
ATOM     27  C   UNL     1       3.735   6.807  -0.718  1.00  0.00     0.068 C 
BRANCH  27  28
ATOM     28  C   UNL     1       3.998   7.546  -1.993  1.00  0.00    -0.037 C 
ATOM     29  C   UNL     1       3.565   8.745  -2.380  1.00  0.00     0.001 A 
ATOM     30  C   UNL     1       4.971   6.996  -2.994  1.00  0.00     0.174 C 
ATOM     31  C   UNL     1       2.660   9.718  -1.859  1.00  0.00     0.010 A 
ATOM     32  C   UNL     1       4.507   9.074  -3.466  1.00  0.00     0.065 A 
ATOM     33  N   UNL     1       5.296   8.131  -3.885  1.00  0.00    -0.280 NA
ATOM     34  C   UNL     1       2.771  10.991  -2.271  1.00  0.00     0.001 A 
ATOM     35  C   UNL     1       4.562  10.495  -3.877  1.00  0.00     0.028 A 
ATOM     36  C   UNL     1       3.762  11.381  -3.259  1.00  0.00     0.002 A 
ENDBRANCH  27  28
ENDBRANCH   6  27
ENDBRANCH   3   6
ENDBRANCH   1   2
BRANCH   1  37
ATOM     37  C   UNL     1       7.235  10.372  -0.424  1.00  0.00     0.042 C 
BRANCH  37  38
ATOM     38  C   UNL     1       8.730  10.156  -0.298  1.00  0.00     0.118 C 
BRANCH  38  39
ATOM     39  N   UNL     1       9.321   9.604  -1.513  1.00  0.00    -0.352 N 
ATOM     40  C   UNL     1       9.903  10.241  -2.587  1.00  0.00     0.251 C 
ATOM     41  H   UNL     1       9.301   8.622  -1.575  1.00  0.00     0.163 HD
ATOM     42  O   UNL     1      10.152   9.623  -3.611  1.00  0.00    -0.269 OA
BRANCH  40  43
ATOM     43  C   UNL     1      10.202  11.684  -2.494  1.00  0.00     0.039 A 
ATOM     44  C   UNL     1       9.907  12.525  -3.570  1.00  0.00     0.014 A 
ATOM     45  C   UNL     1      10.773  12.199  -1.331  1.00  0.00     0.014 A 
ATOM     46  C   UNL     1      10.120  13.899  -3.443  1.00  0.00     0.010 A 
ATOM     47  C   UNL     1      10.864  13.569  -1.160  1.00  0.00     0.010 A 
ATOM     48  C   UNL     1      10.572  14.430  -2.225  1.00  0.00    -0.014 A 
BRANCH  48  49
ATOM     49  C   UNL     1      10.838  15.873  -2.042  1.00  0.00     0.031 A 
ATOM     50  C   UNL     1      12.241  16.317  -1.728  1.00  0.00     0.074 A 
ATOM     51  C   UNL     1       9.822  16.756  -2.053  1.00  0.00     0.049 A 
ATOM     52  N   UNL     1      12.675  17.504  -1.399  1.00  0.00    -0.248 NA
ATOM     53  C   UNL     1      13.291  15.281  -1.747  1.00  0.00     0.031 C 
ATOM     54  C   UNL     1       8.413  16.429  -2.279  1.00  0.00     0.029 A 
ATOM     55  N   UNL     1       9.821  18.112  -1.847  1.00  0.00    -0.354 N 
ATOM     56  C   UNL     1      14.028  17.347  -1.133  1.00  0.00     0.074 A 
ATOM     57  C   UNL     1      14.340  15.946  -1.290  1.00  0.00     0.031 C 
ATOM     58  C   UNL     1       7.686  17.557  -2.218  1.00  0.00     0.029 A 
ATOM     59  C   UNL     1       8.571  18.679  -1.921  1.00  0.00     0.049 A 
ATOM     60  H   UNL     1      10.637  18.630  -1.663  1.00  0.00     0.167 HD
ATOM     61  C   UNL     1      14.944  18.293  -0.830  1.00  0.00     0.034 A 
ATOM     62  C   UNL     1       8.188  19.962  -1.772  1.00  0.00     0.034 A 
ATOM     63  C   UNL     1      14.647  19.694  -0.757  1.00  0.00     0.049 A 
ATOM     64  C   UNL     1       9.231  21.004  -1.480  1.00  0.00     0.074 A 
ATOM     65  C   UNL     1      15.518  20.745  -0.547  1.00  0.00     0.029 A 
ATOM     66  N   UNL     1      13.382  20.237  -0.911  1.00  0.00    -0.354 N 
ATOM     67  N   UNL     1      10.526  20.853  -1.339  1.00  0.00    -0.248 NA
ATOM     68  C   UNL     1       8.770  22.394  -1.353  1.00  0.00     0.031 C 
ATOM     69  C   UNL     1      14.777  21.930  -0.574  1.00  0.00     0.029 A 
ATOM     70  C   UNL     1      13.446  21.612  -0.804  1.00  0.00     0.049 A 
ATOM     71  H   UNL     1      12.559  19.720  -1.071  1.00  0.00     0.167 HD
ATOM     72  C   UNL     1      11.038  22.127  -1.126  1.00  0.00     0.074 A 
ATOM     73  C   UNL     1       9.915  23.041  -1.171  1.00  0.00     0.031 C 
ATOM     74  C   UNL     1      12.320  22.503  -0.899  1.00  0.00     0.034 A 
BRANCH  61  75
ATOM     75  C   UNL     1      16.368  17.851  -0.648  1.00  0.00     0.023 A 
ATOM     76  C   UNL     1      17.133  17.524  -1.786  1.00  0.00     0.012 A 
ATOM     77  C   UNL     1      16.962  17.808   0.626  1.00  0.00     0.148 A 
ATOM     78  C   UNL     1      18.465  17.140  -1.658  1.00  0.00     0.002 A 
ATOM     79  C   UNL     1      18.302  17.457   0.744  1.00  0.00     0.091 A 
ATOM     80  F   UNL     1      16.207  18.103   1.694  1.00  0.00    -0.205 F 
ATOM     81  C   UNL     1      19.052  17.117  -0.396  1.00  0.00     0.022 A 
BRANCH  79  82
ATOM     82  S   UNL     1      19.171  17.440   2.315  1.00  0.00     0.127 S 
ATOM     83  O   UNL     1      19.490  16.020   2.460  1.00  0.00    -0.237 OA
ATOM     84  O   UNL     1      20.321  18.299   2.036  1.00  0.00    -0.237 OA
ATOM     85  O   UNL     1      18.236  17.967   3.300  1.00  0.00    -0.744 OA
ENDBRANCH  79  82
ENDBRANCH  61  75
BRANCH  62  86
ATOM     86  C   UNL     1       6.764  20.329  -1.994  1.00  0.00     0.023 A 
ATOM     87  C   UNL     1       6.404  20.939  -3.211  1.00  0.00     0.012 A 
ATOM     88  C   UNL     1       5.764  20.012  -1.056  1.00  0.00     0.148 A 
ATOM     89  C   UNL     1       5.069  21.235  -3.489  1.00  0.00     0.002 A 
ATOM     90  C   UNL     1       4.432  20.278  -1.354  1.00  0.00     0.091 A 
ATOM     91  F   UNL     1       6.135  19.427   0.091  1.00  0.00    -0.205 F 
ATOM     92  C   UNL     1       4.084  20.898  -2.566  1.00  0.00     0.022 A 
BRANCH  90  93
ATOM     93  S   UNL     1       3.078  19.795  -0.278  1.00  0.00     0.127 S 
ATOM     94  O   UNL     1       2.472  21.086   0.039  1.00  0.00    -0.237 OA
ATOM     95  O   UNL     1       2.286  18.942  -1.165  1.00  0.00    -0.237 OA
ATOM     96  O   UNL     1       3.692  19.102   0.846  1.00  0.00    -0.744 OA
ENDBRANCH  90  93
ENDBRANCH  62  86
BRANCH  74  97
ATOM     97  C   UNL     1      12.600  23.963  -0.686  1.00  0.00     0.023 A 
ATOM     98  C   UNL     1      12.355  24.529   0.579  1.00  0.00     0.012 A 
ATOM     99  C   UNL     1      13.239  24.724  -1.683  1.00  0.00     0.148 A 
ATOM    100  C   UNL     1      12.741  25.840   0.850  1.00  0.00     0.002 A 
ATOM    101  C   UNL     1      13.652  26.019  -1.395  1.00  0.00     0.091 A 
ATOM    102  F   UNL     1      13.453  24.158  -2.879  1.00  0.00    -0.205 F 
ATOM    103  C   UNL     1      13.401  26.579  -0.131  1.00  0.00     0.022 A 
BRANCH 101 104
ATOM    104  S   UNL     1      14.581  27.020  -2.562  1.00  0.00     0.127 S 
ATOM    105  O   UNL     1      13.625  28.084  -2.866  1.00  0.00    -0.237 OA
ATOM    106  O   UNL     1      15.729  27.442  -1.760  1.00  0.00    -0.237 OA
ATOM    107  O   UNL     1      14.907  26.143  -3.678  1.00  0.00    -0.744 OA
ENDBRANCH 101 104
ENDBRANCH  74  97
ENDBRANCH  48  49
ENDBRANCH  40  43
ENDBRANCH  38  39
ENDBRANCH  37  38
ENDBRANCH   1  37
TORSDOF 19
