REMARK SMILES CCSCC[C@@H]1CCC[C@@]1([NH3+])C(=O)NCCCNC(=O)c1ccc(-c2c3nc(c(-c4cccc(S(=O)(=O)[O-])c4F)c4ccc([nH]4)c(-c4cccc(S(=O)(=O)[O-])c4F)c4nc(c(-c5cccc(S(=O)(=O)[O-])c5F)c5ccc2[nH]5)C=C4)C=C3)cc1
REMARK SMILES IDX 15 1 14 2 12 3 13 4 10 6 6 7 7 8 8 9 9 10 5 11 4 12 3 13
REMARK SMILES IDX 2 14 1 15 11 16 16 20 17 21 18 22 19 23 20 25 21 26 22 27
REMARK SMILES IDX 83 28 23 29 82 30 24 31 25 32 26 33 76 34 27 35 81 36 75 37
REMARK SMILES IDX 77 38 28 39 80 40 74 41 73 42 29 44 61 45 41 46 60 47 42 48
REMARK SMILES IDX 45 49 59 50 78 51 43 52 44 53 58 55 79 56 46 57 30 58 31 59
REMARK SMILES IDX 39 60 32 61 34 62 40 63 33 64 35 65 36 66 37 67 38 68 62 69
REMARK SMILES IDX 63 70 71 71 64 72 66 73 72 74 65 75 67 76 68 77 69 78 70 79
REMARK SMILES IDX 47 80 48 81 56 82 49 83 51 84 57 85 50 86 52 87 53 88 54 89
REMARK SMILES IDX 55 90
REMARK H PARENT 14 5 11 17 11 18 11 19 18 24 77 43 45 54
REMARK Flexibility Score: inf
ROOT
ATOM      1  C   UNL     1       6.896   1.428   0.409  1.00  0.00     0.118 C 
ENDROOT
BRANCH   1   2
ATOM      2  N   UNL     1       5.667   0.659   0.447  1.00  0.00    -0.351 N 
ATOM      3  C   UNL     1       4.488   0.785  -0.212  1.00  0.00     0.281 C 
ATOM      4  O   UNL     1       3.545   0.160   0.277  1.00  0.00    -0.268 OA
ATOM      5  H   UNL     1       5.694  -0.101   1.071  1.00  0.00     0.163 HD
BRANCH   3   6
ATOM      6  C   UNL     1       4.325   1.670  -1.470  1.00  0.00     0.176 C 
ATOM      7  C   UNL     1       3.037   1.322  -2.272  1.00  0.00     0.061 C 
ATOM      8  C   UNL     1       2.818   2.584  -3.124  1.00  0.00     0.011 C 
ATOM      9  C   UNL     1       3.324   3.749  -2.272  1.00  0.00     0.008 C 
ATOM     10  C   UNL     1       4.012   3.120  -1.060  1.00  0.00     0.079 C 
BRANCH   7  11
ATOM     11  C   UNL     1       3.060   0.049  -3.146  1.00  0.00     0.021 C 
BRANCH  11  12
ATOM     12  C   UNL     1       2.567  -1.237  -2.472  1.00  0.00     0.070 C 
BRANCH  12  13
ATOM     13  S   UNL     1       0.785  -1.608  -2.717  1.00  0.00    -0.162 SA
BRANCH  13  14
ATOM     14  C   UNL     1      -0.022  -0.321  -1.710  1.00  0.00     0.066 C 
ATOM     15  C   UNL     1       0.215  -0.480  -0.220  1.00  0.00     0.015 C 
ENDBRANCH  13  14
ENDBRANCH  12  13
ENDBRANCH  11  12
ENDBRANCH   7  11
BRANCH   6  16
ATOM     16  N   UNL     1       5.498   1.605  -2.371  1.00  0.00    -0.345 N 
ATOM     17  H   UNL     1       5.338   2.204  -3.181  1.00  0.00     0.345 HD
ATOM     18  H   UNL     1       5.636   0.643  -2.682  1.00  0.00     0.345 HD
ATOM     19  H   UNL     1       6.329   1.923  -1.871  1.00  0.00     0.345 HD
ENDBRANCH   6  16
ENDBRANCH   3   6
ENDBRANCH   1   2
BRANCH   1  20
ATOM     20  C   UNL     1       7.119   2.186   1.710  1.00  0.00     0.042 C 
BRANCH  20  21
ATOM     21  C   UNL     1       7.133   1.302   2.951  1.00  0.00     0.118 C 
BRANCH  21  22
ATOM     22  N   UNL     1       8.188   0.296   2.916  1.00  0.00    -0.352 N 
ATOM     23  C   UNL     1       9.374   0.237   3.614  1.00  0.00     0.251 C 
ATOM     24  H   UNL     1       8.028  -0.456   2.301  1.00  0.00     0.163 HD
ATOM     25  O   UNL     1      10.229  -0.578   3.301  1.00  0.00    -0.269 OA
BRANCH  23  26
ATOM     26  C   UNL     1       9.611   1.184   4.724  1.00  0.00     0.039 A 
ATOM     27  C   UNL     1      10.835   1.853   4.804  1.00  0.00     0.014 A 
ATOM     28  C   UNL     1       8.613   1.426   5.668  1.00  0.00     0.014 A 
ATOM     29  C   UNL     1      11.020   2.834   5.782  1.00  0.00     0.010 A 
ATOM     30  C   UNL     1       8.762   2.469   6.572  1.00  0.00     0.010 A 
ATOM     31  C   UNL     1       9.967   3.183   6.643  1.00  0.00    -0.014 A 
BRANCH  31  32
ATOM     32  C   UNL     1      10.084   4.294   7.622  1.00  0.00     0.031 A 
ATOM     33  C   UNL     1       9.896   4.019   9.090  1.00  0.00     0.074 A 
ATOM     34  C   UNL     1      10.229   5.560   7.183  1.00  0.00     0.049 A 
ATOM     35  N   UNL     1       9.819   4.864  10.084  1.00  0.00    -0.248 NA
ATOM     36  C   UNL     1       9.736   2.610   9.489  1.00  0.00     0.031 C 
ATOM     37  C   UNL     1      10.340   5.965   5.780  1.00  0.00     0.029 A 
ATOM     38  N   UNL     1      10.268   6.747   7.872  1.00  0.00    -0.354 N 
ATOM     39  C   UNL     1       9.552   4.098  11.213  1.00  0.00     0.074 A 
ATOM     40  C   UNL     1       9.446   2.724  10.777  1.00  0.00     0.031 C 
ATOM     41  C   UNL     1      10.434   7.302   5.712  1.00  0.00     0.029 A 
ATOM     42  C   UNL     1      10.352   7.855   7.059  1.00  0.00     0.049 A 
ATOM     43  H   UNL     1      10.239   6.801   8.855  1.00  0.00     0.167 HD
ATOM     44  C   UNL     1       9.435   4.498  12.501  1.00  0.00     0.034 A 
ATOM     45  C   UNL     1      10.346   9.168   7.364  1.00  0.00     0.034 A 
ATOM     46  C   UNL     1       9.598   5.857  12.937  1.00  0.00     0.049 A 
ATOM     47  C   UNL     1      10.262   9.582   8.808  1.00  0.00     0.074 A 
ATOM     48  C   UNL     1       9.600   6.351  14.229  1.00  0.00     0.029 A 
ATOM     49  N   UNL     1       9.787   6.940  12.093  1.00  0.00    -0.354 N 
ATOM     50  N   UNL     1      10.166   8.829   9.877  1.00  0.00    -0.248 NA
ATOM     51  C   UNL     1      10.318  11.023   9.093  1.00  0.00     0.031 C 
ATOM     52  C   UNL     1       9.767   7.738  14.165  1.00  0.00     0.029 A 
ATOM     53  C   UNL     1       9.898   8.103  12.834  1.00  0.00     0.049 A 
ATOM     54  H   UNL     1       9.835   6.890  11.111  1.00  0.00     0.167 HD
ATOM     55  C   UNL     1      10.190   9.700  10.961  1.00  0.00     0.074 A 
ATOM     56  C   UNL     1      10.326  11.036  10.419  1.00  0.00     0.031 C 
ATOM     57  C   UNL     1      10.094   9.419  12.284  1.00  0.00     0.034 A 
BRANCH  44  58
ATOM     58  C   UNL     1       9.171   3.440  13.541  1.00  0.00     0.023 A 
ATOM     59  C   UNL     1      10.187   2.522  13.874  1.00  0.00     0.012 A 
ATOM     60  C   UNL     1       7.942   3.389  14.227  1.00  0.00     0.148 A 
ATOM     61  C   UNL     1       9.973   1.545  14.845  1.00  0.00     0.002 A 
ATOM     62  C   UNL     1       7.752   2.442  15.228  1.00  0.00     0.091 A 
ATOM     63  F   UNL     1       6.979   4.256  13.883  1.00  0.00    -0.205 F 
ATOM     64  C   UNL     1       8.761   1.512  15.528  1.00  0.00     0.022 A 
BRANCH  62  65
ATOM     65  S   UNL     1       6.258   2.369  16.223  1.00  0.00     0.127 S 
ATOM     66  O   UNL     1       5.635   1.142  15.729  1.00  0.00    -0.237 OA
ATOM     67  O   UNL     1       6.797   2.276  17.580  1.00  0.00    -0.237 OA
ATOM     68  O   UNL     1       5.529   3.598  15.942  1.00  0.00    -0.744 OA
ENDBRANCH  62  65
ENDBRANCH  44  58
BRANCH  45  69
ATOM     69  C   UNL     1      10.486  10.185   6.283  1.00  0.00     0.023 A 
ATOM     70  C   UNL     1      11.680  10.925   6.184  1.00  0.00     0.012 A 
ATOM     71  C   UNL     1       9.463  10.403   5.339  1.00  0.00     0.148 A 
ATOM     72  C   UNL     1      11.841  11.887   5.186  1.00  0.00     0.002 A 
ATOM     73  C   UNL     1       9.652  11.323   4.314  1.00  0.00     0.091 A 
ATOM     74  F   UNL     1       8.330   9.696   5.455  1.00  0.00    -0.205 F 
ATOM     75  C   UNL     1      10.832  12.079   4.246  1.00  0.00     0.022 A 
BRANCH  73  76
ATOM     76  S   UNL     1       8.465  11.538   2.982  1.00  0.00     0.127 S 
ATOM     77  O   UNL     1       7.912  12.856   3.284  1.00  0.00    -0.237 OA
ATOM     78  O   UNL     1       9.325  11.485   1.799  1.00  0.00    -0.237 OA
ATOM     79  O   UNL     1       7.538  10.420   3.098  1.00  0.00    -0.744 OA
ENDBRANCH  73  76
ENDBRANCH  45  69
BRANCH  57  80
ATOM     80  C   UNL     1      10.177  10.568  13.253  1.00  0.00     0.023 A 
ATOM     81  C   UNL     1       9.090  11.453  13.388  1.00  0.00     0.012 A 
ATOM     82  C   UNL     1      11.297  10.711  14.097  1.00  0.00     0.148 A 
ATOM     83  C   UNL     1       9.126  12.479  14.331  1.00  0.00     0.002 A 
ATOM     84  C   UNL     1      11.305  11.704  15.068  1.00  0.00     0.091 A 
ATOM     85  F   UNL     1      12.328   9.868  13.939  1.00  0.00    -0.205 F 
ATOM     86  C   UNL     1      10.226  12.596  15.179  1.00  0.00     0.022 A 
BRANCH  84  87
ATOM     87  S   UNL     1      12.631  11.869  16.267  1.00  0.00     0.127 S 
ATOM     88  O   UNL     1      13.282  13.101  15.825  1.00  0.00    -0.237 OA
ATOM     89  O   UNL     1      11.896  11.986  17.527  1.00  0.00    -0.237 OA
ATOM     90  O   UNL     1      13.436  10.661  16.146  1.00  0.00    -0.744 OA
ENDBRANCH  84  87
ENDBRANCH  57  80
ENDBRANCH  31  32
ENDBRANCH  23  26
ENDBRANCH  21  22
ENDBRANCH  20  21
ENDBRANCH   1  20
TORSDOF 18
