REMARK SMILES C[C@]1(C(=O)N2CCC(CC(=O)NCCCNC(=O)c3ccc(-c4c5nc(c(-c6cccc(S(=O)(=O)[O-])c6F)c6ccc([nH]6)c(-c6cccc(S(=O)(=O)[O-])c6F)c6nc(c(-c7cccc(S(=O)(=O)[O-])c7F)c7ccc4[nH]7)C=C6)C=C5)cc3)CC2)CCC[NH2+]C1
REMARK SMILES IDX 14 1 13 2 12 3 10 4 11 5 9 7 8 8 3 9 4 10 5 11 6 12 83 13
REMARK SMILES IDX 7 14 82 15 2 16 1 17 84 18 88 19 85 20 87 21 86 22 15 25
REMARK SMILES IDX 16 26 17 27 18 29 19 30 20 31 81 32 21 33 80 34 22 35 23 36
REMARK SMILES IDX 24 37 74 38 25 39 79 40 73 41 75 42 26 43 78 44 72 45 71 46
REMARK SMILES IDX 27 48 59 49 39 50 58 51 40 52 43 53 57 54 76 55 41 56 42 57
REMARK SMILES IDX 56 59 77 60 44 61 28 62 29 63 37 64 30 65 32 66 38 67 31 68
REMARK SMILES IDX 33 69 34 70 35 71 36 72 60 73 61 74 69 75 62 76 64 77 70 78
REMARK SMILES IDX 63 79 65 80 66 81 67 82 68 83 45 84 46 85 54 86 47 87 49 88
REMARK SMILES IDX 55 89 48 90 50 91 51 92 52 93 53 94
REMARK H PARENT 12 6 87 23 87 24 16 28 75 47 43 58
REMARK Flexibility Score: inf
ROOT
ATOM      1  C   UNL     1       4.152  -0.205  -4.652  1.00  0.00     0.042 C 
ENDROOT
BRANCH   1   2
ATOM      2  C   UNL     1       5.222  -1.173  -4.131  1.00  0.00     0.117 C 
BRANCH   2   3
ATOM      3  N   UNL     1       6.405  -0.503  -3.601  1.00  0.00    -0.356 N 
ATOM      4  C   UNL     1       6.903  -0.380  -2.337  1.00  0.00     0.220 C 
ATOM      5  O   UNL     1       7.984   0.200  -2.201  1.00  0.00    -0.275 OA
ATOM      6  H   UNL     1       6.948  -0.053  -4.288  1.00  0.00     0.163 HD
BRANCH   4   7
ATOM      7  C   UNL     1       6.169  -0.924  -1.123  1.00  0.00     0.103 C 
BRANCH   7   8
ATOM      8  C   UNL     1       5.270   0.124  -0.418  1.00  0.00     0.002 C 
ATOM      9  C   UNL     1       1.221  -0.315   0.564  1.00  0.00     0.234 C 
ATOM     10  O   UNL     1       0.689  -0.121   1.662  1.00  0.00    -0.274 OA
ATOM     11  N   UNL     1       2.490   0.175   0.331  1.00  0.00    -0.342 N 
ATOM     12  C   UNL     1       3.456   0.191   1.415  1.00  0.00     0.120 C 
ATOM     13  C   UNL     1       2.847   1.023  -0.779  1.00  0.00     0.120 C 
ATOM     14  C   UNL     1       4.761  -0.439   0.927  1.00  0.00     0.026 C 
ATOM     15  C   UNL     1       4.149   0.539  -1.380  1.00  0.00     0.026 C 
BRANCH   9  16
ATOM     16  C   UNL     1       0.505  -1.148  -0.544  1.00  0.00     0.095 C 
ATOM     17  C   UNL     1      -0.431  -0.231  -1.353  1.00  0.00     0.028 C 
ATOM     18  C   UNL     1       1.412  -1.927  -1.527  1.00  0.00     0.028 C 
ATOM     19  C   UNL     1      -0.334  -2.224   0.206  1.00  0.00     0.277 C 
ATOM     20  C   UNL     1       2.248  -3.001  -0.837  1.00  0.00     0.063 C 
ATOM     21  N   UNL     1       0.509  -3.212   0.903  1.00  0.00    -0.345 N 
ATOM     22  C   UNL     1       1.383  -3.941  -0.004  1.00  0.00     0.260 C 
ATOM     23  H   UNL     1       1.085  -2.724   1.590  1.00  0.00     0.346 HD
ATOM     24  H   UNL     1      -0.111  -3.890   1.346  1.00  0.00     0.346 HD
ENDBRANCH   9  16
ENDBRANCH   7   8
ENDBRANCH   4   7
ENDBRANCH   2   3
ENDBRANCH   1   2
BRANCH   1  25
ATOM     25  C   UNL     1       4.566   0.626  -5.859  1.00  0.00     0.118 C 
BRANCH  25  26
ATOM     26  N   UNL     1       4.268  -0.057  -7.105  1.00  0.00    -0.352 N 
ATOM     27  C   UNL     1       3.327   0.234  -8.064  1.00  0.00     0.251 C 
ATOM     28  H   UNL     1       4.824  -0.847  -7.291  1.00  0.00     0.163 HD
ATOM     29  O   UNL     1       3.058  -0.625  -8.902  1.00  0.00    -0.269 OA
BRANCH  27  30
ATOM     30  C   UNL     1       2.630   1.547  -8.107  1.00  0.00     0.039 A 
ATOM     31  C   UNL     1       1.292   1.581  -8.518  1.00  0.00     0.014 A 
ATOM     32  C   UNL     1       3.288   2.749  -7.831  1.00  0.00     0.014 A 
ATOM     33  C   UNL     1       0.615   2.802  -8.621  1.00  0.00     0.010 A 
ATOM     34  C   UNL     1       2.591   3.959  -7.859  1.00  0.00     0.010 A 
ATOM     35  C   UNL     1       1.252   4.005  -8.276  1.00  0.00    -0.014 A 
BRANCH  35  36
ATOM     36  C   UNL     1       0.537   5.309  -8.366  1.00  0.00     0.031 A 
ATOM     37  C   UNL     1       1.007   6.380  -9.318  1.00  0.00     0.074 A 
ATOM     38  C   UNL     1      -0.505   5.559  -7.548  1.00  0.00     0.049 A 
ATOM     39  N   UNL     1       0.520   7.580  -9.516  1.00  0.00    -0.248 NA
ATOM     40  C   UNL     1       2.192   6.076 -10.137  1.00  0.00     0.031 C 
ATOM     41  C   UNL     1      -1.016   4.644  -6.526  1.00  0.00     0.029 A 
ATOM     42  N   UNL     1      -1.309   6.667  -7.431  1.00  0.00    -0.354 N 
ATOM     43  C   UNL     1       1.355   8.183 -10.450  1.00  0.00     0.074 A 
ATOM     44  C   UNL     1       2.400   7.230 -10.756  1.00  0.00     0.031 C 
ATOM     45  C   UNL     1      -2.047   5.223  -5.891  1.00  0.00     0.029 A 
ATOM     46  C   UNL     1      -2.260   6.558  -6.443  1.00  0.00     0.049 A 
ATOM     47  H   UNL     1      -1.214   7.463  -8.002  1.00  0.00     0.167 HD
ATOM     48  C   UNL     1       1.248   9.405 -11.027  1.00  0.00     0.034 A 
ATOM     49  C   UNL     1      -3.198   7.432  -6.026  1.00  0.00     0.034 A 
ATOM     50  C   UNL     1       0.181  10.333 -10.767  1.00  0.00     0.049 A 
ATOM     51  C   UNL     1      -3.328   8.761  -6.720  1.00  0.00     0.074 A 
ATOM     52  C   UNL     1      -0.066  11.553 -11.373  1.00  0.00     0.029 A 
ATOM     53  N   UNL     1      -0.815  10.150  -9.820  1.00  0.00    -0.354 N 
ATOM     54  N   UNL     1      -2.629   9.242  -7.719  1.00  0.00    -0.248 NA
ATOM     55  C   UNL     1      -4.400   9.653  -6.253  1.00  0.00     0.031 C 
ATOM     56  C   UNL     1      -1.203  12.115 -10.782  1.00  0.00     0.029 A 
ATOM     57  C   UNL     1      -1.674  11.237  -9.820  1.00  0.00     0.049 A 
ATOM     58  H   UNL     1      -0.899   9.364  -9.235  1.00  0.00     0.167 HD
ATOM     59  C   UNL     1      -3.195  10.476  -8.021  1.00  0.00     0.074 A 
ATOM     60  C   UNL     1      -4.311  10.656  -7.116  1.00  0.00     0.031 C 
ATOM     61  C   UNL     1      -2.813  11.385  -8.951  1.00  0.00     0.034 A 
BRANCH  48  62
ATOM     62  C   UNL     1       2.283   9.787 -12.055  1.00  0.00     0.023 A 
ATOM     63  C   UNL     1       2.263   9.166 -13.321  1.00  0.00     0.012 A 
ATOM     64  C   UNL     1       3.230  10.798 -11.798  1.00  0.00     0.148 A 
ATOM     65  C   UNL     1       3.189   9.518 -14.302  1.00  0.00     0.002 A 
ATOM     66  C   UNL     1       4.123  11.174 -12.796  1.00  0.00     0.091 A 
ATOM     67  F   UNL     1       3.248  11.364 -10.584  1.00  0.00    -0.205 F 
ATOM     68  C   UNL     1       4.111  10.528 -14.043  1.00  0.00     0.022 A 
BRANCH  66  69
ATOM     69  S   UNL     1       5.300  12.516 -12.588  1.00  0.00     0.127 S 
ATOM     70  O   UNL     1       6.561  11.786 -12.469  1.00  0.00    -0.237 OA
ATOM     71  O   UNL     1       5.143  13.261 -13.838  1.00  0.00    -0.237 OA
ATOM     72  O   UNL     1       4.877  13.237 -11.396  1.00  0.00    -0.744 OA
ENDBRANCH  66  69
ENDBRANCH  48  62
BRANCH  49  73
ATOM     73  C   UNL     1      -4.140   7.045  -4.938  1.00  0.00     0.023 A 
ATOM     74  C   UNL     1      -5.491   6.798  -5.249  1.00  0.00     0.012 A 
ATOM     75  C   UNL     1      -3.701   6.891  -3.610  1.00  0.00     0.148 A 
ATOM     76  C   UNL     1      -6.395   6.431  -4.252  1.00  0.00     0.002 A 
ATOM     77  C   UNL     1      -4.595   6.470  -2.631  1.00  0.00     0.091 A 
ATOM     78  F   UNL     1      -2.415   7.147  -3.331  1.00  0.00    -0.205 F 
ATOM     79  C   UNL     1      -5.946   6.256  -2.946  1.00  0.00     0.022 A 
BRANCH  77  80
ATOM     80  S   UNL     1      -4.072   6.086  -0.957  1.00  0.00     0.127 S 
ATOM     81  O   UNL     1      -4.606   7.219  -0.209  1.00  0.00    -0.237 OA
ATOM     82  O   UNL     1      -4.746   4.810  -0.715  1.00  0.00    -0.237 OA
ATOM     83  O   UNL     1      -2.617   5.990  -1.018  1.00  0.00    -0.744 OA
ENDBRANCH  77  80
ENDBRANCH  49  73
BRANCH  61  84
ATOM     84  C   UNL     1      -3.619  12.653  -9.060  1.00  0.00     0.023 A 
ATOM     85  C   UNL     1      -3.509  13.637  -8.058  1.00  0.00     0.012 A 
ATOM     86  C   UNL     1      -4.433  12.899 -10.184  1.00  0.00     0.148 A 
ATOM     87  C   UNL     1      -4.221  14.832  -8.156  1.00  0.00     0.002 A 
ATOM     88  C   UNL     1      -5.103  14.111 -10.297  1.00  0.00     0.091 A 
ATOM     89  F   UNL     1      -4.542  11.942 -11.117  1.00  0.00    -0.205 F 
ATOM     90  C   UNL     1      -5.008  15.074  -9.280  1.00  0.00     0.022 A 
BRANCH  88  91
ATOM     91  S   UNL     1      -6.064  14.543 -11.753  1.00  0.00     0.127 S 
ATOM     92  O   UNL     1      -7.433  14.377 -11.267  1.00  0.00    -0.237 OA
ATOM     93  O   UNL     1      -5.667  15.931 -11.990  1.00  0.00    -0.237 OA
ATOM     94  O   UNL     1      -5.649  13.613 -12.794  1.00  0.00    -0.744 OA
ENDBRANCH  88  91
ENDBRANCH  61  84
ENDBRANCH  35  36
ENDBRANCH  27  30
ENDBRANCH  25  26
ENDBRANCH   1  25
TORSDOF 15
