REMARK SMILES CC[N@@H+](Cc1cccc(C)n1)Cc1csc(C(=O)NCCCNC(=O)c2ccc(-c3c4nc(c(-c5cccc(S(=O)(=O)[O-])c5F)c5ccc([nH]5)c(-c5cccc(S(=O)(=O)[O-])c5F)c5nc(c(-c6cccc(S(=O)(=O)[O-])c6F)c6ccc3[nH]6)C=C5)C=C4)cc2)n1
REMARK SMILES IDX 20 1 19 2 17 3 18 4 16 6 13 7 14 8 89 9 15 10 12 11 3 12
REMARK SMILES IDX 2 14 1 15 4 16 5 17 6 18 11 19 7 20 9 21 8 22 10 23 21 24
REMARK SMILES IDX 22 25 23 26 24 27 25 29 26 30 27 31 88 32 28 33 87 34 29 35
REMARK SMILES IDX 30 36 31 37 81 38 32 39 86 40 80 41 82 42 33 43 85 44 79 45
REMARK SMILES IDX 78 46 34 48 66 49 46 50 65 51 47 52 50 53 64 54 83 55 48 56
REMARK SMILES IDX 49 57 63 59 84 60 51 61 35 62 36 63 44 64 37 65 39 66 45 67
REMARK SMILES IDX 38 68 40 69 41 70 42 71 43 72 67 73 68 74 76 75 69 76 71 77
REMARK SMILES IDX 77 78 70 79 72 80 73 81 74 82 75 83 52 84 53 85 61 86 54 87
REMARK SMILES IDX 56 88 62 89 55 90 57 91 58 92 59 93 60 94
REMARK H PARENT 19 5 3 13 23 28 82 47 50 58
REMARK Flexibility Score: inf
ROOT
ATOM      1  C   UNL     1       6.759  -0.770   4.405  1.00  0.00     0.118 C 
ENDROOT
BRANCH   1   2
ATOM      2  N   UNL     1       6.550  -2.195   4.603  1.00  0.00    -0.350 N 
ATOM      3  C   UNL     1       5.683  -3.040   3.927  1.00  0.00     0.280 C 
ATOM      4  O   UNL     1       5.849  -4.247   4.085  1.00  0.00    -0.267 OA
ATOM      5  H   UNL     1       7.095  -2.614   5.308  1.00  0.00     0.163 HD
BRANCH   3   6
ATOM      6  C   UNL     1       4.677  -2.459   3.042  1.00  0.00     0.181 A 
ATOM      7  C   UNL     1       3.227  -0.995   2.207  1.00  0.00     0.106 A 
ATOM      8  C   UNL     1       3.258  -1.909   1.169  1.00  0.00     0.097 A 
ATOM      9  N   UNL     1       4.060  -1.319   3.269  1.00  0.00    -0.230 NA
ATOM     10  S   UNL     1       4.263  -3.240   1.573  1.00  0.00    -0.117 S 
BRANCH   7  11
ATOM     11  C   UNL     1       2.471   0.296   2.284  1.00  0.00     0.320 C 
BRANCH  11  12
ATOM     12  N   UNL     1       1.026   0.140   2.297  1.00  0.00    -0.325 N 
ATOM     13  H   UNL     1       0.921   1.155   2.290  1.00  0.00     0.348 HD
BRANCH  12  14
ATOM     14  C   UNL     1       0.230   0.071   1.089  1.00  0.00     0.259 C 
ATOM     15  C   UNL     1       0.836   0.702  -0.161  1.00  0.00     0.071 C 
ENDBRANCH  12  14
BRANCH  12  16
ATOM     16  C   UNL     1       0.415  -0.351   3.539  1.00  0.00     0.319 C 
BRANCH  16  17
ATOM     17  C   UNL     1       0.486  -1.830   3.897  1.00  0.00     0.095 A 
ATOM     18  C   UNL     1       0.524  -2.850   2.952  1.00  0.00     0.030 A 
ATOM     19  N   UNL     1       0.413  -2.114   5.225  1.00  0.00    -0.252 NA
ATOM     20  C   UNL     1       0.553  -4.177   3.370  1.00  0.00     0.004 A 
ATOM     21  C   UNL     1       0.438  -3.409   5.624  1.00  0.00     0.038 A 
ATOM     22  C   UNL     1       0.506  -4.465   4.726  1.00  0.00     0.023 A 
ATOM     23  C   UNL     1       0.317  -3.667   7.096  1.00  0.00     0.067 C 
ENDBRANCH  16  17
ENDBRANCH  12  16
ENDBRANCH  11  12
ENDBRANCH   7  11
ENDBRANCH   3   6
ENDBRANCH   1   2
BRANCH   1  24
ATOM     24  C   UNL     1       6.584   0.037   5.685  1.00  0.00     0.042 C 
BRANCH  24  25
ATOM     25  C   UNL     1       7.689  -0.186   6.715  1.00  0.00     0.118 C 
BRANCH  25  26
ATOM     26  N   UNL     1       9.005   0.197   6.218  1.00  0.00    -0.352 N 
ATOM     27  C   UNL     1       9.971   0.991   6.782  1.00  0.00     0.251 C 
ATOM     28  H   UNL     1       9.238  -0.174   5.336  1.00  0.00     0.163 HD
ATOM     29  O   UNL     1      10.943   1.320   6.106  1.00  0.00    -0.269 OA
BRANCH  27  30
ATOM     30  C   UNL     1       9.851   1.456   8.181  1.00  0.00     0.039 A 
ATOM     31  C   UNL     1      10.249   2.761   8.488  1.00  0.00     0.014 A 
ATOM     32  C   UNL     1       9.403   0.606   9.195  1.00  0.00     0.014 A 
ATOM     33  C   UNL     1      10.155   3.226   9.802  1.00  0.00     0.010 A 
ATOM     34  C   UNL     1       9.249   1.090  10.491  1.00  0.00     0.010 A 
ATOM     35  C   UNL     1       9.636   2.400  10.810  1.00  0.00    -0.014 A 
BRANCH  35  36
ATOM     36  C   UNL     1       9.499   2.886  12.205  1.00  0.00     0.031 A 
ATOM     37  C   UNL     1      10.318   2.270  13.306  1.00  0.00     0.074 A 
ATOM     38  C   UNL     1       8.582   3.831  12.491  1.00  0.00     0.049 A 
ATOM     39  N   UNL     1      10.314   2.541  14.586  1.00  0.00    -0.248 NA
ATOM     40  C   UNL     1      11.244   1.190  12.926  1.00  0.00     0.031 C 
ATOM     41  C   UNL     1       7.671   4.444  11.522  1.00  0.00     0.029 A 
ATOM     42  N   UNL     1       8.250   4.425  13.682  1.00  0.00    -0.354 N 
ATOM     43  C   UNL     1      11.204   1.646  15.167  1.00  0.00     0.074 A 
ATOM     44  C   UNL     1      11.708   0.802  14.105  1.00  0.00     0.031 C 
ATOM     45  C   UNL     1       6.890   5.334  12.156  1.00  0.00     0.029 A 
ATOM     46  C   UNL     1       7.234   5.345  13.575  1.00  0.00     0.049 A 
ATOM     47  H   UNL     1       8.698   4.213  14.533  1.00  0.00     0.167 HD
ATOM     48  C   UNL     1      11.596   1.557  16.460  1.00  0.00     0.034 A 
ATOM     49  C   UNL     1       6.654   6.118  14.513  1.00  0.00     0.034 A 
ATOM     50  C   UNL     1      11.140   2.439  17.500  1.00  0.00     0.049 A 
ATOM     51  C   UNL     1       7.162   6.054  15.928  1.00  0.00     0.074 A 
ATOM     52  C   UNL     1      11.538   2.487  18.825  1.00  0.00     0.029 A 
ATOM     53  N   UNL     1      10.190   3.433  17.331  1.00  0.00    -0.354 N 
ATOM     54  N   UNL     1       8.121   5.311  16.426  1.00  0.00    -0.248 NA
ATOM     55  C   UNL     1       6.539   6.963  16.900  1.00  0.00     0.031 C 
ATOM     56  C   UNL     1      10.829   3.516  19.456  1.00  0.00     0.029 A 
ATOM     57  C   UNL     1       9.992   4.107  18.524  1.00  0.00     0.049 A 
ATOM     58  H   UNL     1       9.724   3.632  16.487  1.00  0.00     0.167 HD
ATOM     59  C   UNL     1       8.241   5.688  17.759  1.00  0.00     0.074 A 
ATOM     60  C   UNL     1       7.269   6.738  17.985  1.00  0.00     0.031 C 
ATOM     61  C   UNL     1       9.068   5.196  18.713  1.00  0.00     0.034 A 
BRANCH  48  62
ATOM     62  C   UNL     1      12.629   0.518  16.804  1.00  0.00     0.023 A 
ATOM     63  C   UNL     1      13.968   0.729  16.416  1.00  0.00     0.012 A 
ATOM     64  C   UNL     1      12.297  -0.633  17.543  1.00  0.00     0.148 A 
ATOM     65  C   UNL     1      14.956  -0.203  16.729  1.00  0.00     0.002 A 
ATOM     66  C   UNL     1      13.295  -1.542  17.884  1.00  0.00     0.091 A 
ATOM     67  F   UNL     1      11.015  -0.833  17.880  1.00  0.00    -0.205 F 
ATOM     68  C   UNL     1      14.621  -1.333  17.471  1.00  0.00     0.022 A 
BRANCH  66  69
ATOM     69  S   UNL     1      12.968  -2.989  18.897  1.00  0.00     0.127 S 
ATOM     70  O   UNL     1      12.915  -4.049  17.891  1.00  0.00    -0.237 OA
ATOM     71  O   UNL     1      14.143  -3.035  19.768  1.00  0.00    -0.237 OA
ATOM     72  O   UNL     1      11.717  -2.711  19.589  1.00  0.00    -0.744 OA
ENDBRANCH  66  69
ENDBRANCH  48  62
BRANCH  49  73
ATOM     73  C   UNL     1       5.606   7.100  14.117  1.00  0.00     0.023 A 
ATOM     74  C   UNL     1       5.931   8.470  14.094  1.00  0.00     0.012 A 
ATOM     75  C   UNL     1       4.319   6.692  13.718  1.00  0.00     0.148 A 
ATOM     76  C   UNL     1       4.986   9.420  13.705  1.00  0.00     0.002 A 
ATOM     77  C   UNL     1       3.397   7.639  13.285  1.00  0.00     0.091 A 
ATOM     78  F   UNL     1       4.023   5.385  13.762  1.00  0.00    -0.205 F 
ATOM     79  C   UNL     1       3.724   9.004  13.290  1.00  0.00     0.022 A 
BRANCH  77  80
ATOM     80  S   UNL     1       1.796   7.174  12.614  1.00  0.00     0.127 S 
ATOM     81  O   UNL     1       0.907   7.456  13.737  1.00  0.00    -0.237 OA
ATOM     82  O   UNL     1       1.661   8.087  11.478  1.00  0.00    -0.237 OA
ATOM     83  O   UNL     1       1.930   5.773  12.238  1.00  0.00    -0.744 OA
ENDBRANCH  77  80
ENDBRANCH  49  73
BRANCH  61  84
ATOM     84  C   UNL     1       8.984   5.802  20.088  1.00  0.00     0.023 A 
ATOM     85  C   UNL     1       7.904   5.466  20.927  1.00  0.00     0.012 A 
ATOM     86  C   UNL     1      10.009   6.635  20.576  1.00  0.00     0.148 A 
ATOM     87  C   UNL     1       7.833   5.971  22.225  1.00  0.00     0.002 A 
ATOM     88  C   UNL     1       9.951   7.102  21.884  1.00  0.00     0.091 A 
ATOM     89  F   UNL     1      11.017   6.963  19.754  1.00  0.00    -0.205 F 
ATOM     90  C   UNL     1       8.861   6.778  22.707  1.00  0.00     0.022 A 
BRANCH  88  91
ATOM     91  S   UNL     1      11.280   8.074  22.604  1.00  0.00     0.127 S 
ATOM     92  O   UNL     1      10.760   9.434  22.477  1.00  0.00    -0.237 OA
ATOM     93  O   UNL     1      11.337   7.568  23.976  1.00  0.00    -0.237 OA
ATOM     94  O   UNL     1      12.462   7.771  21.807  1.00  0.00    -0.744 OA
ENDBRANCH  88  91
ENDBRANCH  61  84
ENDBRANCH  35  36
ENDBRANCH  27  30
ENDBRANCH  25  26
ENDBRANCH  24  25
ENDBRANCH   1  24
TORSDOF 18
