REMARK SMILES O=C(NCCCNC(=O)c1cccnc1-c1ccccn1)c1ccc(-c2c3nc(c(-c4cccc(S(=O)(=O)[O-])c4F)c4ccc([nH]4)c(-c4cccc(S(=O)(=O)[O-])c4F)c4nc(c(-c5cccc(S(=O)(=O)[O-])c5F)c5ccc2[nH]5)C=C4)C=C3)cc1
REMARK SMILES IDX 4 1 3 2 1 3 2 4 22 6 23 7 84 8 24 9 83 10 25 11 26 12 27 13
REMARK SMILES IDX 77 14 28 15 82 16 76 17 78 18 29 19 81 20 75 21 74 22 30 24
REMARK SMILES IDX 62 25 42 26 61 27 43 28 46 29 60 30 79 31 44 32 45 33 59 35
REMARK SMILES IDX 80 36 47 37 31 38 32 39 40 40 33 41 35 42 41 43 34 44 36 45
REMARK SMILES IDX 37 46 38 47 39 48 63 49 64 50 72 51 65 52 67 53 73 54 66 55
REMARK SMILES IDX 68 56 69 57 70 58 71 59 48 60 49 61 57 62 50 63 52 64 58 65
REMARK SMILES IDX 51 66 53 67 54 68 55 69 56 70 5 71 6 72 7 73 8 74 9 76 10 77
REMARK SMILES IDX 11 78 15 79 12 80 14 81 13 82 16 83 17 84 21 85 18 86 20 87
REMARK SMILES IDX 19 88
REMARK H PARENT 3 5 78 23 46 34 7 75
REMARK Flexibility Score: inf
ROOT
ATOM      1  C   UNL     1       4.555  -0.991  -0.916  1.00  0.00     0.118 C 
ENDROOT
BRANCH   1   2
ATOM      2  N   UNL     1       3.126  -0.714  -0.845  1.00  0.00    -0.352 N 
ATOM      3  O   UNL     1       1.175   0.052  -0.036  1.00  0.00    -0.269 OA
ATOM      4  C   UNL     1       2.403   0.094   0.004  1.00  0.00     0.251 C 
ATOM      5  H   UNL     1       2.585  -1.185  -1.518  1.00  0.00     0.163 HD
BRANCH   4   6
ATOM      6  C   UNL     1       3.086   0.971   0.983  1.00  0.00     0.039 A 
ATOM      7  C   UNL     1       4.241   1.669   0.640  1.00  0.00     0.014 A 
ATOM      8  C   UNL     1       2.558   1.099   2.272  1.00  0.00     0.014 A 
ATOM      9  C   UNL     1       4.982   2.308   1.628  1.00  0.00     0.010 A 
ATOM     10  C   UNL     1       3.245   1.844   3.237  1.00  0.00     0.010 A 
ATOM     11  C   UNL     1       4.496   2.404   2.942  1.00  0.00    -0.014 A 
BRANCH  11  12
ATOM     12  C   UNL     1       5.309   3.117   3.966  1.00  0.00     0.031 A 
ATOM     13  C   UNL     1       5.814   2.410   5.198  1.00  0.00     0.074 A 
ATOM     14  C   UNL     1       5.627   4.411   3.761  1.00  0.00     0.049 A 
ATOM     15  N   UNL     1       6.598   2.865   6.143  1.00  0.00    -0.248 NA
ATOM     16  C   UNL     1       5.380   1.019   5.408  1.00  0.00     0.031 C 
ATOM     17  C   UNL     1       5.162   5.223   2.632  1.00  0.00     0.029 A 
ATOM     18  N   UNL     1       6.421   5.269   4.478  1.00  0.00    -0.354 N 
ATOM     19  C   UNL     1       6.711   1.843   7.078  1.00  0.00     0.074 A 
ATOM     20  C   UNL     1       5.909   0.741   6.592  1.00  0.00     0.031 C 
ATOM     21  C   UNL     1       5.715   6.441   2.707  1.00  0.00     0.029 A 
ATOM     22  C   UNL     1       6.529   6.519   3.915  1.00  0.00     0.049 A 
ATOM     23  H   UNL     1       6.871   5.014   5.316  1.00  0.00     0.167 HD
ATOM     24  C   UNL     1       7.429   1.815   8.228  1.00  0.00     0.034 A 
ATOM     25  C   UNL     1       7.202   7.612   4.322  1.00  0.00     0.034 A 
ATOM     26  C   UNL     1       8.265   2.893   8.686  1.00  0.00     0.049 A 
ATOM     27  C   UNL     1       8.024   7.535   5.577  1.00  0.00     0.074 A 
ATOM     28  C   UNL     1       9.089   2.930   9.798  1.00  0.00     0.029 A 
ATOM     29  N   UNL     1       8.382   4.127   8.063  1.00  0.00    -0.354 N 
ATOM     30  N   UNL     1       8.224   6.512   6.370  1.00  0.00    -0.248 NA
ATOM     31  C   UNL     1       8.739   8.756   5.974  1.00  0.00     0.031 C 
ATOM     32  C   UNL     1       9.685   4.194   9.860  1.00  0.00     0.029 A 
ATOM     33  C   UNL     1       9.256   4.935   8.771  1.00  0.00     0.049 A 
ATOM     34  H   UNL     1       7.912   4.389   7.239  1.00  0.00     0.167 HD
ATOM     35  C   UNL     1       9.113   6.954   7.342  1.00  0.00     0.074 A 
ATOM     36  C   UNL     1       9.432   8.330   7.021  1.00  0.00     0.031 C 
ATOM     37  C   UNL     1       9.608   6.285   8.412  1.00  0.00     0.034 A 
BRANCH  24  38
ATOM     38  C   UNL     1       7.373   0.562   9.065  1.00  0.00     0.023 A 
ATOM     39  C   UNL     1       8.040  -0.602   8.630  1.00  0.00     0.012 A 
ATOM     40  C   UNL     1       6.723   0.556  10.315  1.00  0.00     0.148 A 
ATOM     41  C   UNL     1       8.034  -1.759   9.409  1.00  0.00     0.002 A 
ATOM     42  C   UNL     1       6.757  -0.588  11.106  1.00  0.00     0.091 A 
ATOM     43  F   UNL     1       6.076   1.664  10.705  1.00  0.00    -0.205 F 
ATOM     44  C   UNL     1       7.402  -1.748  10.650  1.00  0.00     0.022 A 
BRANCH  42  45
ATOM     45  S   UNL     1       6.041  -0.646  12.753  1.00  0.00     0.127 S 
ATOM     46  O   UNL     1       4.854  -1.470  12.529  1.00  0.00    -0.237 OA
ATOM     47  O   UNL     1       7.099  -1.299  13.527  1.00  0.00    -0.237 OA
ATOM     48  O   UNL     1       5.784   0.737  13.127  1.00  0.00    -0.744 OA
ENDBRANCH  42  45
ENDBRANCH  24  38
BRANCH  25  49
ATOM     49  C   UNL     1       7.171   8.852   3.497  1.00  0.00     0.023 A 
ATOM     50  C   UNL     1       8.337   9.267   2.825  1.00  0.00     0.012 A 
ATOM     51  C   UNL     1       5.986   9.597   3.341  1.00  0.00     0.148 A 
ATOM     52  C   UNL     1       8.331  10.418   2.036  1.00  0.00     0.002 A 
ATOM     53  C   UNL     1       5.971  10.707   2.506  1.00  0.00     0.091 A 
ATOM     54  F   UNL     1       4.891   9.194   4.001  1.00  0.00    -0.205 F 
ATOM     55  C   UNL     1       7.147  11.130   1.867  1.00  0.00     0.022 A 
BRANCH  53  56
ATOM     56  S   UNL     1       4.459  11.595   2.121  1.00  0.00     0.127 S 
ATOM     57  O   UNL     1       4.642  12.835   2.870  1.00  0.00    -0.237 OA
ATOM     58  O   UNL     1       4.551  11.733   0.667  1.00  0.00    -0.237 OA
ATOM     59  O   UNL     1       3.375  10.734   2.571  1.00  0.00    -0.744 OA
ENDBRANCH  53  56
ENDBRANCH  25  49
BRANCH  37  60
ATOM     60  C   UNL     1      10.585   7.015   9.296  1.00  0.00     0.023 A 
ATOM     61  C   UNL     1      10.132   8.048  10.141  1.00  0.00     0.012 A 
ATOM     62  C   UNL     1      11.942   6.641   9.327  1.00  0.00     0.148 A 
ATOM     63  C   UNL     1      11.022   8.722  10.975  1.00  0.00     0.002 A 
ATOM     64  C   UNL     1      12.814   7.284  10.197  1.00  0.00     0.091 A 
ATOM     65  F   UNL     1      12.360   5.673   8.499  1.00  0.00    -0.205 F 
ATOM     66  C   UNL     1      12.360   8.334  11.012  1.00  0.00     0.022 A 
BRANCH  64  67
ATOM     67  S   UNL     1      14.529   6.780  10.377  1.00  0.00     0.127 S 
ATOM     68  O   UNL     1      15.227   7.823   9.628  1.00  0.00    -0.237 OA
ATOM     69  O   UNL     1      14.722   6.837  11.826  1.00  0.00    -0.237 OA
ATOM     70  O   UNL     1      14.609   5.439   9.813  1.00  0.00    -0.744 OA
ENDBRANCH  64  67
ENDBRANCH  37  60
ENDBRANCH  11  12
ENDBRANCH   4   6
ENDBRANCH   1   2
BRANCH   1  71
ATOM     71  C   UNL     1       4.918  -2.417  -0.523  1.00  0.00     0.042 C 
BRANCH  71  72
ATOM     72  C   UNL     1       4.327  -3.491  -1.425  1.00  0.00     0.118 C 
BRANCH  72  73
ATOM     73  N   UNL     1       4.716  -3.332  -2.819  1.00  0.00    -0.352 N 
ATOM     74  C   UNL     1       5.527  -4.096  -3.616  1.00  0.00     0.253 C 
ATOM     75  H   UNL     1       4.331  -2.543  -3.264  1.00  0.00     0.163 HD
ATOM     76  O   UNL     1       5.763  -3.718  -4.766  1.00  0.00    -0.269 OA
BRANCH  74  77
ATOM     77  C   UNL     1       6.090  -5.362  -3.119  1.00  0.00     0.067 A 
ATOM     78  C   UNL     1       5.228  -6.348  -2.623  1.00  0.00     0.018 A 
ATOM     79  C   UNL     1       7.459  -5.637  -3.191  1.00  0.00     0.101 A 
ATOM     80  C   UNL     1       5.751  -7.542  -2.142  1.00  0.00     0.021 A 
ATOM     81  N   UNL     1       7.977  -6.808  -2.707  1.00  0.00    -0.254 NA
ATOM     82  C   UNL     1       7.121  -7.721  -2.199  1.00  0.00     0.112 A 
BRANCH  79  83
ATOM     83  C   UNL     1       8.446  -4.708  -3.764  1.00  0.00     0.089 A 
ATOM     84  C   UNL     1       8.793  -3.516  -3.127  1.00  0.00     0.031 A 
ATOM     85  N   UNL     1       8.995  -5.078  -4.954  1.00  0.00    -0.255 NA
ATOM     86  C   UNL     1       9.710  -2.664  -3.740  1.00  0.00     0.004 A 
ATOM     87  C   UNL     1       9.875  -4.228  -5.525  1.00  0.00     0.112 A 
ATOM     88  C   UNL     1      10.258  -3.022  -4.965  1.00  0.00     0.020 A 
ENDBRANCH  79  83
ENDBRANCH  74  77
ENDBRANCH  72  73
ENDBRANCH  71  72
ENDBRANCH   1  71
TORSDOF 14
