REMARK SMILES Cc1ccc(-c2cnnc(-n3nc(C)c4c3NC(=O)C[C@@H]4c3ccc(C(=O)NCCCNC(=O)c4ccc(-c5c6nc(c(-c7cccc(S(=O)(=O)[O-])c7F)c7ccc([nH]7)c(-c7cccc(S(=O)(=O)[O-])c7F)c7nc(c(-c8cccc(S(=O)(=O)[O-])c8F)c8ccc5[nH]8)C=C7)C=C6)cc4)cc3)n2)cc1
REMARK SMILES IDX 30 1 29 2 28 3 26 4 27 5 25 7 22 8 23 9 99 10 24 11 98 12
REMARK SMILES IDX 21 13 11 14 12 15 16 16 13 17 15 18 17 19 14 20 18 21 20 23
REMARK SMILES IDX 19 24 10 25 6 26 7 27 100 28 8 29 9 30 5 31 1 32 2 33 3 34
REMARK SMILES IDX 102 35 4 36 101 37 31 38 32 39 33 40 34 42 35 43 36 44 97 45
REMARK SMILES IDX 37 46 96 47 38 48 39 49 40 50 90 51 41 52 95 53 89 54 91 55
REMARK SMILES IDX 42 56 94 57 88 58 87 59 43 61 75 62 55 63 74 64 56 65 59 66
REMARK SMILES IDX 73 67 92 68 57 69 58 70 72 72 93 73 60 74 44 75 45 76 53 77
REMARK SMILES IDX 46 78 48 79 54 80 47 81 49 82 50 83 51 84 52 85 76 86 77 87
REMARK SMILES IDX 85 88 78 89 80 90 86 91 79 92 81 93 82 94 83 95 84 96 61 97
REMARK SMILES IDX 62 98 70 99 63 100 65 101 71 102 64 103 66 104 67 105 68 106
REMARK SMILES IDX 69 107
REMARK H PARENT 28 6 17 22 32 41 91 60 59 71
REMARK Flexibility Score: inf
ROOT
ATOM      1  C   UNL     1     -11.098   6.196  -5.439  1.00  0.00     0.042 C 
ENDROOT
BRANCH   1   2
ATOM      2  C   UNL     1     -11.722   5.076  -6.261  1.00  0.00     0.118 C 
BRANCH   2   3
ATOM      3  N   UNL     1     -11.549   5.248  -7.703  1.00  0.00    -0.352 N 
ATOM      4  C   UNL     1     -10.647   4.660  -8.564  1.00  0.00     0.251 C 
ATOM      5  O   UNL     1     -10.804   4.721  -9.779  1.00  0.00    -0.269 OA
ATOM      6  H   UNL     1     -12.174   5.882  -8.124  1.00  0.00     0.163 HD
BRANCH   4   7
ATOM      7  C   UNL     1      -9.508   3.888  -8.026  1.00  0.00     0.039 A 
ATOM      8  C   UNL     1      -7.680   2.244  -6.691  1.00  0.00    -0.040 A 
ATOM      9  C   UNL     1      -8.312   1.804  -7.871  1.00  0.00     0.005 A 
ATOM     10  C   UNL     1      -7.810   3.590  -6.341  1.00  0.00     0.005 A 
ATOM     11  C   UNL     1      -9.224   2.624  -8.539  1.00  0.00     0.014 A 
ATOM     12  C   UNL     1      -8.713   4.401  -7.010  1.00  0.00     0.014 A 
BRANCH   8  13
ATOM     13  C   UNL     1      -6.917   1.239  -5.860  1.00  0.00     0.064 C 
ATOM     14  N   UNL     1      -5.816   2.102  -2.522  1.00  0.00    -0.180 N 
ATOM     15  N   UNL     1      -7.105   2.484  -2.323  1.00  0.00    -0.168 NA
ATOM     16  C   UNL     1      -5.574   2.070  -3.885  1.00  0.00     0.143 A 
ATOM     17  C   UNL     1      -7.728   2.150  -3.458  1.00  0.00     0.066 A 
ATOM     18  C   UNL     1      -6.791   1.728  -4.448  1.00  0.00     0.026 A 
ATOM     19  N   UNL     1      -4.483   2.348  -4.691  1.00  0.00    -0.310 N 
ATOM     20  C   UNL     1      -9.188   2.413  -3.537  1.00  0.00     0.069 C 
ATOM     21  C   UNL     1      -4.582   2.026  -6.085  1.00  0.00     0.226 C 
ATOM     22  H   UNL     1      -3.667   2.754  -4.320  1.00  0.00     0.171 HD
ATOM     23  C   UNL     1      -5.541   0.927  -6.447  1.00  0.00     0.113 C 
ATOM     24  O   UNL     1      -3.803   2.583  -6.854  1.00  0.00    -0.275 OA
BRANCH  14  25
ATOM     25  C   UNL     1      -5.119   1.383  -1.503  1.00  0.00     0.272 A 
ATOM     26  C   UNL     1      -3.298   0.331  -0.615  1.00  0.00     0.095 A 
ATOM     27  C   UNL     1      -4.119  -0.286   0.314  1.00  0.00     0.164 A 
ATOM     28  N   UNL     1      -3.792   1.144  -1.594  1.00  0.00    -0.208 NA
ATOM     29  N   UNL     1      -5.435  -0.053   0.335  1.00  0.00    -0.153 NA
ATOM     30  N   UNL     1      -5.928   0.827  -0.559  1.00  0.00    -0.109 NA
BRANCH  26  31
ATOM     31  C   UNL     1      -1.839   0.220  -0.494  1.00  0.00     0.002 A 
ATOM     32  C   UNL     1       2.447  -0.031   0.072  1.00  0.00     0.044 C 
ATOM     33  C   UNL     1       0.960   0.063  -0.096  1.00  0.00    -0.051 A 
ATOM     34  C   UNL     1       0.187  -1.101  -0.170  1.00  0.00     0.004 A 
ATOM     35  C   UNL     1       0.327   1.304  -0.203  1.00  0.00     0.004 A 
ATOM     36  C   UNL     1      -1.196  -1.023  -0.365  1.00  0.00     0.011 A 
ATOM     37  C   UNL     1      -1.054   1.380  -0.403  1.00  0.00     0.011 A 
ENDBRANCH  26  31
ENDBRANCH  14  25
ENDBRANCH   8  13
ENDBRANCH   4   7
ENDBRANCH   2   3
ENDBRANCH   1   2
BRANCH   1  38
ATOM     38  C   UNL     1     -11.868   7.492  -5.505  1.00  0.00     0.118 C 
BRANCH  38  39
ATOM     39  N   UNL     1     -12.761   7.672  -4.386  1.00  0.00    -0.352 N 
ATOM     40  C   UNL     1     -13.166   8.869  -3.824  1.00  0.00     0.251 C 
ATOM     41  H   UNL     1     -13.123   6.852  -3.978  1.00  0.00     0.163 HD
ATOM     42  O   UNL     1     -13.455   8.888  -2.633  1.00  0.00    -0.269 OA
BRANCH  40  43
ATOM     43  C   UNL     1     -13.443  10.026  -4.719  1.00  0.00     0.039 A 
ATOM     44  C   UNL     1     -14.664  10.674  -4.501  1.00  0.00     0.014 A 
ATOM     45  C   UNL     1     -12.800  10.157  -5.945  1.00  0.00     0.014 A 
ATOM     46  C   UNL     1     -15.387  11.138  -5.588  1.00  0.00     0.010 A 
ATOM     47  C   UNL     1     -13.554  10.482  -7.035  1.00  0.00     0.010 A 
ATOM     48  C   UNL     1     -14.872  10.894  -6.850  1.00  0.00    -0.014 A 
BRANCH  48  49
ATOM     49  C   UNL     1     -15.536  11.186  -8.091  1.00  0.00     0.031 A 
ATOM     50  C   UNL     1     -15.389  12.559  -8.594  1.00  0.00     0.074 A 
ATOM     51  C   UNL     1     -15.944  10.132  -8.829  1.00  0.00     0.049 A 
ATOM     52  N   UNL     1     -16.084  13.057  -9.547  1.00  0.00    -0.248 NA
ATOM     53  C   UNL     1     -14.420  13.501  -8.028  1.00  0.00     0.031 C 
ATOM     54  C   UNL     1     -16.123  10.056 -10.272  1.00  0.00     0.029 A 
ATOM     55  N   UNL     1     -16.315   8.860  -8.428  1.00  0.00    -0.354 N 
ATOM     56  C   UNL     1     -15.450  14.219  -9.935  1.00  0.00     0.074 A 
ATOM     57  C   UNL     1     -14.504  14.516  -8.890  1.00  0.00     0.031 C 
ATOM     58  C   UNL     1     -16.825   8.945 -10.569  1.00  0.00     0.029 A 
ATOM     59  C   UNL     1     -17.279   8.377  -9.311  1.00  0.00     0.049 A 
ATOM     60  H   UNL     1     -15.957   8.376  -7.649  1.00  0.00     0.167 HD
ATOM     61  C   UNL     1     -15.658  14.673 -11.200  1.00  0.00     0.034 A 
ATOM     62  C   UNL     1     -18.598   8.261  -8.950  1.00  0.00     0.034 A 
ATOM     63  C   UNL     1     -16.586  13.769 -11.897  1.00  0.00     0.049 A 
ATOM     64  C   UNL     1     -19.493   9.258  -9.683  1.00  0.00     0.074 A 
ATOM     65  C   UNL     1     -16.377  12.685 -12.736  1.00  0.00     0.029 A 
ATOM     66  N   UNL     1     -17.898  13.666 -11.447  1.00  0.00    -0.354 N 
ATOM     67  N   UNL     1     -19.044  10.276 -10.368  1.00  0.00    -0.248 NA
ATOM     68  C   UNL     1     -20.949   9.167  -9.744  1.00  0.00     0.031 C 
ATOM     69  C   UNL     1     -17.557  11.890 -12.729  1.00  0.00     0.029 A 
ATOM     70  C   UNL     1     -18.490  12.499 -11.907  1.00  0.00     0.049 A 
ATOM     71  H   UNL     1     -18.346  14.333 -10.879  1.00  0.00     0.167 HD
ATOM     72  C   UNL     1     -20.078  11.005 -10.889  1.00  0.00     0.074 A 
ATOM     73  C   UNL     1     -21.252  10.229 -10.515  1.00  0.00     0.031 C 
ATOM     74  C   UNL     1     -19.875  12.190 -11.552  1.00  0.00     0.034 A 
BRANCH  61  75
ATOM     75  C   UNL     1     -14.783  15.687 -11.910  1.00  0.00     0.023 A 
ATOM     76  C   UNL     1     -14.720  15.593 -13.319  1.00  0.00     0.012 A 
ATOM     77  C   UNL     1     -13.997  16.705 -11.319  1.00  0.00     0.148 A 
ATOM     78  C   UNL     1     -13.879  16.395 -14.094  1.00  0.00     0.002 A 
ATOM     79  C   UNL     1     -13.115  17.476 -12.088  1.00  0.00     0.091 A 
ATOM     80  F   UNL     1     -14.144  16.988 -10.020  1.00  0.00    -0.205 F 
ATOM     81  C   UNL     1     -13.055  17.320 -13.476  1.00  0.00     0.022 A 
BRANCH  79  82
ATOM     82  S   UNL     1     -11.957  18.657 -11.369  1.00  0.00     0.127 S 
ATOM     83  O   UNL     1     -10.692  18.275 -12.003  1.00  0.00    -0.237 OA
ATOM     84  O   UNL     1     -12.495  19.939 -11.817  1.00  0.00    -0.237 OA
ATOM     85  O   UNL     1     -11.988  18.428  -9.929  1.00  0.00    -0.744 OA
ENDBRANCH  79  82
ENDBRANCH  61  75
BRANCH  62  86
ATOM     86  C   UNL     1     -18.756   7.801  -7.532  1.00  0.00     0.023 A 
ATOM     87  C   UNL     1     -18.184   6.538  -7.230  1.00  0.00     0.012 A 
ATOM     88  C   UNL     1     -18.965   8.715  -6.485  1.00  0.00     0.148 A 
ATOM     89  C   UNL     1     -17.611   6.294  -5.981  1.00  0.00     0.002 A 
ATOM     90  C   UNL     1     -18.409   8.453  -5.231  1.00  0.00     0.091 A 
ATOM     91  F   UNL     1     -19.637   9.844  -6.739  1.00  0.00    -0.205 F 
ATOM     92  C   UNL     1     -17.674   7.277  -5.001  1.00  0.00     0.022 A 
BRANCH  90  93
ATOM     93  S   UNL     1     -18.500   9.650  -3.893  1.00  0.00     0.127 S 
ATOM     94  O   UNL     1     -19.699   9.211  -3.187  1.00  0.00    -0.237 OA
ATOM     95  O   UNL     1     -17.251   9.415  -3.171  1.00  0.00    -0.237 OA
ATOM     96  O   UNL     1     -18.577  10.946  -4.552  1.00  0.00    -0.744 OA
ENDBRANCH  90  93
ENDBRANCH  62  86
BRANCH  74  97
ATOM     97  C   UNL     1     -20.951  13.193 -11.950  1.00  0.00     0.023 A 
ATOM     98  C   UNL     1     -22.253  13.158 -11.424  1.00  0.00     0.012 A 
ATOM     99  C   UNL     1     -20.639  14.312 -12.774  1.00  0.00     0.148 A 
ATOM    100  C   UNL     1     -23.210  14.128 -11.741  1.00  0.00     0.002 A 
ATOM    101  C   UNL     1     -21.546  15.347 -12.965  1.00  0.00     0.091 A 
ATOM    102  F   UNL     1     -19.464  14.374 -13.417  1.00  0.00    -0.205 F 
ATOM    103  C   UNL     1     -22.849  15.240 -12.486  1.00  0.00     0.022 A 
BRANCH 101 104
ATOM    104  S   UNL     1     -21.036  16.919 -13.677  1.00  0.00     0.127 S 
ATOM    105  O   UNL     1     -21.511  16.793 -15.053  1.00  0.00    -0.237 OA
ATOM    106  O   UNL     1     -21.779  17.881 -12.860  1.00  0.00    -0.237 OA
ATOM    107  O   UNL     1     -19.592  16.974 -13.498  1.00  0.00    -0.744 OA
ENDBRANCH 101 104
ENDBRANCH  74  97
ENDBRANCH  48  49
ENDBRANCH  40  43
ENDBRANCH  38  39
ENDBRANCH   1  38
TORSDOF 16
