REMARK SMILES Cc1ccc(-c2ccc(/C=C(\C#N)C3N=c4ccccc4=N3)o2)cc1C(=O)NCCCNC(=O)c1ccc(-c2c3nc(c(-c4cccc(S(=O)(=O)[O-])c4F)c4ccc([nH]4)c(-c4cccc(S(=O)(=O)[O-])c4F)c4nc(c(-c5cccc(S(=O)(=O)[O-])c5F)c5ccc2[nH]5)C=C4)C=C3)cc1
REMARK SMILES IDX 30 1 29 2 28 3 26 4 27 5 25 7 1 8 2 9 3 10 4 11 24 12 5 13
REMARK SMILES IDX 6 14 7 15 23 16 8 17 9 18 10 19 11 20 12 21 13 22 14 23
REMARK SMILES IDX 15 24 22 25 16 26 21 27 17 28 20 29 18 30 19 31 31 32 32 33
REMARK SMILES IDX 33 34 34 36 35 37 36 38 97 39 37 40 96 41 38 42 39 43 40 44
REMARK SMILES IDX 90 45 41 46 95 47 89 48 91 49 42 50 94 51 88 52 87 53 43 55
REMARK SMILES IDX 75 56 55 57 74 58 56 59 59 60 73 61 92 62 57 63 58 64 72 66
REMARK SMILES IDX 93 67 60 68 44 69 45 70 53 71 46 72 48 73 54 74 47 75 49 76
REMARK SMILES IDX 50 77 51 78 52 79 76 80 77 81 85 82 78 83 80 84 86 85 79 86
REMARK SMILES IDX 81 87 82 88 83 89 84 90 61 91 62 92 70 93 63 94 65 95 71 96
REMARK SMILES IDX 64 97 66 98 67 99 68 100 69 101
REMARK H PARENT 28 6 32 35 91 54 59 65
REMARK Flexibility Score: inf
ROOT
ATOM      1  C   UNL     1       3.998   0.872  -0.693  1.00  0.00     0.042 C 
ENDROOT
BRANCH   1   2
ATOM      2  C   UNL     1       3.336   1.407   0.565  1.00  0.00     0.118 C 
BRANCH   2   3
ATOM      3  N   UNL     1       2.249   2.283   0.202  1.00  0.00    -0.352 N 
ATOM      4  C   UNL     1       0.946   2.066  -0.154  1.00  0.00     0.251 C 
ATOM      5  O   UNL     1       0.338   3.083  -0.508  1.00  0.00    -0.269 OA
ATOM      6  H   UNL     1       2.496   3.236   0.214  1.00  0.00     0.163 HD
BRANCH   4   7
ATOM      7  C   UNL     1       0.174   0.768  -0.061  1.00  0.00     0.043 A 
ATOM      8  C   UNL     1       1.862  -1.132  -0.666  1.00  0.00     0.045 C 
ATOM      9  C   UNL     1       0.573  -0.587  -0.148  1.00  0.00    -0.038 A 
ATOM     10  C   UNL     1      -0.351  -1.616   0.129  1.00  0.00     0.005 A 
ATOM     11  C   UNL     1      -1.696  -1.349   0.257  1.00  0.00     0.012 A 
ATOM     12  C   UNL     1      -1.216   1.000   0.044  1.00  0.00     0.026 A 
ATOM     13  C   UNL     1      -2.141  -0.042   0.125  1.00  0.00     0.018 A 
BRANCH  13  14
ATOM     14  C   UNL     1      -3.554   0.192  -0.021  1.00  0.00     0.134 A 
ATOM     15  C   UNL     1      -4.340   0.785  -0.977  1.00  0.00     0.051 A 
ATOM     16  O   UNL     1      -4.322  -0.387   0.925  1.00  0.00    -0.457 OA
ATOM     17  C   UNL     1      -5.675   0.513  -0.589  1.00  0.00     0.051 A 
ATOM     18  C   UNL     1      -5.636  -0.202   0.604  1.00  0.00     0.128 A 
BRANCH  18  19
ATOM     19  C   UNL     1      -6.707  -0.695   1.393  1.00  0.00     0.066 C 
ATOM     20  C   UNL     1      -6.555  -1.407   2.528  1.00  0.00     0.080 C 
BRANCH  20  21
ATOM     21  C   UNL     1      -5.281  -1.785   3.076  1.00  0.00     0.099 C 
ATOM     22  N   UNL     1      -4.296  -2.141   3.563  1.00  0.00    -0.193 NA
ENDBRANCH  20  21
BRANCH  20  23
ATOM     23  C   UNL     1      -7.773  -1.866   3.287  1.00  0.00     0.263 C 
ATOM     24  N   UNL     1      -7.903  -3.345   3.195  1.00  0.00    -0.251 NA
ATOM     25  N   UNL     1      -7.714  -1.429   4.707  1.00  0.00    -0.251 NA
ATOM     26  C   UNL     1      -7.889  -3.703   4.432  1.00  0.00     0.086 A 
ATOM     27  C   UNL     1      -7.776  -2.545   5.346  1.00  0.00     0.086 A 
ATOM     28  C   UNL     1      -7.983  -5.054   4.987  1.00  0.00     0.030 A 
ATOM     29  C   UNL     1      -7.762  -2.771   6.794  1.00  0.00     0.030 A 
ATOM     30  C   UNL     1      -7.975  -5.173   6.322  1.00  0.00     0.002 A 
ATOM     31  C   UNL     1      -7.866  -4.038   7.219  1.00  0.00     0.002 A 
ENDBRANCH  20  23
ENDBRANCH  18  19
ENDBRANCH  13  14
ENDBRANCH   4   7
ENDBRANCH   2   3
ENDBRANCH   1   2
BRANCH   1  32
ATOM     32  C   UNL     1       5.198   1.622  -1.206  1.00  0.00     0.118 C 
BRANCH  32  33
ATOM     33  N   UNL     1       6.423   0.849  -1.060  1.00  0.00    -0.352 N 
ATOM     34  C   UNL     1       7.563   0.837  -1.850  1.00  0.00     0.251 C 
ATOM     35  H   UNL     1       6.446   0.243  -0.284  1.00  0.00     0.163 HD
ATOM     36  O   UNL     1       8.410  -0.030  -1.669  1.00  0.00    -0.269 OA
BRANCH  34  37
ATOM     37  C   UNL     1       7.810   1.971  -2.783  1.00  0.00     0.039 A 
ATOM     38  C   UNL     1       8.893   2.761  -2.403  1.00  0.00     0.014 A 
ATOM     39  C   UNL     1       6.735   2.549  -3.445  1.00  0.00     0.014 A 
ATOM     40  C   UNL     1       8.684   4.117  -2.236  1.00  0.00     0.010 A 
ATOM     41  C   UNL     1       6.463   3.867  -3.156  1.00  0.00     0.010 A 
ATOM     42  C   UNL     1       7.404   4.609  -2.441  1.00  0.00    -0.014 A 
BRANCH  42  43
ATOM     43  C   UNL     1       7.041   5.985  -2.206  1.00  0.00     0.031 A 
ATOM     44  C   UNL     1       7.519   6.911  -3.239  1.00  0.00     0.074 A 
ATOM     45  C   UNL     1       6.209   6.313  -1.194  1.00  0.00     0.049 A 
ATOM     46  N   UNL     1       7.616   8.177  -3.084  1.00  0.00    -0.248 NA
ATOM     47  C   UNL     1       8.039   6.443  -4.528  1.00  0.00     0.031 C 
ATOM     48  C   UNL     1       5.377   7.500  -1.057  1.00  0.00     0.029 A 
ATOM     49  N   UNL     1       6.022   5.645   0.016  1.00  0.00    -0.354 N 
ATOM     50  C   UNL     1       7.863   8.703  -4.334  1.00  0.00     0.074 A 
ATOM     51  C   UNL     1       8.315   7.599  -5.131  1.00  0.00     0.031 C 
ATOM     52  C   UNL     1       4.940   7.597   0.213  1.00  0.00     0.029 A 
ATOM     53  C   UNL     1       5.631   6.584   0.992  1.00  0.00     0.049 A 
ATOM     54  H   UNL     1       6.142   4.679   0.164  1.00  0.00     0.167 HD
ATOM     55  C   UNL     1       7.431   9.969  -4.577  1.00  0.00     0.034 A 
ATOM     56  C   UNL     1       6.424   6.841   2.084  1.00  0.00     0.034 A 
ATOM     57  C   UNL     1       6.935  10.557  -3.312  1.00  0.00     0.049 A 
ATOM     58  C   UNL     1       7.079   8.213   2.007  1.00  0.00     0.074 A 
ATOM     59  C   UNL     1       5.670  10.695  -2.761  1.00  0.00     0.029 A 
ATOM     60  N   UNL     1       7.823  10.696  -2.248  1.00  0.00    -0.354 N 
ATOM     61  N   UNL     1       6.917   9.062   1.030  1.00  0.00    -0.248 NA
ATOM     62  C   UNL     1       8.056   8.674   2.987  1.00  0.00     0.031 C 
ATOM     63  C   UNL     1       5.816  10.876  -1.349  1.00  0.00     0.029 A 
ATOM     64  C   UNL     1       7.165  10.894  -1.040  1.00  0.00     0.049 A 
ATOM     65  H   UNL     1       8.803  10.658  -2.341  1.00  0.00     0.167 HD
ATOM     66  C   UNL     1       7.831  10.077   1.136  1.00  0.00     0.074 A 
ATOM     67  C   UNL     1       8.534   9.768   2.377  1.00  0.00     0.031 C 
ATOM     68  C   UNL     1       7.961  11.057   0.181  1.00  0.00     0.034 A 
BRANCH  55  69
ATOM     69  C   UNL     1       7.167  10.566  -5.956  1.00  0.00     0.023 A 
ATOM     70  C   UNL     1       6.393  11.747  -5.978  1.00  0.00     0.012 A 
ATOM     71  C   UNL     1       7.544  10.062  -7.231  1.00  0.00     0.148 A 
ATOM     72  C   UNL     1       5.974  12.359  -7.166  1.00  0.00     0.002 A 
ATOM     73  C   UNL     1       7.124  10.671  -8.422  1.00  0.00     0.091 A 
ATOM     74  F   UNL     1       8.332   8.994  -7.332  1.00  0.00    -0.205 F 
ATOM     75  C   UNL     1       6.332  11.817  -8.390  1.00  0.00     0.022 A 
BRANCH  73  76
ATOM     76  S   UNL     1       7.543  10.036 -10.063  1.00  0.00     0.127 S 
ATOM     77  O   UNL     1       6.221   9.810 -10.651  1.00  0.00    -0.237 OA
ATOM     78  O   UNL     1       8.282  11.153 -10.650  1.00  0.00    -0.237 OA
ATOM     79  O   UNL     1       8.324   8.823  -9.856  1.00  0.00    -0.744 OA
ENDBRANCH  73  76
ENDBRANCH  55  69
BRANCH  56  80
ATOM     80  C   UNL     1       7.133   5.610   2.591  1.00  0.00     0.023 A 
ATOM     81  C   UNL     1       6.306   4.484   2.803  1.00  0.00     0.012 A 
ATOM     82  C   UNL     1       8.464   5.400   2.211  1.00  0.00     0.148 A 
ATOM     83  C   UNL     1       6.654   3.273   2.204  1.00  0.00     0.002 A 
ATOM     84  C   UNL     1       8.818   4.183   1.655  1.00  0.00     0.091 A 
ATOM     85  F   UNL     1       9.355   6.392   2.328  1.00  0.00    -0.205 F 
ATOM     86  C   UNL     1       7.876   3.155   1.544  1.00  0.00     0.022 A 
BRANCH  84  87
ATOM     87  S   UNL     1      10.472   3.990   1.007  1.00  0.00     0.127 S 
ATOM     88  O   UNL     1      11.274   3.954   2.225  1.00  0.00    -0.237 OA
ATOM     89  O   UNL     1      10.404   2.715   0.297  1.00  0.00    -0.237 OA
ATOM     90  O   UNL     1      10.650   5.156   0.151  1.00  0.00    -0.744 OA
ENDBRANCH  84  87
ENDBRANCH  56  80
BRANCH  68  91
ATOM     91  C   UNL     1       8.898  12.256   0.292  1.00  0.00     0.023 A 
ATOM     92  C   UNL     1       9.503  12.630   1.504  1.00  0.00     0.012 A 
ATOM     93  C   UNL     1       9.149  13.121  -0.807  1.00  0.00     0.148 A 
ATOM     94  C   UNL     1      10.445  13.660   1.589  1.00  0.00     0.002 A 
ATOM     95  C   UNL     1      10.069  14.158  -0.725  1.00  0.00     0.091 A 
ATOM     96  F   UNL     1       8.436  13.009  -1.931  1.00  0.00    -0.205 F 
ATOM     97  C   UNL     1      10.752  14.406   0.464  1.00  0.00     0.022 A 
BRANCH  95  98
ATOM     98  S   UNL     1      10.393  15.259  -2.107  1.00  0.00     0.127 S 
ATOM     99  O   UNL     1       9.835  16.517  -1.611  1.00  0.00    -0.237 OA
ATOM    100  O   UNL     1      11.853  15.225  -2.182  1.00  0.00    -0.237 OA
ATOM    101  O   UNL     1       9.710  14.690  -3.260  1.00  0.00    -0.744 OA
ENDBRANCH  95  98
ENDBRANCH  68  91
ENDBRANCH  42  43
ENDBRANCH  34  37
ENDBRANCH  32  33
ENDBRANCH   1  32
TORSDOF 17
