REMARK SMILES Cc1ccccc1C(=O)Nc1cc(C(=O)NCCCNC(=O)c2ccc(-c3c4nc(c(-c5cccc(S(=O)(=O)[O-])c5F)c5ccc([nH]5)c(-c5cccc(S(=O)(=O)[O-])c5F)c5nc(c(-c6cccc(S(=O)(=O)[O-])c6F)c6ccc3[nH]6)C=C5)C=C4)cc2)ccc1N1CC[NH+](CC(=O)Nc2ccc(F)cc2)CC1
REMARK SMILES IDX 17 1 16 2 14 3 15 4 13 6 11 7 12 8 88 9 87 10 86 11 10 12
REMARK SMILES IDX 8 13 9 14 7 16 1 17 2 18 3 19 4 20 6 21 5 22 89 23 90 24
REMARK SMILES IDX 105 25 91 26 104 27 92 28 93 30 94 31 95 32 96 33 97 35
REMARK SMILES IDX 98 36 103 37 99 38 102 39 100 40 101 41 18 42 19 43 20 44
REMARK SMILES IDX 21 45 22 47 23 48 24 49 85 50 25 51 84 52 26 53 27 54 28 55
REMARK SMILES IDX 78 56 29 57 83 58 77 59 79 60 30 61 82 62 76 63 75 64 31 66
REMARK SMILES IDX 63 67 43 68 62 69 44 70 47 71 61 72 80 73 45 74 46 75 60 77
REMARK SMILES IDX 81 78 48 79 32 80 33 81 41 82 34 83 36 84 42 85 35 86 37 87
REMARK SMILES IDX 38 88 39 89 40 90 64 91 65 92 73 93 66 94 68 95 74 96 67 97
REMARK SMILES IDX 69 98 70 99 71 100 72 101 49 102 50 103 58 104 51 105 53 106
REMARK SMILES IDX 59 107 52 108 54 109 55 110 56 111 57 112
REMARK H PARENT 16 5 10 15 92 29 96 34 20 46 79 65 47 76
REMARK Flexibility Score: inf
ROOT
ATOM      1  C   UNL     1       1.124  -1.292  -2.825  1.00  0.00     0.118 C 
ENDROOT
BRANCH   1   2
ATOM      2  N   UNL     1       2.369  -2.049  -2.932  1.00  0.00    -0.352 N 
ATOM      3  C   UNL     1       3.585  -1.979  -2.279  1.00  0.00     0.251 C 
ATOM      4  O   UNL     1       4.364  -2.925  -2.405  1.00  0.00    -0.269 OA
ATOM      5  H   UNL     1       2.335  -2.758  -3.614  1.00  0.00     0.163 HD
BRANCH   3   6
ATOM      6  C   UNL     1       4.026  -0.829  -1.433  1.00  0.00     0.042 A 
ATOM      7  C   UNL     1       3.662   1.365  -0.462  1.00  0.00     0.065 A 
ATOM      8  C   UNL     1       3.260   0.301  -1.249  1.00  0.00     0.042 A 
ATOM      9  C   UNL     1       4.930   1.389   0.173  1.00  0.00     0.061 A 
ATOM     10  C   UNL     1       5.721   0.245  -0.019  1.00  0.00     0.029 A 
ATOM     11  C   UNL     1       5.271  -0.852  -0.791  1.00  0.00     0.016 A 
BRANCH   7  12
ATOM     12  N   UNL     1       2.762   2.435  -0.343  1.00  0.00    -0.320 N 
ATOM     13  C   UNL     1       1.427   2.453   0.024  1.00  0.00     0.255 C 
ATOM     14  O   UNL     1       0.928   3.561   0.253  1.00  0.00    -0.269 OA
ATOM     15  H   UNL     1       3.142   3.318  -0.555  1.00  0.00     0.170 HD
BRANCH  13  16
ATOM     16  C   UNL     1       0.543   1.251   0.177  1.00  0.00     0.043 A 
ATOM     17  C   UNL     1       2.032  -0.268   1.669  1.00  0.00     0.045 C 
ATOM     18  C   UNL     1       0.803   0.045   0.864  1.00  0.00    -0.038 A 
ATOM     19  C   UNL     1      -0.166  -0.986   0.820  1.00  0.00     0.004 A 
ATOM     20  C   UNL     1      -1.399  -0.805   0.198  1.00  0.00     0.000 A 
ATOM     21  C   UNL     1      -0.732   1.426  -0.405  1.00  0.00     0.014 A 
ATOM     22  C   UNL     1      -1.694   0.415  -0.392  1.00  0.00     0.001 A 
ENDBRANCH  13  16
ENDBRANCH   7  12
BRANCH   9  23
ATOM     23  N   UNL     1       5.330   2.438   0.991  1.00  0.00    -0.359 N 
ATOM     24  C   UNL     1       6.708   2.640   1.510  1.00  0.00     0.178 C 
ATOM     25  C   UNL     1       4.344   3.059   1.866  1.00  0.00     0.178 C 
ATOM     26  C   UNL     1       6.927   4.089   2.124  1.00  0.00     0.284 C 
ATOM     27  C   UNL     1       4.611   4.564   1.828  1.00  0.00     0.284 C 
ATOM     28  N   UNL     1       5.774   4.863   2.651  1.00  0.00    -0.324 N 
ATOM     29  H   UNL     1       6.072   5.836   2.572  1.00  0.00     0.348 HD
BRANCH  28  30
ATOM     30  C   UNL     1       5.473   4.851   4.103  1.00  0.00     0.364 C 
BRANCH  30  31
ATOM     31  C   UNL     1       5.226   3.515   4.803  1.00  0.00     0.279 C 
ATOM     32  O   UNL     1       6.197   2.780   5.049  1.00  0.00    -0.268 OA
ATOM     33  N   UNL     1       4.018   3.057   5.262  1.00  0.00    -0.321 N 
ATOM     34  H   UNL     1       4.157   2.359   5.942  1.00  0.00     0.170 HD
BRANCH  33  35
ATOM     35  C   UNL     1       2.633   3.275   5.064  1.00  0.00     0.041 A 
ATOM     36  C   UNL     1       1.770   2.497   5.861  1.00  0.00     0.029 A 
ATOM     37  C   UNL     1       2.040   4.077   4.096  1.00  0.00     0.029 A 
ATOM     38  C   UNL     1       0.382   2.490   5.664  1.00  0.00     0.041 A 
ATOM     39  C   UNL     1       0.655   4.023   3.841  1.00  0.00     0.041 A 
ATOM     40  C   UNL     1      -0.163   3.235   4.632  1.00  0.00     0.123 A 
ATOM     41  F   UNL     1      -1.484   3.200   4.410  1.00  0.00    -0.207 F 
ENDBRANCH  33  35
ENDBRANCH  30  31
ENDBRANCH  28  30
ENDBRANCH   9  23
ENDBRANCH   3   6
ENDBRANCH   1   2
BRANCH   1  42
ATOM     42  C   UNL     1       1.097   0.035  -3.596  1.00  0.00     0.042 C 
BRANCH  42  43
ATOM     43  C   UNL     1       0.488  -0.070  -4.974  1.00  0.00     0.118 C 
BRANCH  43  44
ATOM     44  N   UNL     1      -0.476   0.995  -5.270  1.00  0.00    -0.352 N 
ATOM     45  C   UNL     1      -1.103   1.237  -6.483  1.00  0.00     0.251 C 
ATOM     46  H   UNL     1      -0.701   1.602  -4.528  1.00  0.00     0.163 HD
ATOM     47  O   UNL     1      -1.911   2.153  -6.610  1.00  0.00    -0.269 OA
BRANCH  45  48
ATOM     48  C   UNL     1      -0.815   0.288  -7.578  1.00  0.00     0.039 A 
ATOM     49  C   UNL     1      -1.807  -0.653  -7.866  1.00  0.00     0.014 A 
ATOM     50  C   UNL     1       0.524   0.050  -7.882  1.00  0.00     0.014 A 
ATOM     51  C   UNL     1      -1.425  -1.949  -8.184  1.00  0.00     0.010 A 
ATOM     52  C   UNL     1       0.906  -1.260  -8.094  1.00  0.00     0.010 A 
ATOM     53  C   UNL     1      -0.068  -2.265  -8.163  1.00  0.00    -0.014 A 
BRANCH  53  54
ATOM     54  C   UNL     1       0.440  -3.625  -8.237  1.00  0.00     0.031 A 
ATOM     55  C   UNL     1       0.774  -4.162  -9.563  1.00  0.00     0.074 A 
ATOM     56  C   UNL     1       0.645  -4.361  -7.124  1.00  0.00     0.049 A 
ATOM     57  N   UNL     1       0.848  -5.415  -9.850  1.00  0.00    -0.248 NA
ATOM     58  C   UNL     1       0.964  -3.281 -10.708  1.00  0.00     0.031 C 
ATOM     59  C   UNL     1       1.403  -5.602  -7.013  1.00  0.00     0.029 A 
ATOM     60  N   UNL     1      -0.022  -4.255  -5.900  1.00  0.00    -0.354 N 
ATOM     61  C   UNL     1       1.388  -5.503 -11.115  1.00  0.00     0.074 A 
ATOM     62  C   UNL     1       1.301  -4.166 -11.645  1.00  0.00     0.031 C 
ATOM     63  C   UNL     1       0.958  -6.285  -5.946  1.00  0.00     0.029 A 
ATOM     64  C   UNL     1      -0.205  -5.575  -5.443  1.00  0.00     0.049 A 
ATOM     65  H   UNL     1      -0.306  -3.427  -5.450  1.00  0.00     0.167 HD
ATOM     66  C   UNL     1       2.007  -6.660 -11.480  1.00  0.00     0.034 A 
ATOM     67  C   UNL     1      -1.426  -6.131  -5.188  1.00  0.00     0.034 A 
ATOM     68  C   UNL     1       1.723  -7.730 -10.506  1.00  0.00     0.049 A 
ATOM     69  C   UNL     1      -1.682  -7.399  -5.986  1.00  0.00     0.074 A 
ATOM     70  C   UNL     1       2.449  -8.279  -9.461  1.00  0.00     0.029 A 
ATOM     71  N   UNL     1       0.414  -8.182 -10.348  1.00  0.00    -0.354 N 
ATOM     72  N   UNL     1      -0.922  -7.825  -6.958  1.00  0.00    -0.248 NA
ATOM     73  C   UNL     1      -2.839  -8.262  -5.774  1.00  0.00     0.031 C 
ATOM     74  C   UNL     1       1.546  -8.987  -8.621  1.00  0.00     0.029 A 
ATOM     75  C   UNL     1       0.276  -8.900  -9.169  1.00  0.00     0.049 A 
ATOM     76  H   UNL     1      -0.316  -8.013 -10.987  1.00  0.00     0.167 HD
ATOM     77  C   UNL     1      -1.514  -8.897  -7.579  1.00  0.00     0.074 A 
ATOM     78  C   UNL     1      -2.671  -9.179  -6.744  1.00  0.00     0.031 C 
ATOM     79  C   UNL     1      -1.030  -9.414  -8.755  1.00  0.00     0.034 A 
BRANCH  66  80
ATOM     80  C   UNL     1       3.138  -6.736 -12.508  1.00  0.00     0.023 A 
ATOM     81  C   UNL     1       3.978  -7.871 -12.457  1.00  0.00     0.012 A 
ATOM     82  C   UNL     1       3.525  -5.741 -13.440  1.00  0.00     0.148 A 
ATOM     83  C   UNL     1       5.166  -7.968 -13.197  1.00  0.00     0.002 A 
ATOM     84  C   UNL     1       4.732  -5.809 -14.142  1.00  0.00     0.091 A 
ATOM     85  F   UNL     1       2.705  -4.735 -13.731  1.00  0.00    -0.205 F 
ATOM     86  C   UNL     1       5.561  -6.922 -14.016  1.00  0.00     0.022 A 
BRANCH  84  87
ATOM     87  S   UNL     1       5.320  -4.460 -15.188  1.00  0.00     0.127 S 
ATOM     88  O   UNL     1       6.645  -4.191 -14.627  1.00  0.00    -0.237 OA
ATOM     89  O   UNL     1       5.335  -5.078 -16.513  1.00  0.00    -0.237 OA
ATOM     90  O   UNL     1       4.371  -3.365 -15.025  1.00  0.00    -0.744 OA
ENDBRANCH  84  87
ENDBRANCH  66  80
BRANCH  67  91
ATOM     91  C   UNL     1      -2.466  -5.126  -4.808  1.00  0.00     0.023 A 
ATOM     92  C   UNL     1      -2.180  -4.306  -3.686  1.00  0.00     0.012 A 
ATOM     93  C   UNL     1      -3.441  -4.702  -5.723  1.00  0.00     0.148 A 
ATOM     94  C   UNL     1      -2.698  -3.013  -3.597  1.00  0.00     0.002 A 
ATOM     95  C   UNL     1      -3.974  -3.420  -5.610  1.00  0.00     0.091 A 
ATOM     96  F   UNL     1      -3.779  -5.514  -6.733  1.00  0.00    -0.205 F 
ATOM     97  C   UNL     1      -3.560  -2.554  -4.585  1.00  0.00     0.022 A 
BRANCH  95  98
ATOM     98  S   UNL     1      -5.122  -2.800  -6.846  1.00  0.00     0.127 S 
ATOM     99  O   UNL     1      -6.394  -3.311  -6.345  1.00  0.00    -0.237 OA
ATOM    100  O   UNL     1      -4.957  -1.351  -6.738  1.00  0.00    -0.237 OA
ATOM    101  O   UNL     1      -4.635  -3.363  -8.096  1.00  0.00    -0.744 OA
ENDBRANCH  95  98
ENDBRANCH  67  91
BRANCH  79 102
ATOM    102  C   UNL     1      -1.727 -10.460  -9.622  1.00  0.00     0.023 A 
ATOM    103  C   UNL     1      -3.099 -10.756  -9.501  1.00  0.00     0.012 A 
ATOM    104  C   UNL     1      -1.040 -11.114 -10.682  1.00  0.00     0.148 A 
ATOM    105  C   UNL     1      -3.737 -11.703 -10.312  1.00  0.00     0.002 A 
ATOM    106  C   UNL     1      -1.705 -11.972 -11.558  1.00  0.00     0.091 A 
ATOM    107  F   UNL     1       0.279 -10.931 -10.838  1.00  0.00    -0.205 F 
ATOM    108  C   UNL     1      -3.045 -12.299 -11.353  1.00  0.00     0.022 A 
BRANCH 106 109
ATOM    109  S   UNL     1      -0.917 -12.580 -13.058  1.00  0.00     0.127 S 
ATOM    110  O   UNL     1      -0.449 -13.900 -12.642  1.00  0.00    -0.237 OA
ATOM    111  O   UNL     1      -2.030 -12.603 -14.010  1.00  0.00    -0.237 OA
ATOM    112  O   UNL     1       0.114 -11.601 -13.374  1.00  0.00    -0.744 OA
ENDBRANCH 106 109
ENDBRANCH  79 102
ENDBRANCH  53  54
ENDBRANCH  45  48
ENDBRANCH  43  44
ENDBRANCH  42  43
ENDBRANCH   1  42
TORSDOF 19
