REMARK SMILES O=C(NCCCNC(=O)c1cc(-c2ccc(F)c(C(F)(F)F)c2)cnc1O)c1ccc(-c2c3nc(c(-c4cccc(S(=O)(=O)[O-])c4F)c4ccc([nH]4)c(-c4cccc(S(=O)(=O)[O-])c4F)c4nc(c(-c5cccc(S(=O)(=O)[O-])c5F)c5ccc2[nH]5)C=C4)C=C3)cc1
REMARK SMILES IDX 4 1 3 2 1 3 2 4 28 6 29 7 90 8 30 9 89 10 31 11 32 12 33 13
REMARK SMILES IDX 83 14 34 15 88 16 82 17 84 18 35 19 87 20 81 21 80 22 36 24
REMARK SMILES IDX 68 25 48 26 67 27 49 28 52 29 66 30 85 31 50 32 51 33 65 35
REMARK SMILES IDX 86 36 53 37 37 38 38 39 46 40 39 41 41 42 47 43 40 44 42 45
REMARK SMILES IDX 43 46 44 47 45 48 69 49 70 50 78 51 71 52 73 53 79 54 72 55
REMARK SMILES IDX 74 56 75 57 76 58 77 59 54 60 55 61 63 62 56 63 58 64 64 65
REMARK SMILES IDX 57 66 59 67 60 68 61 69 62 70 5 71 6 72 7 73 8 74 9 76 10 77
REMARK SMILES IDX 11 78 26 79 12 80 25 81 24 82 27 83 13 85 14 86 23 87 15 88
REMARK SMILES IDX 18 89 16 90 17 91 19 92 20 93 21 94 22 95
REMARK H PARENT 3 5 84 23 52 34 7 75 27 84
REMARK Flexibility Score: inf
ROOT
ATOM      1  C   UNL     1       4.677  -0.977   0.754  1.00  0.00     0.118 C 
ENDROOT
BRANCH   1   2
ATOM      2  N   UNL     1       3.232  -0.912   0.591  1.00  0.00    -0.352 N 
ATOM      3  O   UNL     1       1.226   0.003   0.204  1.00  0.00    -0.269 OA
ATOM      4  C   UNL     1       2.440   0.048   0.015  1.00  0.00     0.251 C 
ATOM      5  H   UNL     1       2.743  -1.684   0.955  1.00  0.00     0.163 HD
BRANCH   4   6
ATOM      6  C   UNL     1       3.014   1.115  -0.834  1.00  0.00     0.039 A 
ATOM      7  C   UNL     1       2.421   2.384  -0.813  1.00  0.00     0.014 A 
ATOM      8  C   UNL     1       4.058   0.854  -1.725  1.00  0.00     0.014 A 
ATOM      9  C   UNL     1       2.879   3.385  -1.673  1.00  0.00     0.010 A 
ATOM     10  C   UNL     1       4.567   1.873  -2.523  1.00  0.00     0.010 A 
ATOM     11  C   UNL     1       3.956   3.135  -2.536  1.00  0.00    -0.014 A 
BRANCH  11  12
ATOM     12  C   UNL     1       4.398   4.128  -3.544  1.00  0.00     0.031 A 
ATOM     13  C   UNL     1       4.245   3.808  -5.007  1.00  0.00     0.074 A 
ATOM     14  C   UNL     1       4.985   5.278  -3.166  1.00  0.00     0.049 A 
ATOM     15  N   UNL     1       4.703   4.451  -6.048  1.00  0.00    -0.248 NA
ATOM     16  C   UNL     1       3.495   2.583  -5.340  1.00  0.00     0.031 C 
ATOM     17  C   UNL     1       5.206   5.701  -1.784  1.00  0.00     0.029 A 
ATOM     18  N   UNL     1       5.523   6.290  -3.919  1.00  0.00    -0.354 N 
ATOM     19  C   UNL     1       4.336   3.692  -7.152  1.00  0.00     0.074 A 
ATOM     20  C   UNL     1       3.644   2.523  -6.654  1.00  0.00     0.031 C 
ATOM     21  C   UNL     1       5.829   6.891  -1.787  1.00  0.00     0.029 A 
ATOM     22  C   UNL     1       6.085   7.293  -3.168  1.00  0.00     0.049 A 
ATOM     23  H   UNL     1       5.507   6.297  -4.903  1.00  0.00     0.167 HD
ATOM     24  C   UNL     1       4.524   3.957  -8.465  1.00  0.00     0.034 A 
ATOM     25  C   UNL     1       6.745   8.404  -3.547  1.00  0.00     0.034 A 
ATOM     26  C   UNL     1       5.160   5.144  -8.966  1.00  0.00     0.049 A 
ATOM     27  C   UNL     1       6.946   8.683  -5.010  1.00  0.00     0.074 A 
ATOM     28  C   UNL     1       5.363   5.521 -10.281  1.00  0.00     0.029 A 
ATOM     29  N   UNL     1       5.683   6.153  -8.172  1.00  0.00    -0.354 N 
ATOM     30  N   UNL     1       6.551   7.979  -6.043  1.00  0.00    -0.248 NA
ATOM     31  C   UNL     1       7.668   9.915  -5.359  1.00  0.00     0.031 C 
ATOM     32  C   UNL     1       6.011   6.762 -10.282  1.00  0.00     0.029 A 
ATOM     33  C   UNL     1       6.204   7.158  -8.968  1.00  0.00     0.049 A 
ATOM     34  H   UNL     1       5.684   6.154  -7.188  1.00  0.00     0.167 HD
ATOM     35  C   UNL     1       6.968   8.684  -7.167  1.00  0.00     0.074 A 
ATOM     36  C   UNL     1       7.626   9.883  -6.686  1.00  0.00     0.031 C 
ATOM     37  C   UNL     1       6.832   8.358  -8.476  1.00  0.00     0.034 A 
BRANCH  24  38
ATOM     38  C   UNL     1       3.970   2.967  -9.452  1.00  0.00     0.023 A 
ATOM     39  C   UNL     1       2.579   2.931  -9.679  1.00  0.00     0.012 A 
ATOM     40  C   UNL     1       4.813   2.095 -10.168  1.00  0.00     0.148 A 
ATOM     41  C   UNL     1       2.030   2.022 -10.582  1.00  0.00     0.002 A 
ATOM     42  C   UNL     1       4.261   1.215 -11.092  1.00  0.00     0.091 A 
ATOM     43  F   UNL     1       6.129   2.131  -9.918  1.00  0.00    -0.205 F 
ATOM     44  C   UNL     1       2.871   1.172 -11.294  1.00  0.00     0.022 A 
BRANCH  42  45
ATOM     45  S   UNL     1       5.259   0.110 -12.096  1.00  0.00     0.127 S 
ATOM     46  O   UNL     1       4.907  -1.195 -11.536  1.00  0.00    -0.237 OA
ATOM     47  O   UNL     1       4.735   0.357 -13.440  1.00  0.00    -0.237 OA
ATOM     48  O   UNL     1       6.641   0.521 -11.896  1.00  0.00    -0.744 OA
ENDBRANCH  42  45
ENDBRANCH  24  38
BRANCH  25  49
ATOM     49  C   UNL     1       7.200   9.358  -2.502  1.00  0.00     0.023 A 
ATOM     50  C   UNL     1       6.443  10.522  -2.269  1.00  0.00     0.012 A 
ATOM     51  C   UNL     1       8.298   9.067  -1.671  1.00  0.00     0.148 A 
ATOM     52  C   UNL     1       6.769  11.380  -1.219  1.00  0.00     0.002 A 
ATOM     53  C   UNL     1       8.595   9.906  -0.604  1.00  0.00     0.091 A 
ATOM     54  F   UNL     1       8.994   7.947  -1.913  1.00  0.00    -0.205 F 
ATOM     55  C   UNL     1       7.837  11.067  -0.381  1.00  0.00     0.022 A 
BRANCH  53  56
ATOM     56  S   UNL     1       9.881   9.537   0.594  1.00  0.00     0.127 S 
ATOM     57  O   UNL     1      10.711  10.738   0.524  1.00  0.00    -0.237 OA
ATOM     58  O   UNL     1       9.104   9.396   1.825  1.00  0.00    -0.237 OA
ATOM     59  O   UNL     1      10.522   8.315   0.129  1.00  0.00    -0.744 OA
ENDBRANCH  53  56
ENDBRANCH  25  49
BRANCH  37  60
ATOM     60  C   UNL     1       7.415   9.298  -9.495  1.00  0.00     0.023 A 
ATOM     61  C   UNL     1       8.805   9.290  -9.722  1.00  0.00     0.012 A 
ATOM     62  C   UNL     1       6.585  10.114 -10.289  1.00  0.00     0.148 A 
ATOM     63  C   UNL     1       9.364  10.092 -10.715  1.00  0.00     0.002 A 
ATOM     64  C   UNL     1       7.146  10.887 -11.299  1.00  0.00     0.091 A 
ATOM     65  F   UNL     1       5.267  10.113 -10.046  1.00  0.00    -0.205 F 
ATOM     66  C   UNL     1       8.535  10.881 -11.510  1.00  0.00     0.022 A 
BRANCH  64  67
ATOM     67  S   UNL     1       6.154  11.881 -12.420  1.00  0.00     0.127 S 
ATOM     68  O   UNL     1       6.479  13.237 -11.980  1.00  0.00    -0.237 OA
ATOM     69  O   UNL     1       6.702  11.516 -13.727  1.00  0.00    -0.237 OA
ATOM     70  O   UNL     1       4.773  11.470 -12.207  1.00  0.00    -0.744 OA
ENDBRANCH  64  67
ENDBRANCH  37  60
ENDBRANCH  11  12
ENDBRANCH   4   6
ENDBRANCH   1   2
BRANCH   1  71
ATOM     71  C   UNL     1       5.101  -0.859   2.213  1.00  0.00     0.042 C 
BRANCH  71  72
ATOM     72  C   UNL     1       4.509  -1.921   3.130  1.00  0.00     0.118 C 
BRANCH  72  73
ATOM     73  N   UNL     1       4.923  -3.273   2.763  1.00  0.00    -0.352 N 
ATOM     74  C   UNL     1       5.782  -4.119   3.415  1.00  0.00     0.256 C 
ATOM     75  H   UNL     1       4.532  -3.625   1.931  1.00  0.00     0.163 HD
ATOM     76  O   UNL     1       6.186  -5.144   2.869  1.00  0.00    -0.269 OA
BRANCH  74  77
ATOM     77  C   UNL     1       6.201  -3.819   4.787  1.00  0.00     0.102 A 
ATOM     78  C   UNL     1       7.567  -3.777   5.081  1.00  0.00     0.029 A 
ATOM     79  C   UNL     1       5.287  -3.627   5.817  1.00  0.00     0.223 A 
ATOM     80  C   UNL     1       7.987  -3.489   6.383  1.00  0.00     0.001 A 
ATOM     81  N   UNL     1       5.651  -3.317   7.074  1.00  0.00    -0.221 NA
ATOM     82  C   UNL     1       6.980  -3.245   7.322  1.00  0.00     0.124 A 
BRANCH  79  83
ATOM     83  O   UNL     1       3.935  -3.735   5.654  1.00  0.00    -0.493 OA
ATOM     84  H   UNL     1       3.580  -3.947   4.814  1.00  0.00     0.295 HD
ENDBRANCH  79  83
BRANCH  80  85
ATOM     85  C   UNL     1       9.404  -3.468   6.764  1.00  0.00    -0.016 A 
ATOM     86  C   UNL     1       9.865  -4.284   7.812  1.00  0.00     0.012 A 
ATOM     87  C   UNL     1      10.330  -2.635   6.111  1.00  0.00     0.025 A 
ATOM     88  C   UNL     1      11.203  -4.258   8.206  1.00  0.00     0.040 A 
ATOM     89  C   UNL     1      11.681  -2.602   6.504  1.00  0.00     0.092 A 
ATOM     90  C   UNL     1      12.095  -3.416   7.554  1.00  0.00     0.135 A 
ATOM     91  F   UNL     1      13.372  -3.396   7.958  1.00  0.00    -0.206 F 
BRANCH  89  92
ATOM     92  C   UNL     1      12.683  -1.699   5.847  1.00  0.00     0.419 C 
ATOM     93  F   UNL     1      13.140  -0.729   6.684  1.00  0.00    -0.166 F 
ATOM     94  F   UNL     1      13.782  -2.364   5.396  1.00  0.00    -0.166 F 
ATOM     95  F   UNL     1      12.178  -1.046   4.763  1.00  0.00    -0.166 F 
ENDBRANCH  89  92
ENDBRANCH  80  85
ENDBRANCH  74  77
ENDBRANCH  72  73
ENDBRANCH  71  72
ENDBRANCH   1  71
TORSDOF 16
