REMARK SMILES CC[C@H]1CC[C@@](C(=O)NCCCNC(=O)c2ccc(-c3c4nc(c(-c5cccc(S(=O)(=O)[O-])c5F)c5ccc([nH]5)c(-c5cccc(S(=O)(=O)[O-])c5F)c5nc(c(-c6cccc(S(=O)(=O)[O-])c6F)c6ccc3[nH]6)C=C5)C=C4)cc2)(C2CCCC2)C1
REMARK SMILES IDX 12 1 11 2 10 3 9 4 7 5 8 6 6 8 3 9 4 10 84 11 5 12 2 13 1 14
REMARK SMILES IDX 79 15 80 16 83 17 81 18 82 19 13 20 14 21 15 23 16 24 17 25
REMARK SMILES IDX 78 26 18 27 77 28 19 29 20 30 21 31 71 32 22 33 76 34 70 35
REMARK SMILES IDX 72 36 23 37 75 38 69 39 68 40 24 42 56 43 36 44 55 45 37 46
REMARK SMILES IDX 40 47 54 48 73 49 38 50 39 51 53 53 74 54 41 55 25 56 26 57
REMARK SMILES IDX 34 58 27 59 29 60 35 61 28 62 30 63 31 64 32 65 33 66 57 67
REMARK SMILES IDX 58 68 66 69 59 70 61 71 67 72 60 73 62 74 63 75 64 76 65 77
REMARK SMILES IDX 42 78 43 79 51 80 44 81 46 82 52 83 45 84 47 85 48 86 49 87
REMARK SMILES IDX 50 88
REMARK H PARENT 9 7 13 22 72 41 40 52
REMARK Flexibility Score: inf
ROOT
ATOM      1  C   UNL     1       1.864   5.018  -2.941  1.00  0.00     0.118 C 
ENDROOT
BRANCH   1   2
ATOM      2  C   UNL     1       1.181   4.169  -1.870  1.00  0.00     0.042 C 
BRANCH   2   3
ATOM      3  C   UNL     1       2.104   3.150  -1.212  1.00  0.00     0.117 C 
BRANCH   3   4
ATOM      4  N   UNL     1       3.140   3.774  -0.416  1.00  0.00    -0.356 N 
ATOM      5  C   UNL     1       3.386   3.856   0.914  1.00  0.00     0.226 C 
ATOM      6  O   UNL     1       4.459   4.409   1.188  1.00  0.00    -0.274 OA
ATOM      7  H   UNL     1       3.814   4.242  -0.961  1.00  0.00     0.163 HD
BRANCH   5   8
ATOM      8  C   UNL     1       2.457   3.286   2.032  1.00  0.00     0.052 C 
ATOM      9  C   UNL     1       0.781   1.424   1.955  1.00  0.00    -0.010 C 
ATOM     10  C   UNL     1       0.075   2.724   1.581  1.00  0.00     0.005 C 
ATOM     11  C   UNL     1       2.289   1.753   1.861  1.00  0.00     0.020 C 
ATOM     12  C   UNL     1       1.021   3.857   1.962  1.00  0.00     0.017 C 
BRANCH   9  13
ATOM     13  C   UNL     1       0.390   0.752   3.292  1.00  0.00     0.000 C 
ATOM     14  C   UNL     1      -0.729   1.391   4.104  1.00  0.00     0.004 C 
ENDBRANCH   9  13
BRANCH   8  15
ATOM     15  C   UNL     1       3.152   3.632   3.411  1.00  0.00     0.004 C 
ATOM     16  C   UNL     1       3.131   5.118   3.813  1.00  0.00     0.005 C 
ATOM     17  C   UNL     1       2.583   2.954   4.661  1.00  0.00     0.005 C 
ATOM     18  C   UNL     1       3.542   5.111   5.279  1.00  0.00     0.000 C 
ATOM     19  C   UNL     1       2.995   3.812   5.853  1.00  0.00     0.000 C 
ENDBRANCH   8  15
ENDBRANCH   5   8
ENDBRANCH   3   4
ENDBRANCH   2   3
ENDBRANCH   1   2
BRANCH   1  20
ATOM     20  N   UNL     1       2.352   4.220  -4.060  1.00  0.00    -0.352 N 
ATOM     21  C   UNL     1       1.986   4.222  -5.384  1.00  0.00     0.251 C 
ATOM     22  H   UNL     1       3.059   3.575  -3.829  1.00  0.00     0.163 HD
ATOM     23  O   UNL     1       2.376   3.317  -6.117  1.00  0.00    -0.269 OA
BRANCH  21  24
ATOM     24  C   UNL     1       1.120   5.291  -5.927  1.00  0.00     0.039 A 
ATOM     25  C   UNL     1       0.110   4.948  -6.831  1.00  0.00     0.014 A 
ATOM     26  C   UNL     1       1.316   6.629  -5.576  1.00  0.00     0.014 A 
ATOM     27  C   UNL     1      -0.747   5.936  -7.323  1.00  0.00     0.010 A 
ATOM     28  C   UNL     1       0.414   7.600  -6.006  1.00  0.00     0.010 A 
ATOM     29  C   UNL     1      -0.629   7.264  -6.883  1.00  0.00    -0.014 A 
BRANCH  29  30
ATOM     30  C   UNL     1      -1.610   8.302  -7.293  1.00  0.00     0.031 A 
ATOM     31  C   UNL     1      -1.168   9.514  -8.070  1.00  0.00     0.074 A 
ATOM     32  C   UNL     1      -2.889   8.200  -6.877  1.00  0.00     0.049 A 
ATOM     33  N   UNL     1      -1.874  10.544  -8.458  1.00  0.00    -0.248 NA
ATOM     34  C   UNL     1       0.256   9.592  -8.437  1.00  0.00     0.031 C 
ATOM     35  C   UNL     1      -3.422   7.119  -6.043  1.00  0.00     0.029 A 
ATOM     36  N   UNL     1      -3.965   9.030  -7.069  1.00  0.00    -0.354 N 
ATOM     37  C   UNL     1      -0.980  11.409  -9.077  1.00  0.00     0.074 A 
ATOM     38  C   UNL     1       0.327  10.794  -8.993  1.00  0.00     0.031 C 
ATOM     39  C   UNL     1      -4.719   7.354  -5.793  1.00  0.00     0.029 A 
ATOM     40  C   UNL     1      -5.104   8.615  -6.418  1.00  0.00     0.049 A 
ATOM     41  H   UNL     1      -3.926   9.845  -7.619  1.00  0.00     0.167 HD
ATOM     42  C   UNL     1      -1.227  12.595  -9.681  1.00  0.00     0.034 A 
ATOM     43  C   UNL     1      -6.319   9.191  -6.319  1.00  0.00     0.034 A 
ATOM     44  C   UNL     1      -2.535  13.183  -9.801  1.00  0.00     0.049 A 
ATOM     45  C   UNL     1      -6.575  10.486  -7.039  1.00  0.00     0.074 A 
ATOM     46  C   UNL     1      -2.902  14.326 -10.489  1.00  0.00     0.029 A 
ATOM     47  N   UNL     1      -3.684  12.687  -9.208  1.00  0.00    -0.354 N 
ATOM     48  N   UNL     1      -5.755  11.197  -7.773  1.00  0.00    -0.248 NA
ATOM     49  C   UNL     1      -7.933  11.041  -6.947  1.00  0.00     0.031 C 
ATOM     50  C   UNL     1      -4.269  14.539 -10.284  1.00  0.00     0.029 A 
ATOM     51  C   UNL     1      -4.760  13.510  -9.497  1.00  0.00     0.049 A 
ATOM     52  H   UNL     1      -3.730  11.869  -8.662  1.00  0.00     0.167 HD
ATOM     53  C   UNL     1      -6.503  12.265  -8.255  1.00  0.00     0.074 A 
ATOM     54  C   UNL     1      -7.849  12.092  -7.752  1.00  0.00     0.031 C 
ATOM     55  C   UNL     1      -6.106  13.304  -9.030  1.00  0.00     0.034 A 
BRANCH  42  56
ATOM     56  C   UNL     1      -0.067  13.326 -10.307  1.00  0.00     0.023 A 
ATOM     57  C   UNL     1       0.514  12.827 -11.491  1.00  0.00     0.012 A 
ATOM     58  C   UNL     1       0.391  14.547  -9.774  1.00  0.00     0.148 A 
ATOM     59  C   UNL     1       1.551  13.517 -12.118  1.00  0.00     0.002 A 
ATOM     60  C   UNL     1       1.393  15.252 -10.430  1.00  0.00     0.091 A 
ATOM     61  F   UNL     1      -0.162  14.995  -8.638  1.00  0.00    -0.205 F 
ATOM     62  C   UNL     1       1.982  14.733 -11.595  1.00  0.00     0.022 A 
BRANCH  60  63
ATOM     63  S   UNL     1       1.962  16.866  -9.885  1.00  0.00     0.127 S 
ATOM     64  O   UNL     1       3.319  16.562  -9.431  1.00  0.00    -0.237 OA
ATOM     65  O   UNL     1       1.894  17.648 -11.120  1.00  0.00    -0.237 OA
ATOM     66  O   UNL     1       1.037  17.290  -8.844  1.00  0.00    -0.744 OA
ENDBRANCH  60  63
ENDBRANCH  42  56
BRANCH  43  67
ATOM     67  C   UNL     1      -7.400   8.521  -5.541  1.00  0.00     0.023 A 
ATOM     68  C   UNL     1      -8.509   7.977  -6.218  1.00  0.00     0.012 A 
ATOM     69  C   UNL     1      -7.325   8.400  -4.140  1.00  0.00     0.148 A 
ATOM     70  C   UNL     1      -9.541   7.359  -5.511  1.00  0.00     0.002 A 
ATOM     71  C   UNL     1      -8.327   7.731  -3.448  1.00  0.00     0.091 A 
ATOM     72  F   UNL     1      -6.268   8.935  -3.512  1.00  0.00    -0.205 F 
ATOM     73  C   UNL     1      -9.445   7.227  -4.129  1.00  0.00     0.022 A 
BRANCH  71  74
ATOM     74  S   UNL     1      -8.216   7.393  -1.687  1.00  0.00     0.127 S 
ATOM     75  O   UNL     1      -9.216   8.307  -1.143  1.00  0.00    -0.237 OA
ATOM     76  O   UNL     1      -8.578   5.976  -1.627  1.00  0.00    -0.237 OA
ATOM     77  O   UNL     1      -6.833   7.671  -1.321  1.00  0.00    -0.744 OA
ENDBRANCH  71  74
ENDBRANCH  43  67
BRANCH  55  78
ATOM     78  C   UNL     1      -7.144  14.327  -9.412  1.00  0.00     0.023 A 
ATOM     79  C   UNL     1      -7.635  15.223  -8.442  1.00  0.00     0.012 A 
ATOM     80  C   UNL     1      -7.580  14.445 -10.746  1.00  0.00     0.148 A 
ATOM     81  C   UNL     1      -8.570  16.199  -8.787  1.00  0.00     0.002 A 
ATOM     82  C   UNL     1      -8.473  15.452 -11.093  1.00  0.00     0.091 A 
ATOM     83  F   UNL     1      -7.115  13.572 -11.651  1.00  0.00    -0.205 F 
ATOM     84  C   UNL     1      -8.979  16.321 -10.112  1.00  0.00     0.022 A 
BRANCH  82  85
ATOM     85  S   UNL     1      -8.982  15.747 -12.790  1.00  0.00     0.127 S 
ATOM     86  O   UNL     1     -10.372  15.296 -12.767  1.00  0.00    -0.237 OA
ATOM     87  O   UNL     1      -8.812  17.195 -12.917  1.00  0.00    -0.237 OA
ATOM     88  O   UNL     1      -8.083  14.958 -13.622  1.00  0.00    -0.744 OA
ENDBRANCH  82  85
ENDBRANCH  55  78
ENDBRANCH  29  30
ENDBRANCH  21  24
ENDBRANCH   1  20
TORSDOF 15
