REMARK SMILES CC(C)[C@@H](NC(=O)[C@@H]1CC[C@H]2CCCC[C@@H]2[NH2+]1)C(=O)NCCCNC(=O)c1ccc(-c2c3nc(c(-c4cccc(S(=O)(=O)[O-])c4F)c4ccc([nH]4)c(-c4cccc(S(=O)(=O)[O-])c4F)c4nc(c(-c5cccc(S(=O)(=O)[O-])c5F)c5ccc2[nH]5)C=C4)C=C3)cc1
REMARK SMILES IDX 22 1 21 2 20 3 18 4 19 5 4 7 2 8 1 9 3 10 5 11 6 12 7 14
REMARK SMILES IDX 8 15 9 16 17 17 10 18 16 19 11 22 15 23 12 24 14 25 13 26
REMARK SMILES IDX 23 27 24 28 25 29 26 31 27 32 28 33 89 34 29 35 88 36 30 37
REMARK SMILES IDX 31 38 32 39 82 40 33 41 87 42 81 43 83 44 34 45 86 46 80 47
REMARK SMILES IDX 79 48 35 50 67 51 47 52 66 53 48 54 51 55 65 56 84 57 49 58
REMARK SMILES IDX 50 59 64 61 85 62 52 63 36 64 37 65 45 66 38 67 40 68 46 69
REMARK SMILES IDX 39 70 41 71 42 72 43 73 44 74 68 75 69 76 77 77 70 78 72 79
REMARK SMILES IDX 78 80 71 81 73 82 74 83 75 84 76 85 53 86 54 87 62 88 55 89
REMARK SMILES IDX 57 90 63 91 56 92 58 93 59 94 60 95 61 96
REMARK H PARENT 20 6 5 13 17 20 17 21 24 30 83 49 51 60
REMARK Flexibility Score: inf
ROOT
ATOM      1  C   UNL     1      -3.664  -4.014   5.846  1.00  0.00     0.042 C 
ENDROOT
BRANCH   1   2
ATOM      2  C   UNL     1      -4.041  -2.909   4.885  1.00  0.00     0.117 C 
BRANCH   2   3
ATOM      3  N   UNL     1      -3.189  -2.878   3.707  1.00  0.00    -0.354 N 
ATOM      4  C   UNL     1      -3.353  -2.295   2.492  1.00  0.00     0.242 C 
ATOM      5  O   UNL     1      -2.417  -2.392   1.691  1.00  0.00    -0.273 OA
ATOM      6  H   UNL     1      -2.341  -3.367   3.809  1.00  0.00     0.163 HD
BRANCH   4   7
ATOM      7  C   UNL     1      -4.646  -1.563   2.085  1.00  0.00     0.174 C 
BRANCH   7   8
ATOM      8  C   UNL     1      -5.856  -2.557   2.070  1.00  0.00     0.015 C 
ATOM      9  C   UNL     1      -7.139  -1.956   1.488  1.00  0.00     0.010 C 
ATOM     10  C   UNL     1      -5.541  -3.862   1.322  1.00  0.00     0.010 C 
ENDBRANCH   7   8
BRANCH   7  11
ATOM     11  N   UNL     1      -4.916  -0.348   2.884  1.00  0.00    -0.339 N 
ATOM     12  C   UNL     1      -4.166   0.807   2.985  1.00  0.00     0.278 C 
ATOM     13  H   UNL     1      -5.744  -0.366   3.417  1.00  0.00     0.164 HD
ATOM     14  O   UNL     1      -4.803   1.864   3.029  1.00  0.00    -0.268 OA
BRANCH  12  15
ATOM     15  C   UNL     1      -2.616   0.733   3.181  1.00  0.00     0.272 C 
ATOM     16  C   UNL     1      -2.306   0.129   4.561  1.00  0.00     0.076 C 
ATOM     17  N   UNL     1      -1.960   2.029   2.901  1.00  0.00    -0.333 N 
ATOM     18  C   UNL     1      -1.919   1.084   5.680  1.00  0.00     0.016 C 
ATOM     19  C   UNL     1      -1.710   2.910   4.053  1.00  0.00     0.186 C 
ATOM     20  H   UNL     1      -2.552   2.539   2.245  1.00  0.00     0.347 HD
ATOM     21  H   UNL     1      -1.035   1.788   2.543  1.00  0.00     0.347 HD
ATOM     22  C   UNL     1      -2.404   2.483   5.355  1.00  0.00     0.048 C 
ATOM     23  C   UNL     1      -2.059   4.356   3.688  1.00  0.00     0.065 C 
ATOM     24  C   UNL     1      -2.115   3.448   6.508  1.00  0.00     0.010 C 
ATOM     25  C   UNL     1      -1.792   5.313   4.852  1.00  0.00     0.006 C 
ATOM     26  C   UNL     1      -2.500   4.873   6.129  1.00  0.00     0.001 C 
ENDBRANCH  12  15
ENDBRANCH   7  11
ENDBRANCH   4   7
ENDBRANCH   2   3
ENDBRANCH   1   2
BRANCH   1  27
ATOM     27  C   UNL     1      -2.224  -3.961   6.327  1.00  0.00     0.118 C 
BRANCH  27  28
ATOM     28  N   UNL     1      -1.835  -2.698   6.950  1.00  0.00    -0.352 N 
ATOM     29  C   UNL     1      -1.248  -2.483   8.178  1.00  0.00     0.251 C 
ATOM     30  H   UNL     1      -2.018  -1.889   6.420  1.00  0.00     0.163 HD
ATOM     31  O   UNL     1      -1.036  -1.347   8.589  1.00  0.00    -0.269 OA
BRANCH  29  32
ATOM     32  C   UNL     1      -0.926  -3.660   9.004  1.00  0.00     0.039 A 
ATOM     33  C   UNL     1      -1.464  -3.761  10.287  1.00  0.00     0.014 A 
ATOM     34  C   UNL     1      -0.248  -4.730   8.421  1.00  0.00     0.014 A 
ATOM     35  C   UNL     1      -1.425  -4.992  10.943  1.00  0.00     0.010 A 
ATOM     36  C   UNL     1      -0.337  -5.978   9.014  1.00  0.00     0.010 A 
ATOM     37  C   UNL     1      -0.923  -6.125  10.281  1.00  0.00    -0.014 A 
BRANCH  37  38
ATOM     38  C   UNL     1      -0.996  -7.484  10.872  1.00  0.00     0.031 A 
ATOM     39  C   UNL     1       0.269  -8.282  11.039  1.00  0.00     0.074 A 
ATOM     40  C   UNL     1      -2.195  -8.046  11.128  1.00  0.00     0.049 A 
ATOM     41  N   UNL     1       0.418  -9.530  11.392  1.00  0.00    -0.248 NA
ATOM     42  C   UNL     1       1.532  -7.601  10.703  1.00  0.00     0.031 C 
ATOM     43  C   UNL     1      -3.498  -7.411  10.910  1.00  0.00     0.029 A 
ATOM     44  N   UNL     1      -2.514  -9.291  11.608  1.00  0.00    -0.354 N 
ATOM     45  C   UNL     1       1.775  -9.797  11.260  1.00  0.00     0.074 A 
ATOM     46  C   UNL     1       2.396  -8.603  10.735  1.00  0.00     0.031 C 
ATOM     47  C   UNL     1      -4.471  -8.258  11.285  1.00  0.00     0.029 A 
ATOM     48  C   UNL     1      -3.867  -9.505  11.739  1.00  0.00     0.049 A 
ATOM     49  H   UNL     1      -1.837  -9.968  11.837  1.00  0.00     0.167 HD
ATOM     50  C   UNL     1       2.457 -10.918  11.593  1.00  0.00     0.034 A 
ATOM     51  C   UNL     1      -4.539 -10.584  12.186  1.00  0.00     0.034 A 
ATOM     52  C   UNL     1       1.845 -12.065  12.202  1.00  0.00     0.049 A 
ATOM     53  C   UNL     1      -3.754 -11.784  12.642  1.00  0.00     0.074 A 
ATOM     54  C   UNL     1       2.448 -13.212  12.681  1.00  0.00     0.029 A 
ATOM     55  N   UNL     1       0.484 -12.197  12.432  1.00  0.00    -0.354 N 
ATOM     56  N   UNL     1      -2.455 -11.966  12.649  1.00  0.00    -0.248 NA
ATOM     57  C   UNL     1      -4.522 -12.913  13.186  1.00  0.00     0.031 C 
ATOM     58  C   UNL     1       1.448 -14.041  13.203  1.00  0.00     0.029 A 
ATOM     59  C   UNL     1       0.225 -13.404  13.055  1.00  0.00     0.049 A 
ATOM     60  H   UNL     1      -0.198 -11.531  12.187  1.00  0.00     0.167 HD
ATOM     61  C   UNL     1      -2.246 -13.210  13.231  1.00  0.00     0.074 A 
ATOM     62  C   UNL     1      -3.554 -13.731  13.579  1.00  0.00     0.031 C 
ATOM     63  C   UNL     1      -1.081 -13.870  13.447  1.00  0.00     0.034 A 
BRANCH  50  64
ATOM     64  C   UNL     1       3.948 -10.905  11.377  1.00  0.00     0.023 A 
ATOM     65  C   UNL     1       4.757 -10.071  12.179  1.00  0.00     0.012 A 
ATOM     66  C   UNL     1       4.552 -11.703  10.388  1.00  0.00     0.148 A 
ATOM     67  C   UNL     1       6.131  -9.987  11.961  1.00  0.00     0.002 A 
ATOM     68  C   UNL     1       5.931 -11.652  10.210  1.00  0.00     0.091 A 
ATOM     69  F   UNL     1       3.770 -12.470   9.614  1.00  0.00    -0.205 F 
ATOM     70  C   UNL     1       6.719 -10.783  10.983  1.00  0.00     0.022 A 
BRANCH  68  71
ATOM     71  S   UNL     1       6.784 -12.701   9.028  1.00  0.00     0.127 S 
ATOM     72  O   UNL     1       7.018 -11.773   7.923  1.00  0.00    -0.237 OA
ATOM     73  O   UNL     1       7.989 -13.086   9.765  1.00  0.00    -0.237 OA
ATOM     74  O   UNL     1       5.872 -13.802   8.749  1.00  0.00    -0.744 OA
ENDBRANCH  68  71
ENDBRANCH  50  64
BRANCH  51  75
ATOM     75  C   UNL     1      -6.021 -10.526  12.341  1.00  0.00     0.023 A 
ATOM     76  C   UNL     1      -6.564 -10.439  13.639  1.00  0.00     0.012 A 
ATOM     77  C   UNL     1      -6.889 -10.502  11.233  1.00  0.00     0.148 A 
ATOM     78  C   UNL     1      -7.943 -10.357  13.833  1.00  0.00     0.002 A 
ATOM     79  C   UNL     1      -8.261 -10.371  11.431  1.00  0.00     0.091 A 
ATOM     80  F   UNL     1      -6.356 -10.591  10.007  1.00  0.00    -0.205 F 
ATOM     81  C   UNL     1      -8.790 -10.313  12.730  1.00  0.00     0.022 A 
BRANCH  79  82
ATOM     82  S   UNL     1      -9.421 -10.179  10.072  1.00  0.00     0.127 S 
ATOM     83  O   UNL     1     -10.143 -11.447  10.113  1.00  0.00    -0.237 OA
ATOM     84  O   UNL     1     -10.196  -9.014  10.499  1.00  0.00    -0.237 OA
ATOM     85  O   UNL     1      -8.604  -9.953   8.887  1.00  0.00    -0.744 OA
ENDBRANCH  79  82
ENDBRANCH  51  75
BRANCH  63  86
ATOM     86  C   UNL     1      -1.158 -15.212  14.121  1.00  0.00     0.023 A 
ATOM     87  C   UNL     1      -1.610 -16.331  13.396  1.00  0.00     0.012 A 
ATOM     88  C   UNL     1      -0.698 -15.378  15.442  1.00  0.00     0.148 A 
ATOM     89  C   UNL     1      -1.627 -17.594  13.986  1.00  0.00     0.002 A 
ATOM     90  C   UNL     1      -0.674 -16.647  16.007  1.00  0.00     0.091 A 
ATOM     91  F   UNL     1      -0.292 -14.294  16.120  1.00  0.00    -0.205 F 
ATOM     92  C   UNL     1      -1.147 -17.754  15.284  1.00  0.00     0.022 A 
BRANCH  90  93
ATOM     93  S   UNL     1       0.017 -16.954  17.636  1.00  0.00     0.127 S 
ATOM     94  O   UNL     1      -1.189 -17.119  18.445  1.00  0.00    -0.237 OA
ATOM     95  O   UNL     1       0.782 -18.184  17.424  1.00  0.00    -0.237 OA
ATOM     96  O   UNL     1       0.831 -15.787  17.948  1.00  0.00    -0.744 OA
ENDBRANCH  90  93
ENDBRANCH  63  86
ENDBRANCH  37  38
ENDBRANCH  29  32
ENDBRANCH  27  28
ENDBRANCH   1  27
TORSDOF 16
