REMARK SMILES Cc1ccc2c(=O)c3cccc(CC(=O)NCCCNC(=O)c4ccc(-c5c6nc(c(-c7cccc(S(=O)(=O)[O-])c7F)c7ccc([nH]7)c(-c7cccc(S(=O)(=O)[O-])c7F)c7nc(c(-c8cccc(S(=O)(=O)[O-])c8F)c8ccc5[nH]8)C=C7)C=C6)cc4)c3oc2c1C
REMARK SMILES IDX 19 1 18 2 17 3 16 4 14 5 15 6 13 8 12 9 1 10 2 11 3 12 89 13
REMARK SMILES IDX 4 14 88 15 90 16 5 17 87 18 6 19 86 20 7 21 8 22 9 23 11 24
REMARK SMILES IDX 10 25 20 26 21 27 22 29 23 30 24 31 85 32 25 33 84 34 26 35
REMARK SMILES IDX 27 36 28 37 78 38 29 39 83 40 77 41 79 42 30 43 82 44 76 45
REMARK SMILES IDX 75 46 31 48 63 49 43 50 62 51 44 52 47 53 61 54 80 55 45 56
REMARK SMILES IDX 46 57 60 59 81 60 48 61 32 62 33 63 41 64 34 65 36 66 42 67
REMARK SMILES IDX 35 68 37 69 38 70 39 71 40 72 64 73 65 74 73 75 66 76 68 77
REMARK SMILES IDX 74 78 67 79 69 80 70 81 71 82 72 83 49 84 50 85 58 86 51 87
REMARK SMILES IDX 53 88 59 89 52 90 54 91 55 92 56 93 57 94
REMARK H PARENT 16 7 20 28 79 47 47 58
REMARK Flexibility Score: inf
ROOT
ATOM      1  C   UNL     1       2.774   2.049   8.323  1.00  0.00     0.118 C 
ENDROOT
BRANCH   1   2
ATOM      2  C   UNL     1       1.278   1.822   8.504  1.00  0.00     0.042 C 
BRANCH   2   3
ATOM      3  C   UNL     1       0.436   3.075   8.291  1.00  0.00     0.117 C 
BRANCH   3   4
ATOM      4  N   UNL     1       0.461   3.526   6.912  1.00  0.00    -0.356 N 
ATOM      5  C   UNL     1      -0.475   3.374   5.931  1.00  0.00     0.224 C 
ATOM      6  O   UNL     1      -0.249   3.883   4.831  1.00  0.00    -0.275 OA
ATOM      7  H   UNL     1       1.272   4.015   6.645  1.00  0.00     0.163 HD
BRANCH   5   8
ATOM      8  C   UNL     1      -1.792   2.676   6.223  1.00  0.00     0.139 C 
BRANCH   8   9
ATOM      9  C   UNL     1      -1.687   1.199   6.535  1.00  0.00     0.005 A 
ATOM     10  C   UNL     1       1.023   0.016  -0.177  1.00  0.00     0.045 C 
ATOM     11  C   UNL     1       0.573  -0.455   1.180  1.00  0.00    -0.044 A 
ATOM     12  C   UNL     1       0.711  -1.827   1.461  1.00  0.00     0.005 A 
ATOM     13  C   UNL     1       0.091   0.414   2.188  1.00  0.00    -0.005 A 
ATOM     14  C   UNL     1       0.349  -2.346   2.700  1.00  0.00     0.016 A 
ATOM     15  C   UNL     1      -0.285  -0.126   3.439  1.00  0.00     0.141 A 
ATOM     16  C   UNL     1      -0.030   1.904   1.987  1.00  0.00     0.049 C 
ATOM     17  C   UNL     1      -0.154  -1.492   3.680  1.00  0.00     0.066 A 
ATOM     18  O   UNL     1      -0.777   0.753   4.383  1.00  0.00    -0.455 OA
ATOM     19  C   UNL     1      -0.554  -2.029   4.984  1.00  0.00     0.200 A 
ATOM     20  C   UNL     1      -1.168   0.274   5.611  1.00  0.00     0.142 A 
ATOM     21  O   UNL     1      -0.477  -3.224   5.239  1.00  0.00    -0.288 OA
ATOM     22  C   UNL     1      -1.077  -1.072   5.965  1.00  0.00     0.066 A 
ATOM     23  C   UNL     1      -1.487  -1.519   7.225  1.00  0.00     0.016 A 
ATOM     24  C   UNL     1      -2.139   0.731   7.785  1.00  0.00     0.008 A 
ATOM     25  C   UNL     1      -2.024  -0.615   8.134  1.00  0.00     0.001 A 
ENDBRANCH   8   9
ENDBRANCH   5   8
ENDBRANCH   3   4
ENDBRANCH   2   3
ENDBRANCH   1   2
BRANCH   1  26
ATOM     26  N   UNL     1       3.343   2.936   9.331  1.00  0.00    -0.352 N 
ATOM     27  C   UNL     1       4.368   2.720  10.224  1.00  0.00     0.251 C 
ATOM     28  H   UNL     1       2.930   3.829   9.381  1.00  0.00     0.163 HD
ATOM     29  O   UNL     1       4.590   3.550  11.101  1.00  0.00    -0.269 OA
BRANCH  27  30
ATOM     30  C   UNL     1       5.168   1.478  10.147  1.00  0.00     0.039 A 
ATOM     31  C   UNL     1       5.591   0.980   8.914  1.00  0.00     0.014 A 
ATOM     32  C   UNL     1       5.475   0.786  11.322  1.00  0.00     0.014 A 
ATOM     33  C   UNL     1       6.133  -0.297   8.837  1.00  0.00     0.010 A 
ATOM     34  C   UNL     1       6.114  -0.456  11.249  1.00  0.00     0.010 A 
ATOM     35  C   UNL     1       6.393  -1.037  10.002  1.00  0.00    -0.014 A 
BRANCH  35  36
ATOM     36  C   UNL     1       6.946  -2.412   9.886  1.00  0.00     0.031 A 
ATOM     37  C   UNL     1       6.168  -3.604  10.384  1.00  0.00     0.074 A 
ATOM     38  C   UNL     1       8.137  -2.595   9.281  1.00  0.00     0.049 A 
ATOM     39  N   UNL     1       6.494  -4.871  10.342  1.00  0.00    -0.248 NA
ATOM     40  C   UNL     1       4.858  -3.349  11.008  1.00  0.00     0.031 C 
ATOM     41  C   UNL     1       8.992  -1.523   8.763  1.00  0.00     0.029 A 
ATOM     42  N   UNL     1       8.829  -3.742   8.985  1.00  0.00    -0.354 N 
ATOM     43  C   UNL     1       5.456  -5.556  10.962  1.00  0.00     0.074 A 
ATOM     44  C   UNL     1       4.488  -4.567  11.382  1.00  0.00     0.031 C 
ATOM     45  C   UNL     1      10.069  -2.064   8.176  1.00  0.00     0.029 A 
ATOM     46  C   UNL     1      10.014  -3.514   8.328  1.00  0.00     0.049 A 
ATOM     47  H   UNL     1       8.507  -4.642   9.221  1.00  0.00     0.167 HD
ATOM     48  C   UNL     1       5.311  -6.889  11.145  1.00  0.00     0.034 A 
ATOM     49  C   UNL     1      10.963  -4.370   7.903  1.00  0.00     0.034 A 
ATOM     50  C   UNL     1       6.245  -7.878  10.681  1.00  0.00     0.049 A 
ATOM     51  C   UNL     1      10.781  -5.842   8.128  1.00  0.00     0.074 A 
ATOM     52  C   UNL     1       6.154  -9.255  10.785  1.00  0.00     0.029 A 
ATOM     53  N   UNL     1       7.432  -7.602  10.023  1.00  0.00    -0.354 N 
ATOM     54  N   UNL     1       9.761  -6.469   8.660  1.00  0.00    -0.248 NA
ATOM     55  C   UNL     1      11.869  -6.725   7.686  1.00  0.00     0.031 C 
ATOM     56  C   UNL     1       7.295  -9.813  10.203  1.00  0.00     0.029 A 
ATOM     57  C   UNL     1       8.086  -8.783   9.720  1.00  0.00     0.049 A 
ATOM     58  H   UNL     1       7.761  -6.701   9.803  1.00  0.00     0.167 HD
ATOM     59  C   UNL     1      10.075  -7.821   8.601  1.00  0.00     0.074 A 
ATOM     60  C   UNL     1      11.373  -7.924   7.968  1.00  0.00     0.031 C 
ATOM     61  C   UNL     1       9.355  -8.877   9.049  1.00  0.00     0.034 A 
BRANCH  48  62
ATOM     62  C   UNL     1       4.070  -7.387  11.836  1.00  0.00     0.023 A 
ATOM     63  C   UNL     1       2.868  -7.481  11.108  1.00  0.00     0.012 A 
ATOM     64  C   UNL     1       4.127  -7.883  13.153  1.00  0.00     0.148 A 
ATOM     65  C   UNL     1       1.738  -8.060  11.682  1.00  0.00     0.002 A 
ATOM     66  C   UNL     1       3.005  -8.486  13.709  1.00  0.00     0.091 A 
ATOM     67  F   UNL     1       5.282  -7.775  13.825  1.00  0.00    -0.205 F 
ATOM     68  C   UNL     1       1.809  -8.573  12.976  1.00  0.00     0.022 A 
BRANCH  66  69
ATOM     69  S   UNL     1       3.003  -9.225  15.346  1.00  0.00     0.127 S 
ATOM     70  O   UNL     1       2.025  -8.391  16.044  1.00  0.00    -0.237 OA
ATOM     71  O   UNL     1       2.553 -10.588  15.066  1.00  0.00    -0.237 OA
ATOM     72  O   UNL     1       4.368  -9.117  15.841  1.00  0.00    -0.744 OA
ENDBRANCH  66  69
ENDBRANCH  48  62
BRANCH  49  73
ATOM     73  C   UNL     1      12.154  -3.839   7.188  1.00  0.00     0.023 A 
ATOM     74  C   UNL     1      12.259  -4.019   5.796  1.00  0.00     0.012 A 
ATOM     75  C   UNL     1      13.139  -3.097   7.867  1.00  0.00     0.148 A 
ATOM     76  C   UNL     1      13.331  -3.470   5.091  1.00  0.00     0.002 A 
ATOM     77  C   UNL     1      14.182  -2.519   7.153  1.00  0.00     0.091 A 
ATOM     78  F   UNL     1      13.014  -2.944   9.193  1.00  0.00    -0.205 F 
ATOM     79  C   UNL     1      14.285  -2.713   5.767  1.00  0.00     0.022 A 
BRANCH  77  80
ATOM     80  S   UNL     1      15.400  -1.444   7.918  1.00  0.00     0.127 S 
ATOM     81  O   UNL     1      16.631  -2.207   7.728  1.00  0.00    -0.237 OA
ATOM     82  O   UNL     1      15.289  -0.238   7.097  1.00  0.00    -0.237 OA
ATOM     83  O   UNL     1      14.973  -1.278   9.300  1.00  0.00    -0.744 OA
ENDBRANCH  77  80
ENDBRANCH  49  73
BRANCH  61  84
ATOM     84  C   UNL     1       9.929 -10.254   8.866  1.00  0.00     0.023 A 
ATOM     85  C   UNL     1      10.926 -10.708   9.749  1.00  0.00     0.012 A 
ATOM     86  C   UNL     1       9.386 -11.135   7.911  1.00  0.00     0.148 A 
ATOM     87  C   UNL     1      11.379 -12.025   9.682  1.00  0.00     0.002 A 
ATOM     88  C   UNL     1       9.819 -12.454   7.872  1.00  0.00     0.091 A 
ATOM     89  F   UNL     1       8.441 -10.672   7.080  1.00  0.00    -0.205 F 
ATOM     90  C   UNL     1      10.818 -12.899   8.754  1.00  0.00     0.022 A 
BRANCH  88  91
ATOM     91  S   UNL     1       9.109 -13.676   6.763  1.00  0.00     0.127 S 
ATOM     92  O   UNL     1      10.249 -13.995   5.904  1.00  0.00    -0.237 OA
ATOM     93  O   UNL     1       8.723 -14.742   7.686  1.00  0.00    -0.237 OA
ATOM     94  O   UNL     1       7.997 -13.017   6.091  1.00  0.00    -0.744 OA
ENDBRANCH  88  91
ENDBRANCH  61  84
ENDBRANCH  35  36
ENDBRANCH  27  30
ENDBRANCH   1  26
TORSDOF 14
