REMARK SMILES O=C(CNC(=O)N1CC(NCCCNC(=O)c2ccc(-c3c4nc(c(-c5cccc(S(=O)(=O)[O-])c5F)c5ccc([nH]5)c(-c5cccc(S(=O)(=O)[O-])c5F)c5nc(c(-c6cccc(S(=O)(=O)[O-])c6F)c6ccc3[nH]6)C=C5)C=C4)cc2)=[NH+]c2ccccc21)N[C@H](C(=O)[O-])c1ccccc1
REMARK SMILES IDX 11 1 10 2 7 3 8 4 86 5 9 6 81 7 85 8 80 9 82 10 84 11 83 14
REMARK SMILES IDX 5 15 4 16 6 18 3 19 2 20 1 21 87 22 88 24 92 25 93 26 97 27
REMARK SMILES IDX 94 28 96 29 95 30 89 31 90 32 91 33 12 34 13 35 14 36 15 37
REMARK SMILES IDX 16 39 17 40 18 41 79 42 19 43 78 44 20 45 21 46 22 47 72 48
REMARK SMILES IDX 23 49 77 50 71 51 73 52 24 53 76 54 70 55 69 56 25 58 57 59
REMARK SMILES IDX 37 60 56 61 38 62 41 63 55 64 74 65 39 66 40 67 54 69 75 70
REMARK SMILES IDX 42 71 26 72 27 73 35 74 28 75 30 76 36 77 29 78 31 79 32 80
REMARK SMILES IDX 33 81 34 82 58 83 59 84 67 85 60 86 62 87 68 88 61 89 63 90
REMARK SMILES IDX 64 91 65 92 66 93 43 94 44 95 52 96 45 97 47 98 53 99 46 100
REMARK SMILES IDX 48 101 49 102 50 103 51 104
REMARK H PARENT 10 12 80 13 4 17 87 23 14 38 73 57 41 68
REMARK Flexibility Score: inf
ROOT
ATOM      1  C   UNL     1      -1.000  -7.595  -0.288  1.00  0.00     0.235 C 
ENDROOT
BRANCH   1   2
ATOM      2  N   UNL     1      -1.007  -6.805  -1.495  1.00  0.00    -0.277 N 
ATOM      3  N   UNL     1       2.356  -6.736  -2.935  1.00  0.00    -0.278 N 
ATOM      4  C   UNL     1       1.276  -7.506  -2.343  1.00  0.00     0.255 C 
ATOM      5  C   UNL     1       2.064  -6.215  -4.218  1.00  0.00     0.093 A 
ATOM      6  C   UNL     1      -0.034  -6.717  -2.460  1.00  0.00     0.268 C 
ATOM      7  C   UNL     1       0.730  -5.834  -4.471  1.00  0.00     0.148 A 
ATOM      8  C   UNL     1       3.057  -6.018  -5.186  1.00  0.00     0.031 A 
ATOM      9  N   UNL     1      -0.290  -5.973  -3.505  1.00  0.00    -0.241 N 
ATOM     10  C   UNL     1       0.436  -5.175  -5.666  1.00  0.00     0.054 A 
ATOM     11  C   UNL     1       2.740  -5.377  -6.383  1.00  0.00     0.002 A 
ATOM     12  H   UNL     1      -1.812  -6.259  -1.647  1.00  0.00     0.304 HD
ATOM     13  H   UNL     1      -1.161  -5.527  -3.613  1.00  0.00     0.312 HD
ATOM     14  C   UNL     1       1.435  -4.939  -6.614  1.00  0.00     0.005 A 
BRANCH   3  15
ATOM     15  C   UNL     1       3.501  -6.566  -2.203  1.00  0.00     0.323 C 
ATOM     16  N   UNL     1       4.172  -5.386  -2.242  1.00  0.00    -0.329 N 
ATOM     17  H   UNL     1       5.051  -5.402  -1.798  1.00  0.00     0.165 HD
ATOM     18  O   UNL     1       3.896  -7.423  -1.408  1.00  0.00    -0.248 OA
BRANCH  16  19
ATOM     19  C   UNL     1       3.811  -4.096  -2.831  1.00  0.00     0.218 C 
BRANCH  19  20
ATOM     20  C   UNL     1       3.553  -2.930  -1.885  1.00  0.00     0.240 C 
ATOM     21  O   UNL     1       3.485  -1.795  -2.347  1.00  0.00    -0.273 OA
ATOM     22  N   UNL     1       3.229  -3.303  -0.604  1.00  0.00    -0.342 N 
ATOM     23  H   UNL     1       3.319  -4.251  -0.352  1.00  0.00     0.164 HD
BRANCH  22  24
ATOM     24  C   UNL     1       2.750  -2.337   0.416  1.00  0.00     0.158 C 
BRANCH  24  25
ATOM     25  C   UNL     1       2.773  -2.924   1.843  1.00  0.00    -0.020 A 
ATOM     26  C   UNL     1       2.710  -4.306   2.107  1.00  0.00     0.006 A 
ATOM     27  C   UNL     1       2.791  -2.066   2.961  1.00  0.00     0.006 A 
ATOM     28  C   UNL     1       2.748  -4.803   3.416  1.00  0.00     0.000 A 
ATOM     29  C   UNL     1       2.827  -2.561   4.268  1.00  0.00     0.000 A 
ATOM     30  C   UNL     1       2.819  -3.931   4.497  1.00  0.00     0.000 A 
ENDBRANCH  24  25
BRANCH  24  31
ATOM     31  C   UNL     1       3.473  -0.926   0.371  1.00  0.00     0.068 C 
ATOM     32  O   UNL     1       2.686   0.072   0.328  1.00  0.00    -0.548 OA
ATOM     33  O   UNL     1       4.742  -0.945   0.411  1.00  0.00    -0.548 OA
ENDBRANCH  24  31
ENDBRANCH  22  24
ENDBRANCH  19  20
ENDBRANCH  16  19
ENDBRANCH   3  15
ENDBRANCH   1   2
BRANCH   1  34
ATOM     34  C   UNL     1      -0.733  -6.741   0.947  1.00  0.00     0.067 C 
BRANCH  34  35
ATOM     35  C   UNL     1      -1.845  -5.750   1.281  1.00  0.00     0.120 C 
BRANCH  35  36
ATOM     36  N   UNL     1      -3.132  -6.401   1.510  1.00  0.00    -0.352 N 
ATOM     37  C   UNL     1      -3.975  -6.360   2.592  1.00  0.00     0.251 C 
ATOM     38  H   UNL     1      -3.447  -6.961   0.764  1.00  0.00     0.163 HD
ATOM     39  O   UNL     1      -4.928  -7.137   2.633  1.00  0.00    -0.269 OA
BRANCH  37  40
ATOM     40  C   UNL     1      -3.753  -5.407   3.702  1.00  0.00     0.039 A 
ATOM     41  C   UNL     1      -4.031  -5.821   5.010  1.00  0.00     0.014 A 
ATOM     42  C   UNL     1      -3.329  -4.098   3.467  1.00  0.00     0.014 A 
ATOM     43  C   UNL     1      -3.842  -4.939   6.077  1.00  0.00     0.010 A 
ATOM     44  C   UNL     1      -3.060  -3.248   4.538  1.00  0.00     0.010 A 
ATOM     45  C   UNL     1      -3.334  -3.649   5.853  1.00  0.00    -0.014 A 
BRANCH  45  46
ATOM     46  C   UNL     1      -3.105  -2.701   6.976  1.00  0.00     0.031 A 
ATOM     47  C   UNL     1      -3.863  -1.398   7.032  1.00  0.00     0.074 A 
ATOM     48  C   UNL     1      -2.165  -2.975   7.902  1.00  0.00     0.049 A 
ATOM     49  N   UNL     1      -3.772  -0.426   7.904  1.00  0.00    -0.248 NA
ATOM     50  C   UNL     1      -4.840  -1.143   5.959  1.00  0.00     0.031 C 
ATOM     51  C   UNL     1      -1.310  -4.165   7.916  1.00  0.00     0.029 A 
ATOM     52  N   UNL     1      -1.748  -2.257   8.996  1.00  0.00    -0.354 N 
ATOM     53  C   UNL     1      -4.634   0.570   7.458  1.00  0.00     0.074 A 
ATOM     54  C   UNL     1      -5.230   0.094   6.230  1.00  0.00     0.031 C 
ATOM     55  C   UNL     1      -0.472  -4.094   8.963  1.00  0.00     0.029 A 
ATOM     56  C   UNL     1      -0.703  -2.842   9.676  1.00  0.00     0.049 A 
ATOM     57  H   UNL     1      -2.157  -1.404   9.269  1.00  0.00     0.167 HD
ATOM     58  C   UNL     1      -4.924   1.763   8.031  1.00  0.00     0.034 A 
ATOM     59  C   UNL     1      -0.002  -2.409  10.742  1.00  0.00     0.034 A 
ATOM     60  C   UNL     1      -4.361   2.213   9.275  1.00  0.00     0.049 A 
ATOM     61  C   UNL     1      -0.379  -1.097  11.380  1.00  0.00     0.074 A 
ATOM     62  C   UNL     1      -4.661   3.361   9.987  1.00  0.00     0.029 A 
ATOM     63  N   UNL     1      -3.375   1.548   9.984  1.00  0.00    -0.354 N 
ATOM     64  N   UNL     1      -1.327  -0.256  11.047  1.00  0.00    -0.248 NA
ATOM     65  C   UNL     1       0.384  -0.695  12.572  1.00  0.00     0.031 C 
ATOM     66  C   UNL     1      -3.835   3.404  11.114  1.00  0.00     0.029 A 
ATOM     67  C   UNL     1      -3.053   2.261  11.126  1.00  0.00     0.049 A 
ATOM     68  H   UNL     1      -2.964   0.694   9.716  1.00  0.00     0.167 HD
ATOM     69  C   UNL     1      -1.307   0.745  12.011  1.00  0.00     0.074 A 
ATOM     70  C   UNL     1      -0.267   0.395  12.955  1.00  0.00     0.031 C 
ATOM     71  C   UNL     1      -2.073   1.860  12.101  1.00  0.00     0.034 A 
BRANCH  58  72
ATOM     72  C   UNL     1      -5.937   2.651   7.354  1.00  0.00     0.023 A 
ATOM     73  C   UNL     1      -7.298   2.281   7.360  1.00  0.00     0.012 A 
ATOM     74  C   UNL     1      -5.562   3.894   6.804  1.00  0.00     0.148 A 
ATOM     75  C   UNL     1      -8.265   3.118   6.803  1.00  0.00     0.002 A 
ATOM     76  C   UNL     1      -6.538   4.745   6.297  1.00  0.00     0.091 A 
ATOM     77  F   UNL     1      -4.264   4.226   6.800  1.00  0.00    -0.205 F 
ATOM     78  C   UNL     1      -7.887   4.352   6.284  1.00  0.00     0.022 A 
BRANCH  76  79
ATOM     79  S   UNL     1      -6.179   6.402   5.702  1.00  0.00     0.127 S 
ATOM     80  O   UNL     1      -6.511   6.286   4.282  1.00  0.00    -0.237 OA
ATOM     81  O   UNL     1      -7.117   7.213   6.479  1.00  0.00    -0.237 OA
ATOM     82  O   UNL     1      -4.775   6.645   5.997  1.00  0.00    -0.744 OA
ENDBRANCH  76  79
ENDBRANCH  58  72
BRANCH  59  83
ATOM     83  C   UNL     1       1.089  -3.246  11.323  1.00  0.00     0.023 A 
ATOM     84  C   UNL     1       0.922  -3.805  12.606  1.00  0.00     0.012 A 
ATOM     85  C   UNL     1       2.292  -3.478  10.628  1.00  0.00     0.148 A 
ATOM     86  C   UNL     1       1.950  -4.531  13.209  1.00  0.00     0.002 A 
ATOM     87  C   UNL     1       3.289  -4.253  11.210  1.00  0.00     0.091 A 
ATOM     88  F   UNL     1       2.440  -2.932   9.413  1.00  0.00    -0.205 F 
ATOM     89  C   UNL     1       3.130  -4.760  12.509  1.00  0.00     0.022 A 
BRANCH  87  90
ATOM     90  S   UNL     1       4.787  -4.715  10.335  1.00  0.00     0.127 S 
ATOM     91  O   UNL     1       5.784  -3.872  10.984  1.00  0.00    -0.237 OA
ATOM     92  O   UNL     1       4.891  -6.141  10.646  1.00  0.00    -0.237 OA
ATOM     93  O   UNL     1       4.516  -4.429   8.931  1.00  0.00    -0.744 OA
ENDBRANCH  87  90
ENDBRANCH  59  83
BRANCH  71  94
ATOM     94  C   UNL     1      -1.883   2.750  13.303  1.00  0.00     0.023 A 
ATOM     95  C   UNL     1      -0.716   3.528  13.434  1.00  0.00     0.012 A 
ATOM     96  C   UNL     1      -2.904   2.867  14.268  1.00  0.00     0.148 A 
ATOM     97  C   UNL     1      -0.551   4.377  14.528  1.00  0.00     0.002 A 
ATOM     98  C   UNL     1      -2.756   3.755  15.326  1.00  0.00     0.091 A 
ATOM     99  F   UNL     1      -4.001   2.106  14.136  1.00  0.00    -0.205 F 
ATOM    100  C   UNL     1      -1.574   4.500  15.466  1.00  0.00     0.022 A 
BRANCH  98 101
ATOM    101  S   UNL     1      -4.063   4.053  16.522  1.00  0.00     0.127 S 
ATOM    102  O   UNL     1      -3.537   3.389  17.714  1.00  0.00    -0.237 OA
ATOM    103  O   UNL     1      -4.087   5.514  16.602  1.00  0.00    -0.237 OA
ATOM    104  O   UNL     1      -5.270   3.462  15.960  1.00  0.00    -0.744 OA
ENDBRANCH  98 101
ENDBRANCH  71  94
ENDBRANCH  45  46
ENDBRANCH  37  40
ENDBRANCH  35  36
ENDBRANCH  34  35
ENDBRANCH   1  34
TORSDOF 18
