REMARK SMILES O=C(NCCCNC(=O)[C@@H]1Nc2ccc(NC(=O)c3ccccc3)cc2[C@@H]2C=CC[C@H]12)c1ccc(-c2c3nc(c(-c4cccc(S(=O)(=O)[O-])c4F)c4ccc([nH]4)c(-c4cccc(S(=O)(=O)[O-])c4F)c4nc(c(-c5cccc(S(=O)(=O)[O-])c5F)c5ccc2[nH]5)C=C4)C=C3)cc1
REMARK SMILES IDX 4 1 3 2 1 3 2 4 32 6 33 7 94 8 34 9 93 10 35 11 36 12 37 13
REMARK SMILES IDX 87 14 38 15 92 16 86 17 88 18 39 19 91 20 85 21 84 22 40 24
REMARK SMILES IDX 72 25 52 26 71 27 53 28 56 29 70 30 89 31 54 32 55 33 69 35
REMARK SMILES IDX 90 36 57 37 41 38 42 39 50 40 43 41 45 42 51 43 44 44 46 45
REMARK SMILES IDX 47 46 48 47 49 48 73 49 74 50 82 51 75 52 77 53 83 54 76 55
REMARK SMILES IDX 78 56 79 57 80 58 81 59 58 60 59 61 67 62 60 63 62 64 68 65
REMARK SMILES IDX 61 66 63 67 64 68 65 69 66 70 5 71 6 72 7 73 8 74 9 76 10 77
REMARK SMILES IDX 11 78 31 79 12 80 27 82 30 83 13 84 26 85 28 86 29 87 14 88
REMARK SMILES IDX 25 89 15 90 16 91 17 92 18 94 19 95 20 96 24 97 21 98 23 99
REMARK SMILES IDX 22 100
REMARK H PARENT 3 5 88 23 56 34 7 75 11 81 16 93
REMARK Flexibility Score: inf
ROOT
ATOM      1  C   UNL     1       9.344  -8.724   3.483  1.00  0.00     0.118 C 
ENDROOT
BRANCH   1   2
ATOM      2  N   UNL     1      10.327  -7.985   4.263  1.00  0.00    -0.352 N 
ATOM      3  O   UNL     1      11.479  -7.402   6.105  1.00  0.00    -0.269 OA
ATOM      4  C   UNL     1      10.850  -8.269   5.502  1.00  0.00     0.251 C 
ATOM      5  H   UNL     1      10.665  -7.162   3.842  1.00  0.00     0.163 HD
BRANCH   4   6
ATOM      6  C   UNL     1      10.634  -9.602   6.105  1.00  0.00     0.039 A 
ATOM      7  C   UNL     1      10.680 -10.750   5.312  1.00  0.00     0.014 A 
ATOM      8  C   UNL     1      10.387  -9.711   7.475  1.00  0.00     0.014 A 
ATOM      9  C   UNL     1      10.292 -11.971   5.839  1.00  0.00     0.010 A 
ATOM     10  C   UNL     1      10.133 -10.967   8.034  1.00  0.00     0.010 A 
ATOM     11  C   UNL     1      10.051 -12.103   7.214  1.00  0.00    -0.014 A 
BRANCH  11  12
ATOM     12  C   UNL     1       9.818 -13.458   7.773  1.00  0.00     0.031 A 
ATOM     13  C   UNL     1       8.547 -13.804   8.494  1.00  0.00     0.074 A 
ATOM     14  C   UNL     1      10.785 -14.385   7.617  1.00  0.00     0.049 A 
ATOM     15  N   UNL     1       8.192 -14.945   9.026  1.00  0.00    -0.248 NA
ATOM     16  C   UNL     1       7.548 -12.735   8.649  1.00  0.00     0.031 C 
ATOM     17  C   UNL     1      12.077 -14.150   6.964  1.00  0.00     0.029 A 
ATOM     18  N   UNL     1      10.838 -15.703   7.986  1.00  0.00    -0.354 N 
ATOM     19  C   UNL     1       6.957 -14.723   9.623  1.00  0.00     0.074 A 
ATOM     20  C   UNL     1       6.625 -13.333   9.390  1.00  0.00     0.031 C 
ATOM     21  C   UNL     1      12.776 -15.291   6.942  1.00  0.00     0.029 A 
ATOM     22  C   UNL     1      12.019 -16.319   7.644  1.00  0.00     0.049 A 
ATOM     23  H   UNL     1      10.103 -16.165   8.450  1.00  0.00     0.167 HD
ATOM     24  C   UNL     1       6.170 -15.599  10.293  1.00  0.00     0.034 A 
ATOM     25  C   UNL     1      12.462 -17.565   7.889  1.00  0.00     0.034 A 
ATOM     26  C   UNL     1       6.503 -16.985  10.498  1.00  0.00     0.049 A 
ATOM     27  C   UNL     1      11.569 -18.513   8.630  1.00  0.00     0.074 A 
ATOM     28  C   UNL     1       5.747 -17.971  11.107  1.00  0.00     0.029 A 
ATOM     29  N   UNL     1       7.698 -17.580  10.118  1.00  0.00    -0.354 N 
ATOM     30  N   UNL     1      10.354 -18.317   9.083  1.00  0.00    -0.248 NA
ATOM     31  C   UNL     1      12.095 -19.861   8.874  1.00  0.00     0.031 C 
ATOM     32  C   UNL     1       6.500 -19.151  11.129  1.00  0.00     0.029 A 
ATOM     33  C   UNL     1       7.709 -18.913  10.495  1.00  0.00     0.049 A 
ATOM     34  H   UNL     1       8.432 -17.121   9.648  1.00  0.00     0.167 HD
ATOM     35  C   UNL     1       9.957 -19.525   9.639  1.00  0.00     0.074 A 
ATOM     36  C   UNL     1      11.054 -20.452   9.446  1.00  0.00     0.031 C 
ATOM     37  C   UNL     1       8.793 -19.835  10.262  1.00  0.00     0.034 A 
BRANCH  24  38
ATOM     38  C   UNL     1       4.865 -15.085  10.849  1.00  0.00     0.023 A 
ATOM     39  C   UNL     1       3.812 -14.746   9.975  1.00  0.00     0.012 A 
ATOM     40  C   UNL     1       4.666 -14.977  12.240  1.00  0.00     0.148 A 
ATOM     41  C   UNL     1       2.600 -14.265  10.473  1.00  0.00     0.002 A 
ATOM     42  C   UNL     1       3.440 -14.542  12.730  1.00  0.00     0.091 A 
ATOM     43  F   UNL     1       5.683 -15.284  13.058  1.00  0.00    -0.205 F 
ATOM     44  C   UNL     1       2.412 -14.171  11.849  1.00  0.00     0.022 A 
BRANCH  42  45
ATOM     45  S   UNL     1       3.073 -14.466  14.488  1.00  0.00     0.127 S 
ATOM     46  O   UNL     1       3.091 -13.024  14.731  1.00  0.00    -0.237 OA
ATOM     47  O   UNL     1       1.746 -15.078  14.553  1.00  0.00    -0.237 OA
ATOM     48  O   UNL     1       4.124 -15.228  15.149  1.00  0.00    -0.744 OA
ENDBRANCH  42  45
ENDBRANCH  24  38
BRANCH  25  49
ATOM     49  C   UNL     1      13.800 -17.982   7.386  1.00  0.00     0.023 A 
ATOM     50  C   UNL     1      13.884 -18.915   6.336  1.00  0.00     0.012 A 
ATOM     51  C   UNL     1      14.982 -17.411   7.898  1.00  0.00     0.148 A 
ATOM     52  C   UNL     1      15.124 -19.289   5.819  1.00  0.00     0.002 A 
ATOM     53  C   UNL     1      16.208 -17.743   7.339  1.00  0.00     0.091 A 
ATOM     54  F   UNL     1      14.876 -16.527   8.901  1.00  0.00    -0.205 F 
ATOM     55  C   UNL     1      16.284 -18.695   6.311  1.00  0.00     0.022 A 
BRANCH  53  56
ATOM     56  S   UNL     1      17.737 -16.927   7.810  1.00  0.00     0.127 S 
ATOM     57  O   UNL     1      18.473 -18.017   8.445  1.00  0.00    -0.237 OA
ATOM     58  O   UNL     1      18.262 -16.502   6.511  1.00  0.00    -0.237 OA
ATOM     59  O   UNL     1      17.348 -15.833   8.689  1.00  0.00    -0.744 OA
ENDBRANCH  53  56
ENDBRANCH  25  49
BRANCH  37  60
ATOM     60  C   UNL     1       8.626 -21.251  10.746  1.00  0.00     0.023 A 
ATOM     61  C   UNL     1       9.361 -21.709  11.857  1.00  0.00     0.012 A 
ATOM     62  C   UNL     1       7.693 -22.109  10.131  1.00  0.00     0.148 A 
ATOM     63  C   UNL     1       9.198 -23.013  12.325  1.00  0.00     0.002 A 
ATOM     64  C   UNL     1       7.497 -23.388  10.637  1.00  0.00     0.091 A 
ATOM     65  F   UNL     1       7.019 -21.661   9.062  1.00  0.00    -0.205 F 
ATOM     66  C   UNL     1       8.258 -23.846  11.724  1.00  0.00     0.022 A 
BRANCH  64  67
ATOM     67  S   UNL     1       6.239 -24.495   9.990  1.00  0.00     0.127 S 
ATOM     68  O   UNL     1       7.051 -25.502   9.308  1.00  0.00    -0.237 OA
ATOM     69  O   UNL     1       5.582 -24.964  11.211  1.00  0.00    -0.237 OA
ATOM     70  O   UNL     1       5.395 -23.683   9.124  1.00  0.00    -0.744 OA
ENDBRANCH  64  67
ENDBRANCH  37  60
ENDBRANCH  11  12
ENDBRANCH   4   6
ENDBRANCH   1   2
BRANCH   1  71
ATOM     71  C   UNL     1       8.001  -8.026   3.458  1.00  0.00     0.042 C 
BRANCH  71  72
ATOM     72  C   UNL     1       8.007  -6.782   2.587  1.00  0.00     0.117 C 
BRANCH  72  73
ATOM     73  N   UNL     1       8.075  -7.122   1.170  1.00  0.00    -0.354 N 
ATOM     74  C   UNL     1       7.183  -6.931   0.151  1.00  0.00     0.242 C 
ATOM     75  H   UNL     1       8.910  -7.568   0.899  1.00  0.00     0.163 HD
ATOM     76  O   UNL     1       7.452  -7.441  -0.942  1.00  0.00    -0.273 OA
BRANCH  74  77
ATOM     77  C   UNL     1       5.894  -6.103   0.335  1.00  0.00     0.173 C 
ATOM     78  N   UNL     1       6.134  -4.991   1.236  1.00  0.00    -0.373 N 
ATOM     79  C   UNL     1       4.672  -6.935   0.704  1.00  0.00     0.036 C 
ATOM     80  C   UNL     1       5.151  -4.448   2.022  1.00  0.00     0.039 A 
ATOM     81  H   UNL     1       7.041  -4.611   1.285  1.00  0.00     0.161 HD
ATOM     82  C   UNL     1       3.452  -6.074   1.114  1.00  0.00     0.050 C 
ATOM     83  C   UNL     1       4.822  -7.960   1.835  1.00  0.00     0.034 C 
ATOM     84  C   UNL     1       5.519  -3.518   2.989  1.00  0.00     0.028 A 
ATOM     85  C   UNL     1       3.821  -4.870   1.960  1.00  0.00    -0.015 A 
ATOM     86  C   UNL     1       2.653  -7.104   1.883  1.00  0.00    -0.023 C 
ATOM     87  C   UNL     1       3.406  -8.141   2.270  1.00  0.00    -0.030 C 
ATOM     88  C   UNL     1       4.560  -2.889   3.769  1.00  0.00     0.028 A 
ATOM     89  C   UNL     1       2.845  -4.141   2.668  1.00  0.00     0.032 A 
ATOM     90  C   UNL     1       3.209  -3.089   3.517  1.00  0.00     0.041 A 
BRANCH  90  91
ATOM     91  N   UNL     1       2.187  -2.285   4.056  1.00  0.00    -0.322 N 
ATOM     92  C   UNL     1       2.218  -1.038   4.652  1.00  0.00     0.255 C 
ATOM     93  H   UNL     1       1.288  -2.683   3.999  1.00  0.00     0.170 HD
ATOM     94  O   UNL     1       1.194  -0.561   5.139  1.00  0.00    -0.269 OA
BRANCH  92  95
ATOM     95  C   UNL     1       3.454  -0.228   4.696  1.00  0.00     0.040 A 
ATOM     96  C   UNL     1       3.966   0.129   5.947  1.00  0.00     0.014 A 
ATOM     97  C   UNL     1       4.143   0.116   3.524  1.00  0.00     0.014 A 
ATOM     98  C   UNL     1       5.212   0.752   6.030  1.00  0.00     0.001 A 
ATOM     99  C   UNL     1       5.397   0.725   3.616  1.00  0.00     0.001 A 
ATOM    100  C   UNL     1       5.934   1.030   4.868  1.00  0.00     0.000 A 
ENDBRANCH  92  95
ENDBRANCH  90  91
ENDBRANCH  74  77
ENDBRANCH  72  73
ENDBRANCH  71  72
ENDBRANCH   1  71
TORSDOF 15
