REMARK SMILES Cc1nc(NC(=O)[C@H]2[C@@H]3CC[C@@H](C3)[C@@H]2C(=O)NCCCNC(=O)c2ccc(-c3c4nc(c(-c5cccc(S(=O)(=O)[O-])c5F)c5ccc([nH]5)c(-c5cccc(S(=O)(=O)[O-])c5F)c5nc(c(-c6cccc(S(=O)(=O)[O-])c6F)c6ccc3[nH]6)C=C5)C=C4)cc2)sc1-c1ccccc1
REMARK SMILES IDX 19 1 18 2 17 3 15 4 16 5 14 7 8 8 9 9 10 10 13 11 12 12
REMARK SMILES IDX 11 13 6 14 5 15 7 17 4 18 1 19 2 20 3 21 88 22 87 23 89 24
REMARK SMILES IDX 90 25 94 26 91 27 93 28 92 29 20 30 21 31 22 32 23 34 24 35
REMARK SMILES IDX 25 36 86 37 26 38 85 39 27 40 28 41 29 42 79 43 30 44 84 45
REMARK SMILES IDX 78 46 80 47 31 48 83 49 77 50 76 51 32 53 64 54 44 55 63 56
REMARK SMILES IDX 45 57 48 58 62 59 81 60 46 61 47 62 61 64 82 65 49 66 33 67
REMARK SMILES IDX 34 68 42 69 35 70 37 71 43 72 36 73 38 74 39 75 40 76 41 77
REMARK SMILES IDX 65 78 66 79 74 80 67 81 69 82 75 83 68 84 70 85 71 86 72 87
REMARK SMILES IDX 73 88 50 89 51 90 59 91 52 92 54 93 60 94 53 95 55 96 56 97
REMARK SMILES IDX 57 98 58 99
REMARK H PARENT 17 6 5 16 21 33 80 52 48 63
REMARK Flexibility Score: inf
ROOT
ATOM      1  C   UNL     1      -4.614  -0.505  -0.933  1.00  0.00     0.042 C 
ENDROOT
BRANCH   1   2
ATOM      2  C   UNL     1      -4.707   0.984  -0.629  1.00  0.00     0.117 C 
BRANCH   2   3
ATOM      3  N   UNL     1      -3.887   1.415   0.488  1.00  0.00    -0.356 N 
ATOM      4  C   UNL     1      -2.761   2.171   0.595  1.00  0.00     0.224 C 
ATOM      5  O   UNL     1      -2.487   2.524   1.748  1.00  0.00    -0.275 OA
ATOM      6  H   UNL     1      -4.216   1.089   1.357  1.00  0.00     0.163 HD
BRANCH   4   7
ATOM      7  C   UNL     1      -1.872   2.550  -0.608  1.00  0.00     0.094 C 
ATOM      8  C   UNL     1      -0.783   3.604  -0.177  1.00  0.00     0.094 C 
ATOM      9  C   UNL     1      -1.188   4.821  -1.078  1.00  0.00     0.002 C 
ATOM     10  C   UNL     1      -2.567   5.377  -0.672  1.00  0.00     0.005 C 
ATOM     11  C   UNL     1      -1.499   4.114  -2.394  1.00  0.00     0.009 C 
ATOM     12  C   UNL     1      -2.603   3.263  -1.774  1.00  0.00     0.002 C 
ATOM     13  C   UNL     1      -3.545   4.349  -1.244  1.00  0.00     0.005 C 
BRANCH   8  14
ATOM     14  C   UNL     1       0.727   3.347  -0.419  1.00  0.00     0.230 C 
ATOM     15  N   UNL     1       1.376   2.167  -0.316  1.00  0.00    -0.302 N 
ATOM     16  H   UNL     1       2.313   2.169  -0.617  1.00  0.00     0.172 HD
ATOM     17  O   UNL     1       1.462   4.302  -0.726  1.00  0.00    -0.274 OA
BRANCH  15  18
ATOM     18  C   UNL     1       0.913   0.981   0.144  1.00  0.00     0.190 A 
ATOM     19  C   UNL     1      -1.638  -1.105   1.478  1.00  0.00     0.068 C 
ATOM     20  C   UNL     1      -0.370  -0.613   0.898  1.00  0.00     0.058 A 
ATOM     21  N   UNL     1      -0.171   0.749   0.825  1.00  0.00    -0.225 NA
ATOM     22  C   UNL     1       0.593  -1.384   0.269  1.00  0.00     0.059 A 
ATOM     23  S   UNL     1       1.853  -0.378  -0.297  1.00  0.00    -0.096 S 
BRANCH  22  24
ATOM     24  C   UNL     1       0.533  -2.817   0.029  1.00  0.00    -0.006 A 
ATOM     25  C   UNL     1       0.891  -3.715   1.041  1.00  0.00     0.009 A 
ATOM     26  C   UNL     1      -0.130  -3.291  -1.113  1.00  0.00     0.009 A 
ATOM     27  C   UNL     1       0.544  -5.063   0.933  1.00  0.00     0.001 A 
ATOM     28  C   UNL     1      -0.473  -4.638  -1.218  1.00  0.00     0.001 A 
ATOM     29  C   UNL     1      -0.151  -5.519  -0.188  1.00  0.00     0.000 A 
ENDBRANCH  22  24
ENDBRANCH  15  18
ENDBRANCH   8  14
ENDBRANCH   4   7
ENDBRANCH   2   3
ENDBRANCH   1   2
BRANCH   1  30
ATOM     30  C   UNL     1      -4.996  -1.419   0.230  1.00  0.00     0.118 C 
BRANCH  30  31
ATOM     31  N   UNL     1      -6.410  -1.376   0.552  1.00  0.00    -0.352 N 
ATOM     32  C   UNL     1      -7.346  -2.381   0.531  1.00  0.00     0.251 C 
ATOM     33  H   UNL     1      -6.750  -0.494   0.827  1.00  0.00     0.163 HD
ATOM     34  O   UNL     1      -8.529  -2.103   0.706  1.00  0.00    -0.269 OA
BRANCH  32  35
ATOM     35  C   UNL     1      -6.948  -3.785   0.281  1.00  0.00     0.039 A 
ATOM     36  C   UNL     1      -7.716  -4.544  -0.607  1.00  0.00     0.014 A 
ATOM     37  C   UNL     1      -5.868  -4.374   0.946  1.00  0.00     0.014 A 
ATOM     38  C   UNL     1      -7.380  -5.877  -0.857  1.00  0.00     0.010 A 
ATOM     39  C   UNL     1      -5.497  -5.686   0.649  1.00  0.00     0.010 A 
ATOM     40  C   UNL     1      -6.258  -6.457  -0.243  1.00  0.00    -0.014 A 
BRANCH  40  41
ATOM     41  C   UNL     1      -5.888  -7.871  -0.512  1.00  0.00     0.031 A 
ATOM     42  C   UNL     1      -5.958  -8.899   0.586  1.00  0.00     0.074 A 
ATOM     43  C   UNL     1      -5.438  -8.224  -1.732  1.00  0.00     0.049 A 
ATOM     44  N   UNL     1      -5.658 -10.172   0.544  1.00  0.00    -0.248 NA
ATOM     45  C   UNL     1      -6.403  -8.432   1.909  1.00  0.00     0.031 C 
ATOM     46  C   UNL     1      -5.259  -7.312  -2.863  1.00  0.00     0.029 A 
ATOM     47  N   UNL     1      -5.028  -9.441  -2.219  1.00  0.00    -0.354 N 
ATOM     48  C   UNL     1      -5.847 -10.651   1.835  1.00  0.00     0.074 A 
ATOM     49  C   UNL     1      -6.256  -9.525   2.646  1.00  0.00     0.031 C 
ATOM     50  C   UNL     1      -4.779  -8.000  -3.912  1.00  0.00     0.029 A 
ATOM     51  C   UNL     1      -4.595  -9.396  -3.524  1.00  0.00     0.049 A 
ATOM     52  H   UNL     1      -5.043 -10.267  -1.685  1.00  0.00     0.167 HD
ATOM     53  C   UNL     1      -5.722 -11.917   2.299  1.00  0.00     0.034 A 
ATOM     54  C   UNL     1      -4.103 -10.368  -4.318  1.00  0.00     0.034 A 
ATOM     55  C   UNL     1      -5.362 -13.046   1.483  1.00  0.00     0.049 A 
ATOM     56  C   UNL     1      -4.013 -11.774  -3.789  1.00  0.00     0.074 A 
ATOM     57  C   UNL     1      -5.290 -14.380   1.844  1.00  0.00     0.029 A 
ATOM     58  N   UNL     1      -5.011 -12.974   0.145  1.00  0.00    -0.354 N 
ATOM     59  N   UNL     1      -4.346 -12.234  -2.608  1.00  0.00    -0.248 NA
ATOM     60  C   UNL     1      -3.515 -12.803  -4.715  1.00  0.00     0.031 C 
ATOM     61  C   UNL     1      -4.878 -15.114   0.726  1.00  0.00     0.029 A 
ATOM     62  C   UNL     1      -4.713 -14.239  -0.335  1.00  0.00     0.049 A 
ATOM     63  H   UNL     1      -4.977 -12.146  -0.387  1.00  0.00     0.167 HD
ATOM     64  C   UNL     1      -4.135 -13.607  -2.659  1.00  0.00     0.074 A 
ATOM     65  C   UNL     1      -3.663 -13.908  -3.995  1.00  0.00     0.031 C 
ATOM     66  C   UNL     1      -4.301 -14.533  -1.683  1.00  0.00     0.034 A 
BRANCH  53  67
ATOM     67  C   UNL     1      -6.036 -12.164   3.753  1.00  0.00     0.023 A 
ATOM     68  C   UNL     1      -7.375 -12.117   4.190  1.00  0.00     0.012 A 
ATOM     69  C   UNL     1      -5.021 -12.501   4.670  1.00  0.00     0.148 A 
ATOM     70  C   UNL     1      -7.697 -12.367   5.523  1.00  0.00     0.002 A 
ATOM     71  C   UNL     1      -5.355 -12.791   5.988  1.00  0.00     0.091 A 
ATOM     72  F   UNL     1      -3.751 -12.520   4.241  1.00  0.00    -0.205 F 
ATOM     73  C   UNL     1      -6.690 -12.715   6.419  1.00  0.00     0.022 A 
BRANCH  71  74
ATOM     74  S   UNL     1      -4.139 -13.323   7.199  1.00  0.00     0.127 S 
ATOM     75  O   UNL     1      -4.031 -12.138   8.048  1.00  0.00    -0.237 OA
ATOM     76  O   UNL     1      -4.806 -14.464   7.827  1.00  0.00    -0.237 OA
ATOM     77  O   UNL     1      -2.942 -13.663   6.442  1.00  0.00    -0.744 OA
ENDBRANCH  71  74
ENDBRANCH  53  67
BRANCH  54  78
ATOM     78  C   UNL     1      -3.724 -10.055  -5.725  1.00  0.00     0.023 A 
ATOM     79  C   UNL     1      -4.511 -10.553  -6.782  1.00  0.00     0.012 A 
ATOM     80  C   UNL     1      -2.611  -9.244  -6.021  1.00  0.00     0.148 A 
ATOM     81  C   UNL     1      -4.180 -10.275  -8.108  1.00  0.00     0.002 A 
ATOM     82  C   UNL     1      -2.320  -8.924  -7.342  1.00  0.00     0.091 A 
ATOM     83  F   UNL     1      -1.865  -8.792  -5.003  1.00  0.00    -0.205 F 
ATOM     84  C   UNL     1      -3.092  -9.452  -8.388  1.00  0.00     0.022 A 
BRANCH  82  85
ATOM     85  S   UNL     1      -1.026  -7.759  -7.781  1.00  0.00     0.127 S 
ATOM     86  O   UNL     1       0.006  -8.643  -8.312  1.00  0.00    -0.237 OA
ATOM     87  O   UNL     1      -1.694  -6.920  -8.775  1.00  0.00    -0.237 OA
ATOM     88  O   UNL     1      -0.694  -7.063  -6.542  1.00  0.00    -0.744 OA
ENDBRANCH  82  85
ENDBRANCH  54  78
BRANCH  66  89
ATOM     89  C   UNL     1      -4.005 -15.971  -2.023  1.00  0.00     0.023 A 
ATOM     90  C   UNL     1      -2.669 -16.393  -2.176  1.00  0.00     0.012 A 
ATOM     91  C   UNL     1      -5.044 -16.918  -2.114  1.00  0.00     0.148 A 
ATOM     92  C   UNL     1      -2.374 -17.729  -2.443  1.00  0.00     0.002 A 
ATOM     93  C   UNL     1      -4.740 -18.256  -2.334  1.00  0.00     0.091 A 
ATOM     94  F   UNL     1      -6.310 -16.493  -1.985  1.00  0.00    -0.205 F 
ATOM     95  C   UNL     1      -3.407 -18.662  -2.510  1.00  0.00     0.022 A 
BRANCH  93  96
ATOM     96  S   UNL     1      -5.998 -19.539  -2.340  1.00  0.00     0.127 S 
ATOM     97  O   UNL     1      -6.096 -19.852  -3.765  1.00  0.00    -0.237 OA
ATOM     98  O   UNL     1      -5.379 -20.587  -1.527  1.00  0.00    -0.237 OA
ATOM     99  O   UNL     1      -7.184 -18.938  -1.746  1.00  0.00    -0.744 OA
ENDBRANCH  93  96
ENDBRANCH  66  89
ENDBRANCH  40  41
ENDBRANCH  32  35
ENDBRANCH  30  31
ENDBRANCH   1  30
TORSDOF 16
