REMARK SMILES O=C(CCNC(=O)CCc1nc2ccccc2[nH]1)NCCCNC(=O)c1ccc(-c2c3nc(c(-c4cccc(S(=O)(=O)[O-])c4F)c4ccc([nH]4)c(-c4cccc(S(=O)(=O)[O-])c4F)c4nc(c(-c5cccc(S(=O)(=O)[O-])c5F)c5ccc2[nH]5)C=C4)C=C3)cc1
REMARK SMILES IDX 20 1 19 2 1 3 2 4 3 6 4 7 5 8 6 9 7 11 8 12 9 13 10 14 11 15
REMARK SMILES IDX 18 16 12 17 17 18 13 20 16 21 14 22 15 23 21 24 22 25 23 26
REMARK SMILES IDX 24 27 25 29 26 30 27 31 88 32 28 33 87 34 29 35 30 36 31 37
REMARK SMILES IDX 81 38 32 39 86 40 80 41 82 42 33 43 85 44 79 45 78 46 34 48
REMARK SMILES IDX 66 49 46 50 65 51 47 52 50 53 64 54 83 55 48 56 49 57 63 59
REMARK SMILES IDX 84 60 51 61 35 62 36 63 44 64 37 65 39 66 45 67 38 68 40 69
REMARK SMILES IDX 41 70 42 71 43 72 67 73 68 74 76 75 69 76 71 77 77 78 70 79
REMARK SMILES IDX 72 80 73 81 74 82 75 83 52 84 53 85 61 86 54 87 56 88 62 89
REMARK SMILES IDX 55 90 57 91 58 92 59 93 60 94
REMARK H PARENT 19 5 5 10 18 19 23 28 82 47 50 58
REMARK Flexibility Score: inf
ROOT
ATOM      1  C   UNL     1       1.959   0.685  -3.019  1.00  0.00     0.117 C 
ENDROOT
BRANCH   1   2
ATOM      2  N   UNL     1       2.635   0.093  -1.885  1.00  0.00    -0.356 N 
ATOM      3  O   UNL     1       0.743  -0.686  -0.852  1.00  0.00    -0.275 OA
ATOM      4  C   UNL     1       1.960  -0.531  -0.871  1.00  0.00     0.221 C 
ATOM      5  H   UNL     1       3.617   0.140  -1.841  1.00  0.00     0.163 HD
BRANCH   4   6
ATOM      6  C   UNL     1       2.838  -0.950   0.277  1.00  0.00     0.121 C 
BRANCH   6   7
ATOM      7  C   UNL     1       3.840  -2.051  -0.041  1.00  0.00     0.125 C 
BRANCH   7   8
ATOM      8  N   UNL     1       5.128  -1.516  -0.463  1.00  0.00    -0.356 N 
ATOM      9  C   UNL     1       6.269  -1.302   0.248  1.00  0.00     0.220 C 
ATOM     10  H   UNL     1       5.182  -1.270  -1.415  1.00  0.00     0.163 HD
ATOM     11  O   UNL     1       7.177  -0.679  -0.308  1.00  0.00    -0.275 OA
BRANCH   9  12
ATOM     12  C   UNL     1       6.446  -1.825   1.659  1.00  0.00     0.108 C 
BRANCH  12  13
ATOM     13  C   UNL     1       6.196  -0.765   2.732  1.00  0.00     0.085 C 
BRANCH  13  14
ATOM     14  C   UNL     1       4.786  -0.786   3.220  1.00  0.00     0.107 A 
ATOM     15  N   UNL     1       4.061  -1.858   3.472  1.00  0.00    -0.233 NA
ATOM     16  N   UNL     1       4.040   0.357   3.391  1.00  0.00    -0.342 N 
ATOM     17  C   UNL     1       2.769  -1.407   3.573  1.00  0.00     0.089 A 
ATOM     18  C   UNL     1       2.723  -0.020   3.483  1.00  0.00     0.065 A 
ATOM     19  H   UNL     1       4.387   1.277   3.439  1.00  0.00     0.168 HD
ATOM     20  C   UNL     1       1.572  -2.139   3.603  1.00  0.00     0.030 A 
ATOM     21  C   UNL     1       1.531   0.702   3.398  1.00  0.00     0.028 A 
ATOM     22  C   UNL     1       0.365  -1.443   3.456  1.00  0.00     0.002 A 
ATOM     23  C   UNL     1       0.350  -0.049   3.352  1.00  0.00     0.002 A 
ENDBRANCH  13  14
ENDBRANCH  12  13
ENDBRANCH   9  12
ENDBRANCH   7   8
ENDBRANCH   6   7
ENDBRANCH   4   6
ENDBRANCH   1   2
BRANCH   1  24
ATOM     24  C   UNL     1       2.373   2.136  -3.220  1.00  0.00     0.042 C 
BRANCH  24  25
ATOM     25  C   UNL     1       3.880   2.345  -3.331  1.00  0.00     0.118 C 
BRANCH  25  26
ATOM     26  N   UNL     1       4.494   1.496  -4.344  1.00  0.00    -0.352 N 
ATOM     27  C   UNL     1       5.183   1.844  -5.480  1.00  0.00     0.251 C 
ATOM     28  H   UNL     1       4.402   0.528  -4.190  1.00  0.00     0.163 HD
ATOM     29  O   UNL     1       5.458   0.990  -6.312  1.00  0.00    -0.269 OA
BRANCH  27  30
ATOM     30  C   UNL     1       5.561   3.255  -5.699  1.00  0.00     0.039 A 
ATOM     31  C   UNL     1       5.337   3.827  -6.952  1.00  0.00     0.014 A 
ATOM     32  C   UNL     1       6.120   4.009  -4.665  1.00  0.00     0.014 A 
ATOM     33  C   UNL     1       5.615   5.181  -7.148  1.00  0.00     0.010 A 
ATOM     34  C   UNL     1       6.311   5.375  -4.837  1.00  0.00     0.010 A 
ATOM     35  C   UNL     1       6.070   5.974  -6.082  1.00  0.00    -0.014 A 
BRANCH  35  36
ATOM     36  C   UNL     1       6.300   7.431  -6.247  1.00  0.00     0.031 A 
ATOM     37  C   UNL     1       7.675   8.006  -6.039  1.00  0.00     0.074 A 
ATOM     38  C   UNL     1       5.256   8.246  -6.499  1.00  0.00     0.049 A 
ATOM     39  N   UNL     1       8.059   9.255  -6.071  1.00  0.00    -0.248 NA
ATOM     40  C   UNL     1       8.755   7.056  -5.723  1.00  0.00     0.031 C 
ATOM     41  C   UNL     1       3.863   7.819  -6.646  1.00  0.00     0.029 A 
ATOM     42  N   UNL     1       5.201   9.610  -6.647  1.00  0.00    -0.354 N 
ATOM     43  C   UNL     1       9.409   9.246  -5.744  1.00  0.00     0.074 A 
ATOM     44  C   UNL     1       9.771   7.871  -5.480  1.00  0.00     0.031 C 
ATOM     45  C   UNL     1       3.093   8.896  -6.869  1.00  0.00     0.029 A 
ATOM     46  C   UNL     1       3.928  10.092  -6.846  1.00  0.00     0.049 A 
ATOM     47  H   UNL     1       5.997  10.188  -6.615  1.00  0.00     0.167 HD
ATOM     48  C   UNL     1      10.278  10.283  -5.696  1.00  0.00     0.034 A 
ATOM     49  C   UNL     1       3.482  11.356  -6.980  1.00  0.00     0.034 A 
ATOM     50  C   UNL     1       9.923  11.643  -5.999  1.00  0.00     0.049 A 
ATOM     51  C   UNL     1       4.474  12.488  -6.952  1.00  0.00     0.074 A 
ATOM     52  C   UNL     1      10.748  12.752  -6.065  1.00  0.00     0.029 A 
ATOM     53  N   UNL     1       8.638  12.083  -6.274  1.00  0.00    -0.354 N 
ATOM     54  N   UNL     1       5.774  12.441  -6.795  1.00  0.00    -0.248 NA
ATOM     55  C   UNL     1       3.941  13.843  -7.154  1.00  0.00     0.031 C 
ATOM     56  C   UNL     1       9.955  13.869  -6.348  1.00  0.00     0.029 A 
ATOM     57  C   UNL     1       8.643  13.449  -6.497  1.00  0.00     0.049 A 
ATOM     58  H   UNL     1       7.839  11.509  -6.306  1.00  0.00     0.167 HD
ATOM     59  C   UNL     1       6.220  13.753  -6.917  1.00  0.00     0.074 A 
ATOM     60  C   UNL     1       5.052  14.567  -7.182  1.00  0.00     0.031 C 
ATOM     61  C   UNL     1       7.480  14.241  -6.808  1.00  0.00     0.034 A 
BRANCH  48  62
ATOM     62  C   UNL     1      11.712   9.980  -5.343  1.00  0.00     0.023 A 
ATOM     63  C   UNL     1      12.523   9.276  -6.257  1.00  0.00     0.012 A 
ATOM     64  C   UNL     1      12.271  10.438  -4.135  1.00  0.00     0.148 A 
ATOM     65  C   UNL     1      13.856   8.998  -5.957  1.00  0.00     0.002 A 
ATOM     66  C   UNL     1      13.614  10.200  -3.865  1.00  0.00     0.091 A 
ATOM     67  F   UNL     1      11.480  11.088  -3.269  1.00  0.00    -0.205 F 
ATOM     68  C   UNL     1      14.403   9.469  -4.768  1.00  0.00     0.022 A 
BRANCH  66  69
ATOM     69  S   UNL     1      14.435  10.836  -2.399  1.00  0.00     0.127 S 
ATOM     70  O   UNL     1      14.684   9.608  -1.645  1.00  0.00    -0.237 OA
ATOM     71  O   UNL     1      15.633  11.457  -2.965  1.00  0.00    -0.237 OA
ATOM     72  O   UNL     1      13.500  11.767  -1.785  1.00  0.00    -0.744 OA
ENDBRANCH  66  69
ENDBRANCH  48  62
BRANCH  49  73
ATOM     73  C   UNL     1       2.032  11.616  -7.207  1.00  0.00     0.023 A 
ATOM     74  C   UNL     1       1.601  12.092  -8.461  1.00  0.00     0.012 A 
ATOM     75  C   UNL     1       1.079  11.377  -6.199  1.00  0.00     0.148 A 
ATOM     76  C   UNL     1       0.252  12.362  -8.694  1.00  0.00     0.002 A 
ATOM     77  C   UNL     1      -0.270  11.593  -6.456  1.00  0.00     0.091 A 
ATOM     78  F   UNL     1       1.510  10.932  -5.010  1.00  0.00    -0.205 F 
ATOM     79  C   UNL     1      -0.684  12.104  -7.696  1.00  0.00     0.022 A 
BRANCH  77  80
ATOM     80  S   UNL     1      -1.556  11.167  -5.277  1.00  0.00     0.127 S 
ATOM     81  O   UNL     1      -2.052  12.484  -4.886  1.00  0.00    -0.237 OA
ATOM     82  O   UNL     1      -2.474  10.383  -6.104  1.00  0.00    -0.237 OA
ATOM     83  O   UNL     1      -0.893  10.404  -4.228  1.00  0.00    -0.744 OA
ENDBRANCH  77  80
ENDBRANCH  49  73
BRANCH  61  84
ATOM     84  C   UNL     1       7.678  15.720  -7.016  1.00  0.00     0.023 A 
ATOM     85  C   UNL     1       7.227  16.635  -6.045  1.00  0.00     0.012 A 
ATOM     86  C   UNL     1       8.379  16.195  -8.142  1.00  0.00     0.148 A 
ATOM     87  C   UNL     1       7.439  18.004  -6.210  1.00  0.00     0.002 A 
ATOM     88  C   UNL     1       8.633  17.555  -8.273  1.00  0.00     0.091 A 
ATOM     89  F   UNL     1       8.786  15.309  -9.063  1.00  0.00    -0.205 F 
ATOM     90  C   UNL     1       8.152  18.462  -7.315  1.00  0.00     0.022 A 
BRANCH  88  91
ATOM     91  S   UNL     1       9.629  18.225  -9.609  1.00  0.00     0.127 S 
ATOM     92  O   UNL     1       8.623  18.924 -10.408  1.00  0.00    -0.237 OA
ATOM     93  O   UNL     1      10.556  19.102  -8.894  1.00  0.00    -0.237 OA
ATOM     94  O   UNL     1      10.255  17.081 -10.258  1.00  0.00    -0.744 OA
ENDBRANCH  88  91
ENDBRANCH  61  84
ENDBRANCH  35  36
ENDBRANCH  27  30
ENDBRANCH  25  26
ENDBRANCH  24  25
ENDBRANCH   1  24
TORSDOF 18
