REMARK SMILES [NH3+]CCOCC(=O)Nc1ccc(C(=O)NCCCNC(=O)c2ccc(-c3c4nc(c(-c5cccc(S(=O)(=O)[O-])c5F)c5ccc([nH]5)c(-c5cccc(S(=O)(=O)[O-])c5F)c5nc(c(-c6cccc(S(=O)(=O)[O-])c6F)c6ccc3[nH]6)C=C5)C=C4)cc2)c(Cl)c1
REMARK SMILES IDX 13 1 14 2 15 3 12 5 9 6 10 7 87 8 11 9 85 10 86 11 8 12 6 13
REMARK SMILES IDX 7 14 5 16 4 17 3 18 2 19 1 20 16 24 17 25 18 26 19 27 20 28
REMARK SMILES IDX 21 30 22 31 23 32 84 33 24 34 83 35 25 36 26 37 27 38 77 39
REMARK SMILES IDX 28 40 82 41 76 42 78 43 29 44 81 45 75 46 74 47 30 49 62 50
REMARK SMILES IDX 42 51 61 52 43 53 46 54 60 55 79 56 44 57 45 58 59 60 80 61
REMARK SMILES IDX 47 62 31 63 32 64 40 65 33 66 35 67 41 68 34 69 36 70 37 71
REMARK SMILES IDX 38 72 39 73 63 74 64 75 72 76 65 77 67 78 73 79 66 80 68 81
REMARK SMILES IDX 69 82 70 83 71 84 48 85 49 86 57 87 50 88 52 89 58 90 51 91
REMARK SMILES IDX 53 92 54 93 55 94 56 95
REMARK H PARENT 15 4 8 15 1 21 1 22 1 23 19 29 78 48 46 59
REMARK Flexibility Score: inf
ROOT
ATOM      1  C   UNL     1       0.565   7.838  -2.745  1.00  0.00     0.252 C 
ATOM      2  O   UNL     1      -0.575   7.787  -2.272  1.00  0.00    -0.269 OA
ATOM      3  N   UNL     1       0.900   9.009  -3.359  1.00  0.00    -0.352 N 
ATOM      4  H   UNL     1       0.213   9.708  -3.266  1.00  0.00     0.163 HD
ENDROOT
BRANCH   1   5
ATOM      5  C   UNL     1       1.478   6.688  -2.487  1.00  0.00     0.058 A 
ATOM      6  C   UNL     1       2.780   4.297  -1.725  1.00  0.00     0.042 A 
ATOM      7  C   UNL     1       1.860   4.884  -0.870  1.00  0.00     0.027 A 
ATOM      8  C   UNL     1       3.124   4.936  -2.905  1.00  0.00     0.047 A 
ATOM      9  C   UNL     1       1.238   6.077  -1.237  1.00  0.00     0.017 A 
ATOM     10  C   UNL     1       2.419   6.075  -3.328  1.00  0.00     0.055 A 
ATOM     11  Cl  UNL     1       2.690   6.431  -4.987  1.00  0.00    -0.083 Cl
BRANCH   6  12
ATOM     12  N   UNL     1       3.323   3.032  -1.489  1.00  0.00    -0.324 N 
ATOM     13  C   UNL     1       2.622   1.877  -1.251  1.00  0.00     0.250 C 
ATOM     14  O   UNL     1       3.240   0.837  -1.004  1.00  0.00    -0.272 OA
ATOM     15  H   UNL     1       4.305   2.963  -1.495  1.00  0.00     0.170 HD
BRANCH  13  16
ATOM     16  C   UNL     1       1.081   1.881  -1.352  1.00  0.00     0.260 C 
BRANCH  16  17
ATOM     17  O   UNL     1       0.311   2.292  -0.239  1.00  0.00    -0.366 OA
BRANCH  17  18
ATOM     18  C   UNL     1       0.792   1.871   1.034  1.00  0.00     0.222 C 
BRANCH  18  19
ATOM     19  C   UNL     1       0.413   0.431   1.406  1.00  0.00     0.287 C 
BRANCH  19  20
ATOM     20  N   UNL     1       1.076  -0.616   0.630  1.00  0.00    -0.356 N 
ATOM     21  H   UNL     1       0.758  -1.530   0.952  1.00  0.00     0.344 HD
ATOM     22  H   UNL     1       2.086  -0.544   0.754  1.00  0.00     0.344 HD
ATOM     23  H   UNL     1       0.845  -0.505  -0.357  1.00  0.00     0.344 HD
ENDBRANCH  19  20
ENDBRANCH  18  19
ENDBRANCH  17  18
ENDBRANCH  16  17
ENDBRANCH  13  16
ENDBRANCH   6  12
ENDBRANCH   1   5
BRANCH   3  24
ATOM     24  C   UNL     1       2.054   9.438  -4.117  1.00  0.00     0.118 C 
BRANCH  24  25
ATOM     25  C   UNL     1       1.757   9.323  -5.612  1.00  0.00     0.042 C 
BRANCH  25  26
ATOM     26  C   UNL     1       0.922  10.469  -6.159  1.00  0.00     0.118 C 
BRANCH  26  27
ATOM     27  N   UNL     1       1.712  11.682  -6.290  1.00  0.00    -0.352 N 
ATOM     28  C   UNL     1       2.152  12.309  -7.428  1.00  0.00     0.251 C 
ATOM     29  H   UNL     1       1.968  12.114  -5.443  1.00  0.00     0.163 HD
ATOM     30  O   UNL     1       3.055  13.140  -7.348  1.00  0.00    -0.269 OA
BRANCH  28  31
ATOM     31  C   UNL     1       1.546  11.994  -8.742  1.00  0.00     0.039 A 
ATOM     32  C   UNL     1       2.362  11.949  -9.876  1.00  0.00     0.014 A 
ATOM     33  C   UNL     1       0.169  11.787  -8.867  1.00  0.00     0.014 A 
ATOM     34  C   UNL     1       1.804  11.659 -11.124  1.00  0.00     0.010 A 
ATOM     35  C   UNL     1      -0.370  11.410 -10.091  1.00  0.00     0.010 A 
ATOM     36  C   UNL     1       0.436  11.365 -11.238  1.00  0.00    -0.014 A 
BRANCH  36  37
ATOM     37  C   UNL     1      -0.187  11.030 -12.543  1.00  0.00     0.031 A 
ATOM     38  C   UNL     1      -1.273  11.911 -13.104  1.00  0.00     0.074 A 
ATOM     39  C   UNL     1       0.149   9.885 -13.169  1.00  0.00     0.049 A 
ATOM     40  N   UNL     1      -2.009  11.737 -14.170  1.00  0.00    -0.248 NA
ATOM     41  C   UNL     1      -1.598  13.133 -12.347  1.00  0.00     0.031 C 
ATOM     42  C   UNL     1       1.129   8.912 -12.682  1.00  0.00     0.029 A 
ATOM     43  N   UNL     1      -0.323   9.328 -14.331  1.00  0.00    -0.354 N 
ATOM     44  C   UNL     1      -2.911  12.795 -14.186  1.00  0.00     0.074 A 
ATOM     45  C   UNL     1      -2.652  13.590 -13.006  1.00  0.00     0.031 C 
ATOM     46  C   UNL     1       1.185   7.878 -13.537  1.00  0.00     0.029 A 
ATOM     47  C   UNL     1       0.223   8.097 -14.613  1.00  0.00     0.049 A 
ATOM     48  H   UNL     1      -0.988   9.767 -14.908  1.00  0.00     0.167 HD
ATOM     49  C   UNL     1      -3.850  13.095 -15.114  1.00  0.00     0.034 A 
ATOM     50  C   UNL     1      -0.031   7.237 -15.618  1.00  0.00     0.034 A 
ATOM     51  C   UNL     1      -4.062  12.332 -16.313  1.00  0.00     0.049 A 
ATOM     52  C   UNL     1      -1.041   7.621 -16.666  1.00  0.00     0.074 A 
ATOM     53  C   UNL     1      -4.916  12.604 -17.366  1.00  0.00     0.029 A 
ATOM     54  N   UNL     1      -3.415  11.144 -16.617  1.00  0.00    -0.354 N 
ATOM     55  N   UNL     1      -1.772   8.707 -16.747  1.00  0.00    -0.248 NA
ATOM     56  C   UNL     1      -1.237   6.682 -17.779  1.00  0.00     0.031 C 
ATOM     57  C   UNL     1      -4.800  11.568 -18.299  1.00  0.00     0.029 A 
ATOM     58  C   UNL     1      -3.855  10.665 -17.838  1.00  0.00     0.049 A 
ATOM     59  H   UNL     1      -2.741  10.706 -16.048  1.00  0.00     0.167 HD
ATOM     60  C   UNL     1      -2.486   8.599 -17.934  1.00  0.00     0.074 A 
ATOM     61  C   UNL     1      -2.085   7.350 -18.549  1.00  0.00     0.031 C 
ATOM     62  C   UNL     1      -3.401   9.449 -18.462  1.00  0.00     0.034 A 
BRANCH  49  63
ATOM     63  C   UNL     1      -4.683  14.333 -14.897  1.00  0.00     0.023 A 
ATOM     64  C   UNL     1      -4.088  15.604 -15.034  1.00  0.00     0.012 A 
ATOM     65  C   UNL     1      -6.060  14.243 -14.616  1.00  0.00     0.148 A 
ATOM     66  C   UNL     1      -4.840  16.765 -14.859  1.00  0.00     0.002 A 
ATOM     67  C   UNL     1      -6.814  15.404 -14.487  1.00  0.00     0.091 A 
ATOM     68  F   UNL     1      -6.605  13.027 -14.468  1.00  0.00    -0.205 F 
ATOM     69  C   UNL     1      -6.203  16.665 -14.596  1.00  0.00     0.022 A 
BRANCH  67  70
ATOM     70  S   UNL     1      -8.591  15.383 -14.228  1.00  0.00     0.127 S 
ATOM     71  O   UNL     1      -8.692  15.838 -12.842  1.00  0.00    -0.237 OA
ATOM     72  O   UNL     1      -9.059  16.350 -15.222  1.00  0.00    -0.237 OA
ATOM     73  O   UNL     1      -9.016  14.012 -14.469  1.00  0.00    -0.744 OA
ENDBRANCH  67  70
ENDBRANCH  49  63
BRANCH  50  74
ATOM     74  C   UNL     1       0.734   5.962 -15.718  1.00  0.00     0.023 A 
ATOM     75  C   UNL     1       1.687   5.808 -16.744  1.00  0.00     0.012 A 
ATOM     76  C   UNL     1       0.555   4.921 -14.786  1.00  0.00     0.148 A 
ATOM     77  C   UNL     1       2.424   4.629 -16.860  1.00  0.00     0.002 A 
ATOM     78  C   UNL     1       1.332   3.772 -14.874  1.00  0.00     0.091 A 
ATOM     79  F   UNL     1      -0.363   5.082 -13.823  1.00  0.00    -0.205 F 
ATOM     80  C   UNL     1       2.255   3.617 -15.920  1.00  0.00     0.022 A 
BRANCH  78  81
ATOM     81  S   UNL     1       1.277   2.476 -13.631  1.00  0.00     0.127 S 
ATOM     82  O   UNL     1       0.609   1.395 -14.355  1.00  0.00    -0.237 OA
ATOM     83  O   UNL     1       2.700   2.250 -13.366  1.00  0.00    -0.237 OA
ATOM     84  O   UNL     1       0.541   3.037 -12.510  1.00  0.00    -0.744 OA
ENDBRANCH  78  81
ENDBRANCH  50  74
BRANCH  62  85
ATOM     85  C   UNL     1      -4.010   9.086 -19.790  1.00  0.00     0.023 A 
ATOM     86  C   UNL     1      -4.963   8.052 -19.865  1.00  0.00     0.012 A 
ATOM     87  C   UNL     1      -3.704   9.833 -20.945  1.00  0.00     0.148 A 
ATOM     88  C   UNL     1      -5.583   7.748 -21.076  1.00  0.00     0.002 A 
ATOM     89  C   UNL     1      -4.363   9.557 -22.137  1.00  0.00     0.091 A 
ATOM     90  F   UNL     1      -2.781  10.802 -20.855  1.00  0.00    -0.205 F 
ATOM     91  C   UNL     1      -5.294   8.508 -22.207  1.00  0.00     0.022 A 
BRANCH  89  92
ATOM     92  S   UNL     1      -4.128  10.546 -23.618  1.00  0.00     0.127 S 
ATOM     93  O   UNL     1      -3.375   9.629 -24.472  1.00  0.00    -0.237 OA
ATOM     94  O   UNL     1      -5.504  10.791 -24.049  1.00  0.00    -0.237 OA
ATOM     95  O   UNL     1      -3.406  11.739 -23.195  1.00  0.00    -0.744 OA
ENDBRANCH  89  92
ENDBRANCH  62  85
ENDBRANCH  36  37
ENDBRANCH  28  31
ENDBRANCH  26  27
ENDBRANCH  25  26
ENDBRANCH  24  25
ENDBRANCH   3  24
TORSDOF 19
