REMARK SMILES COc1cc([C@@H]2[NH2+][C@H](C(=O)NCCCNC(=O)c3ccc(-c4c5nc(c(-c6cccc(S(=O)(=O)[O-])c6F)c6ccc([nH]6)c(-c6cccc(S(=O)(=O)[O-])c6F)c6nc(c(-c7cccc(S(=O)(=O)[O-])c7F)c7ccc4[nH]7)C=C6)C=C5)cc3)CS2)ccc1OCc1ccc(Cl)cc1
REMARK SMILES IDX 12 1 11 2 9 3 10 4 8 6 6 7 7 8 82 9 81 12 5 13 3 14 4 15
REMARK SMILES IDX 85 16 84 17 83 18 2 19 1 20 86 21 87 22 88 23 89 24 94 25
REMARK SMILES IDX 90 26 93 27 91 28 92 29 13 30 14 31 15 32 16 33 17 35 18 36
REMARK SMILES IDX 19 37 80 38 20 39 79 40 21 41 22 42 23 43 73 44 24 45 78 46
REMARK SMILES IDX 72 47 74 48 25 49 77 50 71 51 70 52 26 54 58 55 38 56 57 57
REMARK SMILES IDX 39 58 42 59 56 60 75 61 40 62 41 63 55 65 76 66 43 67 27 68
REMARK SMILES IDX 28 69 36 70 29 71 31 72 37 73 30 74 32 75 33 76 34 77 35 78
REMARK SMILES IDX 59 79 60 80 68 81 61 82 63 83 69 84 62 85 64 86 65 87 66 88
REMARK SMILES IDX 67 89 44 90 45 91 53 92 46 93 48 94 54 95 47 96 49 97 50 98
REMARK SMILES IDX 51 99 52 100
REMARK H PARENT 11 5 7 10 7 11 15 34 74 53 42 64
REMARK Flexibility Score: inf
ROOT
ATOM      1  C   UNL     1       3.351  -2.755   4.447  1.00  0.00     0.118 C 
ENDROOT
BRANCH   1   2
ATOM      2  N   UNL     1       3.554  -2.866   5.885  1.00  0.00    -0.351 N 
ATOM      3  C   UNL     1       2.728  -3.261   6.896  1.00  0.00     0.279 C 
ATOM      4  O   UNL     1       3.216  -3.247   8.035  1.00  0.00    -0.268 OA
ATOM      5  H   UNL     1       4.456  -2.609   6.183  1.00  0.00     0.163 HD
BRANCH   3   6
ATOM      6  C   UNL     1       1.292  -3.792   6.706  1.00  0.00     0.283 C 
ATOM      7  C   UNL     1      -0.586  -3.684   5.163  1.00  0.00     0.274 C 
ATOM      8  N   UNL     1       0.454  -2.910   5.873  1.00  0.00    -0.321 N 
ATOM      9  S   UNL     1      -0.459  -5.412   5.717  1.00  0.00    -0.088 SA
ATOM     10  H   UNL     1       0.004  -2.216   6.469  1.00  0.00     0.348 HD
ATOM     11  H   UNL     1       1.050  -2.455   5.181  1.00  0.00     0.348 HD
ATOM     12  C   UNL     1       1.276  -5.214   6.179  1.00  0.00     0.151 C 
BRANCH   7  13
ATOM     13  C   UNL     1      -0.349  -3.449   3.673  1.00  0.00     0.024 A 
ATOM     14  C   UNL     1       0.146  -1.698   2.041  1.00  0.00     0.161 A 
ATOM     15  C   UNL     1      -0.538  -2.136   3.180  1.00  0.00     0.061 A 
ATOM     16  C   UNL     1       1.002  -2.585   1.386  1.00  0.00     0.161 A 
ATOM     17  C   UNL     1       1.034  -3.930   1.755  1.00  0.00     0.051 A 
ATOM     18  C   UNL     1       0.340  -4.370   2.872  1.00  0.00     0.015 A 
BRANCH  14  19
ATOM     19  O   UNL     1       0.213  -0.355   1.780  1.00  0.00    -0.493 OA
ATOM     20  C   UNL     1      -1.044   0.179   1.360  1.00  0.00     0.278 C 
ENDBRANCH  14  19
BRANCH  16  21
ATOM     21  O   UNL     1       1.992  -2.265   0.500  1.00  0.00    -0.485 OA
BRANCH  21  22
ATOM     22  C   UNL     1       1.680  -1.351  -0.541  1.00  0.00     0.265 C 
BRANCH  22  23
ATOM     23  C   UNL     1       0.643  -1.861  -1.503  1.00  0.00    -0.011 A 
ATOM     24  C   UNL     1      -0.176  -0.966  -2.194  1.00  0.00     0.009 A 
ATOM     25  C   UNL     1       0.527  -3.235  -1.754  1.00  0.00     0.009 A 
ATOM     26  C   UNL     1      -1.166  -1.440  -3.050  1.00  0.00     0.021 A 
ATOM     27  C   UNL     1      -0.469  -3.712  -2.596  1.00  0.00     0.021 A 
ATOM     28  C   UNL     1      -1.322  -2.812  -3.228  1.00  0.00     0.041 A 
ATOM     29  Cl  UNL     1      -2.576  -3.407  -4.242  1.00  0.00    -0.084 Cl
ENDBRANCH  22  23
ENDBRANCH  21  22
ENDBRANCH  16  21
ENDBRANCH   7  13
ENDBRANCH   3   6
ENDBRANCH   1   2
BRANCH   1  30
ATOM     30  C   UNL     1       3.165  -1.309   3.996  1.00  0.00     0.042 C 
BRANCH  30  31
ATOM     31  C   UNL     1       4.276  -0.645   3.175  1.00  0.00     0.118 C 
BRANCH  31  32
ATOM     32  N   UNL     1       4.765  -1.332   1.982  1.00  0.00    -0.352 N 
ATOM     33  C   UNL     1       5.063  -0.907   0.699  1.00  0.00     0.251 C 
ATOM     34  H   UNL     1       4.913  -2.296   2.119  1.00  0.00     0.163 HD
ATOM     35  O   UNL     1       5.651  -1.701  -0.039  1.00  0.00    -0.269 OA
BRANCH  33  36
ATOM     36  C   UNL     1       4.616   0.401   0.125  1.00  0.00     0.039 A 
ATOM     37  C   UNL     1       4.324   0.452  -1.253  1.00  0.00     0.014 A 
ATOM     38  C   UNL     1       4.400   1.549   0.877  1.00  0.00     0.014 A 
ATOM     39  C   UNL     1       3.631   1.537  -1.810  1.00  0.00     0.010 A 
ATOM     40  C   UNL     1       3.681   2.620   0.342  1.00  0.00     0.010 A 
ATOM     41  C   UNL     1       3.260   2.610  -0.996  1.00  0.00    -0.014 A 
BRANCH  41  42
ATOM     42  C   UNL     1       2.585   3.817  -1.531  1.00  0.00     0.031 A 
ATOM     43  C   UNL     1       3.426   5.020  -1.815  1.00  0.00     0.074 A 
ATOM     44  C   UNL     1       1.244   3.897  -1.637  1.00  0.00     0.049 A 
ATOM     45  N   UNL     1       3.055   6.224  -2.152  1.00  0.00    -0.248 NA
ATOM     46  C   UNL     1       4.880   4.848  -1.657  1.00  0.00     0.031 C 
ATOM     47  C   UNL     1       0.317   2.820  -1.317  1.00  0.00     0.029 A 
ATOM     48  N   UNL     1       0.426   4.941  -2.000  1.00  0.00    -0.354 N 
ATOM     49  C   UNL     1       4.223   6.967  -2.206  1.00  0.00     0.074 A 
ATOM     50  C   UNL     1       5.311   6.083  -1.847  1.00  0.00     0.031 C 
ATOM     51  C   UNL     1      -0.945   3.248  -1.501  1.00  0.00     0.029 A 
ATOM     52  C   UNL     1      -0.918   4.654  -1.899  1.00  0.00     0.049 A 
ATOM     53  H   UNL     1       0.768   5.812  -2.303  1.00  0.00     0.167 HD
ATOM     54  C   UNL     1       4.381   8.268  -2.536  1.00  0.00     0.034 A 
ATOM     55  C   UNL     1      -1.999   5.443  -2.076  1.00  0.00     0.034 A 
ATOM     56  C   UNL     1       3.305   9.148  -2.887  1.00  0.00     0.049 A 
ATOM     57  C   UNL     1      -1.794   6.895  -2.438  1.00  0.00     0.074 A 
ATOM     58  C   UNL     1       3.375  10.467  -3.295  1.00  0.00     0.029 A 
ATOM     59  N   UNL     1       1.962   8.809  -2.850  1.00  0.00    -0.354 N 
ATOM     60  N   UNL     1      -0.673   7.545  -2.639  1.00  0.00    -0.248 NA
ATOM     61  C   UNL     1      -3.001   7.718  -2.612  1.00  0.00     0.031 C 
ATOM     62  C   UNL     1       2.070  10.936  -3.477  1.00  0.00     0.029 A 
ATOM     63  C   UNL     1       1.189   9.898  -3.214  1.00  0.00     0.049 A 
ATOM     64  H   UNL     1       1.609   7.925  -2.601  1.00  0.00     0.167 HD
ATOM     65  C   UNL     1      -1.040   8.840  -2.995  1.00  0.00     0.074 A 
ATOM     66  C   UNL     1      -2.487   8.876  -3.005  1.00  0.00     0.031 C 
ATOM     67  C   UNL     1      -0.250   9.907  -3.272  1.00  0.00     0.034 A 
BRANCH  54  68
ATOM     68  C   UNL     1       5.787   8.793  -2.545  1.00  0.00     0.023 A 
ATOM     69  C   UNL     1       6.678   8.376  -3.555  1.00  0.00     0.012 A 
ATOM     70  C   UNL     1       6.226   9.689  -1.554  1.00  0.00     0.148 A 
ATOM     71  C   UNL     1       8.001   8.810  -3.554  1.00  0.00     0.002 A 
ATOM     72  C   UNL     1       7.532  10.156  -1.588  1.00  0.00     0.091 A 
ATOM     73  F   UNL     1       5.369  10.043  -0.586  1.00  0.00    -0.205 F 
ATOM     74  C   UNL     1       8.425   9.707  -2.577  1.00  0.00     0.022 A 
BRANCH  72  75
ATOM     75  S   UNL     1       8.159  11.364  -0.420  1.00  0.00     0.127 S 
ATOM     76  O   UNL     1       9.099  10.564   0.359  1.00  0.00    -0.237 OA
ATOM     77  O   UNL     1       8.777  12.351  -1.302  1.00  0.00    -0.237 OA
ATOM     78  O   UNL     1       6.995  11.851   0.317  1.00  0.00    -0.744 OA
ENDBRANCH  72  75
ENDBRANCH  54  68
BRANCH  55  79
ATOM     79  C   UNL     1      -3.382   4.894  -1.942  1.00  0.00     0.023 A 
ATOM     80  C   UNL     1      -4.206   4.816  -3.083  1.00  0.00     0.012 A 
ATOM     81  C   UNL     1      -3.897   4.473  -0.701  1.00  0.00     0.148 A 
ATOM     82  C   UNL     1      -5.526   4.370  -2.985  1.00  0.00     0.002 A 
ATOM     83  C   UNL     1      -5.194   3.975  -0.619  1.00  0.00     0.091 A 
ATOM     84  F   UNL     1      -3.108   4.567   0.379  1.00  0.00    -0.205 F 
ATOM     85  C   UNL     1      -6.017   3.942  -1.755  1.00  0.00     0.022 A 
BRANCH  83  86
ATOM     86  S   UNL     1      -5.868   3.283   0.895  1.00  0.00     0.127 S 
ATOM     87  O   UNL     1      -6.851   4.288   1.276  1.00  0.00    -0.237 OA
ATOM     88  O   UNL     1      -6.424   2.015   0.426  1.00  0.00    -0.237 OA
ATOM     89  O   UNL     1      -4.727   3.135   1.797  1.00  0.00    -0.744 OA
ENDBRANCH  83  86
ENDBRANCH  55  79
BRANCH  67  90
ATOM     90  C   UNL     1      -0.921  11.202  -3.652  1.00  0.00     0.023 A 
ATOM     91  C   UNL     1      -1.587  11.964  -2.673  1.00  0.00     0.012 A 
ATOM     92  C   UNL     1      -0.810  11.706  -4.964  1.00  0.00     0.148 A 
ATOM     93  C   UNL     1      -2.157  13.195  -3.000  1.00  0.00     0.002 A 
ATOM     94  C   UNL     1      -1.334  12.955  -5.270  1.00  0.00     0.091 A 
ATOM     95  F   UNL     1      -0.186  10.957  -5.885  1.00  0.00    -0.205 F 
ATOM     96  C   UNL     1      -2.019  13.696  -4.293  1.00  0.00     0.022 A 
BRANCH  94  97
ATOM     97  S   UNL     1      -1.117  13.726  -6.878  1.00  0.00     0.127 S 
ATOM     98  O   UNL     1      -2.468  13.653  -7.428  1.00  0.00    -0.237 OA
ATOM     99  O   UNL     1      -0.673  15.072  -6.520  1.00  0.00    -0.237 OA
ATOM    100  O   UNL     1      -0.116  12.924  -7.575  1.00  0.00    -0.744 OA
ENDBRANCH  94  97
ENDBRANCH  67  90
ENDBRANCH  41  42
ENDBRANCH  33  36
ENDBRANCH  31  32
ENDBRANCH  30  31
ENDBRANCH   1  30
TORSDOF 18
