REMARK SMILES Cc1ccnc(C(=O)c2[nH]c3cc(Cl)c(F)cc3c2CC(=O)NCCCNC(=O)c2ccc(-c3c4nc(c(-c5cccc(S(=O)(=O)[O-])c5F)c5ccc([nH]5)c(-c5cccc(S(=O)(=O)[O-])c5F)c5nc(c(-c6cccc(S(=O)(=O)[O-])c6F)c6ccc3[nH]6)C=C5)C=C4)cc2)c1
REMARK SMILES IDX 25 1 24 2 23 3 21 4 22 5 20 7 19 8 9 9 10 10 11 11 18 13
REMARK SMILES IDX 12 14 17 15 13 16 15 17 14 18 16 19 7 20 8 21 6 22 1 23 2 24
REMARK SMILES IDX 3 25 93 26 4 27 5 28 26 29 27 30 28 31 29 33 30 34 31 35
REMARK SMILES IDX 92 36 32 37 91 38 33 39 34 40 35 41 85 42 36 43 90 44 84 45
REMARK SMILES IDX 86 46 37 47 89 48 83 49 82 50 38 52 70 53 50 54 69 55 51 56
REMARK SMILES IDX 54 57 68 58 87 59 52 60 53 61 67 63 88 64 55 65 39 66 40 67
REMARK SMILES IDX 48 68 41 69 43 70 49 71 42 72 44 73 45 74 46 75 47 76 71 77
REMARK SMILES IDX 72 78 80 79 73 80 75 81 81 82 74 83 76 84 77 85 78 86 79 87
REMARK SMILES IDX 56 88 57 89 65 90 58 91 60 92 66 93 59 94 61 95 62 96 63 97
REMARK SMILES IDX 64 98
REMARK H PARENT 23 6 10 12 27 32 86 51 54 62
REMARK Flexibility Score: inf
ROOT
ATOM      1  C   UNL     1      -2.956  -3.697   0.620  1.00  0.00     0.042 C 
ENDROOT
BRANCH   1   2
ATOM      2  C   UNL     1      -3.120  -3.560  -0.892  1.00  0.00     0.117 C 
BRANCH   2   3
ATOM      3  N   UNL     1      -2.420  -2.445  -1.506  1.00  0.00    -0.356 N 
ATOM      4  C   UNL     1      -1.226  -2.361  -2.155  1.00  0.00     0.224 C 
ATOM      5  O   UNL     1      -0.987  -1.301  -2.744  1.00  0.00    -0.275 OA
ATOM      6  H   UNL     1      -2.900  -1.588  -1.440  1.00  0.00     0.163 HD
BRANCH   4   7
ATOM      7  C   UNL     1      -0.235  -3.504  -2.227  1.00  0.00     0.138 C 
BRANCH   7   8
ATOM      8  C   UNL     1       0.189  -4.122  -0.926  1.00  0.00    -0.002 A 
ATOM      9  C   UNL     1       1.046  -3.629   0.064  1.00  0.00     0.093 A 
ATOM     10  N   UNL     1       1.209  -4.650   0.984  1.00  0.00    -0.351 N 
ATOM     11  C   UNL     1       0.429  -5.736   0.683  1.00  0.00     0.048 A 
ATOM     12  H   UNL     1       1.813  -4.602   1.761  1.00  0.00     0.167 HD
ATOM     13  C   UNL     1      -0.170  -5.468  -0.543  1.00  0.00     0.007 A 
ATOM     14  C   UNL     1       0.227  -6.933   1.387  1.00  0.00     0.050 A 
ATOM     15  C   UNL     1      -0.970  -6.474  -1.126  1.00  0.00     0.051 A 
ATOM     16  C   UNL     1      -0.619  -7.888   0.812  1.00  0.00     0.078 A 
ATOM     17  C   UNL     1      -1.198  -7.662  -0.430  1.00  0.00     0.142 A 
ATOM     18  Cl  UNL     1      -0.931  -9.351   1.663  1.00  0.00    -0.081 Cl
ATOM     19  F   UNL     1      -2.004  -8.577  -0.992  1.00  0.00    -0.205 F 
BRANCH   9  20
ATOM     20  C   UNL     1       1.828  -2.401   0.234  1.00  0.00     0.227 C 
ATOM     21  O   UNL     1       3.004  -2.482   0.590  1.00  0.00    -0.285 OA
BRANCH  20  22
ATOM     22  C   UNL     1       1.213  -1.029   0.123  1.00  0.00     0.113 A 
ATOM     23  C   UNL     1      -2.146   0.758   0.229  1.00  0.00     0.044 C 
ATOM     24  C   UNL     1      -0.675   0.475   0.169  1.00  0.00    -0.047 A 
ATOM     25  C   UNL     1       0.211   1.529  -0.019  1.00  0.00     0.023 A 
ATOM     26  C   UNL     1      -0.148  -0.818   0.297  1.00  0.00     0.036 A 
ATOM     27  C   UNL     1       1.561   1.245  -0.121  1.00  0.00     0.112 A 
ATOM     28  N   UNL     1       2.081  -0.000  -0.064  1.00  0.00    -0.253 NA
ENDBRANCH  20  22
ENDBRANCH   9  20
ENDBRANCH   7   8
ENDBRANCH   4   7
ENDBRANCH   2   3
ENDBRANCH   1   2
BRANCH   1  29
ATOM     29  C   UNL     1      -3.332  -2.501   1.484  1.00  0.00     0.118 C 
BRANCH  29  30
ATOM     30  N   UNL     1      -4.564  -1.817   1.155  1.00  0.00    -0.352 N 
ATOM     31  C   UNL     1      -5.793  -1.722   1.749  1.00  0.00     0.251 C 
ATOM     32  H   UNL     1      -4.505  -1.306   0.316  1.00  0.00     0.163 HD
ATOM     33  O   UNL     1      -6.577  -0.894   1.284  1.00  0.00    -0.269 OA
BRANCH  31  34
ATOM     34  C   UNL     1      -6.245  -2.659   2.795  1.00  0.00     0.039 A 
ATOM     35  C   UNL     1      -5.398  -3.266   3.719  1.00  0.00     0.014 A 
ATOM     36  C   UNL     1      -7.600  -3.011   2.763  1.00  0.00     0.014 A 
ATOM     37  C   UNL     1      -5.809  -4.411   4.372  1.00  0.00     0.010 A 
ATOM     38  C   UNL     1      -8.047  -4.089   3.506  1.00  0.00     0.010 A 
ATOM     39  C   UNL     1      -7.119  -4.859   4.207  1.00  0.00    -0.014 A 
BRANCH  39  40
ATOM     40  C   UNL     1      -7.487  -6.123   4.833  1.00  0.00     0.031 A 
ATOM     41  C   UNL     1      -7.278  -6.193   6.311  1.00  0.00     0.074 A 
ATOM     42  C   UNL     1      -8.084  -7.107   4.129  1.00  0.00     0.049 A 
ATOM     43  N   UNL     1      -6.620  -7.073   6.996  1.00  0.00    -0.248 NA
ATOM     44  C   UNL     1      -7.780  -5.064   7.112  1.00  0.00     0.031 C 
ATOM     45  C   UNL     1      -8.585  -7.050   2.750  1.00  0.00     0.029 A 
ATOM     46  N   UNL     1      -8.537  -8.312   4.567  1.00  0.00    -0.354 N 
ATOM     47  C   UNL     1      -6.785  -6.711   8.335  1.00  0.00     0.074 A 
ATOM     48  C   UNL     1      -7.382  -5.401   8.338  1.00  0.00     0.031 C 
ATOM     49  C   UNL     1      -9.528  -8.002   2.588  1.00  0.00     0.029 A 
ATOM     50  C   UNL     1      -9.575  -8.814   3.789  1.00  0.00     0.049 A 
ATOM     51  H   UNL     1      -8.170  -8.780   5.352  1.00  0.00     0.167 HD
ATOM     52  C   UNL     1      -6.596  -7.578   9.367  1.00  0.00     0.034 A 
ATOM     53  C   UNL     1     -10.491  -9.735   4.174  1.00  0.00     0.034 A 
ATOM     54  C   UNL     1      -5.849  -8.739   8.983  1.00  0.00     0.049 A 
ATOM     55  C   UNL     1      -9.941 -10.448   5.349  1.00  0.00     0.074 A 
ATOM     56  C   UNL     1      -4.571  -8.970   8.520  1.00  0.00     0.029 A 
ATOM     57  N   UNL     1      -6.551  -9.893   8.739  1.00  0.00    -0.354 N 
ATOM     58  N   UNL     1      -8.891 -11.219   5.302  1.00  0.00    -0.248 NA
ATOM     59  C   UNL     1     -10.307  -9.963   6.670  1.00  0.00     0.031 C 
ATOM     60  C   UNL     1      -4.708 -10.039   7.588  1.00  0.00     0.029 A 
ATOM     61  C   UNL     1      -6.053 -10.415   7.574  1.00  0.00     0.049 A 
ATOM     62  H   UNL     1      -7.271 -10.272   9.292  1.00  0.00     0.167 HD
ATOM     63  C   UNL     1      -8.220 -10.965   6.491  1.00  0.00     0.074 A 
ATOM     64  C   UNL     1      -9.188 -10.264   7.332  1.00  0.00     0.031 C 
ATOM     65  C   UNL     1      -6.862 -11.084   6.581  1.00  0.00     0.034 A 
BRANCH  52  66
ATOM     66  C   UNL     1      -7.338  -7.512  10.677  1.00  0.00     0.023 A 
ATOM     67  C   UNL     1      -6.845  -8.261  11.766  1.00  0.00     0.012 A 
ATOM     68  C   UNL     1      -8.630  -6.952  10.809  1.00  0.00     0.148 A 
ATOM     69  C   UNL     1      -7.607  -8.457  12.924  1.00  0.00     0.002 A 
ATOM     70  C   UNL     1      -9.349  -7.082  11.991  1.00  0.00     0.091 A 
ATOM     71  F   UNL     1      -9.225  -6.401   9.746  1.00  0.00    -0.205 F 
ATOM     72  C   UNL     1      -8.855  -7.855  13.042  1.00  0.00     0.022 A 
BRANCH  70  73
ATOM     73  S   UNL     1     -10.936  -6.270  12.214  1.00  0.00     0.127 S 
ATOM     74  O   UNL     1     -11.862  -7.386  12.054  1.00  0.00    -0.237 OA
ATOM     75  O   UNL     1     -10.820  -5.750  13.577  1.00  0.00    -0.237 OA
ATOM     76  O   UNL     1     -10.984  -5.236  11.187  1.00  0.00    -0.744 OA
ENDBRANCH  70  73
ENDBRANCH  52  66
BRANCH  53  77
ATOM     77  C   UNL     1     -11.933  -9.774   3.838  1.00  0.00     0.023 A 
ATOM     78  C   UNL     1     -12.640 -10.985   3.961  1.00  0.00     0.012 A 
ATOM     79  C   UNL     1     -12.673  -8.581   3.670  1.00  0.00     0.148 A 
ATOM     80  C   UNL     1     -14.040 -11.005   3.942  1.00  0.00     0.002 A 
ATOM     81  C   UNL     1     -14.063  -8.607   3.643  1.00  0.00     0.091 A 
ATOM     82  F   UNL     1     -12.018  -7.413   3.632  1.00  0.00    -0.205 F 
ATOM     83  C   UNL     1     -14.751  -9.817   3.791  1.00  0.00     0.022 A 
BRANCH  81  84
ATOM     84  S   UNL     1     -15.047  -7.109   3.481  1.00  0.00     0.127 S 
ATOM     85  O   UNL     1     -15.985  -7.479   2.420  1.00  0.00    -0.237 OA
ATOM     86  O   UNL     1     -15.639  -6.993   4.810  1.00  0.00    -0.237 OA
ATOM     87  O   UNL     1     -14.110  -6.056   3.110  1.00  0.00    -0.744 OA
ENDBRANCH  81  84
ENDBRANCH  53  77
BRANCH  65  88
ATOM     88  C   UNL     1      -6.115 -11.691   5.417  1.00  0.00     0.023 A 
ATOM     89  C   UNL     1      -6.101 -11.084   4.143  1.00  0.00     0.012 A 
ATOM     90  C   UNL     1      -5.247 -12.768   5.663  1.00  0.00     0.148 A 
ATOM     91  C   UNL     1      -5.254 -11.550   3.134  1.00  0.00     0.002 A 
ATOM     92  C   UNL     1      -4.372 -13.199   4.671  1.00  0.00     0.091 A 
ATOM     93  F   UNL     1      -5.265 -13.332   6.880  1.00  0.00    -0.205 F 
ATOM     94  C   UNL     1      -4.378 -12.598   3.403  1.00  0.00     0.022 A 
BRANCH  92  95
ATOM     95  S   UNL     1      -3.129 -14.450   5.006  1.00  0.00     0.127 S 
ATOM     96  O   UNL     1      -3.709 -15.634   4.369  1.00  0.00    -0.237 OA
ATOM     97  O   UNL     1      -1.946 -13.912   4.327  1.00  0.00    -0.237 OA
ATOM     98  O   UNL     1      -3.004 -14.511   6.452  1.00  0.00    -0.744 OA
ENDBRANCH  92  95
ENDBRANCH  65  88
ENDBRANCH  39  40
ENDBRANCH  31  34
ENDBRANCH  29  30
ENDBRANCH   1  29
TORSDOF 16
