REMARK SMILES O=C(NCCCNC(=O)c1cc(N2C(=O)[C@H]3[C@@H]4C=C[C@@H]([C@@H]5C[C@H]45)[C@@H]3C2=O)ccc1Cl)c1ccc(-c2c3nc(c(-c4cccc(S(=O)(=O)[O-])c4F)c4ccc([nH]4)c(-c4cccc(S(=O)(=O)[O-])c4F)c4nc(c(-c5cccc(S(=O)(=O)[O-])c5F)c5ccc2[nH]5)C=C4)C=C3)cc1
REMARK SMILES IDX 4 1 3 2 1 3 2 4 31 6 32 7 93 8 33 9 92 10 34 11 35 12 36 13
REMARK SMILES IDX 86 14 37 15 91 16 85 17 87 18 38 19 90 20 84 21 83 22 39 24
REMARK SMILES IDX 71 25 51 26 70 27 52 28 55 29 69 30 88 31 53 32 54 33 68 35
REMARK SMILES IDX 89 36 56 37 40 38 41 39 49 40 42 41 44 42 50 43 43 44 45 45
REMARK SMILES IDX 46 46 47 47 48 48 72 49 73 50 81 51 74 52 76 53 82 54 75 55
REMARK SMILES IDX 77 56 78 57 79 58 80 59 57 60 58 61 66 62 59 63 61 64 67 65
REMARK SMILES IDX 60 66 62 67 63 68 64 69 65 70 5 71 6 72 7 73 8 74 9 76 10 77
REMARK SMILES IDX 11 78 29 79 12 80 28 81 30 82 27 83 13 84 14 85 25 86 15 87
REMARK SMILES IDX 16 88 24 89 26 90 17 91 20 92 18 93 23 94 19 95 21 96 22 97
REMARK H PARENT 3 5 87 23 55 34 7 75
REMARK Flexibility Score: inf
ROOT
ATOM      1  C   UNL     1       4.628  -0.254   1.356  1.00  0.00     0.118 C 
ENDROOT
BRANCH   1   2
ATOM      2  N   UNL     1       3.182  -0.308   1.181  1.00  0.00    -0.352 N 
ATOM      3  O   UNL     1       1.196   0.014   0.168  1.00  0.00    -0.269 OA
ATOM      4  C   UNL     1       2.417  -0.061   0.065  1.00  0.00     0.251 C 
ATOM      5  H   UNL     1       2.674  -0.559   1.986  1.00  0.00     0.163 HD
BRANCH   4   6
ATOM      6  C   UNL     1       3.073   0.145  -1.244  1.00  0.00     0.039 A 
ATOM      7  C   UNL     1       4.149  -0.657  -1.625  1.00  0.00     0.014 A 
ATOM      8  C   UNL     1       2.621   1.157  -2.094  1.00  0.00     0.014 A 
ATOM      9  C   UNL     1       4.895  -0.324  -2.745  1.00  0.00     0.010 A 
ATOM     10  C   UNL     1       3.296   1.407  -3.292  1.00  0.00     0.010 A 
ATOM     11  C   UNL     1       4.463   0.694  -3.608  1.00  0.00    -0.014 A 
BRANCH  11  12
ATOM     12  C   UNL     1       5.201   0.919  -4.876  1.00  0.00     0.031 A 
ATOM     13  C   UNL     1       5.843   2.240  -5.192  1.00  0.00     0.074 A 
ATOM     14  C   UNL     1       5.283  -0.101  -5.754  1.00  0.00     0.049 A 
ATOM     15  N   UNL     1       6.522   2.587  -6.255  1.00  0.00    -0.248 NA
ATOM     16  C   UNL     1       5.699   3.315  -4.198  1.00  0.00     0.031 C 
ATOM     17  C   UNL     1       4.659  -1.416  -5.574  1.00  0.00     0.029 A 
ATOM     18  N   UNL     1       5.910  -0.197  -6.968  1.00  0.00    -0.354 N 
ATOM     19  C   UNL     1       6.847   3.928  -6.084  1.00  0.00     0.074 A 
ATOM     20  C   UNL     1       6.285   4.334  -4.813  1.00  0.00     0.031 C 
ATOM     21  C   UNL     1       4.950  -2.191  -6.625  1.00  0.00     0.029 A 
ATOM     22  C   UNL     1       5.715  -1.409  -7.587  1.00  0.00     0.049 A 
ATOM     23  H   UNL     1       6.447   0.530  -7.359  1.00  0.00     0.167 HD
ATOM     24  C   UNL     1       7.553   4.740  -6.907  1.00  0.00     0.034 A 
ATOM     25  C   UNL     1       6.074  -1.839  -8.810  1.00  0.00     0.034 A 
ATOM     26  C   UNL     1       8.123   4.318  -8.161  1.00  0.00     0.049 A 
ATOM     27  C   UNL     1       6.861  -0.922  -9.697  1.00  0.00     0.074 A 
ATOM     28  C   UNL     1       8.918   5.043  -9.031  1.00  0.00     0.029 A 
ATOM     29  N   UNL     1       7.941   3.068  -8.736  1.00  0.00    -0.354 N 
ATOM     30  N   UNL     1       7.272   0.300  -9.458  1.00  0.00    -0.248 NA
ATOM     31  C   UNL     1       7.260  -1.449 -11.008  1.00  0.00     0.031 C 
ATOM     32  C   UNL     1       9.178   4.248 -10.153  1.00  0.00     0.029 A 
ATOM     33  C   UNL     1       8.587   3.010  -9.960  1.00  0.00     0.049 A 
ATOM     34  H   UNL     1       7.427   2.331  -8.334  1.00  0.00     0.167 HD
ATOM     35  C   UNL     1       7.998   0.681 -10.578  1.00  0.00     0.074 A 
ATOM     36  C   UNL     1       7.992  -0.451 -11.483  1.00  0.00     0.031 C 
ATOM     37  C   UNL     1       8.605   1.865 -10.837  1.00  0.00     0.034 A 
BRANCH  24  38
ATOM     38  C   UNL     1       7.760   6.171  -6.478  1.00  0.00     0.023 A 
ATOM     39  C   UNL     1       8.616   6.467  -5.397  1.00  0.00     0.012 A 
ATOM     40  C   UNL     1       7.149   7.229  -7.182  1.00  0.00     0.148 A 
ATOM     41  C   UNL     1       8.829   7.787  -4.999  1.00  0.00     0.002 A 
ATOM     42  C   UNL     1       7.403   8.544  -6.809  1.00  0.00     0.091 A 
ATOM     43  F   UNL     1       6.324   6.931  -8.195  1.00  0.00    -0.205 F 
ATOM     44  C   UNL     1       8.231   8.825  -5.710  1.00  0.00     0.022 A 
BRANCH  42  45
ATOM     45  S   UNL     1       6.747   9.951  -7.712  1.00  0.00     0.127 S 
ATOM     46  O   UNL     1       5.753  10.467  -6.772  1.00  0.00    -0.237 OA
ATOM     47  O   UNL     1       7.931  10.796  -7.869  1.00  0.00    -0.237 OA
ATOM     48  O   UNL     1       6.213   9.417  -8.957  1.00  0.00    -0.744 OA
ENDBRANCH  42  45
ENDBRANCH  24  38
BRANCH  25  49
ATOM     49  C   UNL     1       5.688  -3.208  -9.247  1.00  0.00     0.023 A 
ATOM     50  C   UNL     1       6.673  -4.201  -9.397  1.00  0.00     0.012 A 
ATOM     51  C   UNL     1       4.334  -3.542  -9.455  1.00  0.00     0.148 A 
ATOM     52  C   UNL     1       6.319  -5.497  -9.772  1.00  0.00     0.002 A 
ATOM     53  C   UNL     1       3.984  -4.848  -9.766  1.00  0.00     0.091 A 
ATOM     54  F   UNL     1       3.414  -2.578  -9.312  1.00  0.00    -0.205 F 
ATOM     55  C   UNL     1       4.976  -5.824  -9.944  1.00  0.00     0.022 A 
BRANCH  53  56
ATOM     56  S   UNL     1       2.274  -5.389  -9.860  1.00  0.00     0.127 S 
ATOM     57  O   UNL     1       2.130  -5.672 -11.286  1.00  0.00    -0.237 OA
ATOM     58  O   UNL     1       2.285  -6.569  -8.995  1.00  0.00    -0.237 OA
ATOM     59  O   UNL     1       1.479  -4.279  -9.353  1.00  0.00    -0.744 OA
ENDBRANCH  53  56
ENDBRANCH  25  49
BRANCH  37  60
ATOM     60  C   UNL     1       9.349   1.991 -12.140  1.00  0.00     0.023 A 
ATOM     61  C   UNL     1       8.639   2.069 -13.355  1.00  0.00     0.012 A 
ATOM     62  C   UNL     1      10.754   2.094 -12.152  1.00  0.00     0.148 A 
ATOM     63  C   UNL     1       9.318   2.212 -14.564  1.00  0.00     0.002 A 
ATOM     64  C   UNL     1      11.420   2.292 -13.355  1.00  0.00     0.091 A 
ATOM     65  F   UNL     1      11.411   1.997 -10.988  1.00  0.00    -0.205 F 
ATOM     66  C   UNL     1      10.706   2.336 -14.563  1.00  0.00     0.022 A 
BRANCH  64  67
ATOM     67  S   UNL     1      13.194   2.560 -13.441  1.00  0.00     0.127 S 
ATOM     68  O   UNL     1      13.651   1.327 -14.081  1.00  0.00    -0.237 OA
ATOM     69  O   UNL     1      13.284   3.754 -14.282  1.00  0.00    -0.237 OA
ATOM     70  O   UNL     1      13.640   2.751 -12.068  1.00  0.00    -0.744 OA
ENDBRANCH  64  67
ENDBRANCH  37  60
ENDBRANCH  11  12
ENDBRANCH   4   6
ENDBRANCH   1   2
BRANCH   1  71
ATOM     71  C   UNL     1       5.078   0.876   2.267  1.00  0.00     0.042 C 
BRANCH  71  72
ATOM     72  C   UNL     1       4.572   0.750   3.692  1.00  0.00     0.118 C 
BRANCH  72  73
ATOM     73  N   UNL     1       5.004  -0.483   4.329  1.00  0.00    -0.352 N 
ATOM     74  C   UNL     1       5.641  -0.670   5.525  1.00  0.00     0.252 C 
ATOM     75  H   UNL     1       4.809  -1.306   3.825  1.00  0.00     0.163 HD
ATOM     76  O   UNL     1       6.005  -1.792   5.865  1.00  0.00    -0.269 OA
BRANCH  74  77
ATOM     77  C   UNL     1       5.943   0.472   6.401  1.00  0.00     0.060 A 
ATOM     78  C   UNL     1       7.287   0.627   6.784  1.00  0.00     0.042 A 
ATOM     79  C   UNL     1       4.952   1.311   6.930  1.00  0.00     0.053 A 
ATOM     80  C   UNL     1       7.625   1.601   7.720  1.00  0.00     0.053 A 
ATOM     81  C   UNL     1       5.317   2.358   7.773  1.00  0.00     0.023 A 
ATOM     82  Cl  UNL     1       3.260   1.082   6.666  1.00  0.00    -0.083 Cl
ATOM     83  C   UNL     1       6.641   2.486   8.185  1.00  0.00     0.028 A 
BRANCH  80  84
ATOM     84  N   UNL     1       8.943   1.751   8.183  1.00  0.00    -0.250 N 
ATOM     85  C   UNL     1      10.021   2.030   7.325  1.00  0.00     0.238 C 
ATOM     86  C   UNL     1       9.237   2.052   9.530  1.00  0.00     0.238 C 
ATOM     87  O   UNL     1      10.061   2.070   6.109  1.00  0.00    -0.274 OA
ATOM     88  C   UNL     1      11.156   2.299   8.262  1.00  0.00     0.100 C 
ATOM     89  C   UNL     1      10.374   2.991   9.382  1.00  0.00     0.100 C 
ATOM     90  O   UNL     1       8.615   1.806  10.544  1.00  0.00    -0.274 OA
ATOM     91  C   UNL     1      12.470   3.062   8.024  1.00  0.00     0.028 C 
ATOM     92  C   UNL     1      11.336   3.726  10.300  1.00  0.00     0.028 C 
ATOM     93  C   UNL     1      13.260   2.633   9.286  1.00  0.00    -0.026 C 
ATOM     94  C   UNL     1      12.377   4.596   8.140  1.00  0.00     0.001 C 
ATOM     95  C   UNL     1      12.639   2.927  10.453  1.00  0.00    -0.026 C 
ATOM     96  C   UNL     1      11.726   5.006   9.471  1.00  0.00     0.001 C 
ATOM     97  C   UNL     1      11.143   5.450   8.126  1.00  0.00     0.009 C 
ENDBRANCH  80  84
ENDBRANCH  74  77
ENDBRANCH  72  73
ENDBRANCH  71  72
ENDBRANCH   1  71
TORSDOF 14
