REMARK SMILES CCOc1ccc(-c2ccc(N3CCC[C@H](C(=O)NCCCNC(=O)c4ccc(-c5c6nc(c(-c7cccc(S(=O)(=O)[O-])c7F)c7ccc([nH]7)c(-c7cccc(S(=O)(=O)[O-])c7F)c7nc(c(-c8cccc(S(=O)(=O)[O-])c8F)c8ccc5[nH]8)C=C7)C=C6)cc4)C3)nn2)cc1
REMARK SMILES IDX 20 1 19 2 17 3 18 4 16 6 12 7 13 8 89 9 14 10 15 11 11 12
REMARK SMILES IDX 8 13 9 14 91 15 10 16 90 17 7 18 4 19 5 20 93 21 6 22 92 23
REMARK SMILES IDX 3 24 2 25 1 26 21 27 22 28 23 29 24 30 25 32 26 33 27 34
REMARK SMILES IDX 88 35 28 36 87 37 29 38 30 39 31 40 81 41 32 42 86 43 80 44
REMARK SMILES IDX 82 45 33 46 85 47 79 48 78 49 34 51 66 52 46 53 65 54 47 55
REMARK SMILES IDX 50 56 64 57 83 58 48 59 49 60 63 62 84 63 51 64 35 65 36 66
REMARK SMILES IDX 44 67 37 68 39 69 45 70 38 71 40 72 41 73 42 74 43 75 67 76
REMARK SMILES IDX 68 77 76 78 69 79 71 80 77 81 70 82 72 83 73 84 74 85 75 86
REMARK SMILES IDX 52 87 53 88 61 89 54 90 56 91 62 92 55 93 57 94 58 95 59 96
REMARK SMILES IDX 60 97
REMARK H PARENT 19 5 23 31 82 50 50 61
REMARK Flexibility Score: inf
ROOT
ATOM      1  C   UNL     1       9.976   5.769   0.111  1.00  0.00     0.117 C 
ENDROOT
BRANCH   1   2
ATOM      2  N   UNL     1      10.621   6.823  -0.634  1.00  0.00    -0.356 N 
ATOM      3  C   UNL     1      11.370   6.741  -1.764  1.00  0.00     0.224 C 
ATOM      4  O   UNL     1      11.521   7.791  -2.402  1.00  0.00    -0.275 OA
ATOM      5  H   UNL     1      10.501   7.731  -0.272  1.00  0.00     0.163 HD
BRANCH   3   6
ATOM      6  C   UNL     1      12.037   5.454  -2.275  1.00  0.00     0.098 C 
ATOM      7  N   UNL     1      10.723   3.336  -2.075  1.00  0.00    -0.354 N 
ATOM      8  C   UNL     1      11.733   2.667  -1.264  1.00  0.00     0.118 C 
ATOM      9  C   UNL     1      11.107   4.442  -2.945  1.00  0.00     0.131 C 
ATOM     10  C   UNL     1      12.631   3.651  -0.520  1.00  0.00     0.022 C 
ATOM     11  C   UNL     1      13.089   4.847  -1.346  1.00  0.00     0.017 C 
BRANCH   7  12
ATOM     12  C   UNL     1       9.382   3.030  -1.909  1.00  0.00     0.151 A 
ATOM     13  C   UNL     1       6.658   2.762  -1.515  1.00  0.00     0.093 A 
ATOM     14  C   UNL     1       7.155   2.805  -2.807  1.00  0.00     0.035 A 
ATOM     15  N   UNL     1       7.494   2.804  -0.462  1.00  0.00    -0.148 NA
ATOM     16  C   UNL     1       8.527   2.954  -3.000  1.00  0.00     0.051 A 
ATOM     17  N   UNL     1       8.861   2.898  -0.669  1.00  0.00    -0.132 NA
BRANCH  13  18
ATOM     18  C   UNL     1       5.230   2.622  -1.243  1.00  0.00     0.002 A 
ATOM     19  C   UNL     1       2.462   2.330  -0.867  1.00  0.00     0.119 A 
ATOM     20  C   UNL     1       3.057   3.575  -0.679  1.00  0.00     0.047 A 
ATOM     21  C   UNL     1       3.228   1.238  -1.260  1.00  0.00     0.047 A 
ATOM     22  C   UNL     1       4.439   3.717  -0.856  1.00  0.00     0.014 A 
ATOM     23  C   UNL     1       4.604   1.380  -1.432  1.00  0.00     0.014 A 
BRANCH  19  24
ATOM     24  O   UNL     1       1.103   2.223  -0.770  1.00  0.00    -0.494 OA
BRANCH  24  25
ATOM     25  C   UNL     1       0.690   1.572   0.439  1.00  0.00     0.226 C 
ATOM     26  C   UNL     1       0.509   0.076   0.231  1.00  0.00     0.049 C 
ENDBRANCH  24  25
ENDBRANCH  19  24
ENDBRANCH  13  18
ENDBRANCH   7  12
ENDBRANCH   3   6
ENDBRANCH   1   2
BRANCH   1  27
ATOM     27  C   UNL     1      10.392   5.666   1.567  1.00  0.00     0.042 C 
BRANCH  27  28
ATOM     28  C   UNL     1       9.294   6.053   2.540  1.00  0.00     0.118 C 
BRANCH  28  29
ATOM     29  N   UNL     1       8.113   5.197   2.473  1.00  0.00    -0.352 N 
ATOM     30  C   UNL     1       7.334   4.678   3.484  1.00  0.00     0.251 C 
ATOM     31  H   UNL     1       7.828   4.953   1.563  1.00  0.00     0.163 HD
ATOM     32  O   UNL     1       6.357   3.989   3.214  1.00  0.00    -0.269 OA
BRANCH  30  33
ATOM     33  C   UNL     1       7.707   4.894   4.901  1.00  0.00     0.039 A 
ATOM     34  C   UNL     1       7.614   3.815   5.786  1.00  0.00     0.014 A 
ATOM     35  C   UNL     1       8.185   6.123   5.354  1.00  0.00     0.014 A 
ATOM     36  C   UNL     1       8.077   3.948   7.098  1.00  0.00     0.010 A 
ATOM     37  C   UNL     1       8.753   6.218   6.619  1.00  0.00     0.010 A 
ATOM     38  C   UNL     1       8.694   5.138   7.511  1.00  0.00    -0.014 A 
BRANCH  38  39
ATOM     39  C   UNL     1       9.269   5.292   8.872  1.00  0.00     0.031 A 
ATOM     40  C   UNL     1       8.764   6.385   9.778  1.00  0.00     0.074 A 
ATOM     41  C   UNL     1      10.311   4.526   9.253  1.00  0.00     0.049 A 
ATOM     42  N   UNL     1       9.202   6.752  10.954  1.00  0.00    -0.248 NA
ATOM     43  C   UNL     1       7.647   7.205   9.276  1.00  0.00     0.031 C 
ATOM     44  C   UNL     1      10.956   3.499   8.430  1.00  0.00     0.029 A 
ATOM     45  N   UNL     1      11.029   4.509  10.423  1.00  0.00    -0.354 N 
ATOM     46  C   UNL     1       8.459   7.874  11.301  1.00  0.00     0.074 A 
ATOM     47  C   UNL     1       7.571   8.154  10.196  1.00  0.00     0.031 C 
ATOM     48  C   UNL     1      11.962   2.944   9.125  1.00  0.00     0.029 A 
ATOM     49  C   UNL     1      12.052   3.589  10.431  1.00  0.00     0.049 A 
ATOM     50  H   UNL     1      10.830   5.100  11.184  1.00  0.00     0.167 HD
ATOM     51  C   UNL     1       8.480   8.584  12.454  1.00  0.00     0.034 A 
ATOM     52  C   UNL     1      12.956   3.296  11.386  1.00  0.00     0.034 A 
ATOM     53  C   UNL     1       9.299   8.245  13.585  1.00  0.00     0.049 A 
ATOM     54  C   UNL     1      12.888   4.030  12.699  1.00  0.00     0.074 A 
ATOM     55  C   UNL     1       9.319   8.828  14.839  1.00  0.00     0.029 A 
ATOM     56  N   UNL     1      10.232   7.220  13.602  1.00  0.00    -0.354 N 
ATOM     57  N   UNL     1      12.069   4.984  13.069  1.00  0.00    -0.248 NA
ATOM     58  C   UNL     1      13.841   3.620  13.741  1.00  0.00     0.031 C 
ATOM     59  C   UNL     1      10.267   8.153  15.616  1.00  0.00     0.029 A 
ATOM     60  C   UNL     1      10.830   7.146  14.847  1.00  0.00     0.049 A 
ATOM     61  H   UNL     1      10.438   6.631  12.840  1.00  0.00     0.167 HD
ATOM     62  C   UNL     1      12.382   5.265  14.393  1.00  0.00     0.074 A 
ATOM     63  C   UNL     1      13.453   4.364  14.768  1.00  0.00     0.031 C 
ATOM     64  C   UNL     1      11.847   6.198  15.219  1.00  0.00     0.034 A 
BRANCH  51  65
ATOM     65  C   UNL     1       7.530   9.747  12.574  1.00  0.00     0.023 A 
ATOM     66  C   UNL     1       6.147   9.499  12.704  1.00  0.00     0.012 A 
ATOM     67  C   UNL     1       7.998  11.075  12.596  1.00  0.00     0.148 A 
ATOM     68  C   UNL     1       5.242  10.554  12.810  1.00  0.00     0.002 A 
ATOM     69  C   UNL     1       7.093  12.120  12.748  1.00  0.00     0.091 A 
ATOM     70  F   UNL     1       9.312  11.294  12.448  1.00  0.00    -0.205 F 
ATOM     71  C   UNL     1       5.715  11.862  12.843  1.00  0.00     0.022 A 
BRANCH  69  72
ATOM     72  S   UNL     1       7.610  13.835  12.880  1.00  0.00     0.127 S 
ATOM     73  O   UNL     1       7.222  14.362  11.572  1.00  0.00    -0.237 OA
ATOM     74  O   UNL     1       6.797  14.319  13.996  1.00  0.00    -0.237 OA
ATOM     75  O   UNL     1       9.041  13.801  13.145  1.00  0.00    -0.744 OA
ENDBRANCH  69  72
ENDBRANCH  51  65
BRANCH  52  76
ATOM     76  C   UNL     1      13.932   2.189  11.174  1.00  0.00     0.023 A 
ATOM     77  C   UNL     1      13.765   0.984  11.886  1.00  0.00     0.012 A 
ATOM     78  C   UNL     1      14.993   2.300  10.255  1.00  0.00     0.148 A 
ATOM     79  C   UNL     1      14.652  -0.078  11.710  1.00  0.00     0.002 A 
ATOM     80  C   UNL     1      15.844   1.219  10.046  1.00  0.00     0.091 A 
ATOM     81  F   UNL     1      15.146   3.457   9.596  1.00  0.00    -0.205 F 
ATOM     82  C   UNL     1      15.685   0.035  10.784  1.00  0.00     0.022 A 
BRANCH  80  83
ATOM     83  S   UNL     1      17.120   1.232   8.781  1.00  0.00     0.127 S 
ATOM     84  O   UNL     1      18.332   1.402   9.578  1.00  0.00    -0.237 OA
ATOM     85  O   UNL     1      16.963  -0.090   8.173  1.00  0.00    -0.237 OA
ATOM     86  O   UNL     1      16.778   2.339   7.897  1.00  0.00    -0.744 OA
ENDBRANCH  80  83
ENDBRANCH  52  76
BRANCH  64  87
ATOM     87  C   UNL     1      12.384   6.277  16.623  1.00  0.00     0.023 A 
ATOM     88  C   UNL     1      13.650   6.850  16.851  1.00  0.00     0.012 A 
ATOM     89  C   UNL     1      11.601   5.863  17.718  1.00  0.00     0.148 A 
ATOM     90  C   UNL     1      14.140   6.987  18.149  1.00  0.00     0.002 A 
ATOM     91  C   UNL     1      12.078   6.043  19.011  1.00  0.00     0.091 A 
ATOM     92  F   UNL     1      10.408   5.299  17.477  1.00  0.00    -0.205 F 
ATOM     93  C   UNL     1      13.350   6.596  19.228  1.00  0.00     0.022 A 
BRANCH  91  94
ATOM     94  S   UNL     1      11.085   5.654  20.457  1.00  0.00     0.127 S 
ATOM     95  O   UNL     1      11.670   4.386  20.888  1.00  0.00    -0.237 OA
ATOM     96  O   UNL     1      11.363   6.786  21.342  1.00  0.00    -0.237 OA
ATOM     97  O   UNL     1       9.709   5.586  19.986  1.00  0.00    -0.744 OA
ENDBRANCH  91  94
ENDBRANCH  64  87
ENDBRANCH  38  39
ENDBRANCH  30  33
ENDBRANCH  28  29
ENDBRANCH  27  28
ENDBRANCH   1  27
TORSDOF 17
