REMARK SMILES Cc1cc(C(=O)NCCCNC(=O)c2ccc(-c3c4nc(c(-c5cccc(S(=O)(=O)[O-])c5F)c5ccc([nH]5)c(-c5cccc(S(=O)(=O)[O-])c5F)c5nc(c(-c6cccc(S(=O)(=O)[O-])c6F)c6ccc3[nH]6)C=C5)C=C4)cc2)nc(N2CCN(c3ccccc3Cl)CC2)n1
REMARK SMILES IDX 9 1 8 2 7 3 5 4 6 5 4 7 1 8 2 9 3 10 92 11 78 12 77 13 79 14
REMARK SMILES IDX 80 15 91 16 81 17 90 18 82 19 83 20 84 21 88 22 85 23 87 24
REMARK SMILES IDX 89 25 86 26 10 27 11 28 12 29 13 31 14 32 15 33 76 34 16 35
REMARK SMILES IDX 75 36 17 37 18 38 19 39 69 40 20 41 74 42 68 43 70 44 21 45
REMARK SMILES IDX 73 46 67 47 66 48 22 50 54 51 34 52 53 53 35 54 38 55 52 56
REMARK SMILES IDX 71 57 36 58 37 59 51 61 72 62 39 63 23 64 24 65 32 66 25 67
REMARK SMILES IDX 27 68 33 69 26 70 28 71 29 72 30 73 31 74 55 75 56 76 64 77
REMARK SMILES IDX 57 78 59 79 65 80 58 81 60 82 61 83 62 84 63 85 40 86 41 87
REMARK SMILES IDX 49 88 42 89 44 90 50 91 43 92 45 93 46 94 47 95 48 96
REMARK H PARENT 7 6 11 30 70 49 38 60
REMARK Flexibility Score: inf
ROOT
ATOM      1  C   UNL     1      -0.601  -4.612  -0.739  1.00  0.00     0.042 C 
ENDROOT
BRANCH   1   2
ATOM      2  C   UNL     1       0.038  -4.004   0.506  1.00  0.00     0.118 C 
BRANCH   2   3
ATOM      3  N   UNL     1       1.353  -3.492   0.192  1.00  0.00    -0.351 N 
ATOM      4  C   UNL     1       1.809  -2.243  -0.145  1.00  0.00     0.270 C 
ATOM      5  O   UNL     1       3.014  -2.161  -0.397  1.00  0.00    -0.268 OA
ATOM      6  H   UNL     1       2.062  -4.175   0.228  1.00  0.00     0.163 HD
BRANCH   4   7
ATOM      7  C   UNL     1       0.954  -1.008  -0.146  1.00  0.00     0.133 A 
ATOM      8  C   UNL     1      -2.494   0.406  -0.081  1.00  0.00     0.067 C 
ATOM      9  C   UNL     1      -1.000   0.266  -0.061  1.00  0.00     0.044 A 
ATOM     10  C   UNL     1      -0.412  -0.966  -0.269  1.00  0.00     0.058 A 
ATOM     11  N   UNL     1      -0.280   1.391   0.137  1.00  0.00    -0.218 NA
ATOM     12  C   UNL     1       1.052   1.279   0.080  1.00  0.00     0.226 A 
ATOM     13  N   UNL     1       1.682   0.110  -0.004  1.00  0.00    -0.208 NA
BRANCH  12  14
ATOM     14  N   UNL     1       1.859   2.383   0.059  1.00  0.00    -0.337 N 
ATOM     15  C   UNL     1       1.427   3.647   0.639  1.00  0.00     0.141 C 
ATOM     16  C   UNL     1       2.677   2.482  -1.162  1.00  0.00     0.141 C 
ATOM     17  C   UNL     1       2.678   4.518   0.933  1.00  0.00     0.138 C 
ATOM     18  C   UNL     1       3.907   3.371  -0.914  1.00  0.00     0.138 C 
ATOM     19  N   UNL     1       3.506   4.634  -0.276  1.00  0.00    -0.367 N 
BRANCH  19  20
ATOM     20  C   UNL     1       4.024   5.838  -0.695  1.00  0.00     0.056 A 
ATOM     21  C   UNL     1       4.838   6.583   0.172  1.00  0.00     0.027 A 
ATOM     22  C   UNL     1       3.767   6.383  -1.971  1.00  0.00     0.064 A 
ATOM     23  C   UNL     1       5.378   7.815  -0.211  1.00  0.00     0.002 A 
ATOM     24  C   UNL     1       4.300   7.618  -2.353  1.00  0.00     0.023 A 
ATOM     25  Cl  UNL     1       2.714   5.604  -3.106  1.00  0.00    -0.082 Cl
ATOM     26  C   UNL     1       5.107   8.334  -1.473  1.00  0.00     0.002 A 
ENDBRANCH  19  20
ENDBRANCH  12  14
ENDBRANCH   4   7
ENDBRANCH   2   3
ENDBRANCH   1   2
BRANCH   1  27
ATOM     27  C   UNL     1      -0.001  -5.971  -1.091  1.00  0.00     0.118 C 
BRANCH  27  28
ATOM     28  N   UNL     1      -0.323  -6.974  -0.082  1.00  0.00    -0.352 N 
ATOM     29  C   UNL     1      -1.049  -8.133  -0.204  1.00  0.00     0.251 C 
ATOM     30  H   UNL     1       0.033  -6.794   0.818  1.00  0.00     0.163 HD
ATOM     31  O   UNL     1      -1.441  -8.716   0.800  1.00  0.00    -0.269 OA
BRANCH  29  32
ATOM     32  C   UNL     1      -1.353  -8.665  -1.547  1.00  0.00     0.039 A 
ATOM     33  C   UNL     1      -2.636  -9.148  -1.816  1.00  0.00     0.014 A 
ATOM     34  C   UNL     1      -0.365  -8.691  -2.534  1.00  0.00     0.014 A 
ATOM     35  C   UNL     1      -2.946  -9.598  -3.101  1.00  0.00     0.010 A 
ATOM     36  C   UNL     1      -0.698  -9.064  -3.830  1.00  0.00     0.010 A 
ATOM     37  C   UNL     1      -1.990  -9.524  -4.126  1.00  0.00    -0.014 A 
BRANCH  37  38
ATOM     38  C   UNL     1      -2.311  -9.907  -5.524  1.00  0.00     0.031 A 
ATOM     39  C   UNL     1      -1.556 -11.026  -6.187  1.00  0.00     0.074 A 
ATOM     40  C   UNL     1      -3.191  -9.170  -6.228  1.00  0.00     0.049 A 
ATOM     41  N   UNL     1      -1.594 -11.422  -7.431  1.00  0.00    -0.248 NA
ATOM     42  C   UNL     1      -0.609 -11.780  -5.346  1.00  0.00     0.031 C 
ATOM     43  C   UNL     1      -3.934  -8.018  -5.713  1.00  0.00     0.029 A 
ATOM     44  N   UNL     1      -3.581  -9.254  -7.542  1.00  0.00    -0.354 N 
ATOM     45  C   UNL     1      -0.649 -12.436  -7.536  1.00  0.00     0.074 A 
ATOM     46  C   UNL     1      -0.033 -12.576  -6.235  1.00  0.00     0.031 C 
ATOM     47  C   UNL     1      -4.684  -7.500  -6.698  1.00  0.00     0.029 A 
ATOM     48  C   UNL     1      -4.444  -8.253  -7.925  1.00  0.00     0.049 A 
ATOM     49  H   UNL     1      -3.273  -9.963  -8.151  1.00  0.00     0.167 HD
ATOM     50  C   UNL     1      -0.339 -13.197  -8.612  1.00  0.00     0.034 A 
ATOM     51  C   UNL     1      -4.964  -7.960  -9.133  1.00  0.00     0.034 A 
ATOM     52  C   UNL     1      -0.983 -13.075  -9.891  1.00  0.00     0.049 A 
ATOM     53  C   UNL     1      -4.619  -8.834 -10.307  1.00  0.00     0.074 A 
ATOM     54  C   UNL     1      -0.806 -13.856 -11.019  1.00  0.00     0.029 A 
ATOM     55  N   UNL     1      -1.917 -12.105 -10.218  1.00  0.00    -0.354 N 
ATOM     56  N   UNL     1      -3.834  -9.883 -10.351  1.00  0.00    -0.248 NA
ATOM     57  C   UNL     1      -5.253  -8.506 -11.592  1.00  0.00     0.031 C 
ATOM     58  C   UNL     1      -1.607 -13.335 -12.040  1.00  0.00     0.029 A 
ATOM     59  C   UNL     1      -2.315 -12.257 -11.534  1.00  0.00     0.049 A 
ATOM     60  H   UNL     1      -2.248 -11.410  -9.604  1.00  0.00     0.167 HD
ATOM     61  C   UNL     1      -3.913 -10.365 -11.652  1.00  0.00     0.074 A 
ATOM     62  C   UNL     1      -4.832  -9.500 -12.363  1.00  0.00     0.031 C 
ATOM     63  C   UNL     1      -3.274 -11.422 -12.211  1.00  0.00     0.034 A 
BRANCH  50  64
ATOM     64  C   UNL     1       0.720 -14.255  -8.443  1.00  0.00     0.023 A 
ATOM     65  C   UNL     1       0.453 -15.394  -7.656  1.00  0.00     0.012 A 
ATOM     66  C   UNL     1       1.956 -14.153  -9.112  1.00  0.00     0.148 A 
ATOM     67  C   UNL     1       1.411 -16.395  -7.505  1.00  0.00     0.002 A 
ATOM     68  C   UNL     1       2.887 -15.179  -8.997  1.00  0.00     0.091 A 
ATOM     69  F   UNL     1       2.200 -13.055  -9.841  1.00  0.00    -0.205 F 
ATOM     70  C   UNL     1       2.622 -16.293  -8.184  1.00  0.00     0.022 A 
BRANCH  68  71
ATOM     71  S   UNL     1       4.441 -15.183  -9.897  1.00  0.00     0.127 S 
ATOM     72  O   UNL     1       5.408 -14.999  -8.815  1.00  0.00    -0.237 OA
ATOM     73  O   UNL     1       4.444 -16.518 -10.496  1.00  0.00    -0.237 OA
ATOM     74  O   UNL     1       4.358 -14.087 -10.852  1.00  0.00    -0.744 OA
ENDBRANCH  68  71
ENDBRANCH  50  64
BRANCH  51  75
ATOM     75  C   UNL     1      -5.902  -6.811  -9.282  1.00  0.00     0.023 A 
ATOM     76  C   UNL     1      -7.263  -7.059  -9.551  1.00  0.00     0.012 A 
ATOM     77  C   UNL     1      -5.463  -5.481  -9.133  1.00  0.00     0.148 A 
ATOM     78  C   UNL     1      -8.161  -6.003  -9.706  1.00  0.00     0.002 A 
ATOM     79  C   UNL     1      -6.375  -4.436  -9.230  1.00  0.00     0.091 A 
ATOM     80  F   UNL     1      -4.164  -5.266  -8.882  1.00  0.00    -0.205 F 
ATOM     81  C   UNL     1      -7.720  -4.693  -9.536  1.00  0.00     0.022 A 
BRANCH  79  82
ATOM     82  S   UNL     1      -5.926  -2.730  -8.893  1.00  0.00     0.127 S 
ATOM     83  O   UNL     1      -6.032  -2.125 -10.218  1.00  0.00    -0.237 OA
ATOM     84  O   UNL     1      -6.966  -2.328  -7.945  1.00  0.00    -0.237 OA
ATOM     85  O   UNL     1      -4.585  -2.780  -8.326  1.00  0.00    -0.744 OA
ENDBRANCH  79  82
ENDBRANCH  51  75
BRANCH  63  86
ATOM     86  C   UNL     1      -3.580 -11.750 -13.649  1.00  0.00     0.023 A 
ATOM     87  C   UNL     1      -3.084 -10.932 -14.682  1.00  0.00     0.012 A 
ATOM     88  C   UNL     1      -4.278 -12.931 -13.973  1.00  0.00     0.148 A 
ATOM     89  C   UNL     1      -3.300 -11.272 -16.017  1.00  0.00     0.002 A 
ATOM     90  C   UNL     1      -4.442 -13.290 -15.304  1.00  0.00     0.091 A 
ATOM     91  F   UNL     1      -4.755 -13.686 -12.973  1.00  0.00    -0.205 F 
ATOM     92  C   UNL     1      -3.965 -12.456 -16.328  1.00  0.00     0.022 A 
BRANCH  90  93
ATOM     93  S   UNL     1      -5.194 -14.845 -15.799  1.00  0.00     0.127 S 
ATOM     94  O   UNL     1      -6.436 -14.390 -16.422  1.00  0.00    -0.237 OA
ATOM     95  O   UNL     1      -4.204 -15.383 -16.732  1.00  0.00    -0.237 OA
ATOM     96  O   UNL     1      -5.361 -15.621 -14.577  1.00  0.00    -0.744 OA
ENDBRANCH  90  93
ENDBRANCH  63  86
ENDBRANCH  37  38
ENDBRANCH  29  32
ENDBRANCH  27  28
ENDBRANCH   1  27
TORSDOF 15
