REMARK SMILES C/C(=N/Nc1ccc(C(=O)NCCCNC(=O)c2ccc(-c3c4nc(c(-c5cccc(S(=O)(=O)[O-])c5F)c5ccc([nH]5)c(-c5cccc(S(=O)(=O)[O-])c5F)c5nc(c(-c6cccc(S(=O)(=O)[O-])c6F)c6ccc3[nH]6)C=C5)C=C4)cc2)cc1)c1ccc(-n2cncn2)cc1
REMARK SMILES IDX 12 1 11 2 9 3 10 4 8 6 5 7 6 8 82 9 7 10 81 11 4 12 3 14
REMARK SMILES IDX 1 15 2 16 83 17 84 18 93 19 85 20 92 21 86 22 87 23 88 24
REMARK SMILES IDX 91 25 89 26 90 27 13 28 14 29 15 30 16 31 17 33 18 34 19 35
REMARK SMILES IDX 80 36 20 37 79 38 21 39 22 40 23 41 73 42 24 43 78 44 72 45
REMARK SMILES IDX 74 46 25 47 77 48 71 49 70 50 26 52 58 53 38 54 57 55 39 56
REMARK SMILES IDX 42 57 56 58 75 59 40 60 41 61 55 63 76 64 43 65 27 66 28 67
REMARK SMILES IDX 36 68 29 69 31 70 37 71 30 72 32 73 33 74 34 75 35 76 59 77
REMARK SMILES IDX 60 78 68 79 61 80 63 81 69 82 62 83 64 84 65 85 66 86 67 87
REMARK SMILES IDX 44 88 45 89 53 90 46 91 48 92 54 93 47 94 49 95 50 96 51 97
REMARK SMILES IDX 52 98
REMARK H PARENT 11 5 4 13 15 32 74 51 42 62
REMARK Flexibility Score: inf
ROOT
ATOM      1  C   UNL     1       3.166   7.070   0.227  1.00  0.00     0.118 C 
ENDROOT
BRANCH   1   2
ATOM      2  N   UNL     1       2.057   7.982   0.006  1.00  0.00    -0.352 N 
ATOM      3  C   UNL     1       0.812   7.835  -0.542  1.00  0.00     0.251 C 
ATOM      4  O   UNL     1       0.042   8.794  -0.486  1.00  0.00    -0.269 OA
ATOM      5  H   UNL     1       2.239   8.898   0.316  1.00  0.00     0.163 HD
BRANCH   3   6
ATOM      6  C   UNL     1       0.327   6.547  -1.087  1.00  0.00     0.039 A 
ATOM      7  C   UNL     1      -0.660   3.985  -1.639  1.00  0.00     0.056 A 
ATOM      8  C   UNL     1      -1.521   4.989  -1.177  1.00  0.00     0.028 A 
ATOM      9  C   UNL     1       0.648   4.326  -1.986  1.00  0.00     0.028 A 
ATOM     10  C   UNL     1      -1.024   6.252  -0.870  1.00  0.00     0.016 A 
ATOM     11  C   UNL     1       1.127   5.620  -1.756  1.00  0.00     0.016 A 
BRANCH   7  12
ATOM     12  N   UNL     1      -1.125   2.662  -1.591  1.00  0.00    -0.278 N 
ATOM     13  H   UNL     1      -2.073   2.515  -1.814  1.00  0.00     0.190 HD
BRANCH  12  14
ATOM     14  N   UNL     1      -0.396   1.570  -1.269  1.00  0.00    -0.180 NA
ATOM     15  C   UNL     1       1.068   0.173   0.006  1.00  0.00     0.069 C 
ATOM     16  C   UNL     1       0.390   1.510  -0.229  1.00  0.00     0.065 C 
BRANCH  16  17
ATOM     17  C   UNL     1       0.705   2.561   0.785  1.00  0.00    -0.002 A 
ATOM     18  C   UNL     1      -0.298   3.303   1.410  1.00  0.00     0.012 A 
ATOM     19  C   UNL     1       2.047   2.815   1.103  1.00  0.00     0.012 A 
ATOM     20  C   UNL     1       0.040   4.364   2.261  1.00  0.00     0.029 A 
ATOM     21  C   UNL     1       2.389   3.841   1.992  1.00  0.00     0.029 A 
ATOM     22  C   UNL     1       1.385   4.646   2.546  1.00  0.00     0.066 A 
BRANCH  22  23
ATOM     23  N   UNL     1       1.715   5.795   3.312  1.00  0.00    -0.221 N 
ATOM     24  C   UNL     1       2.947   6.210   3.763  1.00  0.00     0.225 A 
ATOM     25  N   UNL     1       0.799   6.755   3.595  1.00  0.00    -0.155 NA
ATOM     26  N   UNL     1       2.889   7.458   4.169  1.00  0.00    -0.223 NA
ATOM     27  C   UNL     1       1.564   7.747   4.052  1.00  0.00     0.246 A 
ENDBRANCH  22  23
ENDBRANCH  16  17
ENDBRANCH  12  14
ENDBRANCH   7  12
ENDBRANCH   3   6
ENDBRANCH   1   2
BRANCH   1  28
ATOM     28  C   UNL     1       4.482   7.678  -0.224  1.00  0.00     0.042 C 
BRANCH  28  29
ATOM     29  C   UNL     1       4.902   8.864   0.637  1.00  0.00     0.118 C 
BRANCH  29  30
ATOM     30  N   UNL     1       5.323   8.478   1.982  1.00  0.00    -0.352 N 
ATOM     31  C   UNL     1       6.585   8.466   2.539  1.00  0.00     0.251 C 
ATOM     32  H   UNL     1       4.598   8.182   2.579  1.00  0.00     0.163 HD
ATOM     33  O   UNL     1       6.786   7.890   3.600  1.00  0.00    -0.269 OA
BRANCH  31  34
ATOM     34  C   UNL     1       7.702   9.132   1.830  1.00  0.00     0.039 A 
ATOM     35  C   UNL     1       8.951   8.508   1.770  1.00  0.00     0.014 A 
ATOM     36  C   UNL     1       7.509  10.363   1.203  1.00  0.00     0.014 A 
ATOM     37  C   UNL     1       9.967   9.070   0.990  1.00  0.00     0.010 A 
ATOM     38  C   UNL     1       8.474  10.852   0.332  1.00  0.00     0.010 A 
ATOM     39  C   UNL     1       9.717  10.216   0.217  1.00  0.00    -0.014 A 
BRANCH  39  40
ATOM     40  C   UNL     1      10.721  10.765  -0.734  1.00  0.00     0.031 A 
ATOM     41  C   UNL     1      11.173  12.198  -0.611  1.00  0.00     0.074 A 
ATOM     42  C   UNL     1      11.125  10.020  -1.784  1.00  0.00     0.049 A 
ATOM     43  N   UNL     1      11.934  12.895  -1.414  1.00  0.00    -0.248 NA
ATOM     44  C   UNL     1      10.664  12.962   0.541  1.00  0.00     0.031 C 
ATOM     45  C   UNL     1      10.681   8.654  -2.077  1.00  0.00     0.029 A 
ATOM     46  N   UNL     1      11.973  10.319  -2.821  1.00  0.00    -0.354 N 
ATOM     47  C   UNL     1      11.947  14.187  -0.899  1.00  0.00     0.074 A 
ATOM     48  C   UNL     1      11.087  14.187   0.264  1.00  0.00     0.031 C 
ATOM     49  C   UNL     1      11.267   8.232  -3.209  1.00  0.00     0.029 A 
ATOM     50  C   UNL     1      12.101   9.304  -3.742  1.00  0.00     0.049 A 
ATOM     51  H   UNL     1      12.447  11.178  -2.899  1.00  0.00     0.167 HD
ATOM     52  C   UNL     1      12.638  15.268  -1.330  1.00  0.00     0.034 A 
ATOM     53  C   UNL     1      12.804   9.244  -4.891  1.00  0.00     0.034 A 
ATOM     54  C   UNL     1      13.552  15.243  -2.438  1.00  0.00     0.049 A 
ATOM     55  C   UNL     1      13.638  10.428  -5.296  1.00  0.00     0.074 A 
ATOM     56  C   UNL     1      14.388  16.250  -2.887  1.00  0.00     0.029 A 
ATOM     57  N   UNL     1      13.755  14.153  -3.270  1.00  0.00    -0.354 N 
ATOM     58  N   UNL     1      13.765  11.589  -4.700  1.00  0.00    -0.248 NA
ATOM     59  C   UNL     1      14.456  10.284  -6.509  1.00  0.00     0.031 C 
ATOM     60  C   UNL     1      15.089  15.771  -3.999  1.00  0.00     0.029 A 
ATOM     61  C   UNL     1      14.704  14.460  -4.229  1.00  0.00     0.049 A 
ATOM     62  H   UNL     1      13.293  13.288  -3.190  1.00  0.00     0.167 HD
ATOM     63  C   UNL     1      14.703  12.298  -5.441  1.00  0.00     0.074 A 
ATOM     64  C   UNL     1      15.127  11.428  -6.519  1.00  0.00     0.031 C 
ATOM     65  C   UNL     1      15.161  13.561  -5.257  1.00  0.00     0.034 A 
BRANCH  52  66
ATOM     66  C   UNL     1      12.486  16.552  -0.556  1.00  0.00     0.023 A 
ATOM     67  C   UNL     1      13.039  16.654   0.738  1.00  0.00     0.012 A 
ATOM     68  C   UNL     1      11.847  17.673  -1.122  1.00  0.00     0.148 A 
ATOM     69  C   UNL     1      12.922  17.832   1.472  1.00  0.00     0.002 A 
ATOM     70  C   UNL     1      11.775  18.860  -0.402  1.00  0.00     0.091 A 
ATOM     71  F   UNL     1      11.309  17.554  -2.344  1.00  0.00    -0.205 F 
ATOM     72  C   UNL     1      12.300  18.938   0.899  1.00  0.00     0.022 A 
BRANCH  70  73
ATOM     73  S   UNL     1      11.069  20.366  -1.082  1.00  0.00     0.127 S 
ATOM     74  O   UNL     1       9.826  20.478  -0.322  1.00  0.00    -0.237 OA
ATOM     75  O   UNL     1      12.084  21.363  -0.741  1.00  0.00    -0.237 OA
ATOM     76  O   UNL     1      10.911  20.125  -2.510  1.00  0.00    -0.744 OA
ENDBRANCH  70  73
ENDBRANCH  52  66
BRANCH  53  77
ATOM     77  C   UNL     1      12.816   7.986  -5.692  1.00  0.00     0.023 A 
ATOM     78  C   UNL     1      13.986   7.202  -5.723  1.00  0.00     0.012 A 
ATOM     79  C   UNL     1      11.675   7.542  -6.388  1.00  0.00     0.148 A 
ATOM     80  C   UNL     1      14.032   6.018  -6.458  1.00  0.00     0.002 A 
ATOM     81  C   UNL     1      11.710   6.332  -7.073  1.00  0.00     0.091 A 
ATOM     82  F   UNL     1      10.573   8.304  -6.354  1.00  0.00    -0.205 F 
ATOM     83  C   UNL     1      12.892   5.577  -7.124  1.00  0.00     0.022 A 
BRANCH  81  84
ATOM     84  S   UNL     1      10.251   5.619  -7.842  1.00  0.00     0.127 S 
ATOM     85  O   UNL     1      10.541   5.801  -9.261  1.00  0.00    -0.237 OA
ATOM     86  O   UNL     1      10.307   4.234  -7.372  1.00  0.00    -0.237 OA
ATOM     87  O   UNL     1       9.123   6.380  -7.320  1.00  0.00    -0.744 OA
ENDBRANCH  81  84
ENDBRANCH  53  77
BRANCH  65  88
ATOM     88  C   UNL     1      16.205  14.073  -6.212  1.00  0.00     0.023 A 
ATOM     89  C   UNL     1      15.842  14.419  -7.528  1.00  0.00     0.012 A 
ATOM     90  C   UNL     1      17.528  14.289  -5.777  1.00  0.00     0.148 A 
ATOM     91  C   UNL     1      16.787  14.946  -8.407  1.00  0.00     0.002 A 
ATOM     92  C   UNL     1      18.452  14.859  -6.644  1.00  0.00     0.091 A 
ATOM     93  F   UNL     1      17.858  13.934  -4.527  1.00  0.00    -0.205 F 
ATOM     94  C   UNL     1      18.087  15.178  -7.962  1.00  0.00     0.022 A 
BRANCH  92  95
ATOM     95  S   UNL     1      20.119  15.282  -6.125  1.00  0.00     0.127 S 
ATOM     96  O   UNL     1      20.907  14.234  -6.769  1.00  0.00    -0.237 OA
ATOM     97  O   UNL     1      20.295  16.617  -6.698  1.00  0.00    -0.237 OA
ATOM     98  O   UNL     1      20.104  15.250  -4.668  1.00  0.00    -0.744 OA
ENDBRANCH  92  95
ENDBRANCH  65  88
ENDBRANCH  39  40
ENDBRANCH  31  34
ENDBRANCH  29  30
ENDBRANCH  28  29
ENDBRANCH   1  28
TORSDOF 17
