REMARK SMILES Cc1cc(=O)n2nc(C)c(C(=O)NCCCNC(=O)c3ccc(-c4c5nc(c(-c6cccc(S(=O)(=O)[O-])c6F)c6ccc([nH]6)c(-c6cccc(S(=O)(=O)[O-])c6F)c6nc(c(-c7cccc(S(=O)(=O)[O-])c7F)c7ccc4[nH]7)C=C6)C=C5)cc3)c2[nH]1
REMARK SMILES IDX 17 1 18 2 19 3 16 5 15 6 14 7 13 8 11 9 12 10 10 12 1 13
REMARK SMILES IDX 2 14 3 15 84 16 4 17 83 18 5 20 6 21 7 22 8 23 9 24 20 25
REMARK SMILES IDX 21 26 82 27 22 28 81 29 23 30 24 31 25 32 75 33 26 34 80 35
REMARK SMILES IDX 74 36 76 37 27 38 79 39 73 40 72 41 28 43 60 44 40 45 59 46
REMARK SMILES IDX 41 47 44 48 58 49 77 50 42 51 43 52 57 54 78 55 45 56 29 57
REMARK SMILES IDX 30 58 38 59 31 60 33 61 39 62 32 63 34 64 35 65 36 66 37 67
REMARK SMILES IDX 61 68 62 69 70 70 63 71 65 72 71 73 64 74 66 75 67 76 68 77
REMARK SMILES IDX 69 78 46 79 47 80 55 81 48 82 50 83 56 84 49 85 51 86 52 87
REMARK SMILES IDX 53 88 54 89
REMARK H PARENT 17 4 13 11 84 19 76 42 44 53
REMARK Flexibility Score: inf
ROOT
ATOM      1  N   UNL     1      -2.561   4.350   9.436  1.00  0.00    -0.352 N 
ATOM      2  C   UNL     1      -2.957   5.474  10.136  1.00  0.00     0.251 C 
ATOM      3  O   UNL     1      -3.914   5.440  10.892  1.00  0.00    -0.269 OA
ATOM      4  H   UNL     1      -3.229   3.629   9.368  1.00  0.00     0.163 HD
ENDROOT
BRANCH   1   5
ATOM      5  C   UNL     1      -1.273   4.093   8.783  1.00  0.00     0.118 C 
BRANCH   5   6
ATOM      6  C   UNL     1      -1.288   2.786   8.017  1.00  0.00     0.042 C 
BRANCH   6   7
ATOM      7  C   UNL     1      -2.162   2.851   6.761  1.00  0.00     0.118 C 
BRANCH   7   8
ATOM      8  N   UNL     1      -1.392   3.137   5.576  1.00  0.00    -0.352 N 
ATOM      9  C   UNL     1      -0.828   2.352   4.610  1.00  0.00     0.256 C 
ATOM     10  O   UNL     1      -0.409   2.975   3.628  1.00  0.00    -0.269 OA
ATOM     11  H   UNL     1      -1.241   4.099   5.433  1.00  0.00     0.163 HD
BRANCH   9  12
ATOM     12  C   UNL     1      -0.731   0.889   4.644  1.00  0.00     0.105 A 
ATOM     13  C   UNL     1       1.004   0.257   0.004  1.00  0.00     0.064 C 
ATOM     14  C   UNL     1       0.568  -0.292   1.332  1.00  0.00     0.019 A 
ATOM     15  C   UNL     1       0.594  -1.615   1.577  1.00  0.00     0.095 A 
ATOM     16  N   UNL     1       0.129   0.608   2.288  1.00  0.00    -0.343 N 
ATOM     17  C   UNL     1       0.158  -2.136   2.903  1.00  0.00     0.274 A 
ATOM     18  C   UNL     1      -0.284   0.208   3.518  1.00  0.00     0.150 A 
ATOM     19  H   UNL     1       0.117   1.567   2.069  1.00  0.00     0.168 HD
ATOM     20  O   UNL     1       0.159  -3.319   3.194  1.00  0.00    -0.267 OA
ATOM     21  N   UNL     1      -0.261  -1.133   3.795  1.00  0.00    -0.179 N 
ATOM     22  N   UNL     1      -0.685  -1.395   5.044  1.00  0.00    -0.168 NA
ATOM     23  C   UNL     1      -0.913  -0.185   5.584  1.00  0.00     0.075 A 
ATOM     24  C   UNL     1      -1.251  -0.223   7.026  1.00  0.00     0.070 C 
ENDBRANCH   9  12
ENDBRANCH   7   8
ENDBRANCH   6   7
ENDBRANCH   5   6
ENDBRANCH   1   5
BRANCH   2  25
ATOM     25  C   UNL     1      -2.178   6.708   9.950  1.00  0.00     0.039 A 
ATOM     26  C   UNL     1      -1.774   7.481  11.040  1.00  0.00     0.014 A 
ATOM     27  C   UNL     1      -1.766   7.012   8.658  1.00  0.00     0.014 A 
ATOM     28  C   UNL     1      -0.867   8.513  10.821  1.00  0.00     0.010 A 
ATOM     29  C   UNL     1      -0.731   7.889   8.480  1.00  0.00     0.010 A 
ATOM     30  C   UNL     1      -0.322   8.691   9.539  1.00  0.00    -0.014 A 
BRANCH  30  31
ATOM     31  C   UNL     1       0.738   9.664   9.304  1.00  0.00     0.031 A 
ATOM     32  C   UNL     1       1.900   9.582  10.231  1.00  0.00     0.074 A 
ATOM     33  C   UNL     1       0.766  10.465   8.217  1.00  0.00     0.049 A 
ATOM     34  N   UNL     1       2.232  10.439  11.139  1.00  0.00    -0.248 NA
ATOM     35  C   UNL     1       2.711   8.356  10.243  1.00  0.00     0.031 C 
ATOM     36  C   UNL     1      -0.133  10.463   7.054  1.00  0.00     0.029 A 
ATOM     37  N   UNL     1       1.715  11.367   7.854  1.00  0.00    -0.354 N 
ATOM     38  C   UNL     1       3.429   9.976  11.680  1.00  0.00     0.074 A 
ATOM     39  C   UNL     1       3.570   8.614  11.233  1.00  0.00     0.031 C 
ATOM     40  C   UNL     1       0.464  11.095   6.022  1.00  0.00     0.029 A 
ATOM     41  C   UNL     1       1.675  11.719   6.511  1.00  0.00     0.049 A 
ATOM     42  H   UNL     1       2.373  11.738   8.487  1.00  0.00     0.167 HD
ATOM     43  C   UNL     1       4.320  10.829  12.261  1.00  0.00     0.034 A 
ATOM     44  C   UNL     1       2.598  12.446   5.840  1.00  0.00     0.034 A 
ATOM     45  C   UNL     1       3.731  12.123  12.498  1.00  0.00     0.049 A 
ATOM     46  C   UNL     1       3.333  13.239   6.850  1.00  0.00     0.074 A 
ATOM     47  C   UNL     1       2.651  12.589  13.219  1.00  0.00     0.029 A 
ATOM     48  N   UNL     1       4.054  13.122  11.612  1.00  0.00    -0.354 N 
ATOM     49  N   UNL     1       2.778  14.176   7.569  1.00  0.00    -0.248 NA
ATOM     50  C   UNL     1       4.577  12.701   7.372  1.00  0.00     0.031 C 
ATOM     51  C   UNL     1       2.087  13.616  12.406  1.00  0.00     0.029 A 
ATOM     52  C   UNL     1       2.891  13.760  11.272  1.00  0.00     0.049 A 
ATOM     53  H   UNL     1       4.955  13.340  11.283  1.00  0.00     0.167 HD
ATOM     54  C   UNL     1       3.333  14.014   8.832  1.00  0.00     0.074 A 
ATOM     55  C   UNL     1       4.516  13.180   8.618  1.00  0.00     0.031 C 
ATOM     56  C   UNL     1       2.627  14.320   9.962  1.00  0.00     0.034 A 
BRANCH  43  57
ATOM     57  C   UNL     1       5.819  10.640  12.307  1.00  0.00     0.023 A 
ATOM     58  C   UNL     1       6.561  11.538  13.109  1.00  0.00     0.012 A 
ATOM     59  C   UNL     1       6.551   9.822  11.419  1.00  0.00     0.148 A 
ATOM     60  C   UNL     1       7.951  11.652  12.994  1.00  0.00     0.002 A 
ATOM     61  C   UNL     1       7.940   9.879  11.369  1.00  0.00     0.091 A 
ATOM     62  F   UNL     1       5.911   9.077  10.514  1.00  0.00    -0.205 F 
ATOM     63  C   UNL     1       8.643  10.815  12.130  1.00  0.00     0.022 A 
BRANCH  61  64
ATOM     64  S   UNL     1       8.890   8.775  10.316  1.00  0.00     0.127 S 
ATOM     65  O   UNL     1       9.303   9.677   9.244  1.00  0.00    -0.237 OA
ATOM     66  O   UNL     1       9.961   8.350  11.216  1.00  0.00    -0.237 OA
ATOM     67  O   UNL     1       7.968   7.710   9.942  1.00  0.00    -0.744 OA
ENDBRANCH  61  64
ENDBRANCH  43  57
BRANCH  44  68
ATOM     68  C   UNL     1       3.062  12.297   4.444  1.00  0.00     0.023 A 
ATOM     69  C   UNL     1       3.732  13.364   3.818  1.00  0.00     0.012 A 
ATOM     70  C   UNL     1       3.108  11.023   3.831  1.00  0.00     0.148 A 
ATOM     71  C   UNL     1       4.464  13.162   2.642  1.00  0.00     0.002 A 
ATOM     72  C   UNL     1       3.837  10.827   2.663  1.00  0.00     0.091 A 
ATOM     73  F   UNL     1       2.514   9.990   4.443  1.00  0.00    -0.205 F 
ATOM     74  C   UNL     1       4.527  11.893   2.072  1.00  0.00     0.022 A 
BRANCH  72  75
ATOM     75  S   UNL     1       4.000   9.211   1.890  1.00  0.00     0.127 S 
ATOM     76  O   UNL     1       3.635   9.501   0.504  1.00  0.00    -0.237 OA
ATOM     77  O   UNL     1       5.415   8.918   2.103  1.00  0.00    -0.237 OA
ATOM     78  O   UNL     1       3.064   8.339   2.588  1.00  0.00    -0.744 OA
ENDBRANCH  72  75
ENDBRANCH  44  68
BRANCH  56  79
ATOM     79  C   UNL     1       1.318  15.062   9.815  1.00  0.00     0.023 A 
ATOM     80  C   UNL     1       0.213  14.512   9.131  1.00  0.00     0.012 A 
ATOM     81  C   UNL     1       1.131  16.241  10.557  1.00  0.00     0.148 A 
ATOM     82  C   UNL     1      -1.042  15.128   9.175  1.00  0.00     0.002 A 
ATOM     83  C   UNL     1      -0.129  16.823  10.642  1.00  0.00     0.091 A 
ATOM     84  F   UNL     1       2.188  16.754  11.207  1.00  0.00    -0.205 F 
ATOM     85  C   UNL     1      -1.216  16.275   9.944  1.00  0.00     0.022 A 
BRANCH  83  86
ATOM     86  S   UNL     1      -0.452  18.215  11.727  1.00  0.00     0.127 S 
ATOM     87  O   UNL     1      -0.589  19.318  10.778  1.00  0.00    -0.237 OA
ATOM     88  O   UNL     1      -1.697  17.817  12.387  1.00  0.00    -0.237 OA
ATOM     89  O   UNL     1       0.694  18.299  12.625  1.00  0.00    -0.744 OA
ENDBRANCH  83  86
ENDBRANCH  56  79
ENDBRANCH  30  31
ENDBRANCH   2  25
TORSDOF 13
