REMARK SMILES Cc1ccc(NC(=O)c2ccccc2NC(=O)[C@H]2CCCC[C@H]2C(=O)NCCCNC(=O)c2ccc(-c3c4nc(c(-c5cccc(S(=O)(=O)[O-])c5F)c5ccc([nH]5)c(-c5cccc(S(=O)(=O)[O-])c5F)c5nc(c(-c6cccc(S(=O)(=O)[O-])c6F)c6ccc3[nH]6)C=C5)C=C4)cc2)cc1
REMARK SMILES IDX 27 1 26 2 24 3 25 4 23 6 18 7 19 8 20 9 22 10 21 11 16 12
REMARK SMILES IDX 15 13 17 15 14 16 9 17 10 18 11 19 13 20 12 21 7 22 6 23
REMARK SMILES IDX 8 25 5 26 1 27 2 28 3 29 97 30 4 31 96 32 28 33 29 34 30 35
REMARK SMILES IDX 31 36 32 38 33 39 34 40 95 41 35 42 94 43 36 44 37 45 38 46
REMARK SMILES IDX 88 47 39 48 93 49 87 50 89 51 40 52 92 53 86 54 85 55 41 57
REMARK SMILES IDX 73 58 53 59 72 60 54 61 57 62 71 63 90 64 55 65 56 66 70 68
REMARK SMILES IDX 91 69 58 70 42 71 43 72 51 73 44 74 46 75 52 76 45 77 47 78
REMARK SMILES IDX 48 79 49 80 50 81 74 82 75 83 83 84 76 85 78 86 84 87 77 88
REMARK SMILES IDX 79 89 80 90 81 91 82 92 59 93 60 94 68 95 61 96 63 97 69 98
REMARK SMILES IDX 62 99 64 100 65 101 66 102 67 103
REMARK H PARENT 26 5 15 14 6 24 30 37 89 56 57 67
REMARK Flexibility Score: inf
ROOT
ATOM      1  C   UNL     1       0.500  -1.246   7.296  1.00  0.00     0.117 C 
ENDROOT
BRANCH   1   2
ATOM      2  N   UNL     1      -0.650  -0.575   6.707  1.00  0.00    -0.356 N 
ATOM      3  C   UNL     1      -1.534  -0.884   5.730  1.00  0.00     0.223 C 
ATOM      4  O   UNL     1      -2.357  -0.004   5.440  1.00  0.00    -0.275 OA
ATOM      5  H   UNL     1      -0.824   0.306   7.111  1.00  0.00     0.163 HD
BRANCH   3   6
ATOM      6  C   UNL     1      -1.585  -2.192   4.934  1.00  0.00     0.091 C 
ATOM      7  C   UNL     1      -0.828  -2.109   3.586  1.00  0.00     0.091 C 
ATOM      8  C   UNL     1      -0.990  -3.406   2.764  1.00  0.00     0.014 C 
ATOM      9  C   UNL     1      -0.811  -4.691   3.584  1.00  0.00     0.001 C 
ATOM     10  C   UNL     1      -1.448  -3.505   5.703  1.00  0.00     0.014 C 
ATOM     11  C   UNL     1      -1.721  -4.710   4.806  1.00  0.00     0.001 C 
BRANCH   7  12
ATOM     12  C   UNL     1       0.652  -1.846   3.752  1.00  0.00     0.228 C 
ATOM     13  N   UNL     1       1.341  -0.807   3.205  1.00  0.00    -0.325 N 
ATOM     14  H   UNL     1       2.227  -0.713   3.625  1.00  0.00     0.169 HD
ATOM     15  O   UNL     1       1.302  -2.640   4.445  1.00  0.00    -0.274 OA
BRANCH  13  16
ATOM     16  C   UNL     1       1.152   0.176   2.207  1.00  0.00     0.054 A 
ATOM     17  C   UNL     1       2.136   1.178   1.972  1.00  0.00     0.063 A 
ATOM     18  C   UNL     1       1.843   2.232   1.071  1.00  0.00     0.016 A 
ATOM     19  C   UNL     1       0.649   2.284   0.365  1.00  0.00     0.001 A 
ATOM     20  C   UNL     1       0.004   0.201   1.401  1.00  0.00     0.027 A 
ATOM     21  C   UNL     1      -0.258   1.252   0.511  1.00  0.00     0.002 A 
BRANCH  17  22
ATOM     22  C   UNL     1       3.460   1.379   2.638  1.00  0.00     0.257 C 
ATOM     23  N   UNL     1       4.349   0.414   3.041  1.00  0.00    -0.322 N 
ATOM     24  H   UNL     1       5.120   0.793   3.523  1.00  0.00     0.170 HD
ATOM     25  O   UNL     1       3.792   2.544   2.890  1.00  0.00    -0.269 OA
BRANCH  23  26
ATOM     26  C   UNL     1       4.421  -0.971   2.932  1.00  0.00     0.041 A 
ATOM     27  C   UNL     1       3.893  -5.198   3.341  1.00  0.00     0.044 C 
ATOM     28  C   UNL     1       4.192  -3.743   3.151  1.00  0.00    -0.051 A 
ATOM     29  C   UNL     1       3.774  -3.082   1.986  1.00  0.00     0.005 A 
ATOM     30  C   UNL     1       4.832  -3.016   4.156  1.00  0.00     0.005 A 
ATOM     31  C   UNL     1       3.887  -1.694   1.875  1.00  0.00     0.026 A 
ATOM     32  C   UNL     1       4.977  -1.639   4.026  1.00  0.00     0.026 A 
ENDBRANCH  23  26
ENDBRANCH  17  22
ENDBRANCH  13  16
ENDBRANCH   7  12
ENDBRANCH   3   6
ENDBRANCH   1   2
BRANCH   1  33
ATOM     33  C   UNL     1       1.810  -0.865   6.618  1.00  0.00     0.042 C 
BRANCH  33  34
ATOM     34  C   UNL     1       2.741   0.022   7.429  1.00  0.00     0.118 C 
BRANCH  34  35
ATOM     35  N   UNL     1       4.105  -0.528   7.403  1.00  0.00    -0.352 N 
ATOM     36  C   UNL     1       5.331   0.092   7.264  1.00  0.00     0.251 C 
ATOM     37  H   UNL     1       4.152  -1.506   7.502  1.00  0.00     0.163 HD
ATOM     38  O   UNL     1       6.370  -0.558   7.223  1.00  0.00    -0.269 OA
BRANCH  36  39
ATOM     39  C   UNL     1       5.342   1.556   7.171  1.00  0.00     0.039 A 
ATOM     40  C   UNL     1       5.709   2.259   8.316  1.00  0.00     0.014 A 
ATOM     41  C   UNL     1       4.572   2.134   6.170  1.00  0.00     0.014 A 
ATOM     42  C   UNL     1       5.026   3.427   8.611  1.00  0.00     0.010 A 
ATOM     43  C   UNL     1       3.878   3.279   6.468  1.00  0.00     0.010 A 
ATOM     44  C   UNL     1       4.021   3.838   7.740  1.00  0.00    -0.014 A 
BRANCH  44  45
ATOM     45  C   UNL     1       3.026   4.834   8.073  1.00  0.00     0.031 A 
ATOM     46  C   UNL     1       3.340   6.238   7.805  1.00  0.00     0.074 A 
ATOM     47  C   UNL     1       1.799   4.446   8.483  1.00  0.00     0.049 A 
ATOM     48  N   UNL     1       2.765   7.232   8.382  1.00  0.00    -0.248 NA
ATOM     49  C   UNL     1       4.401   6.614   6.884  1.00  0.00     0.031 C 
ATOM     50  C   UNL     1       0.584   5.247   8.493  1.00  0.00     0.029 A 
ATOM     51  N   UNL     1       1.449   3.278   9.171  1.00  0.00    -0.354 N 
ATOM     52  C   UNL     1       3.162   8.366   7.707  1.00  0.00     0.074 A 
ATOM     53  C   UNL     1       4.260   7.940   6.873  1.00  0.00     0.031 C 
ATOM     54  C   UNL     1      -0.288   4.699   9.353  1.00  0.00     0.029 A 
ATOM     55  C   UNL     1       0.410   3.634  10.053  1.00  0.00     0.049 A 
ATOM     56  H   UNL     1       1.850   2.385   9.061  1.00  0.00     0.167 HD
ATOM     57  C   UNL     1       2.393   9.486   7.804  1.00  0.00     0.034 A 
ATOM     58  C   UNL     1       0.472   3.485  11.410  1.00  0.00     0.034 A 
ATOM     59  C   UNL     1       1.283   9.272   8.749  1.00  0.00     0.049 A 
ATOM     60  C   UNL     1       0.304   4.796  12.157  1.00  0.00     0.074 A 
ATOM     61  C   UNL     1      -0.043   8.910   8.568  1.00  0.00     0.029 A 
ATOM     62  N   UNL     1       1.548   9.112  10.105  1.00  0.00    -0.354 N 
ATOM     63  N   UNL     1       0.237   5.963  11.582  1.00  0.00    -0.248 NA
ATOM     64  C   UNL     1       0.256   4.898  13.614  1.00  0.00     0.031 C 
ATOM     65  C   UNL     1      -0.550   8.454   9.813  1.00  0.00     0.029 A 
ATOM     66  C   UNL     1       0.453   8.567  10.761  1.00  0.00     0.049 A 
ATOM     67  H   UNL     1       2.397   9.354  10.541  1.00  0.00     0.167 HD
ATOM     68  C   UNL     1       0.312   6.952  12.528  1.00  0.00     0.074 A 
ATOM     69  C   UNL     1       0.222   6.231  13.787  1.00  0.00     0.031 C 
ATOM     70  C   UNL     1       0.521   8.264  12.190  1.00  0.00     0.034 A 
BRANCH  57  71
ATOM     71  C   UNL     1       2.415  10.631   6.800  1.00  0.00     0.023 A 
ATOM     72  C   UNL     1       1.256  11.436   6.722  1.00  0.00     0.012 A 
ATOM     73  C   UNL     1       3.438  10.941   5.874  1.00  0.00     0.148 A 
ATOM     74  C   UNL     1       1.072  12.399   5.724  1.00  0.00     0.002 A 
ATOM     75  C   UNL     1       3.231  11.852   4.833  1.00  0.00     0.091 A 
ATOM     76  F   UNL     1       4.663  10.440   6.039  1.00  0.00    -0.205 F 
ATOM     77  C   UNL     1       2.043  12.580   4.752  1.00  0.00     0.022 A 
BRANCH  75  78
ATOM     78  S   UNL     1       4.426  12.096   3.504  1.00  0.00     0.127 S 
ATOM     79  O   UNL     1       3.598  11.919   2.308  1.00  0.00    -0.237 OA
ATOM     80  O   UNL     1       4.875  13.467   3.733  1.00  0.00    -0.237 OA
ATOM     81  O   UNL     1       5.444  11.066   3.678  1.00  0.00    -0.744 OA
ENDBRANCH  75  78
ENDBRANCH  57  71
BRANCH  58  82
ATOM     82  C   UNL     1       1.362   2.366  11.840  1.00  0.00     0.023 A 
ATOM     83  C   UNL     1       0.999   1.064  11.419  1.00  0.00     0.012 A 
ATOM     84  C   UNL     1       2.690   2.613  12.221  1.00  0.00     0.148 A 
ATOM     85  C   UNL     1       1.975   0.092  11.199  1.00  0.00     0.002 A 
ATOM     86  C   UNL     1       3.658   1.637  11.995  1.00  0.00     0.091 A 
ATOM     87  F   UNL     1       3.009   3.817  12.712  1.00  0.00    -0.205 F 
ATOM     88  C   UNL     1       3.311   0.399  11.431  1.00  0.00     0.022 A 
BRANCH  86  89
ATOM     89  S   UNL     1       5.394   1.987  12.293  1.00  0.00     0.127 S 
ATOM     90  O   UNL     1       5.527   1.627  13.701  1.00  0.00    -0.237 OA
ATOM     91  O   UNL     1       6.067   1.082  11.363  1.00  0.00    -0.237 OA
ATOM     92  O   UNL     1       5.538   3.397  11.964  1.00  0.00    -0.744 OA
ENDBRANCH  86  89
ENDBRANCH  58  82
BRANCH  70  93
ATOM     93  C   UNL     1       0.820   9.388  13.167  1.00  0.00     0.023 A 
ATOM     94  C   UNL     1       1.353   9.157  14.450  1.00  0.00     0.012 A 
ATOM     95  C   UNL     1       0.695  10.746  12.770  1.00  0.00     0.148 A 
ATOM     96  C   UNL     1       1.669  10.205  15.323  1.00  0.00     0.002 A 
ATOM     97  C   UNL     1       1.122  11.783  13.596  1.00  0.00     0.091 A 
ATOM     98  F   UNL     1       0.134  11.049  11.589  1.00  0.00    -0.205 F 
ATOM     99  C   UNL     1       1.574  11.519  14.889  1.00  0.00     0.022 A 
BRANCH  97 100
ATOM    100  S   UNL     1       1.252  13.468  12.979  1.00  0.00     0.127 S 
ATOM    101  O   UNL     1      -0.029  14.041  13.385  1.00  0.00    -0.237 OA
ATOM    102  O   UNL     1       2.409  13.984  13.715  1.00  0.00    -0.237 OA
ATOM    103  O   UNL     1       1.473  13.330  11.546  1.00  0.00    -0.744 OA
ENDBRANCH  97 100
ENDBRANCH  70  93
ENDBRANCH  44  45
ENDBRANCH  36  39
ENDBRANCH  34  35
ENDBRANCH  33  34
ENDBRANCH   1  33
TORSDOF 17
