REMARK SMILES CC(C)N(CCC#N)C(=O)c1ccncc1/C=C/C(=O)NCCCNC(=O)c1ccc(-c2c3nc(c(-c4cccc(S(=O)(=O)[O-])c4F)c4ccc([nH]4)c(-c4cccc(S(=O)(=O)[O-])c4F)c4nc(c(-c5cccc(S(=O)(=O)[O-])c5F)c5ccc2[nH]5)C=C4)C=C3)cc1
REMARK SMILES IDX 19 1 20 2 21 3 18 5 17 6 16 7 11 8 12 9 13 10 15 11 14 12
REMARK SMILES IDX 9 13 10 14 4 15 2 16 1 17 3 18 5 19 6 20 7 21 8 22 22 23
REMARK SMILES IDX 23 24 24 25 25 26 26 27 27 29 28 30 29 31 90 32 30 33 89 34
REMARK SMILES IDX 31 35 32 36 33 37 83 38 34 39 88 40 82 41 84 42 35 43 87 44
REMARK SMILES IDX 81 45 80 46 36 48 68 49 48 50 67 51 49 52 52 53 66 54 85 55
REMARK SMILES IDX 50 56 51 57 65 59 86 60 53 61 37 62 38 63 46 64 39 65 41 66
REMARK SMILES IDX 47 67 40 68 42 69 43 70 44 71 45 72 69 73 70 74 78 75 71 76
REMARK SMILES IDX 73 77 79 78 72 79 74 80 75 81 76 82 77 83 54 84 55 85 63 86
REMARK SMILES IDX 56 87 58 88 64 89 57 90 59 91 60 92 61 93 62 94
REMARK H PARENT 21 4 25 28 84 47 52 58
REMARK Flexibility Score: inf
ROOT
ATOM      1  C   UNL     1      -3.176   3.333   3.841  1.00  0.00     0.244 C 
ATOM      2  O   UNL     1      -3.869   4.124   4.476  1.00  0.00    -0.270 OA
ATOM      3  N   UNL     1      -1.823   3.330   3.981  1.00  0.00    -0.352 N 
ATOM      4  H   UNL     1      -1.456   3.997   4.605  1.00  0.00     0.163 HD
ENDROOT
BRANCH   1   5
ATOM      5  C   UNL     1      -3.789   2.492   2.793  1.00  0.00     0.072 C 
ATOM      6  C   UNL     1      -3.675   1.159   2.655  1.00  0.00     0.016 C 
BRANCH   6   7
ATOM      7  C   UNL     1      -4.191   0.585   1.405  1.00  0.00     0.006 A 
ATOM      8  C   UNL     1      -3.393   0.264   0.275  1.00  0.00     0.050 A 
ATOM      9  C   UNL     1      -4.038   0.313  -0.961  1.00  0.00     0.034 A 
ATOM     10  C   UNL     1      -5.427   0.382  -1.010  1.00  0.00     0.112 A 
ATOM     11  C   UNL     1      -5.582   0.605   1.251  1.00  0.00     0.119 A 
ATOM     12  N   UNL     1      -6.220   0.476   0.072  1.00  0.00    -0.264 NA
BRANCH   8  13
ATOM     13  C   UNL     1      -1.950  -0.217   0.428  1.00  0.00     0.254 C 
ATOM     14  O   UNL     1      -1.392   0.026   1.498  1.00  0.00    -0.269 OA
BRANCH  13  15
ATOM     15  N   UNL     1      -1.243  -1.015  -0.524  1.00  0.00    -0.335 N 
BRANCH  15  16
ATOM     16  C   UNL     1       0.217  -1.261  -0.298  1.00  0.00     0.079 C 
ATOM     17  C   UNL     1       1.032  -0.004   0.027  1.00  0.00     0.031 C 
ATOM     18  C   UNL     1       0.494  -2.363   0.729  1.00  0.00     0.031 C 
ENDBRANCH  15  16
BRANCH  15  19
ATOM     19  C   UNL     1      -1.830  -1.792  -1.641  1.00  0.00     0.135 C 
BRANCH  19  20
ATOM     20  C   UNL     1      -2.646  -3.033  -1.255  1.00  0.00     0.141 C 
BRANCH  20  21
ATOM     21  C   UNL     1      -3.633  -2.709  -0.146  1.00  0.00     0.064 C 
ATOM     22  N   UNL     1      -4.453  -2.441   0.774  1.00  0.00    -0.198 NA
ENDBRANCH  20  21
ENDBRANCH  19  20
ENDBRANCH  15  19
ENDBRANCH  13  15
ENDBRANCH   8  13
ENDBRANCH   6   7
ENDBRANCH   1   5
BRANCH   3  23
ATOM     23  C   UNL     1      -0.850   2.474   3.333  1.00  0.00     0.118 C 
BRANCH  23  24
ATOM     24  C   UNL     1      -0.202   3.100   2.111  1.00  0.00     0.042 C 
BRANCH  24  25
ATOM     25  C   UNL     1       0.857   4.129   2.470  1.00  0.00     0.118 C 
BRANCH  25  26
ATOM     26  N   UNL     1       1.890   3.584   3.353  1.00  0.00    -0.352 N 
ATOM     27  C   UNL     1       3.234   3.388   3.150  1.00  0.00     0.251 C 
ATOM     28  H   UNL     1       1.567   3.314   4.242  1.00  0.00     0.163 HD
ATOM     29  O   UNL     1       3.880   2.712   3.939  1.00  0.00    -0.269 OA
BRANCH  27  30
ATOM     30  C   UNL     1       3.890   3.993   1.976  1.00  0.00     0.039 A 
ATOM     31  C   UNL     1       4.858   3.267   1.277  1.00  0.00     0.014 A 
ATOM     32  C   UNL     1       3.541   5.280   1.568  1.00  0.00     0.014 A 
ATOM     33  C   UNL     1       5.418   3.808   0.119  1.00  0.00     0.010 A 
ATOM     34  C   UNL     1       4.008   5.763   0.358  1.00  0.00     0.010 A 
ATOM     35  C   UNL     1       4.964   5.041  -0.371  1.00  0.00    -0.014 A 
BRANCH  35  36
ATOM     36  C   UNL     1       5.465   5.627  -1.637  1.00  0.00     0.031 A 
ATOM     37  C   UNL     1       6.104   6.988  -1.617  1.00  0.00     0.074 A 
ATOM     38  C   UNL     1       5.204   5.012  -2.807  1.00  0.00     0.049 A 
ATOM     39  N   UNL     1       6.439   7.757  -2.619  1.00  0.00    -0.248 NA
ATOM     40  C   UNL     1       6.352   7.583  -0.293  1.00  0.00     0.031 C 
ATOM     41  C   UNL     1       4.513   3.729  -2.952  1.00  0.00     0.029 A 
ATOM     42  N   UNL     1       5.442   5.411  -4.098  1.00  0.00    -0.354 N 
ATOM     43  C   UNL     1       6.875   8.946  -2.048  1.00  0.00     0.074 A 
ATOM     44  C   UNL     1       6.731   8.810  -0.617  1.00  0.00     0.031 C 
ATOM     45  C   UNL     1       4.368   3.454  -4.257  1.00  0.00     0.029 A 
ATOM     46  C   UNL     1       4.910   4.561  -5.040  1.00  0.00     0.049 A 
ATOM     47  H   UNL     1       5.943   6.226  -4.329  1.00  0.00     0.167 HD
ATOM     48  C   UNL     1       7.369  10.047  -2.661  1.00  0.00     0.034 A 
ATOM     49  C   UNL     1       4.836   4.674  -6.381  1.00  0.00     0.034 A 
ATOM     50  C   UNL     1       7.549  10.151  -4.082  1.00  0.00     0.049 A 
ATOM     51  C   UNL     1       5.443   5.878  -7.046  1.00  0.00     0.074 A 
ATOM     52  C   UNL     1       8.154  11.167  -4.799  1.00  0.00     0.029 A 
ATOM     53  N   UNL     1       7.109   9.214  -5.004  1.00  0.00    -0.354 N 
ATOM     54  N   UNL     1       6.005   6.926  -6.492  1.00  0.00    -0.248 NA
ATOM     55  C   UNL     1       5.439   5.906  -8.515  1.00  0.00     0.031 C 
ATOM     56  C   UNL     1       8.038  10.864  -6.159  1.00  0.00     0.029 A 
ATOM     57  C   UNL     1       7.407   9.636  -6.286  1.00  0.00     0.049 A 
ATOM     58  H   UNL     1       6.651   8.372  -4.779  1.00  0.00     0.167 HD
ATOM     59  C   UNL     1       6.454   7.719  -7.541  1.00  0.00     0.074 A 
ATOM     60  C   UNL     1       6.104   7.027  -8.765  1.00  0.00     0.031 C 
ATOM     61  C   UNL     1       7.095   8.912  -7.493  1.00  0.00     0.034 A 
BRANCH  48  62
ATOM     62  C   UNL     1       7.765  11.212  -1.793  1.00  0.00     0.023 A 
ATOM     63  C   UNL     1       8.866  11.101  -0.917  1.00  0.00     0.012 A 
ATOM     64  C   UNL     1       7.060  12.430  -1.861  1.00  0.00     0.148 A 
ATOM     65  C   UNL     1       9.222  12.160  -0.084  1.00  0.00     0.002 A 
ATOM     66  C   UNL     1       7.456  13.500  -1.067  1.00  0.00     0.091 A 
ATOM     67  F   UNL     1       6.003  12.513  -2.681  1.00  0.00    -0.205 F 
ATOM     68  C   UNL     1       8.524  13.361  -0.166  1.00  0.00     0.022 A 
BRANCH  66  69
ATOM     69  S   UNL     1       6.676  15.114  -1.168  1.00  0.00     0.127 S 
ATOM     70  O   UNL     1       5.912  15.151   0.077  1.00  0.00    -0.237 OA
ATOM     71  O   UNL     1       7.831  16.012  -1.202  1.00  0.00    -0.237 OA
ATOM     72  O   UNL     1       5.885  15.100  -2.391  1.00  0.00    -0.744 OA
ENDBRANCH  66  69
ENDBRANCH  48  62
BRANCH  49  73
ATOM     73  C   UNL     1       4.193   3.585  -7.170  1.00  0.00     0.023 A 
ATOM     74  C   UNL     1       4.991   2.725  -7.947  1.00  0.00     0.012 A 
ATOM     75  C   UNL     1       2.806   3.348  -7.085  1.00  0.00     0.148 A 
ATOM     76  C   UNL     1       4.416   1.662  -8.646  1.00  0.00     0.002 A 
ATOM     77  C   UNL     1       2.249   2.251  -7.733  1.00  0.00     0.091 A 
ATOM     78  F   UNL     1       2.065   4.179  -6.339  1.00  0.00    -0.205 F 
ATOM     79  C   UNL     1       3.050   1.418  -8.529  1.00  0.00     0.022 A 
BRANCH  77  80
ATOM     80  S   UNL     1       0.532   1.768  -7.518  1.00  0.00     0.127 S 
ATOM     81  O   UNL     1      -0.000   1.938  -8.867  1.00  0.00    -0.237 OA
ATOM     82  O   UNL     1       0.662   0.379  -7.077  1.00  0.00    -0.237 OA
ATOM     83  O   UNL     1      -0.015   2.666  -6.509  1.00  0.00    -0.744 OA
ENDBRANCH  77  80
ENDBRANCH  49  73
BRANCH  61  84
ATOM     84  C   UNL     1       7.519   9.544  -8.792  1.00  0.00     0.023 A 
ATOM     85  C   UNL     1       6.563  10.152  -9.629  1.00  0.00     0.012 A 
ATOM     86  C   UNL     1       8.887   9.646  -9.112  1.00  0.00     0.148 A 
ATOM     87  C   UNL     1       6.964  10.841 -10.773  1.00  0.00     0.002 A 
ATOM     88  C   UNL     1       9.283  10.378 -10.223  1.00  0.00     0.091 A 
ATOM     89  F   UNL     1       9.776   9.045  -8.308  1.00  0.00    -0.205 F 
ATOM     90  C   UNL     1       8.322  10.968 -11.061  1.00  0.00     0.022 A 
BRANCH  88  91
ATOM     91  S   UNL     1      11.009  10.685 -10.613  1.00  0.00     0.127 S 
ATOM     92  O   UNL     1      11.168   9.943 -11.863  1.00  0.00    -0.237 OA
ATOM     93  O   UNL     1      11.037  12.140 -10.759  1.00  0.00    -0.237 OA
ATOM     94  O   UNL     1      11.777  10.172  -9.486  1.00  0.00    -0.744 OA
ENDBRANCH  88  91
ENDBRANCH  61  84
ENDBRANCH  35  36
ENDBRANCH  27  30
ENDBRANCH  25  26
ENDBRANCH  24  25
ENDBRANCH  23  24
ENDBRANCH   3  23
TORSDOF 20
