REMARK SMILES C[C@H]1C[N@H+]2CCCC[C@@H]2CN1c1ccc(C(=O)NCCCNC(=O)c2ccc(-c3c4nc(c(-c5cccc(S(=O)(=O)[O-])c5F)c5ccc([nH]5)c(-c5cccc(S(=O)(=O)[O-])c5F)c5nc(c(-c6cccc(S(=O)(=O)[O-])c6F)c6ccc3[nH]6)C=C5)C=C4)cc2)cc1Cl
REMARK SMILES IDX 21 1 20 2 19 3 18 4 16 5 17 6 15 8 12 9 13 10 89 11 14 12
REMARK SMILES IDX 88 13 90 14 11 15 1 16 2 17 3 18 4 19 10 20 5 21 9 22 6 24
REMARK SMILES IDX 8 25 7 26 22 27 23 28 24 30 25 31 26 32 87 33 27 34 86 35
REMARK SMILES IDX 28 36 29 37 30 38 80 39 31 40 85 41 79 42 81 43 32 44 84 45
REMARK SMILES IDX 78 46 77 47 33 49 65 50 45 51 64 52 46 53 49 54 63 55 82 56
REMARK SMILES IDX 47 57 48 58 62 60 83 61 50 62 34 63 35 64 43 65 36 66 38 67
REMARK SMILES IDX 44 68 37 69 39 70 40 71 41 72 42 73 66 74 67 75 75 76 68 77
REMARK SMILES IDX 70 78 76 79 69 80 71 81 72 82 73 83 74 84 51 85 52 86 60 87
REMARK SMILES IDX 53 88 55 89 61 90 54 91 56 92 57 93 58 94 59 95
REMARK H PARENT 18 7 4 23 22 29 81 48 49 59
REMARK Flexibility Score: inf
ROOT
ATOM      1  C   UNL     1       0.240   7.011   5.359  1.00  0.00     0.118 C 
ENDROOT
BRANCH   1   2
ATOM      2  C   UNL     1      -0.022   6.334   4.019  1.00  0.00     0.042 C 
BRANCH   2   3
ATOM      3  C   UNL     1       0.837   6.877   2.876  1.00  0.00     0.118 C 
BRANCH   3   4
ATOM      4  N   UNL     1       2.185   6.338   2.907  1.00  0.00    -0.352 N 
ATOM      5  C   UNL     1       2.792   5.339   2.187  1.00  0.00     0.251 C 
ATOM      6  O   UNL     1       4.005   5.185   2.331  1.00  0.00    -0.269 OA
ATOM      7  H   UNL     1       2.774   6.769   3.568  1.00  0.00     0.163 HD
BRANCH   5   8
ATOM      8  C   UNL     1       2.064   4.459   1.230  1.00  0.00     0.041 A 
ATOM      9  C   UNL     1       0.825   2.658  -0.596  1.00  0.00     0.056 A 
ATOM     10  C   UNL     1       2.193   2.955  -0.682  1.00  0.00     0.028 A 
ATOM     11  C   UNL     1       0.093   3.300   0.420  1.00  0.00     0.065 A 
ATOM     12  C   UNL     1       2.805   3.841   0.215  1.00  0.00     0.016 A 
ATOM     13  C   UNL     1       0.711   4.155   1.334  1.00  0.00     0.036 A 
ATOM     14  Cl  UNL     1      -1.600   3.024   0.663  1.00  0.00    -0.082 Cl
BRANCH   9  15
ATOM     15  N   UNL     1       0.264   1.726  -1.442  1.00  0.00    -0.356 N 
ATOM     16  C   UNL     1       1.318  -0.161  -0.157  1.00  0.00     0.037 C 
ATOM     17  C   UNL     1       0.628   0.295  -1.451  1.00  0.00     0.134 C 
ATOM     18  C   UNL     1      -0.651  -0.591  -1.630  1.00  0.00     0.287 C 
ATOM     19  N   UNL     1      -1.653  -0.146  -2.635  1.00  0.00    -0.329 N 
ATOM     20  C   UNL     1      -0.682   2.164  -2.473  1.00  0.00     0.182 C 
ATOM     21  C   UNL     1      -2.879  -0.952  -2.471  1.00  0.00     0.262 C 
ATOM     22  C   UNL     1      -1.959   1.292  -2.410  1.00  0.00     0.203 C 
ATOM     23  H   UNL     1      -1.288  -0.269  -3.579  1.00  0.00     0.348 HD
ATOM     24  C   UNL     1      -3.991  -0.513  -3.425  1.00  0.00     0.062 C 
ATOM     25  C   UNL     1      -2.999   1.788  -3.422  1.00  0.00     0.067 C 
ATOM     26  C   UNL     1      -4.285   0.978  -3.299  1.00  0.00     0.012 C 
ENDBRANCH   9  15
ENDBRANCH   5   8
ENDBRANCH   3   4
ENDBRANCH   2   3
ENDBRANCH   1   2
BRANCH   1  27
ATOM     27  N   UNL     1      -0.187   8.401   5.351  1.00  0.00    -0.352 N 
ATOM     28  C   UNL     1      -1.042   9.073   6.184  1.00  0.00     0.251 C 
ATOM     29  H   UNL     1       0.200   8.948   4.629  1.00  0.00     0.163 HD
ATOM     30  O   UNL     1      -1.440  10.186   5.845  1.00  0.00    -0.269 OA
BRANCH  28  31
ATOM     31  C   UNL     1      -1.482   8.494   7.475  1.00  0.00     0.039 A 
ATOM     32  C   UNL     1      -2.769   8.796   7.932  1.00  0.00     0.014 A 
ATOM     33  C   UNL     1      -0.621   7.739   8.277  1.00  0.00     0.014 A 
ATOM     34  C   UNL     1      -3.193   8.337   9.181  1.00  0.00     0.010 A 
ATOM     35  C   UNL     1      -1.072   7.217   9.489  1.00  0.00     0.010 A 
ATOM     36  C   UNL     1      -2.349   7.538   9.969  1.00  0.00    -0.014 A 
BRANCH  36  37
ATOM     37  C   UNL     1      -2.783   7.063  11.307  1.00  0.00     0.031 A 
ATOM     38  C   UNL     1      -2.063   7.521  12.548  1.00  0.00     0.074 A 
ATOM     39  C   UNL     1      -3.790   6.173  11.402  1.00  0.00     0.049 A 
ATOM     40  N   UNL     1      -2.297   7.214  13.798  1.00  0.00    -0.248 NA
ATOM     41  C   UNL     1      -0.909   8.417  12.361  1.00  0.00     0.031 C 
ATOM     42  C   UNL     1      -4.504   5.584  10.268  1.00  0.00     0.029 A 
ATOM     43  N   UNL     1      -4.370   5.591  12.500  1.00  0.00    -0.354 N 
ATOM     44  C   UNL     1      -1.301   7.841  14.538  1.00  0.00     0.074 A 
ATOM     45  C   UNL     1      -0.440   8.520  13.596  1.00  0.00     0.031 C 
ATOM     46  C   UNL     1      -5.429   4.727  10.730  1.00  0.00     0.029 A 
ATOM     47  C   UNL     1      -5.364   4.694  12.188  1.00  0.00     0.049 A 
ATOM     48  H   UNL     1      -4.101   5.797  13.425  1.00  0.00     0.167 HD
ATOM     49  C   UNL     1      -1.135   7.876  15.883  1.00  0.00     0.034 A 
ATOM     50  C   UNL     1      -6.138   3.933  12.986  1.00  0.00     0.034 A 
ATOM     51  C   UNL     1      -2.029   7.248  16.818  1.00  0.00     0.049 A 
ATOM     52  C   UNL     1      -5.993   4.059  14.477  1.00  0.00     0.074 A 
ATOM     53  C   UNL     1      -2.014   7.312  18.200  1.00  0.00     0.029 A 
ATOM     54  N   UNL     1      -3.097   6.436  16.466  1.00  0.00    -0.354 N 
ATOM     55  N   UNL     1      -5.158   4.801  15.165  1.00  0.00    -0.248 NA
ATOM     56  C   UNL     1      -6.926   3.282  15.304  1.00  0.00     0.031 C 
ATOM     57  C   UNL     1      -3.064   6.524  18.684  1.00  0.00     0.029 A 
ATOM     58  C   UNL     1      -3.746   5.988  17.604  1.00  0.00     0.049 A 
ATOM     59  H   UNL     1      -3.355   6.212  15.543  1.00  0.00     0.167 HD
ATOM     60  C   UNL     1      -5.485   4.607  16.501  1.00  0.00     0.074 A 
ATOM     61  C   UNL     1      -6.612   3.696  16.525  1.00  0.00     0.031 C 
ATOM     62  C   UNL     1      -4.898   5.122  17.610  1.00  0.00     0.034 A 
BRANCH  49  63
ATOM     63  C   UNL     1       0.028   8.668  16.425  1.00  0.00     0.023 A 
ATOM     64  C   UNL     1       0.006  10.076  16.352  1.00  0.00     0.012 A 
ATOM     65  C   UNL     1       1.117   8.027  17.048  1.00  0.00     0.148 A 
ATOM     66  C   UNL     1       1.065  10.832  16.853  1.00  0.00     0.002 A 
ATOM     67  C   UNL     1       2.149   8.790  17.585  1.00  0.00     0.091 A 
ATOM     68  F   UNL     1       1.134   6.688  17.089  1.00  0.00    -0.205 F 
ATOM     69  C   UNL     1       2.130  10.190  17.478  1.00  0.00     0.022 A 
BRANCH  67  70
ATOM     70  S   UNL     1       3.525   8.061  18.480  1.00  0.00     0.127 S 
ATOM     71  O   UNL     1       4.614   8.203  17.515  1.00  0.00    -0.237 OA
ATOM     72  O   UNL     1       3.631   8.934  19.651  1.00  0.00    -0.237 OA
ATOM     73  O   UNL     1       3.126   6.693  18.781  1.00  0.00    -0.744 OA
ENDBRANCH  67  70
ENDBRANCH  49  63
BRANCH  50  74
ATOM     74  C   UNL     1      -7.177   3.053  12.382  1.00  0.00     0.023 A 
ATOM     75  C   UNL     1      -8.536   3.399  12.509  1.00  0.00     0.012 A 
ATOM     76  C   UNL     1      -6.826   1.908  11.640  1.00  0.00     0.148 A 
ATOM     77  C   UNL     1      -9.529   2.607  11.933  1.00  0.00     0.002 A 
ATOM     78  C   UNL     1      -7.816   1.154  11.022  1.00  0.00     0.091 A 
ATOM     79  F   UNL     1      -5.527   1.591  11.539  1.00  0.00    -0.205 F 
ATOM     80  C   UNL     1      -9.170   1.492  11.181  1.00  0.00     0.022 A 
BRANCH  78  81
ATOM     81  S   UNL     1      -7.439  -0.216   9.924  1.00  0.00     0.127 S 
ATOM     82  O   UNL     1      -7.854  -1.365  10.723  1.00  0.00    -0.237 OA
ATOM     83  O   UNL     1      -8.293   0.075   8.771  1.00  0.00    -0.237 OA
ATOM     84  O   UNL     1      -6.010  -0.117   9.650  1.00  0.00    -0.744 OA
ENDBRANCH  78  81
ENDBRANCH  50  74
BRANCH  62  85
ATOM     85  C   UNL     1      -5.476   4.739  18.947  1.00  0.00     0.023 A 
ATOM     86  C   UNL     1      -5.280   3.436  19.446  1.00  0.00     0.012 A 
ATOM     87  C   UNL     1      -6.154   5.688  19.736  1.00  0.00     0.148 A 
ATOM     88  C   UNL     1      -5.782   3.073  20.695  1.00  0.00     0.002 A 
ATOM     89  C   UNL     1      -6.608   5.333  21.001  1.00  0.00     0.091 A 
ATOM     90  F   UNL     1      -6.349   6.917  19.236  1.00  0.00    -0.205 F 
ATOM     91  C   UNL     1      -6.434   4.024  21.477  1.00  0.00     0.022 A 
BRANCH  89  92
ATOM     92  S   UNL     1      -7.372   6.523  22.110  1.00  0.00     0.127 S 
ATOM     93  O   UNL     1      -8.787   6.179  21.989  1.00  0.00    -0.237 OA
ATOM     94  O   UNL     1      -6.770   6.181  23.400  1.00  0.00    -0.237 OA
ATOM     95  O   UNL     1      -6.996   7.836  21.602  1.00  0.00    -0.744 OA
ENDBRANCH  89  92
ENDBRANCH  62  85
ENDBRANCH  36  37
ENDBRANCH  28  31
ENDBRANCH   1  27
TORSDOF 14
