REMARK SMILES Cc1noc(-c2ccc(CCl)cc2)c1C(=O)NCCCNC(=O)c1ccc(-c2c3nc(c(-c4cccc(S(=O)(=O)[O-])c4F)c4ccc([nH]4)c(-c4cccc(S(=O)(=O)[O-])c4F)c4nc(c(-c5cccc(S(=O)(=O)[O-])c5F)c5ccc2[nH]5)C=C4)C=C3)cc1
REMARK SMILES IDX 19 1 18 2 17 3 15 4 16 5 14 7 1 8 2 9 3 10 4 11 5 12 6 13
REMARK SMILES IDX 7 14 13 15 8 16 12 17 9 18 10 19 11 20 20 21 21 22 22 23
REMARK SMILES IDX 23 25 24 26 25 27 86 28 26 29 85 30 27 31 28 32 29 33 79 34
REMARK SMILES IDX 30 35 84 36 78 37 80 38 31 39 83 40 77 41 76 42 32 44 64 45
REMARK SMILES IDX 44 46 63 47 45 48 48 49 62 50 81 51 46 52 47 53 61 55 82 56
REMARK SMILES IDX 49 57 33 58 34 59 42 60 35 61 37 62 43 63 36 64 38 65 39 66
REMARK SMILES IDX 40 67 41 68 65 69 66 70 74 71 67 72 69 73 75 74 68 75 70 76
REMARK SMILES IDX 71 77 72 78 73 79 50 80 51 81 59 82 52 83 54 84 60 85 53 86
REMARK SMILES IDX 55 87 56 88 57 89 58 90
REMARK H PARENT 17 6 21 24 80 43 48 54
REMARK Flexibility Score: inf
ROOT
ATOM      1  C   UNL     1       3.754  -2.147   0.772  1.00  0.00     0.042 C 
ENDROOT
BRANCH   1   2
ATOM      2  C   UNL     1       2.906  -2.324  -0.487  1.00  0.00     0.118 C 
BRANCH   2   3
ATOM      3  N   UNL     1       1.646  -2.929  -0.165  1.00  0.00    -0.352 N 
ATOM      4  C   UNL     1       0.381  -2.462   0.024  1.00  0.00     0.257 C 
ATOM      5  O   UNL     1      -0.425  -3.384   0.191  1.00  0.00    -0.269 OA
ATOM      6  H   UNL     1       1.710  -3.905  -0.055  1.00  0.00     0.163 HD
BRANCH   4   7
ATOM      7  C   UNL     1      -0.049  -1.064  -0.012  1.00  0.00     0.110 A 
ATOM      8  C   UNL     1       1.901   0.813   0.187  1.00  0.00     0.071 C 
ATOM      9  C   UNL     1       0.538   0.255   0.009  1.00  0.00     0.094 A 
ATOM     10  N   UNL     1      -0.400   1.207  -0.122  1.00  0.00    -0.084 NA
ATOM     11  O   UNL     1      -1.604   0.571  -0.143  1.00  0.00    -0.355 OA
ATOM     12  C   UNL     1      -1.414  -0.763  -0.041  1.00  0.00     0.179 A 
BRANCH  12  13
ATOM     13  C   UNL     1      -2.658  -1.518   0.017  1.00  0.00     0.021 A 
ATOM     14  C   UNL     1      -3.597  -1.411  -1.013  1.00  0.00     0.012 A 
ATOM     15  C   UNL     1      -2.936  -2.357   1.103  1.00  0.00     0.012 A 
ATOM     16  C   UNL     1      -4.773  -2.165  -0.979  1.00  0.00     0.006 A 
ATOM     17  C   UNL     1      -4.107  -3.116   1.136  1.00  0.00     0.006 A 
ATOM     18  C   UNL     1      -5.035  -3.035   0.090  1.00  0.00    -0.033 A 
BRANCH  18  19
ATOM     19  C   UNL     1      -6.272  -3.887   0.104  1.00  0.00     0.145 C 
ATOM     20  Cl  UNL     1      -7.735  -2.897   0.290  1.00  0.00    -0.122 Cl
ENDBRANCH  18  19
ENDBRANCH  12  13
ENDBRANCH   4   7
ENDBRANCH   2   3
ENDBRANCH   1   2
BRANCH   1  21
ATOM     21  C   UNL     1       4.492  -3.425   1.171  1.00  0.00     0.118 C 
BRANCH  21  22
ATOM     22  N   UNL     1       5.465  -3.817   0.156  1.00  0.00    -0.352 N 
ATOM     23  C   UNL     1       6.823  -3.962   0.244  1.00  0.00     0.251 C 
ATOM     24  H   UNL     1       5.085  -4.005  -0.732  1.00  0.00     0.163 HD
ATOM     25  O   UNL     1       7.489  -4.031  -0.791  1.00  0.00    -0.269 OA
BRANCH  23  26
ATOM     26  C   UNL     1       7.484  -4.044   1.559  1.00  0.00     0.039 A 
ATOM     27  C   UNL     1       8.722  -3.420   1.736  1.00  0.00     0.014 A 
ATOM     28  C   UNL     1       6.906  -4.770   2.604  1.00  0.00     0.014 A 
ATOM     29  C   UNL     1       9.356  -3.485   2.977  1.00  0.00     0.010 A 
ATOM     30  C   UNL     1       7.496  -4.761   3.861  1.00  0.00     0.010 A 
ATOM     31  C   UNL     1       8.733  -4.131   4.058  1.00  0.00    -0.014 A 
BRANCH  31  32
ATOM     32  C   UNL     1       9.358  -4.155   5.403  1.00  0.00     0.031 A 
ATOM     33  C   UNL     1       9.734  -5.465   6.040  1.00  0.00     0.074 A 
ATOM     34  C   UNL     1       9.502  -3.001   6.083  1.00  0.00     0.049 A 
ATOM     35  N   UNL     1      10.233  -5.688   7.228  1.00  0.00    -0.248 NA
ATOM     36  C   UNL     1       9.490  -6.687   5.255  1.00  0.00     0.031 C 
ATOM     37  C   UNL     1       9.098  -1.679   5.599  1.00  0.00     0.029 A 
ATOM     38  N   UNL     1      10.002  -2.756   7.336  1.00  0.00    -0.354 N 
ATOM     39  C   UNL     1      10.321  -7.069   7.349  1.00  0.00     0.074 A 
ATOM     40  C   UNL     1       9.795  -7.636   6.127  1.00  0.00     0.031 C 
ATOM     41  C   UNL     1       9.377  -0.762   6.538  1.00  0.00     0.029 A 
ATOM     42  C   UNL     1       9.943  -1.432   7.703  1.00  0.00     0.049 A 
ATOM     43  H   UNL     1      10.369  -3.461   7.917  1.00  0.00     0.167 HD
ATOM     44  C   UNL     1      10.820  -7.800   8.374  1.00  0.00     0.034 A 
ATOM     45  C   UNL     1      10.297  -0.828   8.854  1.00  0.00     0.034 A 
ATOM     46  C   UNL     1      11.382  -7.226   9.566  1.00  0.00     0.049 A 
ATOM     47  C   UNL     1      10.889  -1.658   9.959  1.00  0.00     0.074 A 
ATOM     48  C   UNL     1      12.004  -7.872  10.620  1.00  0.00     0.029 A 
ATOM     49  N   UNL     1      11.380  -5.873   9.870  1.00  0.00    -0.354 N 
ATOM     50  N   UNL     1      11.111  -2.950   9.991  1.00  0.00    -0.248 NA
ATOM     51  C   UNL     1      11.312  -0.945  11.172  1.00  0.00     0.031 C 
ATOM     52  C   UNL     1      12.346  -6.912  11.578  1.00  0.00     0.029 A 
ATOM     53  C   UNL     1      11.975  -5.664  11.102  1.00  0.00     0.049 A 
ATOM     54  H   UNL     1      11.009  -5.166   9.295  1.00  0.00     0.167 HD
ATOM     55  C   UNL     1      11.733  -3.199  11.209  1.00  0.00     0.074 A 
ATOM     56  C   UNL     1      11.869  -1.920  11.876  1.00  0.00     0.031 C 
ATOM     57  C   UNL     1      12.145  -4.380  11.732  1.00  0.00     0.034 A 
BRANCH  44  58
ATOM     58  C   UNL     1      10.818  -9.300   8.236  1.00  0.00     0.023 A 
ATOM     59  C   UNL     1      11.685  -9.921   7.314  1.00  0.00     0.012 A 
ATOM     60  C   UNL     1      10.002 -10.098   9.062  1.00  0.00     0.148 A 
ATOM     61  C   UNL     1      11.714 -11.310   7.190  1.00  0.00     0.002 A 
ATOM     62  C   UNL     1      10.073 -11.483   8.967  1.00  0.00     0.091 A 
ATOM     63  F   UNL     1       9.169  -9.490   9.918  1.00  0.00    -0.205 F 
ATOM     64  C   UNL     1      10.918 -12.090   8.023  1.00  0.00     0.022 A 
BRANCH  62  65
ATOM     65  S   UNL     1       9.149 -12.578  10.051  1.00  0.00     0.127 S 
ATOM     66  O   UNL     1       8.188 -13.170   9.122  1.00  0.00    -0.237 OA
ATOM     67  O   UNL     1      10.190 -13.495  10.518  1.00  0.00    -0.237 OA
ATOM     68  O   UNL     1       8.575 -11.731  11.086  1.00  0.00    -0.744 OA
ENDBRANCH  62  65
ENDBRANCH  44  58
BRANCH  45  69
ATOM     69  C   UNL     1      10.159   0.649   8.990  1.00  0.00     0.023 A 
ATOM     70  C   UNL     1      11.315   1.452   9.030  1.00  0.00     0.012 A 
ATOM     71  C   UNL     1       8.893   1.264   9.046  1.00  0.00     0.148 A 
ATOM     72  C   UNL     1      11.215   2.838   9.156  1.00  0.00     0.002 A 
ATOM     73  C   UNL     1       8.799   2.648   9.114  1.00  0.00     0.091 A 
ATOM     74  F   UNL     1       7.806   0.481   9.012  1.00  0.00    -0.205 F 
ATOM     75  C   UNL     1       9.958   3.437   9.188  1.00  0.00     0.022 A 
BRANCH  73  76
ATOM     76  S   UNL     1       7.228   3.514   9.025  1.00  0.00     0.127 S 
ATOM     77  O   UNL     1       7.118   4.073  10.369  1.00  0.00    -0.237 OA
ATOM     78  O   UNL     1       7.485   4.493   7.968  1.00  0.00    -0.237 OA
ATOM     79  O   UNL     1       6.239   2.502   8.679  1.00  0.00    -0.744 OA
ENDBRANCH  73  76
ENDBRANCH  45  69
BRANCH  57  80
ATOM     80  C   UNL     1      12.822  -4.350  13.077  1.00  0.00     0.023 A 
ATOM     81  C   UNL     1      12.072  -4.085  14.240  1.00  0.00     0.012 A 
ATOM     82  C   UNL     1      14.192  -4.659  13.193  1.00  0.00     0.148 A 
ATOM     83  C   UNL     1      12.682  -4.095  15.493  1.00  0.00     0.002 A 
ATOM     84  C   UNL     1      14.781  -4.721  14.449  1.00  0.00     0.091 A 
ATOM     85  F   UNL     1      14.892  -4.891  12.072  1.00  0.00    -0.205 F 
ATOM     86  C   UNL     1      14.031  -4.424  15.599  1.00  0.00     0.022 A 
BRANCH  84  87
ATOM     87  S   UNL     1      16.484  -5.236  14.689  1.00  0.00     0.127 S 
ATOM     88  O   UNL     1      17.123  -3.980  15.081  1.00  0.00    -0.237 OA
ATOM     89  O   UNL     1      16.361  -6.219  15.766  1.00  0.00    -0.237 OA
ATOM     90  O   UNL     1      16.922  -5.787  13.414  1.00  0.00    -0.744 OA
ENDBRANCH  84  87
ENDBRANCH  57  80
ENDBRANCH  31  32
ENDBRANCH  23  26
ENDBRANCH  21  22
ENDBRANCH   1  21
TORSDOF 15
