REMARK SMILES CCNC(=S)N/N=C\c1ccc(-c2ccc(C(=O)NCCCNC(=O)c3ccc(-c4c5nc(c(-c6cccc(S(=O)(=O)[O-])c6F)c6ccc([nH]6)c(-c6cccc(S(=O)(=O)[O-])c6F)c6nc(c(-c7cccc(S(=O)(=O)[O-])c7F)c7ccc4[nH]7)C=C6)C=C5)cc3)c(Cl)c2)o1
REMARK SMILES IDX 17 1 18 2 19 3 16 5 13 6 14 7 91 8 15 9 89 10 90 11 12 12
REMARK SMILES IDX 9 13 10 14 92 15 11 16 8 17 7 18 6 19 4 21 5 22 3 23 2 25
REMARK SMILES IDX 1 26 20 27 21 28 22 29 23 30 24 31 25 33 26 34 27 35 88 36
REMARK SMILES IDX 28 37 87 38 29 39 30 40 31 41 81 42 32 43 86 44 80 45 82 46
REMARK SMILES IDX 33 47 85 48 79 49 78 50 34 52 66 53 46 54 65 55 47 56 50 57
REMARK SMILES IDX 64 58 83 59 48 60 49 61 63 63 84 64 51 65 35 66 36 67 44 68
REMARK SMILES IDX 37 69 39 70 45 71 38 72 40 73 41 74 42 75 43 76 67 77 68 78
REMARK SMILES IDX 76 79 69 80 71 81 77 82 70 83 72 84 73 85 74 86 75 87 52 88
REMARK SMILES IDX 53 89 61 90 54 91 56 92 62 93 55 94 57 95 58 96 59 97 60 98
REMARK H PARENT 19 4 6 20 3 24 23 32 82 51 50 62
REMARK Flexibility Score: inf
ROOT
ATOM      1  C   UNL     1       7.351   1.441   0.831  1.00  0.00     0.252 C 
ATOM      2  O   UNL     1       8.352   1.179   0.151  1.00  0.00    -0.269 OA
ATOM      3  N   UNL     1       7.542   2.452   1.727  1.00  0.00    -0.352 N 
ATOM      4  H   UNL     1       8.468   2.786   1.712  1.00  0.00     0.163 HD
ENDROOT
BRANCH   1   5
ATOM      5  C   UNL     1       6.103   0.664   0.532  1.00  0.00     0.058 A 
ATOM      6  C   UNL     1       4.077  -1.127  -0.389  1.00  0.00     0.019 A 
ATOM      7  C   UNL     1       5.117  -0.778  -1.233  1.00  0.00     0.013 A 
ATOM      8  C   UNL     1       4.031  -0.564   0.887  1.00  0.00     0.033 A 
ATOM      9  C   UNL     1       6.100   0.111  -0.779  1.00  0.00     0.016 A 
ATOM     10  C   UNL     1       5.037   0.299   1.362  1.00  0.00     0.054 A 
ATOM     11  Cl  UNL     1       4.838   0.674   3.024  1.00  0.00    -0.083 Cl
BRANCH   6  12
ATOM     12  C   UNL     1       3.086  -2.118  -0.745  1.00  0.00     0.134 A 
ATOM     13  C   UNL     1       1.024  -2.668  -1.225  1.00  0.00     0.147 A 
ATOM     14  C   UNL     1       1.659  -3.834  -0.845  1.00  0.00     0.053 A 
ATOM     15  O   UNL     1       1.915  -1.633  -1.237  1.00  0.00    -0.455 OA
ATOM     16  C   UNL     1       2.997  -3.478  -0.545  1.00  0.00     0.051 A 
BRANCH  13  17
ATOM     17  C   UNL     1      -0.349  -2.356  -1.496  1.00  0.00     0.180 C 
ATOM     18  N   UNL     1      -1.359  -2.448  -0.675  1.00  0.00    -0.178 NA
BRANCH  18  19
ATOM     19  N   UNL     1      -1.121  -2.796   0.625  1.00  0.00    -0.254 N 
ATOM     20  H   UNL     1      -1.618  -3.580   0.950  1.00  0.00     0.193 HD
BRANCH  19  21
ATOM     21  C   UNL     1      -0.295  -2.213   1.533  1.00  0.00     0.186 C 
ATOM     22  S   UNL     1       0.139  -3.081   2.895  1.00  0.00    -0.039 S 
BRANCH  21  23
ATOM     23  N   UNL     1       0.169  -0.951   1.412  1.00  0.00    -0.362 N 
ATOM     24  H   UNL     1       0.967  -0.745   1.951  1.00  0.00     0.162 HD
BRANCH  23  25
ATOM     25  C   UNL     1      -0.333   0.150   0.606  1.00  0.00     0.112 C 
ATOM     26  C   UNL     1       0.569   1.367   0.713  1.00  0.00     0.027 C 
ENDBRANCH  23  25
ENDBRANCH  21  23
ENDBRANCH  19  21
ENDBRANCH  18  19
ENDBRANCH  13  17
ENDBRANCH   6  12
ENDBRANCH   1   5
BRANCH   3  27
ATOM     27  C   UNL     1       6.729   3.159   2.696  1.00  0.00     0.118 C 
BRANCH  27  28
ATOM     28  C   UNL     1       7.020   2.678   4.121  1.00  0.00     0.042 C 
BRANCH  28  29
ATOM     29  C   UNL     1       8.297   3.240   4.742  1.00  0.00     0.118 C 
BRANCH  29  30
ATOM     30  N   UNL     1       8.196   4.666   5.005  1.00  0.00    -0.352 N 
ATOM     31  C   UNL     1       8.299   5.370   6.178  1.00  0.00     0.251 C 
ATOM     32  H   UNL     1       8.026   5.219   4.208  1.00  0.00     0.163 HD
ATOM     33  O   UNL     1       7.942   6.547   6.184  1.00  0.00    -0.269 OA
BRANCH  31  34
ATOM     34  C   UNL     1       8.825   4.755   7.421  1.00  0.00     0.039 A 
ATOM     35  C   UNL     1       8.299   5.185   8.645  1.00  0.00     0.014 A 
ATOM     36  C   UNL     1       9.879   3.837   7.411  1.00  0.00     0.014 A 
ATOM     37  C   UNL     1       8.807   4.679   9.844  1.00  0.00     0.010 A 
ATOM     38  C   UNL     1      10.334   3.275   8.607  1.00  0.00     0.010 A 
ATOM     39  C   UNL     1       9.818   3.704   9.838  1.00  0.00    -0.014 A 
BRANCH  39  40
ATOM     40  C   UNL     1      10.330   3.136  11.113  1.00  0.00     0.031 A 
ATOM     41  C   UNL     1      11.765   3.334  11.527  1.00  0.00     0.074 A 
ATOM     42  C   UNL     1       9.507   2.397  11.883  1.00  0.00     0.049 A 
ATOM     43  N   UNL     1      12.372   2.933  12.616  1.00  0.00    -0.248 NA
ATOM     44  C   UNL     1      12.642   4.054  10.589  1.00  0.00     0.031 C 
ATOM     45  C   UNL     1       8.122   2.056  11.550  1.00  0.00     0.029 A 
ATOM     46  N   UNL     1       9.716   1.787  13.095  1.00  0.00    -0.354 N 
ATOM     47  C   UNL     1      13.700   3.321  12.481  1.00  0.00     0.074 A 
ATOM     48  C   UNL     1      13.821   3.959  11.188  1.00  0.00     0.031 C 
ATOM     49  C   UNL     1       7.601   1.312  12.539  1.00  0.00     0.029 A 
ATOM     50  C   UNL     1       8.618   1.103  13.564  1.00  0.00     0.049 A 
ATOM     51  H   UNL     1      10.570   1.834  13.581  1.00  0.00     0.167 HD
ATOM     52  C   UNL     1      14.721   3.187  13.363  1.00  0.00     0.034 A 
ATOM     53  C   UNL     1       8.447   0.392  14.696  1.00  0.00     0.034 A 
ATOM     54  C   UNL     1      14.586   2.588  14.664  1.00  0.00     0.049 A 
ATOM     55  C   UNL     1       9.577   0.315  15.686  1.00  0.00     0.074 A 
ATOM     56  C   UNL     1      15.535   2.485  15.667  1.00  0.00     0.029 A 
ATOM     57  N   UNL     1      13.434   1.984  15.143  1.00  0.00    -0.354 N 
ATOM     58  N   UNL     1      10.777   0.838  15.612  1.00  0.00    -0.248 NA
ATOM     59  C   UNL     1       9.314  -0.413  16.936  1.00  0.00     0.031 C 
ATOM     60  C   UNL     1      14.962   1.797  16.743  1.00  0.00     0.029 A 
ATOM     61  C   UNL     1      13.648   1.498  16.422  1.00  0.00     0.049 A 
ATOM     62  H   UNL     1      12.588   1.910  14.646  1.00  0.00     0.167 HD
ATOM     63  C   UNL     1      11.400   0.532  16.816  1.00  0.00     0.074 A 
ATOM     64  C   UNL     1      10.434  -0.197  17.612  1.00  0.00     0.031 C 
ATOM     65  C   UNL     1      12.664   0.814  17.221  1.00  0.00     0.034 A 
BRANCH  52  66
ATOM     66  C   UNL     1      16.066   3.748  12.972  1.00  0.00     0.023 A 
ATOM     67  C   UNL     1      16.245   5.146  12.911  1.00  0.00     0.012 A 
ATOM     68  C   UNL     1      17.165   2.902  12.726  1.00  0.00     0.148 A 
ATOM     69  C   UNL     1      17.484   5.692  12.575  1.00  0.00     0.002 A 
ATOM     70  C   UNL     1      18.409   3.454  12.437  1.00  0.00     0.091 A 
ATOM     71  F   UNL     1      16.974   1.576  12.770  1.00  0.00    -0.205 F 
ATOM     72  C   UNL     1      18.566   4.847  12.349  1.00  0.00     0.022 A 
BRANCH  70  73
ATOM     73  S   UNL     1      19.885   2.457  12.209  1.00  0.00     0.127 S 
ATOM     74  O   UNL     1      20.127   2.610  10.775  1.00  0.00    -0.237 OA
ATOM     75  O   UNL     1      20.854   3.141  13.066  1.00  0.00    -0.237 OA
ATOM     76  O   UNL     1      19.533   1.112  12.643  1.00  0.00    -0.744 OA
ENDBRANCH  70  73
ENDBRANCH  52  66
BRANCH  53  77
ATOM     77  C   UNL     1       7.127  -0.235  14.986  1.00  0.00     0.023 A 
ATOM     78  C   UNL     1       6.324   0.285  16.019  1.00  0.00     0.012 A 
ATOM     79  C   UNL     1       6.651  -1.321  14.227  1.00  0.00     0.148 A 
ATOM     80  C   UNL     1       5.084  -0.285  16.313  1.00  0.00     0.002 A 
ATOM     81  C   UNL     1       5.391  -1.848  14.488  1.00  0.00     0.091 A 
ATOM     82  F   UNL     1       7.435  -1.810  13.256  1.00  0.00    -0.205 F 
ATOM     83  C   UNL     1       4.614  -1.343  15.542  1.00  0.00     0.022 A 
BRANCH  81  84
ATOM     84  S   UNL     1       4.651  -3.120  13.458  1.00  0.00     0.127 S 
ATOM     85  O   UNL     1       4.697  -4.283  14.342  1.00  0.00    -0.237 OA
ATOM     86  O   UNL     1       3.310  -2.577  13.226  1.00  0.00    -0.237 OA
ATOM     87  O   UNL     1       5.481  -3.194  12.267  1.00  0.00    -0.744 OA
ENDBRANCH  81  84
ENDBRANCH  53  77
BRANCH  65  88
ATOM     88  C   UNL     1      13.068   0.359  18.600  1.00  0.00     0.023 A 
ATOM     89  C   UNL     1      13.258  -1.013  18.859  1.00  0.00     0.012 A 
ATOM     90  C   UNL     1      13.305   1.295  19.625  1.00  0.00     0.148 A 
ATOM     91  C   UNL     1      13.634  -1.449  20.129  1.00  0.00     0.002 A 
ATOM     92  C   UNL     1      13.730   0.857  20.874  1.00  0.00     0.091 A 
ATOM     93  F   UNL     1      13.101   2.595  19.367  1.00  0.00    -0.205 F 
ATOM     94  C   UNL     1      13.881  -0.515  21.132  1.00  0.00     0.022 A 
BRANCH  92  95
ATOM     95  S   UNL     1      14.165   1.997  22.192  1.00  0.00     0.127 S 
ATOM     96  O   UNL     1      13.004   1.890  23.074  1.00  0.00    -0.237 OA
ATOM     97  O   UNL     1      15.392   1.405  22.726  1.00  0.00    -0.237 OA
ATOM     98  O   UNL     1      14.351   3.293  21.553  1.00  0.00    -0.744 OA
ENDBRANCH  92  95
ENDBRANCH  65  88
ENDBRANCH  39  40
ENDBRANCH  31  34
ENDBRANCH  29  30
ENDBRANCH  28  29
ENDBRANCH  27  28
ENDBRANCH   3  27
TORSDOF 19
