REMARK SMILES CCc1cc(=O)oc2c3c(cc(OCC(=O)NCC(=O)NCCCNC(=O)c4ccc(-c5c6nc(c(-c7cccc(S(=O)(=O)[O-])c7F)c7ccc([nH]7)c(-c7cccc(S(=O)(=O)[O-])c7F)c7nc(c(-c8cccc(S(=O)(=O)[O-])c8F)c8ccc5[nH]8)C=C7)C=C6)cc4)c12)OC(C)(C)CC3
REMARK SMILES IDX 22 1 21 2 19 3 20 4 18 6 17 7 15 8 16 9 14 11 13 12 12 13
REMARK SMILES IDX 3 14 4 15 91 16 5 17 8 18 6 19 7 20 9 21 11 22 10 23 97 24
REMARK SMILES IDX 92 25 96 26 93 27 94 28 95 29 2 30 1 31 23 32 24 33 25 34
REMARK SMILES IDX 26 35 27 37 28 38 29 39 90 40 30 41 89 42 31 43 32 44 33 45
REMARK SMILES IDX 83 46 34 47 88 48 82 49 84 50 35 51 87 52 81 53 80 54 36 56
REMARK SMILES IDX 68 57 48 58 67 59 49 60 52 61 66 62 85 63 50 64 51 65 65 67
REMARK SMILES IDX 86 68 53 69 37 70 38 71 46 72 39 73 41 74 47 75 40 76 42 77
REMARK SMILES IDX 43 78 44 79 45 80 69 81 70 82 78 83 71 84 73 85 79 86 72 87
REMARK SMILES IDX 74 88 75 89 76 90 77 91 54 92 55 93 63 94 56 95 58 96 64 97
REMARK SMILES IDX 57 98 59 99 60 100 61 101 62 102
REMARK H PARENT 21 5 17 10 25 36 84 55 52 66
REMARK Flexibility Score: inf
ROOT
ATOM      1  C   UNL     1       3.424  -1.683   0.401  1.00  0.00     0.117 C 
ENDROOT
BRANCH   1   2
ATOM      2  N   UNL     1       3.532  -1.004   1.674  1.00  0.00    -0.355 N 
ATOM      3  C   UNL     1       3.596   0.342   1.906  1.00  0.00     0.239 C 
ATOM      4  O   UNL     1       3.384   0.738   3.056  1.00  0.00    -0.273 OA
ATOM      5  H   UNL     1       3.564  -1.582   2.471  1.00  0.00     0.163 HD
BRANCH   3   6
ATOM      6  C   UNL     1       3.764   1.343   0.750  1.00  0.00     0.216 C 
BRANCH   6   7
ATOM      7  N   UNL     1       4.888   1.082  -0.128  1.00  0.00    -0.344 N 
ATOM      8  C   UNL     1       4.975   1.273  -1.474  1.00  0.00     0.258 C 
ATOM      9  O   UNL     1       6.094   1.256  -1.988  1.00  0.00    -0.271 OA
ATOM     10  H   UNL     1       5.694   0.719   0.305  1.00  0.00     0.164 HD
BRANCH   8  11
ATOM     11  C   UNL     1       3.713   1.532  -2.325  1.00  0.00     0.329 C 
BRANCH  11  12
ATOM     12  O   UNL     1       2.698   0.535  -2.387  1.00  0.00    -0.483 OA
BRANCH  12  13
ATOM     13  C   UNL     1       2.987  -0.696  -2.931  1.00  0.00     0.135 A 
ATOM     14  C   UNL     1       0.652  -1.598  -2.238  1.00  0.00    -0.026 A 
ATOM     15  C   UNL     1      -0.113  -2.697  -2.129  1.00  0.00     0.098 A 
ATOM     16  C   UNL     1       2.025  -1.730  -2.799  1.00  0.00     0.063 A 
ATOM     17  C   UNL     1       0.293  -4.037  -2.553  1.00  0.00     0.336 A 
ATOM     18  C   UNL     1       2.433  -3.026  -3.184  1.00  0.00     0.149 A 
ATOM     19  O   UNL     1      -0.493  -4.974  -2.486  1.00  0.00    -0.246 OA
ATOM     20  O   UNL     1       1.570  -4.144  -3.053  1.00  0.00    -0.422 OA
ATOM     21  C   UNL     1       3.718  -3.321  -3.672  1.00  0.00     0.038 A 
ATOM     22  C   UNL     1       4.238  -0.977  -3.503  1.00  0.00     0.094 A 
ATOM     23  C   UNL     1       4.619  -2.279  -3.810  1.00  0.00     0.130 A 
ATOM     24  C   UNL     1       4.157  -4.731  -3.923  1.00  0.00     0.047 C 
ATOM     25  O   UNL     1       5.920  -2.434  -4.194  1.00  0.00    -0.487 OA
ATOM     26  C   UNL     1       5.496  -4.796  -4.643  1.00  0.00     0.053 C 
ATOM     27  C   UNL     1       6.481  -3.757  -4.091  1.00  0.00     0.104 C 
ATOM     28  C   UNL     1       7.743  -3.740  -4.963  1.00  0.00     0.056 C 
ATOM     29  C   UNL     1       6.912  -4.031  -2.639  1.00  0.00     0.056 C 
BRANCH  14  30
ATOM     30  C   UNL     1       0.035  -0.281  -1.827  1.00  0.00     0.033 C 
ATOM     31  C   UNL     1       0.231   0.018  -0.348  1.00  0.00     0.009 C 
ENDBRANCH  14  30
ENDBRANCH  12  13
ENDBRANCH  11  12
ENDBRANCH   8  11
ENDBRANCH   6   7
ENDBRANCH   3   6
ENDBRANCH   1   2
BRANCH   1  32
ATOM     32  C   UNL     1       4.552  -2.660   0.129  1.00  0.00     0.042 C 
BRANCH  32  33
ATOM     33  C   UNL     1       4.387  -4.021   0.793  1.00  0.00     0.118 C 
BRANCH  33  34
ATOM     34  N   UNL     1       3.274  -4.812   0.272  1.00  0.00    -0.352 N 
ATOM     35  C   UNL     1       3.212  -6.033  -0.361  1.00  0.00     0.251 C 
ATOM     36  H   UNL     1       2.395  -4.388   0.400  1.00  0.00     0.163 HD
ATOM     37  O   UNL     1       2.110  -6.447  -0.718  1.00  0.00    -0.269 OA
BRANCH  35  38
ATOM     38  C   UNL     1       4.419  -6.837  -0.674  1.00  0.00     0.039 A 
ATOM     39  C   UNL     1       4.449  -7.577  -1.870  1.00  0.00     0.014 A 
ATOM     40  C   UNL     1       5.513  -6.893   0.182  1.00  0.00     0.014 A 
ATOM     41  C   UNL     1       5.602  -8.271  -2.253  1.00  0.00     0.010 A 
ATOM     42  C   UNL     1       6.685  -7.519  -0.227  1.00  0.00     0.010 A 
ATOM     43  C   UNL     1       6.737  -8.225  -1.440  1.00  0.00    -0.014 A 
BRANCH  43  44
ATOM     44  C   UNL     1       7.968  -8.998  -1.732  1.00  0.00     0.031 A 
ATOM     45  C   UNL     1       8.326 -10.130  -0.814  1.00  0.00     0.074 A 
ATOM     46  C   UNL     1       8.830  -8.598  -2.684  1.00  0.00     0.049 A 
ATOM     47  N   UNL     1       9.438 -10.807  -0.730  1.00  0.00    -0.248 NA
ATOM     48  C   UNL     1       7.302 -10.520   0.171  1.00  0.00     0.031 C 
ATOM     49  C   UNL     1       8.609  -7.492  -3.610  1.00  0.00     0.029 A 
ATOM     50  N   UNL     1      10.098  -9.033  -2.983  1.00  0.00    -0.354 N 
ATOM     51  C   UNL     1       9.265 -11.675   0.339  1.00  0.00     0.074 A 
ATOM     52  C   UNL     1       7.960 -11.404   0.903  1.00  0.00     0.031 C 
ATOM     53  C   UNL     1       9.728  -7.280  -4.321  1.00  0.00     0.029 A 
ATOM     54  C   UNL     1      10.747  -8.234  -3.897  1.00  0.00     0.049 A 
ATOM     55  H   UNL     1      10.503  -9.836  -2.583  1.00  0.00     0.167 HD
ATOM     56  C   UNL     1      10.101 -12.637   0.791  1.00  0.00     0.034 A 
ATOM     57  C   UNL     1      12.023  -8.253  -4.328  1.00  0.00     0.034 A 
ATOM     58  C   UNL     1      11.376 -12.925   0.198  1.00  0.00     0.049 A 
ATOM     59  C   UNL     1      12.936  -9.341  -3.833  1.00  0.00     0.074 A 
ATOM     60  C   UNL     1      12.257 -13.946   0.498  1.00  0.00     0.029 A 
ATOM     61  N   UNL     1      11.957 -12.177  -0.816  1.00  0.00    -0.354 N 
ATOM     62  N   UNL     1      12.694 -10.272  -2.942  1.00  0.00    -0.248 NA
ATOM     63  C   UNL     1      14.272  -9.419  -4.439  1.00  0.00     0.031 C 
ATOM     64  C   UNL     1      13.381 -13.804  -0.324  1.00  0.00     0.029 A 
ATOM     65  C   UNL     1      13.191 -12.705  -1.149  1.00  0.00     0.049 A 
ATOM     66  H   UNL     1      11.550 -11.385  -1.238  1.00  0.00     0.167 HD
ATOM     67  C   UNL     1      13.828 -11.075  -2.912  1.00  0.00     0.074 A 
ATOM     68  C   UNL     1      14.754 -10.522  -3.880  1.00  0.00     0.031 C 
ATOM     69  C   UNL     1      14.078 -12.170  -2.151  1.00  0.00     0.034 A 
BRANCH  56  70
ATOM     70  C   UNL     1       9.620 -13.465   1.951  1.00  0.00     0.023 A 
ATOM     71  C   UNL     1       8.555 -14.372   1.761  1.00  0.00     0.012 A 
ATOM     72  C   UNL     1      10.193 -13.331   3.228  1.00  0.00     0.148 A 
ATOM     73  C   UNL     1       8.032 -15.089   2.836  1.00  0.00     0.002 A 
ATOM     74  C   UNL     1       9.696 -14.084   4.286  1.00  0.00     0.091 A 
ATOM     75  F   UNL     1      11.183 -12.442   3.399  1.00  0.00    -0.205 F 
ATOM     76  C   UNL     1       8.607 -14.950   4.095  1.00  0.00     0.022 A 
BRANCH  74  77
ATOM     77  S   UNL     1      10.419 -14.021   5.928  1.00  0.00     0.127 S 
ATOM     78  O   UNL     1       9.471 -13.162   6.636  1.00  0.00    -0.237 OA
ATOM     79  O   UNL     1      10.390 -15.426   6.336  1.00  0.00    -0.237 OA
ATOM     80  O   UNL     1      11.757 -13.475   5.749  1.00  0.00    -0.744 OA
ENDBRANCH  74  77
ENDBRANCH  56  70
BRANCH  57  81
ATOM     81  C   UNL     1      12.478  -7.250  -5.332  1.00  0.00     0.023 A 
ATOM     82  C   UNL     1      12.660  -7.648  -6.671  1.00  0.00     0.012 A 
ATOM     83  C   UNL     1      12.668  -5.898  -4.984  1.00  0.00     0.148 A 
ATOM     84  C   UNL     1      13.045  -6.722  -7.642  1.00  0.00     0.002 A 
ATOM     85  C   UNL     1      13.010  -4.973  -5.965  1.00  0.00     0.091 A 
ATOM     86  F   UNL     1      12.488  -5.542  -3.704  1.00  0.00    -0.205 F 
ATOM     87  C   UNL     1      13.211  -5.385  -7.291  1.00  0.00     0.022 A 
BRANCH  85  88
ATOM     88  S   UNL     1      13.139  -3.210  -5.638  1.00  0.00     0.127 S 
ATOM     89  O   UNL     1      14.558  -2.964  -5.882  1.00  0.00    -0.237 OA
ATOM     90  O   UNL     1      12.235  -2.655  -6.646  1.00  0.00    -0.237 OA
ATOM     91  O   UNL     1      12.697  -3.030  -4.262  1.00  0.00    -0.744 OA
ENDBRANCH  85  88
ENDBRANCH  57  81
BRANCH  69  92
ATOM     92  C   UNL     1      15.392 -12.874  -2.354  1.00  0.00     0.023 A 
ATOM     93  C   UNL     1      16.578 -12.303  -1.853  1.00  0.00     0.012 A 
ATOM     94  C   UNL     1      15.435 -14.146  -2.958  1.00  0.00     0.148 A 
ATOM     95  C   UNL     1      17.792 -12.978  -1.971  1.00  0.00     0.002 A 
ATOM     96  C   UNL     1      16.640 -14.834  -3.028  1.00  0.00     0.091 A 
ATOM     97  F   UNL     1      14.298 -14.661  -3.448  1.00  0.00    -0.205 F 
ATOM     98  C   UNL     1      17.821 -14.248  -2.544  1.00  0.00     0.022 A 
BRANCH  96  99
ATOM     99  S   UNL     1      16.749 -16.513  -3.657  1.00  0.00     0.127 S 
ATOM    100  O   UNL     1      17.363 -16.302  -4.966  1.00  0.00    -0.237 OA
ATOM    101  O   UNL     1      17.619 -17.159  -2.673  1.00  0.00    -0.237 OA
ATOM    102  O   UNL     1      15.384 -17.021  -3.678  1.00  0.00    -0.744 OA
ENDBRANCH  96  99
ENDBRANCH  69  92
ENDBRANCH  43  44
ENDBRANCH  35  38
ENDBRANCH  33  34
ENDBRANCH  32  33
ENDBRANCH   1  32
TORSDOF 18
