REMARK SMILES O=C(CCc1ccccc1)Nc1ccccc1Oc1ccsc1C(=O)NCCCNC(=O)c1ccc(-c2c3nc(c(-c4cccc(S(=O)(=O)[O-])c4F)c4ccc([nH]4)c(-c4cccc(S(=O)(=O)[O-])c4F)c4nc(c(-c5cccc(S(=O)(=O)[O-])c5F)c5ccc2[nH]5)C=C4)C=C3)cc1
REMARK SMILES IDX 24 1 25 2 26 3 23 5 19 6 20 7 21 8 22 9 18 10 17 11 12 12
REMARK SMILES IDX 13 13 14 14 16 15 15 16 11 17 1 18 2 19 3 21 4 22 5 23 6 24
REMARK SMILES IDX 10 25 7 26 9 27 8 28 27 29 28 30 29 31 30 32 31 33 32 35
REMARK SMILES IDX 33 36 34 37 95 38 35 39 94 40 36 41 37 42 38 43 88 44 39 45
REMARK SMILES IDX 93 46 87 47 89 48 40 49 92 50 86 51 85 52 41 54 73 55 53 56
REMARK SMILES IDX 72 57 54 58 57 59 71 60 90 61 55 62 56 63 70 65 91 66 58 67
REMARK SMILES IDX 42 68 43 69 51 70 44 71 46 72 52 73 45 74 47 75 48 76 49 77
REMARK SMILES IDX 50 78 74 79 75 80 83 81 76 82 78 83 84 84 77 85 79 86 80 87
REMARK SMILES IDX 81 88 82 89 59 90 60 91 68 92 61 93 63 94 69 95 62 96 64 97
REMARK SMILES IDX 65 98 66 99 67 100
REMARK H PARENT 26 4 11 20 30 34 89 53 57 64
REMARK Flexibility Score: inf
ROOT
ATOM      1  C   UNL     1      -1.157  -0.689  -1.319  1.00  0.00     0.265 C 
ATOM      2  O   UNL     1      -1.876  -0.177  -2.190  1.00  0.00    -0.268 OA
ATOM      3  N   UNL     1      -1.780  -0.783  -0.088  1.00  0.00    -0.351 N 
ATOM      4  H   UNL     1      -2.707  -0.454  -0.043  1.00  0.00     0.163 HD
ENDROOT
BRANCH   1   5
ATOM      5  C   UNL     1       0.224  -1.139  -1.601  1.00  0.00     0.135 A 
ATOM      6  C   UNL     1       1.202  -1.911  -0.968  1.00  0.00     0.151 A 
ATOM      7  C   UNL     1       2.398  -2.066  -1.734  1.00  0.00     0.059 A 
ATOM      8  C   UNL     1       2.346  -1.385  -2.924  1.00  0.00     0.069 A 
ATOM      9  S   UNL     1       0.865  -0.576  -3.128  1.00  0.00    -0.135 S 
BRANCH   6  10
ATOM     10  O   UNL     1       0.996  -2.628   0.153  1.00  0.00    -0.453 OA
BRANCH  10  11
ATOM     11  C   UNL     1       1.577  -2.432   1.393  1.00  0.00     0.151 A 
ATOM     12  C   UNL     1       2.354  -1.374   1.898  1.00  0.00     0.084 A 
ATOM     13  C   UNL     1       2.727  -1.401   3.259  1.00  0.00     0.030 A 
ATOM     14  C   UNL     1       2.278  -2.398   4.126  1.00  0.00     0.002 A 
ATOM     15  C   UNL     1       1.170  -3.454   2.280  1.00  0.00     0.049 A 
ATOM     16  C   UNL     1       1.496  -3.430   3.635  1.00  0.00     0.004 A 
BRANCH  12  17
ATOM     17  N   UNL     1       2.886  -0.281   1.187  1.00  0.00    -0.323 N 
ATOM     18  O   UNL     1       1.032   0.906   0.497  1.00  0.00    -0.275 OA
ATOM     19  C   UNL     1       2.227   0.640   0.406  1.00  0.00     0.224 C 
ATOM     20  H   UNL     1       3.860  -0.159   1.258  1.00  0.00     0.170 HD
BRANCH  19  21
ATOM     21  C   UNL     1       3.099   1.307  -0.658  1.00  0.00     0.105 C 
BRANCH  21  22
ATOM     22  C   UNL     1       4.259   2.192  -0.208  1.00  0.00     0.045 C 
BRANCH  22  23
ATOM     23  C   UNL     1       5.322   1.528   0.636  1.00  0.00    -0.048 A 
ATOM     24  C   UNL     1       5.758   0.213   0.403  1.00  0.00     0.004 A 
ATOM     25  C   UNL     1       5.831   2.219   1.744  1.00  0.00     0.004 A 
ATOM     26  C   UNL     1       6.544  -0.446   1.350  1.00  0.00     0.000 A 
ATOM     27  C   UNL     1       6.652   1.572   2.665  1.00  0.00     0.000 A 
ATOM     28  C   UNL     1       6.977   0.230   2.488  1.00  0.00     0.000 A 
ENDBRANCH  22  23
ENDBRANCH  21  22
ENDBRANCH  19  21
ENDBRANCH  12  17
ENDBRANCH  10  11
ENDBRANCH   6  10
ENDBRANCH   1   5
BRANCH   3  29
ATOM     29  C   UNL     1      -1.235  -1.304   1.127  1.00  0.00     0.118 C 
BRANCH  29  30
ATOM     30  C   UNL     1      -1.728  -0.765   2.448  1.00  0.00     0.042 C 
BRANCH  30  31
ATOM     31  C   UNL     1      -3.179  -1.042   2.758  1.00  0.00     0.118 C 
BRANCH  31  32
ATOM     32  N   UNL     1      -3.509  -2.461   2.834  1.00  0.00    -0.352 N 
ATOM     33  C   UNL     1      -3.751  -3.307   3.890  1.00  0.00     0.251 C 
ATOM     34  H   UNL     1      -3.570  -2.900   1.955  1.00  0.00     0.163 HD
ATOM     35  O   UNL     1      -3.896  -4.508   3.659  1.00  0.00    -0.269 OA
BRANCH  33  36
ATOM     36  C   UNL     1      -3.804  -2.826   5.293  1.00  0.00     0.039 A 
ATOM     37  C   UNL     1      -3.385  -3.682   6.320  1.00  0.00     0.014 A 
ATOM     38  C   UNL     1      -4.280  -1.562   5.627  1.00  0.00     0.014 A 
ATOM     39  C   UNL     1      -3.367  -3.234   7.646  1.00  0.00     0.010 A 
ATOM     40  C   UNL     1      -4.117  -1.066   6.915  1.00  0.00     0.010 A 
ATOM     41  C   UNL     1      -3.684  -1.901   7.951  1.00  0.00    -0.014 A 
BRANCH  41  42
ATOM     42  C   UNL     1      -3.597  -1.363   9.335  1.00  0.00     0.031 A 
ATOM     43  C   UNL     1      -4.805  -0.730   9.983  1.00  0.00     0.074 A 
ATOM     44  C   UNL     1      -2.411  -1.355   9.977  1.00  0.00     0.049 A 
ATOM     45  N   UNL     1      -4.904  -0.139  11.146  1.00  0.00    -0.248 NA
ATOM     46  C   UNL     1      -6.059  -0.723   9.207  1.00  0.00     0.031 C 
ATOM     47  C   UNL     1      -1.146  -1.848   9.427  1.00  0.00     0.029 A 
ATOM     48  N   UNL     1      -2.068  -0.891  11.223  1.00  0.00    -0.354 N 
ATOM     49  C   UNL     1      -6.205   0.348  11.218  1.00  0.00     0.074 A 
ATOM     50  C   UNL     1      -6.845   0.028   9.963  1.00  0.00     0.031 C 
ATOM     51  C   UNL     1      -0.173  -1.680  10.336  1.00  0.00     0.029 A 
ATOM     52  C   UNL     1      -0.731  -1.030  11.516  1.00  0.00     0.049 A 
ATOM     53  H   UNL     1      -2.718  -0.496  11.848  1.00  0.00     0.167 HD
ATOM     54  C   UNL     1      -6.827   0.972  12.246  1.00  0.00     0.034 A 
ATOM     55  C   UNL     1      -0.030  -0.667  12.609  1.00  0.00     0.034 A 
ATOM     56  C   UNL     1      -6.205   1.237  13.515  1.00  0.00     0.049 A 
ATOM     57  C   UNL     1      -0.756  -0.024  13.759  1.00  0.00     0.074 A 
ATOM     58  C   UNL     1      -6.775   1.769  14.657  1.00  0.00     0.029 A 
ATOM     59  N   UNL     1      -4.872   0.997  13.806  1.00  0.00    -0.354 N 
ATOM     60  N   UNL     1      -2.027   0.278  13.868  1.00  0.00    -0.248 NA
ATOM     61  C   UNL     1       0.041   0.295  14.952  1.00  0.00     0.031 C 
ATOM     62  C   UNL     1      -5.777   1.881  15.630  1.00  0.00     0.029 A 
ATOM     63  C   UNL     1      -4.595   1.382  15.106  1.00  0.00     0.049 A 
ATOM     64  H   UNL     1      -4.218   0.609  13.181  1.00  0.00     0.167 HD
ATOM     65  C   UNL     1      -2.189   0.790  15.151  1.00  0.00     0.074 A 
ATOM     66  C   UNL     1      -0.890   0.733  15.789  1.00  0.00     0.031 C 
ATOM     67  C   UNL     1      -3.308   1.276  15.743  1.00  0.00     0.034 A 
BRANCH  54  68
ATOM     68  C   UNL     1      -8.272   1.362  12.062  1.00  0.00     0.023 A 
ATOM     69  C   UNL     1      -9.263   0.361  11.986  1.00  0.00     0.012 A 
ATOM     70  C   UNL     1      -8.656   2.716  12.017  1.00  0.00     0.148 A 
ATOM     71  C   UNL     1     -10.606   0.699  11.826  1.00  0.00     0.002 A 
ATOM     72  C   UNL     1     -10.002   3.047  11.909  1.00  0.00     0.091 A 
ATOM     73  F   UNL     1      -7.700   3.655  12.071  1.00  0.00    -0.205 F 
ATOM     74  C   UNL     1     -10.976   2.041  11.799  1.00  0.00     0.022 A 
BRANCH  72  75
ATOM     75  S   UNL     1     -10.594   4.742  11.950  1.00  0.00     0.127 S 
ATOM     76  O   UNL     1     -11.061   4.926  10.578  1.00  0.00    -0.237 OA
ATOM     77  O   UNL     1     -11.655   4.672  12.953  1.00  0.00    -0.237 OA
ATOM     78  O   UNL     1      -9.447   5.559  12.333  1.00  0.00    -0.744 OA
ENDBRANCH  72  75
ENDBRANCH  54  68
BRANCH  55  79
ATOM     79  C   UNL     1       1.429  -0.965  12.692  1.00  0.00     0.023 A 
ATOM     80  C   UNL     1       1.886  -1.941  13.600  1.00  0.00     0.012 A 
ATOM     81  C   UNL     1       2.361  -0.309  11.864  1.00  0.00     0.148 A 
ATOM     82  C   UNL     1       3.247  -2.231  13.707  1.00  0.00     0.002 A 
ATOM     83  C   UNL     1       3.708  -0.646  11.934  1.00  0.00     0.091 A 
ATOM     84  F   UNL     1       1.908   0.622  11.012  1.00  0.00    -0.205 F 
ATOM     85  C   UNL     1       4.155  -1.592  12.869  1.00  0.00     0.022 A 
BRANCH  83  86
ATOM     86  S   UNL     1       4.928   0.023  10.799  1.00  0.00     0.127 S 
ATOM     87  O   UNL     1       5.724   0.873  11.681  1.00  0.00    -0.237 OA
ATOM     88  O   UNL     1       5.606  -1.189  10.335  1.00  0.00    -0.237 OA
ATOM     89  O   UNL     1       4.171   0.716   9.766  1.00  0.00    -0.744 OA
ENDBRANCH  83  86
ENDBRANCH  55  79
BRANCH  67  90
ATOM     90  C   UNL     1      -3.193   1.752  17.167  1.00  0.00     0.023 A 
ATOM     91  C   UNL     1      -2.502   2.945  17.457  1.00  0.00     0.012 A 
ATOM     92  C   UNL     1      -3.833   1.053  18.209  1.00  0.00     0.148 A 
ATOM     93  C   UNL     1      -2.417   3.414  18.768  1.00  0.00     0.002 A 
ATOM     94  C   UNL     1      -3.790   1.554  19.504  1.00  0.00     0.091 A 
ATOM     95  F   UNL     1      -4.472  -0.089  17.915  1.00  0.00    -0.205 F 
ATOM     96  C   UNL     1      -3.071   2.726  19.788  1.00  0.00     0.022 A 
BRANCH  94  97
ATOM     97  S   UNL     1      -4.684   0.792  20.862  1.00  0.00     0.127 S 
ATOM     98  O   UNL     1      -3.594   0.222  21.653  1.00  0.00    -0.237 OA
ATOM     99  O   UNL     1      -5.349   1.940  21.478  1.00  0.00    -0.237 OA
ATOM    100  O   UNL     1      -5.588  -0.177  20.256  1.00  0.00    -0.744 OA
ENDBRANCH  94  97
ENDBRANCH  67  90
ENDBRANCH  41  42
ENDBRANCH  33  36
ENDBRANCH  31  32
ENDBRANCH  30  31
ENDBRANCH  29  30
ENDBRANCH   3  29
TORSDOF 19
