REMARK SMILES C[C@@H](C(=O)NCCCNC(=O)c1ccc(-c2c3nc(c(-c4cccc(S(=O)(=O)[O-])c4F)c4ccc([nH]4)c(-c4cccc(S(=O)(=O)[O-])c4F)c4nc(c(-c5cccc(S(=O)(=O)[O-])c5F)c5ccc2[nH]5)C=C4)C=C3)cc1)c1cc(C(=O)c2ccccc2)ccc1O
REMARK SMILES IDX 7 1 6 2 5 3 3 4 4 5 2 7 1 8 75 9 76 10 88 11 77 12 87 13
REMARK SMILES IDX 86 14 89 15 78 17 79 18 80 19 81 20 85 21 82 22 84 23 83 24
REMARK SMILES IDX 8 25 9 26 10 27 11 29 12 30 13 31 74 32 14 33 73 34 15 35
REMARK SMILES IDX 16 36 17 37 67 38 18 39 72 40 66 41 68 42 19 43 71 44 65 45
REMARK SMILES IDX 64 46 20 48 52 49 32 50 51 51 33 52 36 53 50 54 69 55 34 56
REMARK SMILES IDX 35 57 49 59 70 60 37 61 21 62 22 63 30 64 23 65 25 66 31 67
REMARK SMILES IDX 24 68 26 69 27 70 28 71 29 72 53 73 54 74 62 75 55 76 57 77
REMARK SMILES IDX 63 78 56 79 58 80 59 81 60 82 61 83 38 84 39 85 47 86 40 87
REMARK SMILES IDX 42 88 48 89 41 90 43 91 44 92 45 93 46 94
REMARK H PARENT 5 6 89 16 9 28 68 47 36 58
REMARK Flexibility Score: inf
ROOT
ATOM      1  C   UNL     1       4.353   1.359  -0.123  1.00  0.00     0.042 C 
ENDROOT
BRANCH   1   2
ATOM      2  C   UNL     1       3.436   1.644   1.067  1.00  0.00     0.117 C 
BRANCH   2   3
ATOM      3  N   UNL     1       2.374   2.573   0.725  1.00  0.00    -0.356 N 
ATOM      4  C   UNL     1       1.069   2.348   0.390  1.00  0.00     0.227 C 
ATOM      5  O   UNL     1       0.484   3.284  -0.155  1.00  0.00    -0.274 OA
ATOM      6  H   UNL     1       2.638   3.521   0.736  1.00  0.00     0.163 HD
BRANCH   4   7
ATOM      7  C   UNL     1       0.430   0.971   0.650  1.00  0.00     0.109 C 
ATOM      8  C   UNL     1       0.776   0.114  -0.581  1.00  0.00     0.023 C 
BRANCH   7   9
ATOM      9  C   UNL     1      -1.082   0.951   0.946  1.00  0.00     0.007 A 
ATOM     10  C   UNL     1      -1.833   2.131   1.141  1.00  0.00     0.020 A 
ATOM     11  C   UNL     1      -1.799  -0.257   1.034  1.00  0.00     0.119 A 
ATOM     12  C   UNL     1      -3.234   2.112   1.276  1.00  0.00     0.023 A 
ATOM     13  C   UNL     1      -3.191  -0.287   1.100  1.00  0.00     0.047 A 
ATOM     14  C   UNL     1      -3.913   0.896   1.187  1.00  0.00     0.016 A 
BRANCH  11  15
ATOM     15  O   UNL     1      -1.206  -1.486   1.092  1.00  0.00    -0.508 OA
ATOM     16  H   UNL     1      -0.273  -1.559   1.054  1.00  0.00     0.293 HD
ENDBRANCH  11  15
BRANCH  12  17
ATOM     17  C   UNL     1      -3.959   3.405   1.473  1.00  0.00     0.193 C 
ATOM     18  O   UNL     1      -3.406   4.477   1.250  1.00  0.00    -0.289 OA
BRANCH  17  19
ATOM     19  C   UNL     1      -5.365   3.435   1.938  1.00  0.00     0.022 A 
ATOM     20  C   UNL     1      -6.277   4.244   1.252  1.00  0.00     0.012 A 
ATOM     21  C   UNL     1      -5.781   2.693   3.050  1.00  0.00     0.012 A 
ATOM     22  C   UNL     1      -7.615   4.269   1.646  1.00  0.00     0.001 A 
ATOM     23  C   UNL     1      -7.122   2.717   3.436  1.00  0.00     0.001 A 
ATOM     24  C   UNL     1      -8.038   3.498   2.730  1.00  0.00     0.000 A 
ENDBRANCH  17  19
ENDBRANCH  12  17
ENDBRANCH   7   9
ENDBRANCH   4   7
ENDBRANCH   2   3
ENDBRANCH   1   2
BRANCH   1  25
ATOM     25  C   UNL     1       5.063   2.586  -0.689  1.00  0.00     0.118 C 
BRANCH  25  26
ATOM     26  N   UNL     1       6.026   3.154   0.242  1.00  0.00    -0.352 N 
ATOM     27  C   UNL     1       7.388   3.295   0.119  1.00  0.00     0.251 C 
ATOM     28  H   UNL     1       5.646   3.487   1.086  1.00  0.00     0.163 HD
ATOM     29  O   UNL     1       8.051   3.624   1.098  1.00  0.00    -0.269 OA
BRANCH  27  30
ATOM     30  C   UNL     1       8.058   3.033  -1.176  1.00  0.00     0.039 A 
ATOM     31  C   UNL     1       9.255   2.311  -1.180  1.00  0.00     0.014 A 
ATOM     32  C   UNL     1       7.526   3.505  -2.378  1.00  0.00     0.014 A 
ATOM     33  C   UNL     1       9.878   2.003  -2.393  1.00  0.00     0.010 A 
ATOM     34  C   UNL     1       8.105   3.131  -3.589  1.00  0.00     0.010 A 
ATOM     35  C   UNL     1       9.288   2.376  -3.612  1.00  0.00    -0.014 A 
BRANCH  35  36
ATOM     36  C   UNL     1       9.873   1.963  -4.915  1.00  0.00     0.031 A 
ATOM     37  C   UNL     1      10.343   2.998  -5.903  1.00  0.00     0.074 A 
ATOM     38  C   UNL     1       9.892   0.657  -5.251  1.00  0.00     0.049 A 
ATOM     39  N   UNL     1      10.809   2.829  -7.114  1.00  0.00    -0.248 NA
ATOM     40  C   UNL     1      10.256   4.408  -5.487  1.00  0.00     0.031 C 
ATOM     41  C   UNL     1       9.400  -0.439  -4.412  1.00  0.00     0.029 A 
ATOM     42  N   UNL     1      10.311   0.030  -6.399  1.00  0.00    -0.354 N 
ATOM     43  C   UNL     1      11.027   4.105  -7.620  1.00  0.00     0.074 A 
ATOM     44  C   UNL     1      10.626   5.040  -6.592  1.00  0.00     0.031 C 
ATOM     45  C   UNL     1       9.540  -1.598  -5.074  1.00  0.00     0.029 A 
ATOM     46  C   UNL     1      10.095  -1.329  -6.397  1.00  0.00     0.049 A 
ATOM     47  H   UNL     1      10.726   0.508  -7.153  1.00  0.00     0.167 HD
ATOM     48  C   UNL     1      11.535   4.465  -8.823  1.00  0.00     0.034 A 
ATOM     49  C   UNL     1      10.298  -2.253  -7.357  1.00  0.00     0.034 A 
ATOM     50  C   UNL     1      11.973   3.532  -9.826  1.00  0.00     0.049 A 
ATOM     51  C   UNL     1      10.885  -1.825  -8.675  1.00  0.00     0.074 A 
ATOM     52  C   UNL     1      12.601   3.799 -11.030  1.00  0.00     0.029 A 
ATOM     53  N   UNL     1      11.810   2.158  -9.756  1.00  0.00    -0.354 N 
ATOM     54  N   UNL     1      11.251  -0.628  -9.065  1.00  0.00    -0.248 NA
ATOM     55  C   UNL     1      11.117  -2.878  -9.675  1.00  0.00     0.031 C 
ATOM     56  C   UNL     1      12.781   2.589 -11.707  1.00  0.00     0.029 A 
ATOM     57  C   UNL     1      12.302   1.565 -10.906  1.00  0.00     0.049 A 
ATOM     58  H   UNL     1      11.405   1.675  -9.000  1.00  0.00     0.167 HD
ATOM     59  C   UNL     1      11.787  -0.789 -10.337  1.00  0.00     0.074 A 
ATOM     60  C   UNL     1      11.720  -2.202 -10.644  1.00  0.00     0.031 C 
ATOM     61  C   UNL     1      12.279   0.151 -11.181  1.00  0.00     0.034 A 
BRANCH  48  62
ATOM     62  C   UNL     1      11.682   5.936  -9.118  1.00  0.00     0.023 A 
ATOM     63  C   UNL     1      12.671   6.689  -8.454  1.00  0.00     0.012 A 
ATOM     64  C   UNL     1      10.895   6.551 -10.112  1.00  0.00     0.148 A 
ATOM     65  C   UNL     1      12.854   8.039  -8.751  1.00  0.00     0.002 A 
ATOM     66  C   UNL     1      11.116   7.884 -10.437  1.00  0.00     0.091 A 
ATOM     67  F   UNL     1       9.948   5.822 -10.720  1.00  0.00    -0.205 F 
ATOM     68  C   UNL     1      12.085   8.632  -9.749  1.00  0.00     0.022 A 
BRANCH  66  69
ATOM     69  S   UNL     1      10.239   8.718 -11.764  1.00  0.00     0.127 S 
ATOM     70  O   UNL     1       9.415   9.670 -11.021  1.00  0.00    -0.237 OA
ATOM     71  O   UNL     1      11.335   9.322 -12.523  1.00  0.00    -0.237 OA
ATOM     72  O   UNL     1       9.505   7.681 -12.476  1.00  0.00    -0.744 OA
ENDBRANCH  66  69
ENDBRANCH  48  62
BRANCH  49  73
ATOM     73  C   UNL     1       9.977  -3.687  -7.097  1.00  0.00     0.023 A 
ATOM     74  C   UNL     1      11.023  -4.627  -7.008  1.00  0.00     0.012 A 
ATOM     75  C   UNL     1       8.648  -4.122  -6.932  1.00  0.00     0.148 A 
ATOM     76  C   UNL     1      10.748  -5.979  -6.799  1.00  0.00     0.002 A 
ATOM     77  C   UNL     1       8.385  -5.460  -6.665  1.00  0.00     0.091 A 
ATOM     78  F   UNL     1       7.665  -3.215  -7.032  1.00  0.00    -0.205 F 
ATOM     79  C   UNL     1       9.431  -6.394  -6.619  1.00  0.00     0.022 A 
BRANCH  77  80
ATOM     80  S   UNL     1       6.735  -6.059  -6.284  1.00  0.00     0.127 S 
ATOM     81  O   UNL     1       6.413  -6.831  -7.481  1.00  0.00    -0.237 OA
ATOM     82  O   UNL     1       6.973  -6.857  -5.081  1.00  0.00    -0.237 OA
ATOM     83  O   UNL     1       5.927  -4.867  -6.061  1.00  0.00    -0.744 OA
ENDBRANCH  77  80
ENDBRANCH  49  73
BRANCH  61  84
ATOM     84  C   UNL     1      12.825  -0.310 -12.507  1.00  0.00     0.023 A 
ATOM     85  C   UNL     1      11.946  -0.753 -13.515  1.00  0.00     0.012 A 
ATOM     86  C   UNL     1      14.204  -0.221 -12.782  1.00  0.00     0.148 A 
ATOM     87  C   UNL     1      12.434  -1.129 -14.766  1.00  0.00     0.002 A 
ATOM     88  C   UNL     1      14.677  -0.547 -14.047  1.00  0.00     0.091 A 
ATOM     89  F   UNL     1      15.025   0.188 -11.804  1.00  0.00    -0.205 F 
ATOM     90  C   UNL     1      13.796  -1.013 -15.036  1.00  0.00     0.022 A 
BRANCH  88  91
ATOM     91  S   UNL     1      16.398  -0.336 -14.519  1.00  0.00     0.127 S 
ATOM     92  O   UNL     1      16.836  -1.723 -14.674  1.00  0.00    -0.237 OA
ATOM     93  O   UNL     1      16.285   0.412 -15.771  1.00  0.00    -0.237 OA
ATOM     94  O   UNL     1      17.029   0.396 -13.430  1.00  0.00    -0.744 OA
ENDBRANCH  88  91
ENDBRANCH  61  84
ENDBRANCH  35  36
ENDBRANCH  27  30
ENDBRANCH  25  26
ENDBRANCH   1  25
TORSDOF 17
