REMARK SMILES CCCCCCNC(=O)Nc1cccc(-c2ccc([C@@H](C)C(=O)NCCCNC(=O)c3ccc(-c4c5nc(c(-c6cccc(S(=O)(=O)[O-])c6F)c6ccc([nH]6)c(-c6cccc(S(=O)(=O)[O-])c6F)c6nc(c(-c7cccc(S(=O)(=O)[O-])c7F)c7ccc4[nH]7)C=C6)C=C5)cc3)cc2F)c1
REMARK SMILES IDX 20 1 21 2 19 3 16 4 17 5 95 6 18 7 94 8 96 9 15 10 11 11
REMARK SMILES IDX 12 12 97 13 13 14 14 15 10 16 7 17 8 18 9 20 6 22 5 23 4 24
REMARK SMILES IDX 3 25 2 26 1 27 22 28 23 29 24 30 25 32 26 33 27 34 28 35
REMARK SMILES IDX 29 36 30 38 31 39 32 40 93 41 33 42 92 43 34 44 35 45 36 46
REMARK SMILES IDX 86 47 37 48 91 49 85 50 87 51 38 52 90 53 84 54 83 55 39 57
REMARK SMILES IDX 71 58 51 59 70 60 52 61 55 62 69 63 88 64 53 65 54 66 68 68
REMARK SMILES IDX 89 69 56 70 40 71 41 72 49 73 42 74 44 75 50 76 43 77 45 78
REMARK SMILES IDX 46 79 47 80 48 81 72 82 73 83 81 84 74 85 76 86 82 87 75 88
REMARK SMILES IDX 77 89 78 90 79 91 80 92 57 93 58 94 66 95 59 96 61 97 67 98
REMARK SMILES IDX 60 99 62 100 63 101 64 102 65 103
REMARK H PARENT 7 19 10 21 24 31 28 37 87 56 55 67
REMARK Flexibility Score: inf
ROOT
ATOM      1  C   UNL     1      -2.318   5.648   3.392  1.00  0.00     0.105 C 
ATOM      2  C   UNL     1      -3.314   5.635   4.550  1.00  0.00     0.023 C 
ENDROOT
BRANCH   1   3
ATOM      3  C   UNL     1      -2.865   5.091   2.088  1.00  0.00    -0.033 A 
ATOM      4  C   UNL     1      -3.896   4.108  -0.398  1.00  0.00     0.018 A 
ATOM      5  C   UNL     1      -3.916   3.331   0.771  1.00  0.00     0.012 A 
ATOM      6  C   UNL     1      -3.337   5.388  -0.287  1.00  0.00     0.131 A 
ATOM      7  C   UNL     1      -3.448   3.827   1.994  1.00  0.00     0.005 A 
ATOM      8  C   UNL     1      -2.813   5.866   0.921  1.00  0.00     0.044 A 
ATOM      9  F   UNL     1      -3.301   6.214  -1.344  1.00  0.00    -0.206 F 
BRANCH   4  10
ATOM     10  C   UNL     1      -4.430   3.562  -1.664  1.00  0.00    -0.013 A 
ATOM     11  C   UNL     1      -4.180   3.126  -4.057  1.00  0.00     0.043 A 
ATOM     12  C   UNL     1      -5.338   2.356  -4.053  1.00  0.00     0.026 A 
ATOM     13  C   UNL     1      -3.779   3.786  -2.889  1.00  0.00     0.035 A 
ATOM     14  C   UNL     1      -6.008   2.124  -2.857  1.00  0.00     0.003 A 
ATOM     15  C   UNL     1      -5.552   2.711  -1.676  1.00  0.00     0.009 A 
BRANCH  11  16
ATOM     16  N   UNL     1      -3.406   3.136  -5.227  1.00  0.00    -0.308 N 
ATOM     17  N   UNL     1      -1.202   2.795  -4.442  1.00  0.00    -0.338 N 
ATOM     18  C   UNL     1      -2.065   3.254  -5.384  1.00  0.00     0.319 C 
ATOM     19  H   UNL     1      -0.273   3.105  -4.537  1.00  0.00     0.165 HD
ATOM     20  O   UNL     1      -1.600   3.707  -6.433  1.00  0.00    -0.249 OA
ATOM     21  H   UNL     1      -3.917   3.043  -6.064  1.00  0.00     0.171 HD
BRANCH  17  22
ATOM     22  C   UNL     1      -1.449   1.910  -3.311  1.00  0.00     0.117 C 
BRANCH  22  23
ATOM     23  C   UNL     1      -0.502   0.718  -3.236  1.00  0.00     0.021 C 
BRANCH  23  24
ATOM     24  C   UNL     1       0.976   1.056  -3.041  1.00  0.00     0.002 C 
BRANCH  24  25
ATOM     25  C   UNL     1       1.312   1.954  -1.845  1.00  0.00    -0.000 C 
BRANCH  25  26
ATOM     26  C   UNL     1       0.767   1.494  -0.494  1.00  0.00    -0.003 C 
ATOM     27  C   UNL     1       1.193   0.086  -0.128  1.00  0.00     0.004 C 
ENDBRANCH  25  26
ENDBRANCH  24  25
ENDBRANCH  23  24
ENDBRANCH  22  23
ENDBRANCH  17  22
ENDBRANCH  11  16
ENDBRANCH   4  10
ENDBRANCH   1   3
BRANCH   1  28
ATOM     28  C   UNL     1      -0.902   5.176   3.750  1.00  0.00     0.227 C 
ATOM     29  O   UNL     1       0.058   5.941   3.584  1.00  0.00    -0.274 OA
ATOM     30  N   UNL     1      -0.603   3.959   4.278  1.00  0.00    -0.356 N 
ATOM     31  H   UNL     1       0.352   3.844   4.491  1.00  0.00     0.163 HD
BRANCH  30  32
ATOM     32  C   UNL     1      -1.414   2.798   4.587  1.00  0.00     0.117 C 
BRANCH  32  33
ATOM     33  C   UNL     1      -1.285   1.701   3.533  1.00  0.00     0.042 C 
BRANCH  33  34
ATOM     34  C   UNL     1      -0.052   0.821   3.703  1.00  0.00     0.118 C 
BRANCH  34  35
ATOM     35  N   UNL     1      -0.119  -0.016   4.894  1.00  0.00    -0.352 N 
ATOM     36  C   UNL     1      -0.201  -1.385   5.012  1.00  0.00     0.251 C 
ATOM     37  H   UNL     1      -0.104   0.474   5.748  1.00  0.00     0.163 HD
ATOM     38  O   UNL     1      -0.468  -1.878   6.104  1.00  0.00    -0.269 OA
BRANCH  36  39
ATOM     39  C   UNL     1       0.016  -2.263   3.838  1.00  0.00     0.039 A 
ATOM     40  C   UNL     1      -0.834  -3.354   3.636  1.00  0.00     0.014 A 
ATOM     41  C   UNL     1       1.070  -2.037   2.953  1.00  0.00     0.014 A 
ATOM     42  C   UNL     1      -0.678  -4.162   2.503  1.00  0.00     0.010 A 
ATOM     43  C   UNL     1       1.175  -2.798   1.787  1.00  0.00     0.010 A 
ATOM     44  C   UNL     1       0.298  -3.863   1.538  1.00  0.00    -0.014 A 
BRANCH  44  45
ATOM     45  C   UNL     1       0.399  -4.624   0.260  1.00  0.00     0.031 A 
ATOM     46  C   UNL     1       1.678  -5.326  -0.120  1.00  0.00     0.074 A 
ATOM     47  C   UNL     1      -0.631  -4.611  -0.613  1.00  0.00     0.049 A 
ATOM     48  N   UNL     1       1.972  -5.965  -1.223  1.00  0.00    -0.248 NA
ATOM     49  C   UNL     1       2.781  -5.280   0.854  1.00  0.00     0.031 C 
ATOM     50  C   UNL     1      -1.900  -3.906  -0.418  1.00  0.00     0.029 A 
ATOM     51  N   UNL     1      -0.764  -5.189  -1.853  1.00  0.00    -0.354 N 
ATOM     52  C   UNL     1       3.299  -6.360  -1.095  1.00  0.00     0.074 A 
ATOM     53  C   UNL     1       3.765  -5.856   0.179  1.00  0.00     0.031 C 
ATOM     54  C   UNL     1      -2.687  -4.109  -1.486  1.00  0.00     0.029 A 
ATOM     55  C   UNL     1      -1.967  -4.917  -2.465  1.00  0.00     0.049 A 
ATOM     56  H   UNL     1      -0.065  -5.745  -2.266  1.00  0.00     0.167 HD
ATOM     57  C   UNL     1       4.057  -7.100  -1.940  1.00  0.00     0.034 A 
ATOM     58  C   UNL     1      -2.433  -5.258  -3.683  1.00  0.00     0.034 A 
ATOM     59  C   UNL     1       3.586  -7.642  -3.186  1.00  0.00     0.049 A 
ATOM     60  C   UNL     1      -1.573  -6.079  -4.603  1.00  0.00     0.074 A 
ATOM     61  C   UNL     1       4.249  -8.487  -4.060  1.00  0.00     0.029 A 
ATOM     62  N   UNL     1       2.345  -7.385  -3.746  1.00  0.00    -0.354 N 
ATOM     63  N   UNL     1      -0.379  -6.574  -4.392  1.00  0.00    -0.248 NA
ATOM     64  C   UNL     1      -2.134  -6.406  -5.923  1.00  0.00     0.031 C 
ATOM     65  C   UNL     1       3.422  -8.712  -5.165  1.00  0.00     0.029 A 
ATOM     66  C   UNL     1       2.230  -8.036  -4.962  1.00  0.00     0.049 A 
ATOM     67  H   UNL     1       1.648  -6.822  -3.338  1.00  0.00     0.167 HD
ATOM     68  C   UNL     1      -0.059  -7.296  -5.536  1.00  0.00     0.074 A 
ATOM     69  C   UNL     1      -1.194  -7.193  -6.429  1.00  0.00     0.031 C 
ATOM     70  C   UNL     1       1.080  -7.971  -5.826  1.00  0.00     0.034 A 
BRANCH  57  71
ATOM     71  C   UNL     1       5.471  -7.412  -1.523  1.00  0.00     0.023 A 
ATOM     72  C   UNL     1       5.702  -8.308  -0.459  1.00  0.00     0.012 A 
ATOM     73  C   UNL     1       6.569  -6.870  -2.220  1.00  0.00     0.148 A 
ATOM     74  C   UNL     1       7.001  -8.629  -0.068  1.00  0.00     0.002 A 
ATOM     75  C   UNL     1       7.861  -7.232  -1.855  1.00  0.00     0.091 A 
ATOM     76  F   UNL     1       6.331  -6.008  -3.218  1.00  0.00    -0.205 F 
ATOM     77  C   UNL     1       8.079  -8.100  -0.772  1.00  0.00     0.022 A 
BRANCH  75  78
ATOM     78  S   UNL     1       9.315  -6.672  -2.750  1.00  0.00     0.127 S 
ATOM     79  O   UNL     1       9.928  -5.769  -1.777  1.00  0.00    -0.237 OA
ATOM     80  O   UNL     1      10.043  -7.923  -2.964  1.00  0.00    -0.237 OA
ATOM     81  O   UNL     1       8.821  -6.040  -3.964  1.00  0.00    -0.744 OA
ENDBRANCH  75  78
ENDBRANCH  57  71
BRANCH  58  82
ATOM     82  C   UNL     1      -3.798  -4.837  -4.109  1.00  0.00     0.023 A 
ATOM     83  C   UNL     1      -4.813  -5.800  -4.267  1.00  0.00     0.012 A 
ATOM     84  C   UNL     1      -4.090  -3.485  -4.359  1.00  0.00     0.148 A 
ATOM     85  C   UNL     1      -6.087  -5.425  -4.699  1.00  0.00     0.002 A 
ATOM     86  C   UNL     1      -5.374  -3.112  -4.734  1.00  0.00     0.091 A 
ATOM     87  F   UNL     1      -3.107  -2.587  -4.199  1.00  0.00    -0.205 F 
ATOM     88  C   UNL     1      -6.370  -4.081  -4.925  1.00  0.00     0.022 A 
BRANCH  86  89
ATOM     89  S   UNL     1      -5.848  -1.398  -4.938  1.00  0.00     0.127 S 
ATOM     90  O   UNL     1      -6.331  -1.367  -6.315  1.00  0.00    -0.237 OA
ATOM     91  O   UNL     1      -6.886  -1.247  -3.918  1.00  0.00    -0.237 OA
ATOM     92  O   UNL     1      -4.636  -0.629  -4.694  1.00  0.00    -0.744 OA
ENDBRANCH  86  89
ENDBRANCH  58  82
BRANCH  70  93
ATOM     93  C   UNL     1       1.153  -8.692  -7.146  1.00  0.00     0.023 A 
ATOM     94  C   UNL     1       1.292  -7.959  -8.341  1.00  0.00     0.012 A 
ATOM     95  C   UNL     1       1.161 -10.100  -7.193  1.00  0.00     0.148 A 
ATOM     96  C   UNL     1       1.411  -8.617  -9.565  1.00  0.00     0.002 A 
ATOM     97  C   UNL     1       1.331 -10.749  -8.410  1.00  0.00     0.091 A 
ATOM     98  F   UNL     1       1.009 -10.778  -6.046  1.00  0.00    -0.205 F 
ATOM     99  C   UNL     1       1.444 -10.009  -9.598  1.00  0.00     0.022 A 
BRANCH  97 100
ATOM    100  S   UNL     1       1.481 -12.534  -8.541  1.00  0.00     0.127 S 
ATOM    101  O   UNL     1       0.246 -12.886  -9.241  1.00  0.00    -0.237 OA
ATOM    102  O   UNL     1       2.698 -12.683  -9.338  1.00  0.00    -0.237 OA
ATOM    103  O   UNL     1       1.583 -13.033  -7.176  1.00  0.00    -0.744 OA
ENDBRANCH  97 100
ENDBRANCH  70  93
ENDBRANCH  44  45
ENDBRANCH  36  39
ENDBRANCH  34  35
ENDBRANCH  33  34
ENDBRANCH  32  33
ENDBRANCH  30  32
ENDBRANCH   1  28
TORSDOF 21
