REMARK SMILES CCC1(CC)C[NH+](C2(C(=O)NCCCNC(=O)c3ccc(-c4c5nc(c(-c6cccc(S(=O)(=O)[O-])c6F)c6ccc([nH]6)c(-c6cccc(S(=O)(=O)[O-])c6F)c6nc(c(-c7cccc(S(=O)(=O)[O-])c7F)c7ccc4[nH]7)C=C6)C=C5)cc3)CC2)C1
REMARK SMILES IDX 13 1 12 2 11 3 9 4 10 5 8 7 81 8 82 9 7 10 3 11 6 12 83 13
REMARK SMILES IDX 2 15 1 16 4 17 5 18 14 19 15 20 16 21 17 23 18 24 19 25
REMARK SMILES IDX 80 26 20 27 79 28 21 29 22 30 23 31 73 32 24 33 78 34 72 35
REMARK SMILES IDX 74 36 25 37 77 38 71 39 70 40 26 42 58 43 38 44 57 45 39 46
REMARK SMILES IDX 42 47 56 48 75 49 40 50 41 51 55 53 76 54 43 55 27 56 28 57
REMARK SMILES IDX 36 58 29 59 31 60 37 61 30 62 32 63 33 64 34 65 35 66 59 67
REMARK SMILES IDX 60 68 68 69 61 70 63 71 69 72 62 73 64 74 65 75 66 76 67 77
REMARK SMILES IDX 44 78 45 79 53 80 46 81 48 82 54 83 47 84 49 85 50 86 51 87
REMARK SMILES IDX 52 88
REMARK H PARENT 11 6 7 14 15 22 74 41 42 52
REMARK Flexibility Score: inf
ROOT
ATOM      1  C   UNL     1       1.348   6.386  -6.197  1.00  0.00     0.042 C 
ENDROOT
BRANCH   1   2
ATOM      2  C   UNL     1       2.619   5.814  -5.576  1.00  0.00     0.118 C 
BRANCH   2   3
ATOM      3  N   UNL     1       2.753   6.113  -4.160  1.00  0.00    -0.351 N 
ATOM      4  C   UNL     1       2.550   5.405  -2.997  1.00  0.00     0.281 C 
ATOM      5  O   UNL     1       2.856   6.009  -1.960  1.00  0.00    -0.268 OA
ATOM      6  H   UNL     1       3.060   7.034  -3.994  1.00  0.00     0.163 HD
BRANCH   4   7
ATOM      7  C   UNL     1       1.979   3.976  -2.921  1.00  0.00     0.177 C 
ATOM      8  C   UNL     1       2.370   2.922  -3.949  1.00  0.00     0.086 C 
ATOM      9  C   UNL     1       1.009   3.539  -4.005  1.00  0.00     0.086 C 
BRANCH   7  10
ATOM     10  N   UNL     1       1.806   3.558  -1.490  1.00  0.00    -0.321 N 
ATOM     11  C   UNL     1       0.911   1.733  -0.784  1.00  0.00     0.068 C 
ATOM     12  C   UNL     1       0.469   3.226  -1.006  1.00  0.00     0.275 C 
ATOM     13  C   UNL     1       2.358   2.290  -1.015  1.00  0.00     0.275 C 
ATOM     14  H   UNL     1       2.252   4.419  -1.175  1.00  0.00     0.349 HD
BRANCH  11  15
ATOM     15  C   UNL     1       0.585   1.328   0.670  1.00  0.00     0.015 C 
ATOM     16  C   UNL     1       1.038  -0.073   1.034  1.00  0.00     0.005 C 
ENDBRANCH  11  15
BRANCH  11  17
ATOM     17  C   UNL     1       0.301   0.779  -1.832  1.00  0.00     0.015 C 
ATOM     18  C   UNL     1       1.159  -0.429  -2.180  1.00  0.00     0.005 C 
ENDBRANCH  11  17
ENDBRANCH   7  10
ENDBRANCH   4   7
ENDBRANCH   2   3
ENDBRANCH   1   2
BRANCH   1  19
ATOM     19  C   UNL     1       1.330   7.904  -6.295  1.00  0.00     0.118 C 
BRANCH  19  20
ATOM     20  N   UNL     1       2.398   8.417  -7.144  1.00  0.00    -0.352 N 
ATOM     21  C   UNL     1       2.338   9.050  -8.358  1.00  0.00     0.251 C 
ATOM     22  H   UNL     1       3.307   8.290  -6.788  1.00  0.00     0.163 HD
ATOM     23  O   UNL     1       3.374   9.187  -9.013  1.00  0.00    -0.269 OA
BRANCH  21  24
ATOM     24  C   UNL     1       1.057   9.561  -8.889  1.00  0.00     0.039 A 
ATOM     25  C   UNL     1       0.799   9.451 -10.258  1.00  0.00     0.014 A 
ATOM     26  C   UNL     1       0.128  10.186  -8.053  1.00  0.00     0.014 A 
ATOM     27  C   UNL     1      -0.412   9.916 -10.777  1.00  0.00     0.010 A 
ATOM     28  C   UNL     1      -1.113  10.567  -8.555  1.00  0.00     0.010 A 
ATOM     29  C   UNL     1      -1.392  10.450  -9.924  1.00  0.00    -0.014 A 
BRANCH  29  30
ATOM     30  C   UNL     1      -2.716  10.882 -10.440  1.00  0.00     0.031 A 
ATOM     31  C   UNL     1      -3.154  12.315 -10.306  1.00  0.00     0.074 A 
ATOM     32  C   UNL     1      -3.565   9.960 -10.936  1.00  0.00     0.049 A 
ATOM     33  N   UNL     1      -4.296  12.862 -10.633  1.00  0.00    -0.248 NA
ATOM     34  C   UNL     1      -2.195  13.252  -9.696  1.00  0.00     0.031 C 
ATOM     35  C   UNL     1      -3.292   8.525 -11.029  1.00  0.00     0.029 A 
ATOM     36  N   UNL     1      -4.843  10.088 -11.419  1.00  0.00    -0.354 N 
ATOM     37  C   UNL     1      -4.211  14.190 -10.233  1.00  0.00     0.074 A 
ATOM     38  C   UNL     1      -2.917  14.360  -9.608  1.00  0.00     0.031 C 
ATOM     39  C   UNL     1      -4.371   7.904 -11.532  1.00  0.00     0.029 A 
ATOM     40  C   UNL     1      -5.421   8.890 -11.768  1.00  0.00     0.049 A 
ATOM     41  H   UNL     1      -5.302  10.955 -11.508  1.00  0.00     0.167 HD
ATOM     42  C   UNL     1      -5.115  15.185 -10.395  1.00  0.00     0.034 A 
ATOM     43  C   UNL     1      -6.662   8.612 -12.214  1.00  0.00     0.034 A 
ATOM     44  C   UNL     1      -6.381  15.021 -11.056  1.00  0.00     0.049 A 
ATOM     45  C   UNL     1      -7.627   9.743 -12.440  1.00  0.00     0.074 A 
ATOM     46  C   UNL     1      -7.320  15.987 -11.370  1.00  0.00     0.029 A 
ATOM     47  N   UNL     1      -6.893  13.809 -11.495  1.00  0.00    -0.354 N 
ATOM     48  N   UNL     1      -7.460  11.025 -12.222  1.00  0.00    -0.248 NA
ATOM     49  C   UNL     1      -8.937   9.396 -13.010  1.00  0.00     0.031 C 
ATOM     50  C   UNL     1      -8.413  15.355 -11.973  1.00  0.00     0.029 A 
ATOM     51  C   UNL     1      -8.141  13.999 -12.063  1.00  0.00     0.049 A 
ATOM     52  H   UNL     1      -6.435  12.941 -11.415  1.00  0.00     0.167 HD
ATOM     53  C   UNL     1      -8.629  11.641 -12.653  1.00  0.00     0.074 A 
ATOM     54  C   UNL     1      -9.486  10.593 -13.168  1.00  0.00     0.031 C 
ATOM     55  C   UNL     1      -8.967  12.954 -12.612  1.00  0.00     0.034 A 
BRANCH  42  56
ATOM     56  C   UNL     1      -4.743  16.556  -9.890  1.00  0.00     0.023 A 
ATOM     57  C   UNL     1      -3.735  17.292 -10.548  1.00  0.00     0.012 A 
ATOM     58  C   UNL     1      -5.417  17.136  -8.797  1.00  0.00     0.148 A 
ATOM     59  C   UNL     1      -3.375  18.563 -10.102  1.00  0.00     0.002 A 
ATOM     60  C   UNL     1      -5.085  18.423  -8.388  1.00  0.00     0.091 A 
ATOM     61  F   UNL     1      -6.357  16.415  -8.169  1.00  0.00    -0.205 F 
ATOM     62  C   UNL     1      -4.056  19.131  -9.029  1.00  0.00     0.022 A 
BRANCH  60  63
ATOM     63  S   UNL     1      -5.960  19.273  -7.069  1.00  0.00     0.127 S 
ATOM     64  O   UNL     1      -4.974  19.237  -5.990  1.00  0.00    -0.237 OA
ATOM     65  O   UNL     1      -6.180  20.599  -7.649  1.00  0.00    -0.237 OA
ATOM     66  O   UNL     1      -7.175  18.506  -6.836  1.00  0.00    -0.744 OA
ENDBRANCH  60  63
ENDBRANCH  42  56
BRANCH  43  67
ATOM     67  C   UNL     1      -7.033   7.204 -12.527  1.00  0.00     0.023 A 
ATOM     68  C   UNL     1      -7.195   6.810 -13.869  1.00  0.00     0.012 A 
ATOM     69  C   UNL     1      -7.171   6.242 -11.507  1.00  0.00     0.148 A 
ATOM     70  C   UNL     1      -7.515   5.490 -14.189  1.00  0.00     0.002 A 
ATOM     71  C   UNL     1      -7.433   4.918 -11.835  1.00  0.00     0.091 A 
ATOM     72  F   UNL     1      -7.021   6.640 -10.236  1.00  0.00    -0.205 F 
ATOM     73  C   UNL     1      -7.623   4.543 -13.174  1.00  0.00     0.022 A 
BRANCH  71  74
ATOM     74  S   UNL     1      -7.447   3.607 -10.607  1.00  0.00     0.127 S 
ATOM     75  O   UNL     1      -8.864   3.248 -10.568  1.00  0.00    -0.237 OA
ATOM     76  O   UNL     1      -6.576   2.605 -11.226  1.00  0.00    -0.237 OA
ATOM     77  O   UNL     1      -6.910   4.198  -9.392  1.00  0.00    -0.744 OA
ENDBRANCH  71  74
ENDBRANCH  43  67
BRANCH  55  78
ATOM     78  C   UNL     1     -10.314  13.345 -13.161  1.00  0.00     0.023 A 
ATOM     79  C   UNL     1     -11.483  13.022 -12.445  1.00  0.00     0.012 A 
ATOM     80  C   UNL     1     -10.415  14.099 -14.347  1.00  0.00     0.148 A 
ATOM     81  C   UNL     1     -12.735  13.415 -12.917  1.00  0.00     0.002 A 
ATOM     82  C   UNL     1     -11.662  14.530 -14.785  1.00  0.00     0.091 A 
ATOM     83  F   UNL     1      -9.293  14.380 -15.024  1.00  0.00    -0.205 F 
ATOM     84  C   UNL     1     -12.823  14.179 -14.078  1.00  0.00     0.022 A 
BRANCH  82  85
ATOM     85  S   UNL     1     -11.863  15.598 -16.216  1.00  0.00     0.127 S 
ATOM     86  O   UNL     1     -12.445  14.680 -17.193  1.00  0.00    -0.237 OA
ATOM     87  O   UNL     1     -12.784  16.619 -15.714  1.00  0.00    -0.237 OA
ATOM     88  O   UNL     1     -10.531  16.093 -16.538  1.00  0.00    -0.744 OA
ENDBRANCH  82  85
ENDBRANCH  55  78
ENDBRANCH  29  30
ENDBRANCH  21  24
ENDBRANCH  19  20
ENDBRANCH   1  19
TORSDOF 16
