REMARK SMILES CC(C)[C@H](NC(N)=O)C(=O)N[C@H](C)C(=O)NCCCNC(=O)c1ccc(-c2c3nc(c(-c4cccc(S(=O)(=O)[O-])c4F)c4ccc([nH]4)c(-c4cccc(S(=O)(=O)[O-])c4F)c4nc(c(-c5cccc(S(=O)(=O)[O-])c5F)c5ccc2[nH]5)C=C4)C=C3)cc1
REMARK SMILES IDX 18 1 17 2 16 3 14 4 15 5 12 7 13 8 11 9 9 10 10 11 4 13 2 14
REMARK SMILES IDX 1 15 3 16 5 17 6 18 7 20 8 21 19 24 20 25 21 26 22 28 23 29
REMARK SMILES IDX 24 30 85 31 25 32 84 33 26 34 27 35 28 36 78 37 29 38 83 39
REMARK SMILES IDX 77 40 79 41 30 42 82 43 76 44 75 45 31 47 63 48 43 49 62 50
REMARK SMILES IDX 44 51 47 52 61 53 80 54 45 55 46 56 60 58 81 59 48 60 32 61
REMARK SMILES IDX 33 62 41 63 34 64 36 65 42 66 35 67 37 68 38 69 39 70 40 71
REMARK SMILES IDX 64 72 65 73 73 74 66 75 68 76 74 77 67 78 69 79 70 80 71 81
REMARK SMILES IDX 72 82 49 83 50 84 58 85 51 86 53 87 59 88 52 89 54 90 55 91
REMARK SMILES IDX 56 92 57 93
REMARK H PARENT 16 6 11 12 5 19 7 22 7 23 20 27 79 46 47 57
REMARK Flexibility Score: inf
ROOT
ATOM      1  C   UNL     1      -2.408   6.454   3.259  1.00  0.00     0.042 C 
ENDROOT
BRANCH   1   2
ATOM      2  C   UNL     1      -1.059   5.883   3.676  1.00  0.00     0.117 C 
BRANCH   2   3
ATOM      3  N   UNL     1      -1.155   4.585   4.327  1.00  0.00    -0.354 N 
ATOM      4  C   UNL     1      -0.788   3.330   3.937  1.00  0.00     0.242 C 
ATOM      5  O   UNL     1      -1.023   2.413   4.733  1.00  0.00    -0.273 OA
ATOM      6  H   UNL     1      -1.564   4.619   5.222  1.00  0.00     0.163 HD
BRANCH   4   7
ATOM      7  C   UNL     1      -0.288   2.996   2.504  1.00  0.00     0.168 C 
ATOM      8  C   UNL     1      -1.510   2.577   1.701  1.00  0.00     0.041 C 
BRANCH   7   9
ATOM      9  N   UNL     1       0.703   3.977   2.029  1.00  0.00    -0.343 N 
ATOM     10  C   UNL     1       1.120   4.647   0.929  1.00  0.00     0.243 C 
ATOM     11  O   UNL     1       2.133   5.339   1.117  1.00  0.00    -0.273 OA
ATOM     12  H   UNL     1       1.269   4.243   2.790  1.00  0.00     0.164 HD
BRANCH  10  13
ATOM     13  C   UNL     1       0.388   4.750  -0.427  1.00  0.00     0.175 C 
BRANCH  13  14
ATOM     14  C   UNL     1      -0.691   5.871  -0.348  1.00  0.00     0.015 C 
ATOM     15  C   UNL     1      -0.731   6.753  -1.601  1.00  0.00     0.010 C 
ATOM     16  C   UNL     1      -2.101   5.425   0.008  1.00  0.00     0.010 C 
ENDBRANCH  13  14
BRANCH  13  17
ATOM     17  N   UNL     1       0.052   3.410  -0.881  1.00  0.00    -0.326 N 
ATOM     18  C   UNL     1      -0.713   3.084  -1.951  1.00  0.00     0.312 C 
ATOM     19  H   UNL     1       0.418   2.661  -0.357  1.00  0.00     0.166 HD
ATOM     20  N   UNL     1      -0.907   1.748  -2.057  1.00  0.00    -0.352 N 
ATOM     21  O   UNL     1      -1.236   3.856  -2.737  1.00  0.00    -0.249 OA
ATOM     22  H   UNL     1      -0.478   1.136  -1.416  1.00  0.00     0.161 HD
ATOM     23  H   UNL     1      -1.476   1.389  -2.776  1.00  0.00     0.161 HD
ENDBRANCH  13  17
ENDBRANCH  10  13
ENDBRANCH   7   9
ENDBRANCH   4   7
ENDBRANCH   2   3
ENDBRANCH   1   2
BRANCH   1  24
ATOM     24  C   UNL     1      -3.305   6.911   4.397  1.00  0.00     0.118 C 
BRANCH  24  25
ATOM     25  N   UNL     1      -2.752   8.024   5.152  1.00  0.00    -0.352 N 
ATOM     26  C   UNL     1      -3.218   9.305   5.335  1.00  0.00     0.251 C 
ATOM     27  H   UNL     1      -1.902   7.828   5.608  1.00  0.00     0.163 HD
ATOM     28  O   UNL     1      -2.491  10.122   5.897  1.00  0.00    -0.269 OA
BRANCH  26  29
ATOM     29  C   UNL     1      -4.558   9.719   4.855  1.00  0.00     0.039 A 
ATOM     30  C   UNL     1      -4.713  11.010   4.337  1.00  0.00     0.014 A 
ATOM     31  C   UNL     1      -5.669   8.878   4.945  1.00  0.00     0.014 A 
ATOM     32  C   UNL     1      -5.959  11.428   3.858  1.00  0.00     0.010 A 
ATOM     33  C   UNL     1      -6.885   9.260   4.380  1.00  0.00     0.010 A 
ATOM     34  C   UNL     1      -7.049  10.544   3.842  1.00  0.00    -0.014 A 
BRANCH  34  35
ATOM     35  C   UNL     1      -8.362  10.945   3.269  1.00  0.00     0.031 A 
ATOM     36  C   UNL     1      -9.599  10.962   4.129  1.00  0.00     0.074 A 
ATOM     37  C   UNL     1      -8.459  11.220   1.952  1.00  0.00     0.049 A 
ATOM     38  N   UNL     1     -10.834  11.233   3.793  1.00  0.00    -0.248 NA
ATOM     39  C   UNL     1      -9.433  10.602   5.547  1.00  0.00     0.031 C 
ATOM     40  C   UNL     1      -7.352  11.166   0.994  1.00  0.00     0.029 A 
ATOM     41  N   UNL     1      -9.542  11.573   1.186  1.00  0.00    -0.354 N 
ATOM     42  C   UNL     1     -11.594  11.041   4.941  1.00  0.00     0.074 A 
ATOM     43  C   UNL     1     -10.687  10.597   5.976  1.00  0.00     0.031 C 
ATOM     44  C   UNL     1      -7.811  11.482  -0.227  1.00  0.00     0.029 A 
ATOM     45  C   UNL     1      -9.248  11.724  -0.149  1.00  0.00     0.049 A 
ATOM     46  H   UNL     1     -10.444  11.706   1.558  1.00  0.00     0.167 HD
ATOM     47  C   UNL     1     -12.921  11.242   5.128  1.00  0.00     0.034 A 
ATOM     48  C   UNL     1     -10.045  12.012  -1.197  1.00  0.00     0.034 A 
ATOM     49  C   UNL     1     -13.815  11.719   4.107  1.00  0.00     0.049 A 
ATOM     50  C   UNL     1     -11.510  12.255  -0.958  1.00  0.00     0.074 A 
ATOM     51  C   UNL     1     -15.156  12.040   4.221  1.00  0.00     0.029 A 
ATOM     52  N   UNL     1     -13.465  11.931   2.783  1.00  0.00    -0.354 N 
ATOM     53  N   UNL     1     -12.180  12.220   0.168  1.00  0.00    -0.248 NA
ATOM     54  C   UNL     1     -12.324  12.610  -2.130  1.00  0.00     0.031 C 
ATOM     55  C   UNL     1     -15.626  12.411   2.957  1.00  0.00     0.029 A 
ATOM     56  C   UNL     1     -14.567  12.361   2.064  1.00  0.00     0.049 A 
ATOM     57  H   UNL     1     -12.564  11.796   2.408  1.00  0.00     0.167 HD
ATOM     58  C   UNL     1     -13.483  12.584  -0.152  1.00  0.00     0.074 A 
ATOM     59  C   UNL     1     -13.503  12.855  -1.574  1.00  0.00     0.031 C 
ATOM     60  C   UNL     1     -14.567  12.674   0.658  1.00  0.00     0.034 A 
BRANCH  47  61
ATOM     61  C   UNL     1     -13.483  10.985   6.503  1.00  0.00     0.023 A 
ATOM     62  C   UNL     1     -13.151  11.848   7.568  1.00  0.00     0.012 A 
ATOM     63  C   UNL     1     -14.385   9.926   6.730  1.00  0.00     0.148 A 
ATOM     64  C   UNL     1     -13.673  11.639   8.844  1.00  0.00     0.002 A 
ATOM     65  C   UNL     1     -14.940   9.754   7.993  1.00  0.00     0.091 A 
ATOM     66  F   UNL     1     -14.676   9.105   5.712  1.00  0.00    -0.205 F 
ATOM     67  C   UNL     1     -14.575  10.599   9.053  1.00  0.00     0.022 A 
BRANCH  65  68
ATOM     68  S   UNL     1     -16.174   8.497   8.347  1.00  0.00     0.127 S 
ATOM     69  O   UNL     1     -15.422   7.578   9.201  1.00  0.00    -0.237 OA
ATOM     70  O   UNL     1     -17.206   9.267   9.041  1.00  0.00    -0.237 OA
ATOM     71  O   UNL     1     -16.581   7.957   7.057  1.00  0.00    -0.744 OA
ENDBRANCH  65  68
ENDBRANCH  47  61
BRANCH  48  72
ATOM     72  C   UNL     1      -9.463  12.136  -2.564  1.00  0.00     0.023 A 
ATOM     73  C   UNL     1      -9.398  13.401  -3.179  1.00  0.00     0.012 A 
ATOM     74  C   UNL     1      -8.953  11.014  -3.245  1.00  0.00     0.148 A 
ATOM     75  C   UNL     1      -8.867  13.542  -4.461  1.00  0.00     0.002 A 
ATOM     76  C   UNL     1      -8.373  11.170  -4.498  1.00  0.00     0.091 A 
ATOM     77  F   UNL     1      -9.032   9.818  -2.645  1.00  0.00    -0.205 F 
ATOM     78  C   UNL     1      -8.345  12.430  -5.116  1.00  0.00     0.022 A 
BRANCH  76  79
ATOM     79  S   UNL     1      -7.562   9.820  -5.361  1.00  0.00     0.127 S 
ATOM     80  O   UNL     1      -8.456   9.614  -6.498  1.00  0.00    -0.237 OA
ATOM     81  O   UNL     1      -6.267  10.414  -5.694  1.00  0.00    -0.237 OA
ATOM     82  O   UNL     1      -7.495   8.725  -4.403  1.00  0.00    -0.744 OA
ENDBRANCH  76  79
ENDBRANCH  48  72
BRANCH  60  83
ATOM     83  C   UNL     1     -15.866  13.123   0.041  1.00  0.00     0.023 A 
ATOM     84  C   UNL     1     -16.570  12.265  -0.827  1.00  0.00     0.012 A 
ATOM     85  C   UNL     1     -16.425  14.371   0.382  1.00  0.00     0.148 A 
ATOM     86  C   UNL     1     -17.792  12.656  -1.374  1.00  0.00     0.002 A 
ATOM     87  C   UNL     1     -17.668  14.732  -0.124  1.00  0.00     0.091 A 
ATOM     88  F   UNL     1     -15.732  15.181   1.196  1.00  0.00    -0.205 F 
ATOM     89  C   UNL     1     -18.346  13.883  -1.013  1.00  0.00     0.022 A 
BRANCH  87  90
ATOM     90  S   UNL     1     -18.505  16.245   0.361  1.00  0.00     0.127 S 
ATOM     91  O   UNL     1     -18.430  17.034  -0.868  1.00  0.00    -0.237 OA
ATOM     92  O   UNL     1     -19.845  15.763   0.696  1.00  0.00    -0.237 OA
ATOM     93  O   UNL     1     -17.753  16.778   1.490  1.00  0.00    -0.744 OA
ENDBRANCH  87  90
ENDBRANCH  60  83
ENDBRANCH  34  35
ENDBRANCH  26  29
ENDBRANCH  24  25
ENDBRANCH   1  24
TORSDOF 17
