REMARK SMILES C[C@@H]1CC[C@H]([N@@H+](CC(=O)NCCCNC(=O)c2ccc(-c3c4nc(c(-c5cccc(S(=O)(=O)[O-])c5F)c5ccc([nH]5)c(-c5cccc(S(=O)(=O)[O-])c5F)c5nc(c(-c6cccc(S(=O)(=O)[O-])c6F)c6ccc3[nH]6)C=C5)C=C4)cc2)CC(F)(F)F)C[C@@H]1C
REMARK SMILES IDX 12 1 11 2 10 3 8 4 9 5 7 7 6 8 5 10 1 11 2 12 3 13 86 14
REMARK SMILES IDX 4 15 85 16 87 17 80 18 81 19 82 20 83 21 84 22 13 23 14 24
REMARK SMILES IDX 15 25 16 27 17 28 18 29 79 30 19 31 78 32 20 33 21 34 22 35
REMARK SMILES IDX 72 36 23 37 77 38 71 39 73 40 24 41 76 42 70 43 69 44 25 46
REMARK SMILES IDX 57 47 37 48 56 49 38 50 41 51 55 52 74 53 39 54 40 55 54 57
REMARK SMILES IDX 75 58 42 59 26 60 27 61 35 62 28 63 30 64 36 65 29 66 31 67
REMARK SMILES IDX 32 68 33 69 34 70 58 71 59 72 67 73 60 74 62 75 68 76 61 77
REMARK SMILES IDX 63 78 64 79 65 80 66 81 43 82 44 83 52 84 45 85 47 86 53 87
REMARK SMILES IDX 46 88 48 89 49 90 50 91 51 92
REMARK H PARENT 10 6 6 9 14 26 73 45 41 56
REMARK Flexibility Score: inf
ROOT
ATOM      1  C   UNL     1       0.561  -0.231  -4.539  1.00  0.00     0.042 C 
ENDROOT
BRANCH   1   2
ATOM      2  C   UNL     1       1.996  -0.104  -5.111  1.00  0.00     0.118 C 
BRANCH   2   3
ATOM      3  N   UNL     1       3.055   0.467  -4.284  1.00  0.00    -0.351 N 
ATOM      4  C   UNL     1       4.278  -0.020  -3.877  1.00  0.00     0.275 C 
ATOM      5  O   UNL     1       5.147   0.828  -3.643  1.00  0.00    -0.269 OA
ATOM      6  H   UNL     1       2.857   1.373  -3.953  1.00  0.00     0.163 HD
BRANCH   4   7
ATOM      7  C   UNL     1       4.576  -1.527  -3.643  1.00  0.00     0.364 C 
BRANCH   7   8
ATOM      8  N   UNL     1       4.304  -2.043  -2.262  1.00  0.00    -0.317 N 
ATOM      9  H   UNL     1       4.169  -3.047  -2.384  1.00  0.00     0.349 HD
BRANCH   8  10
ATOM     10  C   UNL     1       3.044  -1.538  -1.732  1.00  0.00     0.184 C 
ATOM     11  C   UNL     1       0.786  -0.093   1.181  1.00  0.00     0.008 C 
ATOM     12  C   UNL     1       0.764  -0.299  -0.329  1.00  0.00    -0.011 C 
ATOM     13  C   UNL     1       0.782  -1.814  -0.696  1.00  0.00     0.010 C 
ATOM     14  C   UNL     1       1.881   0.490  -1.035  1.00  0.00    -0.006 C 
ATOM     15  C   UNL     1       2.180  -2.458  -0.862  1.00  0.00     0.065 C 
ATOM     16  C   UNL     1       3.204  -0.227  -0.972  1.00  0.00     0.068 C 
ATOM     17  C   UNL     1       2.068   1.952  -0.662  1.00  0.00     0.008 C 
ENDBRANCH   8  10
BRANCH   8  18
ATOM     18  C   UNL     1       5.452  -2.101  -1.315  1.00  0.00     0.379 C 
BRANCH  18  19
ATOM     19  C   UNL     1       6.313  -0.910  -0.802  1.00  0.00     0.438 C 
ATOM     20  F   UNL     1       5.665  -0.095   0.053  1.00  0.00    -0.165 F 
ATOM     21  F   UNL     1       7.379  -1.399  -0.111  1.00  0.00    -0.165 F 
ATOM     22  F   UNL     1       6.816  -0.167  -1.806  1.00  0.00    -0.165 F 
ENDBRANCH  18  19
ENDBRANCH   8  18
ENDBRANCH   7   8
ENDBRANCH   4   7
ENDBRANCH   2   3
ENDBRANCH   1   2
BRANCH   1  23
ATOM     23  C   UNL     1      -0.165   0.914  -3.799  1.00  0.00     0.118 C 
BRANCH  23  24
ATOM     24  N   UNL     1      -0.701   2.019  -4.556  1.00  0.00    -0.352 N 
ATOM     25  C   UNL     1      -1.530   3.011  -4.048  1.00  0.00     0.251 C 
ATOM     26  H   UNL     1      -0.459   2.074  -5.508  1.00  0.00     0.163 HD
ATOM     27  O   UNL     1      -1.829   3.972  -4.751  1.00  0.00    -0.269 OA
BRANCH  25  28
ATOM     28  C   UNL     1      -2.087   2.925  -2.663  1.00  0.00     0.039 A 
ATOM     29  C   UNL     1      -3.432   2.598  -2.482  1.00  0.00     0.014 A 
ATOM     30  C   UNL     1      -1.335   3.298  -1.547  1.00  0.00     0.014 A 
ATOM     31  C   UNL     1      -4.005   2.618  -1.194  1.00  0.00     0.010 A 
ATOM     32  C   UNL     1      -1.894   3.258  -0.250  1.00  0.00     0.010 A 
ATOM     33  C   UNL     1      -3.247   2.936  -0.050  1.00  0.00    -0.014 A 
BRANCH  33  34
ATOM     34  C   UNL     1      -3.885   2.936   1.316  1.00  0.00     0.031 A 
ATOM     35  C   UNL     1      -3.996   4.198   2.152  1.00  0.00     0.074 A 
ATOM     36  C   UNL     1      -4.383   1.793   1.839  1.00  0.00     0.049 A 
ATOM     37  N   UNL     1      -4.595   4.377   3.307  1.00  0.00    -0.248 NA
ATOM     38  C   UNL     1      -3.345   5.409   1.633  1.00  0.00     0.031 C 
ATOM     39  C   UNL     1      -4.301   0.474   1.211  1.00  0.00     0.029 A 
ATOM     40  N   UNL     1      -5.049   1.551   3.022  1.00  0.00    -0.354 N 
ATOM     41  C   UNL     1      -4.378   5.707   3.661  1.00  0.00     0.074 A 
ATOM     42  C   UNL     1      -3.563   6.280   2.609  1.00  0.00     0.031 C 
ATOM     43  C   UNL     1      -4.905  -0.430   2.000  1.00  0.00     0.029 A 
ATOM     44  C   UNL     1      -5.401   0.231   3.206  1.00  0.00     0.049 A 
ATOM     45  H   UNL     1      -5.255   2.257   3.677  1.00  0.00     0.167 HD
ATOM     46  C   UNL     1      -4.829   6.404   4.736  1.00  0.00     0.034 A 
ATOM     47  C   UNL     1      -6.047  -0.388   4.217  1.00  0.00     0.034 A 
ATOM     48  C   UNL     1      -5.665   5.863   5.779  1.00  0.00     0.049 A 
ATOM     49  C   UNL     1      -6.558   0.409   5.391  1.00  0.00     0.074 A 
ATOM     50  C   UNL     1      -6.235   6.526   6.855  1.00  0.00     0.029 A 
ATOM     51  N   UNL     1      -6.040   4.535   5.894  1.00  0.00    -0.354 N 
ATOM     52  N   UNL     1      -6.488   1.699   5.606  1.00  0.00    -0.248 NA
ATOM     53  C   UNL     1      -7.273  -0.333   6.443  1.00  0.00     0.031 C 
ATOM     54  C   UNL     1      -6.926   5.594   7.637  1.00  0.00     0.029 A 
ATOM     55  C   UNL     1      -6.817   4.355   7.029  1.00  0.00     0.049 A 
ATOM     56  H   UNL     1      -5.790   3.822   5.263  1.00  0.00     0.167 HD
ATOM     57  C   UNL     1      -7.179   1.927   6.793  1.00  0.00     0.074 A 
ATOM     58  C   UNL     1      -7.681   0.645   7.240  1.00  0.00     0.031 C 
ATOM     59  C   UNL     1      -7.367   3.095   7.456  1.00  0.00     0.034 A 
BRANCH  46  60
ATOM     60  C   UNL     1      -4.476   7.871   4.827  1.00  0.00     0.023 A 
ATOM     61  C   UNL     1      -5.090   8.787   3.948  1.00  0.00     0.012 A 
ATOM     62  C   UNL     1      -3.617   8.356   5.835  1.00  0.00     0.148 A 
ATOM     63  C   UNL     1      -4.825  10.153   4.042  1.00  0.00     0.002 A 
ATOM     64  C   UNL     1      -3.392   9.724   5.951  1.00  0.00     0.091 A 
ATOM     65  F   UNL     1      -3.037   7.473   6.661  1.00  0.00    -0.205 F 
ATOM     66  C   UNL     1      -3.985  10.622   5.048  1.00  0.00     0.022 A 
BRANCH  64  67
ATOM     67  S   UNL     1      -2.394  10.440   7.264  1.00  0.00     0.127 S 
ATOM     68  O   UNL     1      -1.215  10.890   6.526  1.00  0.00    -0.237 OA
ATOM     69  O   UNL     1      -3.254  11.518   7.753  1.00  0.00    -0.237 OA
ATOM     70  O   UNL     1      -2.161   9.368   8.221  1.00  0.00    -0.744 OA
ENDBRANCH  64  67
ENDBRANCH  46  60
BRANCH  47  71
ATOM     71  C   UNL     1      -6.307  -1.858   4.146  1.00  0.00     0.023 A 
ATOM     72  C   UNL     1      -7.628  -2.325   3.987  1.00  0.00     0.012 A 
ATOM     73  C   UNL     1      -5.256  -2.791   4.229  1.00  0.00     0.148 A 
ATOM     74  C   UNL     1      -7.899  -3.694   3.946  1.00  0.00     0.002 A 
ATOM     75  C   UNL     1      -5.526  -4.150   4.126  1.00  0.00     0.091 A 
ATOM     76  F   UNL     1      -4.009  -2.328   4.398  1.00  0.00    -0.205 F 
ATOM     77  C   UNL     1      -6.848  -4.605   4.004  1.00  0.00     0.022 A 
BRANCH  75  78
ATOM     78  S   UNL     1      -4.224  -5.385   4.052  1.00  0.00     0.127 S 
ATOM     79  O   UNL     1      -4.391  -6.072   5.333  1.00  0.00    -0.237 OA
ATOM     80  O   UNL     1      -4.621  -6.169   2.879  1.00  0.00    -0.237 OA
ATOM     81  O   UNL     1      -2.986  -4.645   3.887  1.00  0.00    -0.744 OA
ENDBRANCH  75  78
ENDBRANCH  47  71
BRANCH  59  82
ATOM     82  C   UNL     1      -8.185   3.070   8.725  1.00  0.00     0.023 A 
ATOM     83  C   UNL     1      -7.659   2.478   9.892  1.00  0.00     0.012 A 
ATOM     84  C   UNL     1      -9.448   3.694   8.782  1.00  0.00     0.148 A 
ATOM     85  C   UNL     1      -8.389   2.479  11.082  1.00  0.00     0.002 A 
ATOM     86  C   UNL     1     -10.149   3.733   9.983  1.00  0.00     0.091 A 
ATOM     87  F   UNL     1      -9.944   4.236   7.660  1.00  0.00    -0.205 F 
ATOM     88  C   UNL     1      -9.627   3.115  11.130  1.00  0.00     0.022 A 
BRANCH  86  89
ATOM     89  S   UNL     1     -11.707   4.609  10.166  1.00  0.00     0.127 S 
ATOM     90  O   UNL     1     -12.656   3.505  10.300  1.00  0.00    -0.237 OA
ATOM     91  O   UNL     1     -11.490   5.378  11.392  1.00  0.00    -0.237 OA
ATOM     92  O   UNL     1     -11.857   5.418   8.964  1.00  0.00    -0.744 OA
ENDBRANCH  86  89
ENDBRANCH  59  82
ENDBRANCH  33  34
ENDBRANCH  25  28
ENDBRANCH  23  24
ENDBRANCH   1  23
TORSDOF 17
