REMARK SMILES O=C(C[C@@H](NS(=O)(=O)c1ccc2c(c1)OCCO2)c1ccccc1)NCCCNC(=O)c1ccc(-c2c3nc(c(-c4cccc(S(=O)(=O)[O-])c4F)c4ccc([nH]4)c(-c4cccc(S(=O)(=O)[O-])c4F)c4nc(c(-c5cccc(S(=O)(=O)[O-])c5F)c5ccc2[nH]5)C=C4)C=C3)cc1
REMARK SMILES IDX 26 1 25 2 1 3 2 4 3 6 4 7 5 8 6 10 7 11 8 12 9 13 10 14
REMARK SMILES IDX 14 15 11 16 13 17 12 18 15 19 18 20 16 21 17 22 19 23 20 24
REMARK SMILES IDX 24 25 21 26 23 27 22 28 27 29 28 30 29 31 30 32 31 34 32 35
REMARK SMILES IDX 33 36 94 37 34 38 93 39 35 40 36 41 37 42 87 43 38 44 92 45
REMARK SMILES IDX 86 46 88 47 39 48 91 49 85 50 84 51 40 53 72 54 52 55 71 56
REMARK SMILES IDX 53 57 56 58 70 59 89 60 54 61 55 62 69 64 90 65 57 66 41 67
REMARK SMILES IDX 42 68 50 69 43 70 45 71 51 72 44 73 46 74 47 75 48 76 49 77
REMARK SMILES IDX 73 78 74 79 82 80 75 81 77 82 83 83 76 84 78 85 79 86 80 87
REMARK SMILES IDX 81 88 58 89 59 90 67 91 60 92 62 93 68 94 61 95 63 96 64 97
REMARK SMILES IDX 65 98 66 99
REMARK H PARENT 25 5 5 9 29 33 88 52 56 63
REMARK Flexibility Score: inf
ROOT
ATOM      1  C   UNL     1       2.184   0.078   2.501  1.00  0.00     0.117 C 
ENDROOT
BRANCH   1   2
ATOM      2  N   UNL     1       2.770  -0.189   1.201  1.00  0.00    -0.356 N 
ATOM      3  O   UNL     1       1.295   1.141   0.040  1.00  0.00    -0.275 OA
ATOM      4  C   UNL     1       2.275   0.404   0.059  1.00  0.00     0.221 C 
ATOM      5  H   UNL     1       3.534  -0.806   1.133  1.00  0.00     0.163 HD
BRANCH   4   6
ATOM      6  C   UNL     1       3.087   0.123  -1.181  1.00  0.00     0.124 C 
BRANCH   6   7
ATOM      7  C   UNL     1       3.988   1.333  -1.487  1.00  0.00     0.109 C 
BRANCH   7   8
ATOM      8  N   UNL     1       5.130   1.346  -0.537  1.00  0.00    -0.203 NA
ATOM      9  H   UNL     1       5.790   0.635  -0.852  1.00  0.00     0.142 HD
BRANCH   8  10
ATOM     10  S   UNL     1       6.004   2.777  -0.330  1.00  0.00     0.241 S 
ATOM     11  O   UNL     1       5.088   3.882  -0.506  1.00  0.00    -0.207 OA
ATOM     12  O   UNL     1       6.750   2.599   0.896  1.00  0.00    -0.207 OA
BRANCH  10  13
ATOM     13  C   UNL     1       7.179   2.788  -1.652  1.00  0.00     0.086 A 
ATOM     14  C   UNL     1       7.814   1.604  -2.037  1.00  0.00     0.026 A 
ATOM     15  C   UNL     1       7.381   3.975  -2.362  1.00  0.00     0.072 A 
ATOM     16  C   UNL     1       8.621   1.598  -3.177  1.00  0.00     0.052 A 
ATOM     17  C   UNL     1       8.176   3.957  -3.503  1.00  0.00     0.162 A 
ATOM     18  C   UNL     1       8.797   2.770  -3.912  1.00  0.00     0.161 A 
ATOM     19  O   UNL     1       8.287   5.139  -4.190  1.00  0.00    -0.486 OA
ATOM     20  O   UNL     1       9.565   2.676  -5.044  1.00  0.00    -0.486 OA
ATOM     21  C   UNL     1       8.723   4.909  -5.532  1.00  0.00     0.271 C 
ATOM     22  C   UNL     1       9.914   3.965  -5.558  1.00  0.00     0.271 C 
ENDBRANCH  10  13
ENDBRANCH   8  10
ENDBRANCH   7   8
BRANCH   7  23
ATOM     23  C   UNL     1       4.474   1.285  -2.928  1.00  0.00    -0.029 A 
ATOM     24  C   UNL     1       5.029   0.120  -3.485  1.00  0.00     0.005 A 
ATOM     25  C   UNL     1       4.440   2.450  -3.712  1.00  0.00     0.005 A 
ATOM     26  C   UNL     1       5.535   0.121  -4.787  1.00  0.00     0.000 A 
ATOM     27  C   UNL     1       4.958   2.452  -5.009  1.00  0.00     0.000 A 
ATOM     28  C   UNL     1       5.505   1.289  -5.545  1.00  0.00     0.000 A 
ENDBRANCH   7  23
ENDBRANCH   6   7
ENDBRANCH   4   6
ENDBRANCH   1   2
BRANCH   1  29
ATOM     29  C   UNL     1       2.401  -1.050   3.503  1.00  0.00     0.042 C 
BRANCH  29  30
ATOM     30  C   UNL     1       3.855  -1.310   3.890  1.00  0.00     0.118 C 
BRANCH  30  31
ATOM     31  N   UNL     1       4.489  -0.193   4.569  1.00  0.00    -0.352 N 
ATOM     32  C   UNL     1       5.311  -0.192   5.672  1.00  0.00     0.251 C 
ATOM     33  H   UNL     1       4.303   0.693   4.184  1.00  0.00     0.163 HD
ATOM     34  O   UNL     1       5.650   0.881   6.167  1.00  0.00    -0.269 OA
BRANCH  32  35
ATOM     35  C   UNL     1       5.763  -1.461   6.290  1.00  0.00     0.039 A 
ATOM     36  C   UNL     1       5.769  -1.554   7.686  1.00  0.00     0.014 A 
ATOM     37  C   UNL     1       6.197  -2.546   5.522  1.00  0.00     0.014 A 
ATOM     38  C   UNL     1       6.143  -2.750   8.305  1.00  0.00     0.010 A 
ATOM     39  C   UNL     1       6.511  -3.759   6.139  1.00  0.00     0.010 A 
ATOM     40  C   UNL     1       6.485  -3.874   7.537  1.00  0.00    -0.014 A 
BRANCH  40  41
ATOM     41  C   UNL     1       6.772  -5.180   8.187  1.00  0.00     0.031 A 
ATOM     42  C   UNL     1       8.139  -5.803   8.109  1.00  0.00     0.074 A 
ATOM     43  C   UNL     1       5.769  -5.844   8.797  1.00  0.00     0.049 A 
ATOM     44  N   UNL     1       8.560  -6.927   8.630  1.00  0.00    -0.248 NA
ATOM     45  C   UNL     1       9.157  -5.088   7.324  1.00  0.00     0.031 C 
ATOM     46  C   UNL     1       4.376  -5.399   8.858  1.00  0.00     0.029 A 
ATOM     47  N   UNL     1       5.763  -7.043   9.465  1.00  0.00    -0.354 N 
ATOM     48  C   UNL     1       9.879  -7.070   8.216  1.00  0.00     0.074 A 
ATOM     49  C   UNL     1      10.180  -5.932   7.373  1.00  0.00     0.031 C 
ATOM     50  C   UNL     1       3.653  -6.305   9.534  1.00  0.00     0.029 A 
ATOM     51  C   UNL     1       4.526  -7.400   9.948  1.00  0.00     0.049 A 
ATOM     52  H   UNL     1       6.569  -7.596   9.588  1.00  0.00     0.167 HD
ATOM     53  C   UNL     1      10.770  -8.040   8.534  1.00  0.00     0.034 A 
ATOM     54  C   UNL     1       4.138  -8.478  10.657  1.00  0.00     0.034 A 
ATOM     55  C   UNL     1      10.489  -9.141   9.417  1.00  0.00     0.049 A 
ATOM     56  C   UNL     1       5.168  -9.491  11.074  1.00  0.00     0.074 A 
ATOM     57  C   UNL     1      11.353 -10.123   9.871  1.00  0.00     0.029 A 
ATOM     58  N   UNL     1       9.252  -9.407   9.983  1.00  0.00    -0.354 N 
ATOM     59  N   UNL     1       6.454  -9.511  10.821  1.00  0.00    -0.248 NA
ATOM     60  C   UNL     1       4.704 -10.605  11.914  1.00  0.00     0.031 C 
ATOM     61  C   UNL     1      10.637 -10.983  10.713  1.00  0.00     0.029 A 
ATOM     62  C   UNL     1       9.329 -10.533  10.785  1.00  0.00     0.049 A 
ATOM     63  H   UNL     1       8.439  -8.872   9.837  1.00  0.00     0.167 HD
ATOM     64  C   UNL     1       6.958 -10.618  11.494  1.00  0.00     0.074 A 
ATOM     65  C   UNL     1       5.842 -11.228  12.188  1.00  0.00     0.031 C 
ATOM     66  C   UNL     1       8.226 -11.098  11.518  1.00  0.00     0.034 A 
BRANCH  53  67
ATOM     67  C   UNL     1      12.167  -7.910   7.986  1.00  0.00     0.023 A 
ATOM     68  C   UNL     1      13.034  -6.946   8.539  1.00  0.00     0.012 A 
ATOM     69  C   UNL     1      12.643  -8.770   6.978  1.00  0.00     0.148 A 
ATOM     70  C   UNL     1      14.344  -6.820   8.080  1.00  0.00     0.002 A 
ATOM     71  C   UNL     1      13.962  -8.663   6.550  1.00  0.00     0.091 A 
ATOM     72  F   UNL     1      11.798  -9.664   6.444  1.00  0.00    -0.205 F 
ATOM     73  C   UNL     1      14.811  -7.684   7.094  1.00  0.00     0.022 A 
BRANCH  71  74
ATOM     74  S   UNL     1      14.672  -9.778   5.333  1.00  0.00     0.127 S 
ATOM     75  O   UNL     1      14.675  -8.944   4.133  1.00  0.00    -0.237 OA
ATOM     76  O   UNL     1      15.999 -10.047   5.890  1.00  0.00    -0.237 OA
ATOM     77  O   UNL     1      13.790 -10.936   5.295  1.00  0.00    -0.744 OA
ENDBRANCH  71  74
ENDBRANCH  53  67
BRANCH  54  78
ATOM     78  C   UNL     1       2.724  -8.593  11.109  1.00  0.00     0.023 A 
ATOM     79  C   UNL     1       2.420  -8.387  12.469  1.00  0.00     0.012 A 
ATOM     80  C   UNL     1       1.679  -8.856  10.204  1.00  0.00     0.148 A 
ATOM     81  C   UNL     1       1.104  -8.466  12.924  1.00  0.00     0.002 A 
ATOM     82  C   UNL     1       0.363  -8.883  10.655  1.00  0.00     0.091 A 
ATOM     83  F   UNL     1       1.988  -9.067   8.917  1.00  0.00    -0.205 F 
ATOM     84  C   UNL     1       0.075  -8.703  12.017  1.00  0.00     0.022 A 
BRANCH  82  85
ATOM     85  S   UNL     1      -1.024  -9.045   9.526  1.00  0.00     0.127 S 
ATOM     86  O   UNL     1      -1.377 -10.453   9.683  1.00  0.00    -0.237 OA
ATOM     87  O   UNL     1      -1.992  -8.101  10.086  1.00  0.00    -0.237 OA
ATOM     88  O   UNL     1      -0.504  -8.656   8.221  1.00  0.00    -0.744 OA
ENDBRANCH  82  85
ENDBRANCH  54  78
BRANCH  66  89
ATOM     89  C   UNL     1       8.484 -12.336  12.335  1.00  0.00     0.023 A 
ATOM     90  C   UNL     1       8.043 -13.586  11.857  1.00  0.00     0.012 A 
ATOM     91  C   UNL     1       9.207 -12.274  13.541  1.00  0.00     0.148 A 
ATOM     92  C   UNL     1       8.290 -14.751  12.582  1.00  0.00     0.002 A 
ATOM     93  C   UNL     1       9.485 -13.445  14.239  1.00  0.00     0.091 A 
ATOM     94  F   UNL     1       9.599 -11.075  13.997  1.00  0.00    -0.205 F 
ATOM     95  C   UNL     1       9.019 -14.682  13.767  1.00  0.00     0.022 A 
BRANCH  93  96
ATOM     96  S   UNL     1      10.493 -13.437  15.727  1.00  0.00     0.127 S 
ATOM     97  O   UNL     1       9.479 -13.372  16.777  1.00  0.00    -0.237 OA
ATOM     98  O   UNL     1      11.200 -14.716  15.643  1.00  0.00    -0.237 OA
ATOM     99  O   UNL     1      11.356 -12.270  15.601  1.00  0.00    -0.744 OA
ENDBRANCH  93  96
ENDBRANCH  66  89
ENDBRANCH  40  41
ENDBRANCH  32  35
ENDBRANCH  30  31
ENDBRANCH  29  30
ENDBRANCH   1  29
TORSDOF 18
