REMARK SMILES Cc1c[nH]c(C[N@H+]2C[C@@H]3CN(S(C)(=O)=O)C[C@]3(C(=O)NCCCNC(=O)c3ccc(-c4c5nc(c(-c6cccc(S(=O)(=O)[O-])c6F)c6ccc([nH]6)c(-c6cccc(S(=O)(=O)[O-])c6F)c6nc(c(-c7cccc(S(=O)(=O)[O-])c7F)c7ccc4[nH]7)C=C6)C=C5)cc3)C2)n1
REMARK SMILES IDX 22 1 21 2 20 3 18 4 19 5 17 7 7 8 8 9 90 10 9 12 10 13 16 14
REMARK SMILES IDX 11 15 6 16 5 17 1 18 2 19 3 20 91 21 4 22 12 24 13 25 14 26
REMARK SMILES IDX 15 27 23 28 24 29 25 30 26 32 27 33 28 34 89 35 29 36 88 37
REMARK SMILES IDX 30 38 31 39 32 40 82 41 33 42 87 43 81 44 83 45 34 46 86 47
REMARK SMILES IDX 80 48 79 49 35 51 67 52 47 53 66 54 48 55 51 56 65 57 84 58
REMARK SMILES IDX 49 59 50 60 64 62 85 63 52 64 36 65 37 66 45 67 38 68 40 69
REMARK SMILES IDX 46 70 39 71 41 72 42 73 43 74 44 75 68 76 69 77 77 78 70 79
REMARK SMILES IDX 72 80 78 81 71 82 73 83 74 84 75 85 76 86 53 87 54 88 62 89
REMARK SMILES IDX 55 90 57 91 63 92 56 93 58 94 59 95 60 96 61 97
REMARK H PARENT 20 6 7 11 4 23 24 31 83 50 51 61
REMARK Flexibility Score: inf
ROOT
ATOM      1  C   UNL     1      -0.528   7.124   4.902  1.00  0.00     0.042 C 
ENDROOT
BRANCH   1   2
ATOM      2  C   UNL     1      -1.375   6.504   3.794  1.00  0.00     0.117 C 
BRANCH   2   3
ATOM      3  N   UNL     1      -0.539   6.078   2.682  1.00  0.00    -0.355 N 
ATOM      4  C   UNL     1      -0.083   4.804   2.416  1.00  0.00     0.233 C 
ATOM      5  O   UNL     1       0.946   4.694   1.749  1.00  0.00    -0.274 OA
ATOM      6  H   UNL     1      -0.268   6.779   2.047  1.00  0.00     0.163 HD
BRANCH   4   7
ATOM      7  C   UNL     1      -0.950   3.600   2.958  1.00  0.00     0.121 C 
ATOM      8  N   UNL     1      -2.382   2.352   1.285  1.00  0.00    -0.327 N 
ATOM      9  C   UNL     1      -2.224   1.512   2.447  1.00  0.00     0.268 C 
ATOM     10  C   UNL     1      -1.327   3.385   1.412  1.00  0.00     0.281 C 
ATOM     11  H   UNL     1      -3.316   2.762   1.260  1.00  0.00     0.348 HD
ATOM     12  C   UNL     1      -0.918   1.996   3.046  1.00  0.00     0.082 C 
ATOM     13  C   UNL     1      -0.846   1.505   4.491  1.00  0.00     0.113 C 
ATOM     14  C   UNL     1       0.086   3.590   4.145  1.00  0.00     0.125 C 
ATOM     15  N   UNL     1      -0.485   2.713   5.194  1.00  0.00    -0.200 NA
BRANCH   8  16
ATOM     16  C   UNL     1      -2.317   1.622  -0.000  1.00  0.00     0.338 C 
BRANCH  16  17
ATOM     17  C   UNL     1      -1.162   0.668  -0.145  1.00  0.00     0.161 A 
ATOM     18  C   UNL     1       2.284  -0.203  -0.108  1.00  0.00     0.068 C 
ATOM     19  C   UNL     1       0.806  -0.208  -0.154  1.00  0.00     0.056 A 
ATOM     20  C   UNL     1      -0.074  -1.264  -0.095  1.00  0.00     0.107 A 
ATOM     21  N   UNL     1       0.117   0.976  -0.225  1.00  0.00    -0.233 NA
ATOM     22  N   UNL     1      -1.319  -0.697  -0.122  1.00  0.00    -0.344 N 
ATOM     23  H   UNL     1      -2.176  -1.182  -0.123  1.00  0.00     0.167 HD
ENDBRANCH  16  17
ENDBRANCH   8  16
BRANCH  15  24
ATOM     24  S   UNL     1      -1.526   3.310   6.375  1.00  0.00     0.211 S 
ATOM     25  C   UNL     1      -3.098   3.502   5.542  1.00  0.00     0.176 C 
ATOM     26  O   UNL     1      -1.715   2.267   7.357  1.00  0.00    -0.213 OA
ATOM     27  O   UNL     1      -1.069   4.632   6.748  1.00  0.00    -0.213 OA
ENDBRANCH  15  24
ENDBRANCH   4   7
ENDBRANCH   2   3
ENDBRANCH   1   2
BRANCH   1  28
ATOM     28  C   UNL     1      -0.122   8.551   4.588  1.00  0.00     0.118 C 
BRANCH  28  29
ATOM     29  N   UNL     1      -1.251   9.456   4.752  1.00  0.00    -0.352 N 
ATOM     30  C   UNL     1      -1.559  10.272   5.813  1.00  0.00     0.251 C 
ATOM     31  H   UNL     1      -1.882   9.487   3.997  1.00  0.00     0.163 HD
ATOM     32  O   UNL     1      -2.715  10.668   5.948  1.00  0.00    -0.269 OA
BRANCH  30  33
ATOM     33  C   UNL     1      -0.509  10.683   6.774  1.00  0.00     0.039 A 
ATOM     34  C   UNL     1      -0.849  10.915   8.109  1.00  0.00     0.014 A 
ATOM     35  C   UNL     1       0.803  10.900   6.347  1.00  0.00     0.014 A 
ATOM     36  C   UNL     1       0.132  11.338   9.011  1.00  0.00     0.010 A 
ATOM     37  C   UNL     1       1.800  11.187   7.269  1.00  0.00     0.010 A 
ATOM     38  C   UNL     1       1.471  11.459   8.602  1.00  0.00    -0.014 A 
BRANCH  38  39
ATOM     39  C   UNL     1       2.536  11.924   9.527  1.00  0.00     0.031 A 
ATOM     40  C   UNL     1       3.333  13.162   9.189  1.00  0.00     0.074 A 
ATOM     41  C   UNL     1       2.841  11.195  10.618  1.00  0.00     0.049 A 
ATOM     42  N   UNL     1       4.343  13.693   9.828  1.00  0.00    -0.248 NA
ATOM     43  C   UNL     1       2.974  13.882   7.952  1.00  0.00     0.031 C 
ATOM     44  C   UNL     1       2.200   9.936  11.006  1.00  0.00     0.029 A 
ATOM     45  N   UNL     1       3.788  11.396  11.591  1.00  0.00    -0.354 N 
ATOM     46  C   UNL     1       4.771  14.760   9.046  1.00  0.00     0.074 A 
ATOM     47  C   UNL     1       3.935  14.789   7.869  1.00  0.00     0.031 C 
ATOM     48  C   UNL     1       2.759   9.487  12.141  1.00  0.00     0.029 A 
ATOM     49  C   UNL     1       3.824  10.399  12.540  1.00  0.00     0.049 A 
ATOM     50  H   UNL     1       4.385  12.178  11.609  1.00  0.00     0.167 HD
ATOM     51  C   UNL     1       5.755  15.654   9.297  1.00  0.00     0.034 A 
ATOM     52  C   UNL     1       4.633  10.238  13.605  1.00  0.00     0.034 A 
ATOM     53  C   UNL     1       6.537  15.661  10.502  1.00  0.00     0.049 A 
ATOM     54  C   UNL     1       5.678  11.284  13.886  1.00  0.00     0.074 A 
ATOM     55  C   UNL     1       7.476  16.592  10.910  1.00  0.00     0.029 A 
ATOM     56  N   UNL     1       6.479  14.689  11.486  1.00  0.00    -0.354 N 
ATOM     57  N   UNL     1       5.950  12.382  13.223  1.00  0.00    -0.248 NA
ATOM     58  C   UNL     1       6.504  11.090  15.087  1.00  0.00     0.031 C 
ATOM     59  C   UNL     1       8.018  16.157  12.122  1.00  0.00     0.029 A 
ATOM     60  C   UNL     1       7.379  14.985  12.493  1.00  0.00     0.049 A 
ATOM     61  H   UNL     1       5.886  13.903  11.470  1.00  0.00     0.167 HD
ATOM     62  C   UNL     1       6.940  13.031  13.951  1.00  0.00     0.074 A 
ATOM     63  C   UNL     1       7.205  12.214  15.116  1.00  0.00     0.031 C 
ATOM     64  C   UNL     1       7.582  14.193  13.676  1.00  0.00     0.034 A 
BRANCH  51  65
ATOM     65  C   UNL     1       6.027  16.728   8.275  1.00  0.00     0.023 A 
ATOM     66  C   UNL     1       5.103  17.776   8.088  1.00  0.00     0.012 A 
ATOM     67  C   UNL     1       7.247  16.748   7.570  1.00  0.00     0.148 A 
ATOM     68  C   UNL     1       5.377  18.814   7.199  1.00  0.00     0.002 A 
ATOM     69  C   UNL     1       7.535  17.812   6.724  1.00  0.00     0.091 A 
ATOM     70  F   UNL     1       8.102  15.732   7.747  1.00  0.00    -0.205 F 
ATOM     71  C   UNL     1       6.598  18.839   6.529  1.00  0.00     0.022 A 
BRANCH  69  72
ATOM     72  S   UNL     1       9.114  17.984   5.886  1.00  0.00     0.127 S 
ATOM     73  O   UNL     1       8.718  17.857   4.483  1.00  0.00    -0.237 OA
ATOM     74  O   UNL     1       9.524  19.331   6.283  1.00  0.00    -0.237 OA
ATOM     75  O   UNL     1       9.961  16.913   6.389  1.00  0.00    -0.744 OA
ENDBRANCH  69  72
ENDBRANCH  51  65
BRANCH  52  76
ATOM     76  C   UNL     1       4.463   9.072  14.520  1.00  0.00     0.023 A 
ATOM     77  C   UNL     1       4.030   9.287  15.844  1.00  0.00     0.012 A 
ATOM     78  C   UNL     1       4.749   7.760  14.099  1.00  0.00     0.148 A 
ATOM     79  C   UNL     1       3.941   8.227  16.747  1.00  0.00     0.002 A 
ATOM     80  C   UNL     1       4.602   6.700  14.986  1.00  0.00     0.091 A 
ATOM     81  F   UNL     1       5.167   7.574  12.839  1.00  0.00    -0.205 F 
ATOM     82  C   UNL     1       4.220   6.933  16.316  1.00  0.00     0.022 A 
BRANCH  80  83
ATOM     83  S   UNL     1       4.824   4.990  14.486  1.00  0.00     0.127 S 
ATOM     84  O   UNL     1       6.087   4.651  15.138  1.00  0.00    -0.237 OA
ATOM     85  O   UNL     1       3.642   4.350  15.064  1.00  0.00    -0.237 OA
ATOM     86  O   UNL     1       4.847   5.008  13.030  1.00  0.00    -0.744 OA
ENDBRANCH  80  83
ENDBRANCH  52  76
BRANCH  64  87
ATOM     87  C   UNL     1       8.583  14.694  14.683  1.00  0.00     0.023 A 
ATOM     88  C   UNL     1       9.812  14.029  14.856  1.00  0.00     0.012 A 
ATOM     89  C   UNL     1       8.323  15.872  15.412  1.00  0.00     0.148 A 
ATOM     90  C   UNL     1      10.749  14.505  15.772  1.00  0.00     0.002 A 
ATOM     91  C   UNL     1       9.285  16.372  16.278  1.00  0.00     0.091 A 
ATOM     92  F   UNL     1       7.140  16.481  15.244  1.00  0.00    -0.205 F 
ATOM     93  C   UNL     1      10.492  15.681  16.473  1.00  0.00     0.022 A 
BRANCH  91  94
ATOM     94  S   UNL     1       9.084  17.936  17.138  1.00  0.00     0.127 S 
ATOM     95  O   UNL     1       8.880  17.493  18.516  1.00  0.00    -0.237 OA
ATOM     96  O   UNL     1      10.368  18.592  16.891  1.00  0.00    -0.237 OA
ATOM     97  O   UNL     1       7.941  18.593  16.518  1.00  0.00    -0.744 OA
ENDBRANCH  91  94
ENDBRANCH  64  87
ENDBRANCH  38  39
ENDBRANCH  30  33
ENDBRANCH  28  29
ENDBRANCH   1  28
TORSDOF 16
