REMARK SMILES CC(C)Cc1cc2c(cc1Cl)C=C(C(=O)NCCCNC(=O)c1ccc(-c3c4nc(c(-c5cccc(S(=O)(=O)[O-])c5F)c5ccc([nH]5)c(-c5cccc(S(=O)(=O)[O-])c5F)c5nc(c(-c6cccc(S(=O)(=O)[O-])c6F)c6ccc3[nH]6)C=C5)C=C4)cc1)[C@H](C(F)(F)F)O2
REMARK SMILES IDX 18 1 17 2 16 3 14 4 15 5 13 7 5 8 6 9 10 10 7 11 9 12 11 13
REMARK SMILES IDX 8 14 91 15 12 16 86 17 4 18 2 19 1 20 3 21 87 22 88 23 89 24
REMARK SMILES IDX 90 25 19 26 20 27 21 28 22 30 23 31 24 32 85 33 25 34 84 35
REMARK SMILES IDX 26 36 27 37 28 38 78 39 29 40 83 41 77 42 79 43 30 44 82 45
REMARK SMILES IDX 76 46 75 47 31 49 63 50 43 51 62 52 44 53 47 54 61 55 80 56
REMARK SMILES IDX 45 57 46 58 60 60 81 61 48 62 32 63 33 64 41 65 34 66 36 67
REMARK SMILES IDX 42 68 35 69 37 70 38 71 39 72 40 73 64 74 65 75 73 76 66 77
REMARK SMILES IDX 68 78 74 79 67 80 69 81 70 82 71 83 72 84 49 85 50 86 58 87
REMARK SMILES IDX 51 88 53 89 59 90 52 91 54 92 55 93 56 94 57 95
REMARK H PARENT 16 6 20 29 79 48 47 59
REMARK Flexibility Score: inf
ROOT
ATOM      1  C   UNL     1      -4.670   4.021   6.715  1.00  0.00     0.042 C 
ENDROOT
BRANCH   1   2
ATOM      2  C   UNL     1      -5.273   4.525   5.410  1.00  0.00     0.118 C 
BRANCH   2   3
ATOM      3  N   UNL     1      -4.415   5.507   4.767  1.00  0.00    -0.352 N 
ATOM      4  C   UNL     1      -3.583   5.543   3.703  1.00  0.00     0.251 C 
ATOM      5  O   UNL     1      -3.100   6.651   3.446  1.00  0.00    -0.270 OA
ATOM      6  H   UNL     1      -4.449   6.375   5.230  1.00  0.00     0.163 HD
BRANCH   4   7
ATOM      7  C   UNL     1      -3.235   4.373   2.847  1.00  0.00     0.067 C 
ATOM      8  C   UNL     1      -1.431   1.489  -0.881  1.00  0.00    -0.025 A 
ATOM      9  C   UNL     1      -2.162   1.243   0.293  1.00  0.00     0.052 A 
ATOM     10  C   UNL     1      -1.172   2.822  -1.239  1.00  0.00     0.045 A 
ATOM     11  C   UNL     1      -2.570   2.294   1.109  1.00  0.00     0.128 A 
ATOM     12  C   UNL     1      -1.587   3.875  -0.416  1.00  0.00     0.032 A 
ATOM     13  Cl  UNL     1      -0.357   3.234  -2.707  1.00  0.00    -0.084 Cl
ATOM     14  C   UNL     1      -2.280   3.611   0.768  1.00  0.00     0.019 A 
ATOM     15  O   UNL     1      -3.285   1.955   2.220  1.00  0.00    -0.475 OA
ATOM     16  C   UNL     1      -2.725   4.686   1.641  1.00  0.00     0.025 C 
ATOM     17  C   UNL     1      -3.321   2.937   3.292  1.00  0.00     0.314 C 
BRANCH   8  18
ATOM     18  C   UNL     1      -0.922   0.300  -1.665  1.00  0.00     0.040 C 
BRANCH  18  19
ATOM     19  C   UNL     1       0.596   0.061  -1.523  1.00  0.00    -0.013 C 
ATOM     20  C   UNL     1       1.028  -0.165  -0.071  1.00  0.00     0.008 C 
ATOM     21  C   UNL     1       1.010  -1.139  -2.376  1.00  0.00     0.008 C 
ENDBRANCH  18  19
ENDBRANCH   8  18
BRANCH  17  22
ATOM     22  C   UNL     1      -2.299   2.556   4.376  1.00  0.00     0.429 C 
ATOM     23  F   UNL     1      -1.875   3.623   5.090  1.00  0.00    -0.167 F 
ATOM     24  F   UNL     1      -2.862   1.692   5.258  1.00  0.00    -0.167 F 
ATOM     25  F   UNL     1      -1.200   1.956   3.868  1.00  0.00    -0.167 F 
ENDBRANCH  17  22
ENDBRANCH   4   7
ENDBRANCH   2   3
ENDBRANCH   1   2
BRANCH   1  26
ATOM     26  C   UNL     1      -4.777   5.043   7.841  1.00  0.00     0.118 C 
BRANCH  26  27
ATOM     27  N   UNL     1      -6.149   5.182   8.319  1.00  0.00    -0.352 N 
ATOM     28  C   UNL     1      -6.710   4.795   9.513  1.00  0.00     0.251 C 
ATOM     29  H   UNL     1      -6.767   5.620   7.691  1.00  0.00     0.163 HD
ATOM     30  O   UNL     1      -7.935   4.766   9.620  1.00  0.00    -0.269 OA
BRANCH  28  31
ATOM     31  C   UNL     1      -5.848   4.397  10.647  1.00  0.00     0.039 A 
ATOM     32  C   UNL     1      -4.668   5.090  10.911  1.00  0.00     0.014 A 
ATOM     33  C   UNL     1      -6.220   3.321  11.459  1.00  0.00     0.014 A 
ATOM     34  C   UNL     1      -3.768   4.590  11.841  1.00  0.00     0.010 A 
ATOM     35  C   UNL     1      -5.364   2.892  12.479  1.00  0.00     0.010 A 
ATOM     36  C   UNL     1      -4.105   3.490  12.646  1.00  0.00    -0.014 A 
BRANCH  36  37
ATOM     37  C   UNL     1      -3.129   3.015  13.662  1.00  0.00     0.031 A 
ATOM     38  C   UNL     1      -2.567   1.618  13.612  1.00  0.00     0.074 A 
ATOM     39  C   UNL     1      -2.705   3.877  14.609  1.00  0.00     0.049 A 
ATOM     40  N   UNL     1      -1.675   1.069  14.395  1.00  0.00    -0.248 NA
ATOM     41  C   UNL     1      -3.067   0.718  12.559  1.00  0.00     0.031 C 
ATOM     42  C   UNL     1      -3.190   5.250  14.775  1.00  0.00     0.029 A 
ATOM     43  N   UNL     1      -1.759   3.741  15.593  1.00  0.00    -0.354 N 
ATOM     44  C   UNL     1      -1.539  -0.244  13.962  1.00  0.00     0.074 A 
ATOM     45  C   UNL     1      -2.442  -0.417  12.847  1.00  0.00     0.031 C 
ATOM     46  C   UNL     1      -2.500   5.847  15.756  1.00  0.00     0.029 A 
ATOM     47  C   UNL     1      -1.572   4.883  16.336  1.00  0.00     0.049 A 
ATOM     48  H   UNL     1      -1.261   2.907  15.752  1.00  0.00     0.167 HD
ATOM     49  C   UNL     1      -0.722  -1.212  14.439  1.00  0.00     0.034 A 
ATOM     50  C   UNL     1      -0.755   5.134  17.377  1.00  0.00     0.034 A 
ATOM     51  C   UNL     1       0.219  -1.022  15.509  1.00  0.00     0.049 A 
ATOM     52  C   UNL     1       0.147   4.046  17.877  1.00  0.00     0.074 A 
ATOM     53  C   UNL     1       1.129  -1.933  16.017  1.00  0.00     0.029 A 
ATOM     54  N   UNL     1       0.373   0.148  16.232  1.00  0.00    -0.354 N 
ATOM     55  N   UNL     1       0.311   2.837  17.401  1.00  0.00    -0.248 NA
ATOM     56  C   UNL     1       0.983   4.355  19.046  1.00  0.00     0.031 C 
ATOM     57  C   UNL     1       1.823  -1.317  17.061  1.00  0.00     0.029 A 
ATOM     58  C   UNL     1       1.358  -0.018  17.189  1.00  0.00     0.049 A 
ATOM     59  H   UNL     1      -0.141   0.976  16.087  1.00  0.00     0.167 HD
ATOM     60  C   UNL     1       1.278   2.243  18.201  1.00  0.00     0.074 A 
ATOM     61  C   UNL     1       1.675   3.230  19.184  1.00  0.00     0.031 C 
ATOM     62  C   UNL     1       1.776   0.986  18.132  1.00  0.00     0.034 A 
BRANCH  49  63
ATOM     63  C   UNL     1      -0.759  -2.566  13.786  1.00  0.00     0.023 A 
ATOM     64  C   UNL     1      -0.087  -2.764  12.564  1.00  0.00     0.012 A 
ATOM     65  C   UNL     1      -1.347  -3.666  14.442  1.00  0.00     0.148 A 
ATOM     66  C   UNL     1      -0.003  -4.037  12.001  1.00  0.00     0.002 A 
ATOM     67  C   UNL     1      -1.234  -4.936  13.890  1.00  0.00     0.091 A 
ATOM     68  F   UNL     1      -1.988  -3.448  15.599  1.00  0.00    -0.205 F 
ATOM     69  C   UNL     1      -0.566  -5.122  12.668  1.00  0.00     0.022 A 
BRANCH  67  70
ATOM     70  S   UNL     1      -1.874  -6.409  14.694  1.00  0.00     0.127 S 
ATOM     71  O   UNL     1      -2.897  -6.842  13.743  1.00  0.00    -0.237 OA
ATOM     72  O   UNL     1      -0.690  -7.266  14.748  1.00  0.00    -0.237 OA
ATOM     73  O   UNL     1      -2.379  -5.977  15.989  1.00  0.00    -0.744 OA
ENDBRANCH  67  70
ENDBRANCH  49  63
BRANCH  50  74
ATOM     74  C   UNL     1      -0.743   6.494  17.977  1.00  0.00     0.023 A 
ATOM     75  C   UNL     1       0.339   7.355  17.716  1.00  0.00     0.012 A 
ATOM     76  C   UNL     1      -1.839   6.967  18.724  1.00  0.00     0.148 A 
ATOM     77  C   UNL     1       0.330   8.667  18.191  1.00  0.00     0.002 A 
ATOM     78  C   UNL     1      -1.862   8.287  19.157  1.00  0.00     0.091 A 
ATOM     79  F   UNL     1      -2.856   6.125  18.957  1.00  0.00    -0.205 F 
ATOM     80  C   UNL     1      -0.774   9.136  18.900  1.00  0.00     0.022 A 
BRANCH  78  81
ATOM     81  S   UNL     1      -3.284   9.012  19.980  1.00  0.00     0.127 S 
ATOM     82  O   UNL     1      -2.732   9.339  21.294  1.00  0.00    -0.237 OA
ATOM     83  O   UNL     1      -3.566  10.165  19.125  1.00  0.00    -0.237 OA
ATOM     84  O   UNL     1      -4.315   7.984  19.973  1.00  0.00    -0.744 OA
ENDBRANCH  78  81
ENDBRANCH  50  74
BRANCH  62  85
ATOM     85  C   UNL     1       2.824   0.583  19.129  1.00  0.00     0.023 A 
ATOM     86  C   UNL     1       2.433   0.209  20.428  1.00  0.00     0.012 A 
ATOM     87  C   UNL     1       4.167   0.432  18.732  1.00  0.00     0.148 A 
ATOM     88  C   UNL     1       3.367  -0.313  21.321  1.00  0.00     0.002 A 
ATOM     89  C   UNL     1       5.085  -0.121  19.615  1.00  0.00     0.091 A 
ATOM     90  F   UNL     1       4.509   0.801  17.489  1.00  0.00    -0.205 F 
ATOM     91  C   UNL     1       4.687  -0.491  20.911  1.00  0.00     0.022 A 
BRANCH  89  92
ATOM     92  S   UNL     1       6.788  -0.460  19.157  1.00  0.00     0.127 S 
ATOM     93  O   UNL     1       7.520   0.429  20.058  1.00  0.00    -0.237 OA
ATOM     94  O   UNL     1       6.912  -1.883  19.469  1.00  0.00    -0.237 OA
ATOM     95  O   UNL     1       6.901  -0.132  17.743  1.00  0.00    -0.744 OA
ENDBRANCH  89  92
ENDBRANCH  62  85
ENDBRANCH  36  37
ENDBRANCH  28  31
ENDBRANCH  26  27
ENDBRANCH   1  26
TORSDOF 16
