REMARK SMILES C[N@@H+]1CC[N@@H+](C)[C@H](C[NH2+]Cc2ccc(C(=O)NCCCNC(=O)c3ccc(-c4c5nc(c(-c6cccc(S(=O)(=O)[O-])c6F)c6ccc([nH]6)c(-c6cccc(S(=O)(=O)[O-])c6F)c6nc(c(-c7cccc(S(=O)(=O)[O-])c7F)c7ccc4[nH]7)C=C6)C=C5)cc3)cn2)C1
REMARK SMILES IDX 18 1 17 2 15 3 16 4 14 6 11 7 12 8 88 9 13 10 87 11 10 12
REMARK SMILES IDX 9 13 8 16 7 17 1 18 2 19 3 20 89 21 4 23 5 24 6 25 19 27
REMARK SMILES IDX 20 28 21 29 22 30 23 32 24 33 25 34 86 35 26 36 85 37 27 38
REMARK SMILES IDX 28 39 29 40 79 41 30 42 84 43 78 44 80 45 31 46 83 47 77 48
REMARK SMILES IDX 76 49 32 51 64 52 44 53 63 54 45 55 48 56 62 57 81 58 46 59
REMARK SMILES IDX 47 60 61 62 82 63 49 64 33 65 34 66 42 67 35 68 37 69 43 70
REMARK SMILES IDX 36 71 38 72 39 73 40 74 41 75 65 76 66 77 74 78 67 79 69 80
REMARK SMILES IDX 75 81 68 82 70 83 71 84 72 85 73 86 50 87 51 88 59 89 52 90
REMARK SMILES IDX 54 91 60 92 53 93 55 94 56 95 57 96 58 97
REMARK H PARENT 17 5 9 14 9 15 2 22 5 26 21 31 80 50 48 61
REMARK Flexibility Score: inf
ROOT
ATOM      1  C   UNL     1      -2.591   5.660  -7.179  1.00  0.00     0.118 C 
ENDROOT
BRANCH   1   2
ATOM      2  N   UNL     1      -2.014   6.639  -6.278  1.00  0.00    -0.352 N 
ATOM      3  C   UNL     1      -2.022   6.757  -4.912  1.00  0.00     0.252 C 
ATOM      4  O   UNL     1      -1.414   7.710  -4.424  1.00  0.00    -0.269 OA
ATOM      5  H   UNL     1      -1.520   7.358  -6.736  1.00  0.00     0.163 HD
BRANCH   3   6
ATOM      6  C   UNL     1      -2.649   5.764  -4.008  1.00  0.00     0.058 A 
ATOM      7  C   UNL     1      -3.381   3.803  -2.216  1.00  0.00     0.094 A 
ATOM      8  C   UNL     1      -4.012   3.857  -3.452  1.00  0.00     0.030 A 
ATOM      9  N   UNL     1      -2.508   4.756  -1.802  1.00  0.00    -0.255 NA
ATOM     10  C   UNL     1      -3.655   4.863  -4.342  1.00  0.00     0.017 A 
ATOM     11  C   UNL     1      -2.158   5.701  -2.708  1.00  0.00     0.125 A 
BRANCH   7  12
ATOM     12  C   UNL     1      -3.549   2.572  -1.358  1.00  0.00     0.318 C 
BRANCH  12  13
ATOM     13  N   UNL     1      -2.301   1.802  -1.302  1.00  0.00    -0.336 N 
ATOM     14  H   UNL     1      -2.525   0.807  -1.277  1.00  0.00     0.346 HD
ATOM     15  H   UNL     1      -1.746   2.025  -2.128  1.00  0.00     0.346 HD
BRANCH  13  16
ATOM     16  C   UNL     1      -1.514   2.148  -0.104  1.00  0.00     0.332 C 
BRANCH  16  17
ATOM     17  C   UNL     1      -0.730   0.913   0.442  1.00  0.00     0.295 C 
ATOM     18  C   UNL     1       2.894  -0.103  -0.188  1.00  0.00     0.333 C 
ATOM     19  N   UNL     1       1.530  -0.192   0.320  1.00  0.00    -0.328 N 
ATOM     20  C   UNL     1       0.863  -1.415  -0.153  1.00  0.00     0.324 C 
ATOM     21  C   UNL     1       0.724   0.965  -0.121  1.00  0.00     0.334 C 
ATOM     22  H   UNL     1       1.597  -0.206   1.337  1.00  0.00     0.348 HD
ATOM     23  C   UNL     1      -0.559  -1.530   0.435  1.00  0.00     0.324 C 
ATOM     24  N   UNL     1      -1.434  -0.378   0.136  1.00  0.00    -0.321 N 
ATOM     25  C   UNL     1      -2.685  -0.516   0.892  1.00  0.00     0.333 C 
ATOM     26  H   UNL     1      -1.660  -0.363  -0.859  1.00  0.00     0.348 HD
ENDBRANCH  16  17
ENDBRANCH  13  16
ENDBRANCH  12  13
ENDBRANCH   7  12
ENDBRANCH   3   6
ENDBRANCH   1   2
BRANCH   1  27
ATOM     27  C   UNL     1      -3.993   6.078  -7.622  1.00  0.00     0.042 C 
BRANCH  27  28
ATOM     28  C   UNL     1      -3.991   7.272  -8.567  1.00  0.00     0.118 C 
BRANCH  28  29
ATOM     29  N   UNL     1      -3.401   6.938  -9.854  1.00  0.00    -0.352 N 
ATOM     30  C   UNL     1      -3.957   6.975 -11.107  1.00  0.00     0.251 C 
ATOM     31  H   UNL     1      -2.463   6.641  -9.821  1.00  0.00     0.163 HD
ATOM     32  O   UNL     1      -3.384   6.410 -12.035  1.00  0.00    -0.269 OA
BRANCH  30  33
ATOM     33  C   UNL     1      -5.232   7.687 -11.343  1.00  0.00     0.039 A 
ATOM     34  C   UNL     1      -6.157   7.136 -12.236  1.00  0.00     0.014 A 
ATOM     35  C   UNL     1      -5.497   8.917 -10.733  1.00  0.00     0.014 A 
ATOM     36  C   UNL     1      -7.358   7.801 -12.488  1.00  0.00     0.010 A 
ATOM     37  C   UNL     1      -6.726   9.539 -10.926  1.00  0.00     0.010 A 
ATOM     38  C   UNL     1      -7.661   8.998 -11.820  1.00  0.00    -0.014 A 
BRANCH  38  39
ATOM     39  C   UNL     1      -8.945   9.705 -12.049  1.00  0.00     0.031 A 
ATOM     40  C   UNL     1      -8.952  11.086 -12.649  1.00  0.00     0.074 A 
ATOM     41  C   UNL     1     -10.096   9.139 -11.638  1.00  0.00     0.049 A 
ATOM     42  N   UNL     1      -9.964  11.884 -12.870  1.00  0.00    -0.248 NA
ATOM     43  C   UNL     1      -7.647  11.659 -13.021  1.00  0.00     0.031 C 
ATOM     44  C   UNL     1     -10.207   7.840 -10.970  1.00  0.00     0.029 A 
ATOM     45  N   UNL     1     -11.389   9.593 -11.696  1.00  0.00    -0.354 N 
ATOM     46  C   UNL     1      -9.419  13.062 -13.368  1.00  0.00     0.074 A 
ATOM     47  C   UNL     1      -7.984  12.888 -13.386  1.00  0.00     0.031 C 
ATOM     48  C   UNL     1     -11.496   7.602 -10.682  1.00  0.00     0.029 A 
ATOM     49  C   UNL     1     -12.300   8.739 -11.119  1.00  0.00     0.049 A 
ATOM     50  H   UNL     1     -11.642  10.450 -12.110  1.00  0.00     0.167 HD
ATOM     51  C   UNL     1     -10.057  14.176 -13.801  1.00  0.00     0.034 A 
ATOM     52  C   UNL     1     -13.632   8.861 -10.957  1.00  0.00     0.034 A 
ATOM     53  C   UNL     1     -11.487  14.321 -13.827  1.00  0.00     0.049 A 
ATOM     54  C   UNL     1     -14.321  10.084 -11.498  1.00  0.00     0.074 A 
ATOM     55  C   UNL     1     -12.237  15.369 -14.331  1.00  0.00     0.029 A 
ATOM     56  N   UNL     1     -12.385  13.392 -13.326  1.00  0.00    -0.354 N 
ATOM     57  N   UNL     1     -13.802  11.118 -12.115  1.00  0.00    -0.248 NA
ATOM     58  C   UNL     1     -15.783  10.140 -11.357  1.00  0.00     0.031 C 
ATOM     59  C   UNL     1     -13.589  15.080 -14.118  1.00  0.00     0.029 A 
ATOM     60  C   UNL     1     -13.682  13.842 -13.502  1.00  0.00     0.049 A 
ATOM     61  H   UNL     1     -12.137  12.536 -12.906  1.00  0.00     0.167 HD
ATOM     62  C   UNL     1     -14.874  11.930 -12.467  1.00  0.00     0.074 A 
ATOM     63  C   UNL     1     -16.073  11.255 -12.014  1.00  0.00     0.031 C 
ATOM     64  C   UNL     1     -14.867  13.132 -13.094  1.00  0.00     0.034 A 
BRANCH  51  65
ATOM     65  C   UNL     1      -9.213  15.303 -14.337  1.00  0.00     0.023 A 
ATOM     66  C   UNL     1      -8.559  15.152 -15.578  1.00  0.00     0.012 A 
ATOM     67  C   UNL     1      -9.109  16.528 -13.648  1.00  0.00     0.148 A 
ATOM     68  C   UNL     1      -7.787  16.185 -16.107  1.00  0.00     0.002 A 
ATOM     69  C   UNL     1      -8.374  17.570 -14.204  1.00  0.00     0.091 A 
ATOM     70  F   UNL     1      -9.719  16.648 -12.460  1.00  0.00    -0.205 F 
ATOM     71  C   UNL     1      -7.703  17.396 -15.426  1.00  0.00     0.022 A 
BRANCH  69  72
ATOM     72  S   UNL     1      -8.268  19.194 -13.444  1.00  0.00     0.127 S 
ATOM     73  O   UNL     1      -6.886  19.207 -12.967  1.00  0.00    -0.237 OA
ATOM     74  O   UNL     1      -8.530  20.082 -14.577  1.00  0.00    -0.237 OA
ATOM     75  O   UNL     1      -9.289  19.219 -12.406  1.00  0.00    -0.744 OA
ENDBRANCH  69  72
ENDBRANCH  51  65
BRANCH  52  76
ATOM     76  C   UNL     1     -14.407   7.758 -10.322  1.00  0.00     0.023 A 
ATOM     77  C   UNL     1     -15.265   6.973 -11.117  1.00  0.00     0.012 A 
ATOM     78  C   UNL     1     -14.271   7.456  -8.954  1.00  0.00     0.148 A 
ATOM     79  C   UNL     1     -15.999   5.928 -10.554  1.00  0.00     0.002 A 
ATOM     80  C   UNL     1     -14.963   6.379  -8.411  1.00  0.00     0.091 A 
ATOM     81  F   UNL     1     -13.457   8.220  -8.212  1.00  0.00    -0.205 F 
ATOM     82  C   UNL     1     -15.841   5.625  -9.205  1.00  0.00     0.022 A 
BRANCH  80  83
ATOM     83  S   UNL     1     -14.715   5.831  -6.718  1.00  0.00     0.127 S 
ATOM     84  O   UNL     1     -15.961   6.247  -6.082  1.00  0.00    -0.237 OA
ATOM     85  O   UNL     1     -14.559   4.386  -6.886  1.00  0.00    -0.237 OA
ATOM     86  O   UNL     1     -13.509   6.511  -6.260  1.00  0.00    -0.744 OA
ENDBRANCH  80  83
ENDBRANCH  52  76
BRANCH  64  87
ATOM     87  C   UNL     1     -16.196  13.786 -13.362  1.00  0.00     0.023 A 
ATOM     88  C   UNL     1     -16.924  14.353 -12.297  1.00  0.00     0.012 A 
ATOM     89  C   UNL     1     -16.688  13.902 -14.677  1.00  0.00     0.148 A 
ATOM     90  C   UNL     1     -18.137  14.998 -12.534  1.00  0.00     0.002 A 
ATOM     91  C   UNL     1     -17.873  14.589 -14.910  1.00  0.00     0.091 A 
ATOM     92  F   UNL     1     -15.991  13.338 -15.674  1.00  0.00    -0.205 F 
ATOM     93  C   UNL     1     -18.605  15.127 -13.839  1.00  0.00     0.022 A 
BRANCH  91  94
ATOM     94  S   UNL     1     -18.500  14.886 -16.567  1.00  0.00     0.127 S 
ATOM     95  O   UNL     1     -19.619  13.947 -16.636  1.00  0.00    -0.237 OA
ATOM     96  O   UNL     1     -18.889  16.295 -16.506  1.00  0.00    -0.237 OA
ATOM     97  O   UNL     1     -17.391  14.606 -17.470  1.00  0.00    -0.744 OA
ENDBRANCH  91  94
ENDBRANCH  64  87
ENDBRANCH  38  39
ENDBRANCH  30  33
ENDBRANCH  28  29
ENDBRANCH  27  28
ENDBRANCH   1  27
TORSDOF 17
