REMARK SMILES CC(C)C(=O)Nc1ccc2c([C@H](C(=O)NCCCNC(=O)c3ccc(-c4c5nc(c(-c6cccc(S(=O)(=O)[O-])c6F)c6ccc([nH]6)c(-c6cccc(S(=O)(=O)[O-])c6F)c6nc(c(-c7cccc(S(=O)(=O)[O-])c7F)c7ccc4[nH]7)C=C6)C=C5)cc3)[NH+]3CC[NH+](CC(=O)N(C)C)CC3)c[nH]c2c1
REMARK SMILES IDX 17 1 16 2 15 3 13 4 14 5 12 7 11 8 7 9 8 10 100 11 9 12
REMARK SMILES IDX 99 13 10 14 98 15 97 16 6 18 4 19 5 20 2 22 1 23 3 24 85 25
REMARK SMILES IDX 86 26 96 27 87 29 95 30 88 31 89 33 90 34 91 35 92 36 93 37
REMARK SMILES IDX 94 38 18 39 19 40 20 41 21 43 22 44 23 45 84 46 24 47 83 48
REMARK SMILES IDX 25 49 26 50 27 51 77 52 28 53 82 54 76 55 78 56 29 57 81 58
REMARK SMILES IDX 75 59 74 60 30 62 62 63 42 64 61 65 43 66 46 67 60 68 79 69
REMARK SMILES IDX 44 70 45 71 59 73 80 74 47 75 31 76 32 77 40 78 33 79 35 80
REMARK SMILES IDX 41 81 34 82 36 83 37 84 38 85 39 86 63 87 64 88 72 89 65 90
REMARK SMILES IDX 67 91 73 92 66 93 68 94 69 95 70 96 71 97 48 98 49 99 57 100
REMARK SMILES IDX 50 101 52 102 58 103 51 104 53 105 54 106 55 107 56 108
REMARK H PARENT 15 6 98 17 6 21 85 28 88 32 19 42 78 61 46 72
REMARK Flexibility Score: inf
ROOT
ATOM      1  C   UNL     1       0.933  -3.474   4.800  1.00  0.00     0.042 C 
ENDROOT
BRANCH   1   2
ATOM      2  C   UNL     1       0.813  -2.066   4.172  1.00  0.00     0.118 C 
BRANCH   2   3
ATOM      3  N   UNL     1       0.029  -1.180   5.028  1.00  0.00    -0.351 N 
ATOM      4  C   UNL     1       0.172  -0.228   5.988  1.00  0.00     0.283 C 
ATOM      5  O   UNL     1      -0.970   0.069   6.392  1.00  0.00    -0.268 OA
ATOM      6  H   UNL     1      -0.928  -1.319   4.848  1.00  0.00     0.163 HD
BRANCH   4   7
ATOM      7  C   UNL     1       1.452   0.613   6.449  1.00  0.00     0.308 C 
BRANCH   7   8
ATOM      8  C   UNL     1       1.136   1.687   7.533  1.00  0.00     0.044 A 
ATOM      9  C   UNL     1       3.351   4.649   9.605  1.00  0.00     0.043 A 
ATOM     10  C   UNL     1       4.087   3.815   8.775  1.00  0.00     0.027 A 
ATOM     11  C   UNL     1       2.001   4.388   9.844  1.00  0.00     0.052 A 
ATOM     12  C   UNL     1       3.466   2.819   8.014  1.00  0.00     0.013 A 
ATOM     13  C   UNL     1       1.395   3.379   9.084  1.00  0.00     0.048 A 
ATOM     14  C   UNL     1       2.078   2.608   8.140  1.00  0.00     0.009 A 
ATOM     15  N   UNL     1       0.097   2.945   9.089  1.00  0.00    -0.361 N 
ATOM     16  C   UNL     1      -0.065   1.942   8.179  1.00  0.00     0.094 A 
ATOM     17  H   UNL     1      -0.615   3.305   9.665  1.00  0.00     0.166 HD
BRANCH   9  18
ATOM     18  N   UNL     1       3.927   5.748  10.250  1.00  0.00    -0.326 N 
ATOM     19  C   UNL     1       4.777   6.705   9.776  1.00  0.00     0.226 C 
ATOM     20  O   UNL     1       5.262   7.492  10.599  1.00  0.00    -0.274 OA
ATOM     21  H   UNL     1       3.680   5.847  11.198  1.00  0.00     0.169 HD
BRANCH  19  22
ATOM     22  C   UNL     1       5.053   6.925   8.280  1.00  0.00     0.072 C 
ATOM     23  C   UNL     1       6.115   6.017   7.674  1.00  0.00     0.018 C 
ATOM     24  C   UNL     1       3.793   7.019   7.422  1.00  0.00     0.018 C 
ENDBRANCH  19  22
ENDBRANCH   9  18
ENDBRANCH   7   8
BRANCH   7  25
ATOM     25  N   UNL     1       2.643  -0.109   6.902  1.00  0.00    -0.312 N 
ATOM     26  C   UNL     1       2.820  -0.659   8.245  1.00  0.00     0.325 C 
ATOM     27  C   UNL     1       3.610  -0.603   5.951  1.00  0.00     0.325 C 
ATOM     28  H   UNL     1       2.740   0.883   7.118  1.00  0.00     0.349 HD
ATOM     29  C   UNL     1       3.026  -2.201   8.323  1.00  0.00     0.325 C 
ATOM     30  C   UNL     1       3.472  -2.118   5.947  1.00  0.00     0.325 C 
ATOM     31  N   UNL     1       3.659  -2.864   7.173  1.00  0.00    -0.318 N 
ATOM     32  H   UNL     1       3.131  -3.732   7.077  1.00  0.00     0.348 HD
BRANCH  31  33
ATOM     33  C   UNL     1       4.997  -3.427   7.362  1.00  0.00     0.364 C 
BRANCH  33  34
ATOM     34  C   UNL     1       6.101  -2.377   7.220  1.00  0.00     0.277 C 
ATOM     35  O   UNL     1       6.463  -1.739   8.214  1.00  0.00    -0.268 OA
ATOM     36  N   UNL     1       6.605  -2.084   5.947  1.00  0.00    -0.344 N 
ATOM     37  C   UNL     1       6.363  -2.822   4.712  1.00  0.00     0.146 C 
ATOM     38  C   UNL     1       7.466  -0.924   5.817  1.00  0.00     0.146 C 
ENDBRANCH  33  34
ENDBRANCH  31  33
ENDBRANCH   7  25
ENDBRANCH   4   7
ENDBRANCH   2   3
ENDBRANCH   1   2
BRANCH   1  39
ATOM     39  C   UNL     1      -0.146  -4.479   4.447  1.00  0.00     0.118 C 
BRANCH  39  40
ATOM     40  N   UNL     1       0.221  -5.274   3.286  1.00  0.00    -0.352 N 
ATOM     41  C   UNL     1       0.780  -6.526   3.160  1.00  0.00     0.251 C 
ATOM     42  H   UNL     1       0.034  -4.833   2.426  1.00  0.00     0.163 HD
ATOM     43  O   UNL     1       1.232  -6.828   2.053  1.00  0.00    -0.269 OA
BRANCH  41  44
ATOM     44  C   UNL     1       0.869  -7.517   4.273  1.00  0.00     0.039 A 
ATOM     45  C   UNL     1       1.839  -8.528   4.186  1.00  0.00     0.014 A 
ATOM     46  C   UNL     1      -0.028  -7.559   5.340  1.00  0.00     0.014 A 
ATOM     47  C   UNL     1       1.913  -9.542   5.154  1.00  0.00     0.010 A 
ATOM     48  C   UNL     1       0.123  -8.494   6.368  1.00  0.00     0.010 A 
ATOM     49  C   UNL     1       1.063  -9.527   6.269  1.00  0.00    -0.014 A 
BRANCH  49  50
ATOM     50  C   UNL     1       1.095 -10.603   7.303  1.00  0.00     0.031 A 
ATOM     51  C   UNL     1      -0.144 -11.423   7.588  1.00  0.00     0.074 A 
ATOM     52  C   UNL     1       2.206 -10.803   8.041  1.00  0.00     0.049 A 
ATOM     53  N   UNL     1      -0.334 -12.352   8.491  1.00  0.00    -0.248 NA
ATOM     54  C   UNL     1      -1.339 -11.139   6.774  1.00  0.00     0.031 C 
ATOM     55  C   UNL     1       3.449 -10.039   7.923  1.00  0.00     0.029 A 
ATOM     56  N   UNL     1       2.462 -11.695   9.055  1.00  0.00    -0.354 N 
ATOM     57  C   UNL     1      -1.673 -12.717   8.393  1.00  0.00     0.074 A 
ATOM     58  C   UNL     1      -2.260 -11.887   7.365  1.00  0.00     0.031 C 
ATOM     59  C   UNL     1       4.340 -10.505   8.813  1.00  0.00     0.029 A 
ATOM     60  C   UNL     1       3.722 -11.573   9.594  1.00  0.00     0.049 A 
ATOM     61  H   UNL     1       1.805 -12.359   9.366  1.00  0.00     0.167 HD
ATOM     62  C   UNL     1      -2.353 -13.673   9.071  1.00  0.00     0.034 A 
ATOM     63  C   UNL     1       4.314 -12.239  10.605  1.00  0.00     0.034 A 
ATOM     64  C   UNL     1      -1.754 -14.545  10.045  1.00  0.00     0.049 A 
ATOM     65  C   UNL     1       3.554 -13.331  11.310  1.00  0.00     0.074 A 
ATOM     66  C   UNL     1      -2.325 -15.619  10.705  1.00  0.00     0.029 A 
ATOM     67  N   UNL     1      -0.451 -14.441  10.505  1.00  0.00    -0.354 N 
ATOM     68  N   UNL     1       2.337 -13.765  11.090  1.00  0.00    -0.248 NA
ATOM     69  C   UNL     1       4.263 -14.049  12.380  1.00  0.00     0.031 C 
ATOM     70  C   UNL     1      -1.377 -16.142  11.590  1.00  0.00     0.029 A 
ATOM     71  C   UNL     1      -0.203 -15.419  11.452  1.00  0.00     0.049 A 
ATOM     72  H   UNL     1       0.203 -13.770  10.202  1.00  0.00     0.167 HD
ATOM     73  C   UNL     1       2.147 -14.829  11.963  1.00  0.00     0.074 A 
ATOM     74  C   UNL     1       3.382 -14.987  12.703  1.00  0.00     0.031 C 
ATOM     75  C   UNL     1       1.047 -15.600  12.145  1.00  0.00     0.034 A 
BRANCH  62  76
ATOM     76  C   UNL     1      -3.817 -13.860   8.755  1.00  0.00     0.023 A 
ATOM     77  C   UNL     1      -4.204 -14.400   7.510  1.00  0.00     0.012 A 
ATOM     78  C   UNL     1      -4.807 -13.555   9.710  1.00  0.00     0.148 A 
ATOM     79  C   UNL     1      -5.551 -14.590   7.204  1.00  0.00     0.002 A 
ATOM     80  C   UNL     1      -6.145 -13.794   9.416  1.00  0.00     0.091 A 
ATOM     81  F   UNL     1      -4.425 -13.027  10.881  1.00  0.00    -0.205 F 
ATOM     82  C   UNL     1      -6.520 -14.297   8.160  1.00  0.00     0.022 A 
BRANCH  80  83
ATOM     83  S   UNL     1      -7.462 -13.531  10.610  1.00  0.00     0.127 S 
ATOM     84  O   UNL     1      -8.138 -12.362  10.049  1.00  0.00    -0.237 OA
ATOM     85  O   UNL     1      -8.220 -14.778  10.511  1.00  0.00    -0.237 OA
ATOM     86  O   UNL     1      -6.806 -13.319  11.892  1.00  0.00    -0.744 OA
ENDBRANCH  80  83
ENDBRANCH  62  76
BRANCH  63  87
ATOM     87  C   UNL     1       5.731 -11.943  10.966  1.00  0.00     0.023 A 
ATOM     88  C   UNL     1       6.728 -12.898  10.686  1.00  0.00     0.012 A 
ATOM     89  C   UNL     1       6.099 -10.720  11.559  1.00  0.00     0.148 A 
ATOM     90  C   UNL     1       8.061 -12.655  11.017  1.00  0.00     0.002 A 
ATOM     91  C   UNL     1       7.437 -10.461  11.835  1.00  0.00     0.091 A 
ATOM     92  F   UNL     1       5.135  -9.829  11.828  1.00  0.00    -0.205 F 
ATOM     93  C   UNL     1       8.417 -11.434  11.582  1.00  0.00     0.022 A 
BRANCH  91  94
ATOM     94  S   UNL     1       8.010  -8.870  12.441  1.00  0.00     0.127 S 
ATOM     95  O   UNL     1       8.440  -9.203  13.795  1.00  0.00    -0.237 OA
ATOM     96  O   UNL     1       9.090  -8.565  11.504  1.00  0.00    -0.237 OA
ATOM     97  O   UNL     1       6.860  -7.977  12.344  1.00  0.00    -0.744 OA
ENDBRANCH  91  94
ENDBRANCH  63  87
BRANCH  75  98
ATOM     98  C   UNL     1       1.131 -16.719  13.149  1.00  0.00     0.023 A 
ATOM     99  C   UNL     1       1.159 -16.430  14.528  1.00  0.00     0.012 A 
ATOM    100  C   UNL     1       1.105 -18.063  12.725  1.00  0.00     0.148 A 
ATOM    101  C   UNL     1       1.196 -17.459  15.467  1.00  0.00     0.002 A 
ATOM    102  C   UNL     1       1.087 -19.083  13.668  1.00  0.00     0.091 A 
ATOM    103  F   UNL     1       1.095 -18.318  11.409  1.00  0.00    -0.205 F 
ATOM    104  C   UNL     1       1.146 -18.784  15.039  1.00  0.00     0.022 A 
BRANCH 102 105
ATOM    105  S   UNL     1       0.921 -20.813  13.212  1.00  0.00     0.127 S 
ATOM    106  O   UNL     1       2.258 -21.327  13.504  1.00  0.00    -0.237 OA
ATOM    107  O   UNL     1      -0.124 -21.276  14.125  1.00  0.00    -0.237 OA
ATOM    108  O   UNL     1       0.542 -20.823  11.805  1.00  0.00    -0.744 OA
ENDBRANCH 102 105
ENDBRANCH  75  98
ENDBRANCH  49  50
ENDBRANCH  41  44
ENDBRANCH  39  40
ENDBRANCH   1  39
TORSDOF 19
