REMARK SMILES CC1(C)C[C@@](Cc2ccccc2)(C(=O)NCCCNC(=O)c2ccc(-c3c4nc(c(-c5cccc(S(=O)(=O)[O-])c5F)c5ccc([nH]5)c(-c5cccc(S(=O)(=O)[O-])c5F)c5nc(c(-c6cccc(S(=O)(=O)[O-])c6F)c6ccc3[nH]6)C=C5)C=C4)cc2)CCO1
REMARK SMILES IDX 17 1 16 2 15 3 13 4 14 5 5 7 1 8 2 9 3 10 4 11 87 12 86 13
REMARK SMILES IDX 85 14 6 15 7 16 8 17 12 18 9 19 11 20 10 21 18 22 19 23
REMARK SMILES IDX 20 24 21 26 22 27 23 28 84 29 24 30 83 31 25 32 26 33 27 34
REMARK SMILES IDX 77 35 28 36 82 37 76 38 78 39 29 40 81 41 75 42 74 43 30 45
REMARK SMILES IDX 62 46 42 47 61 48 43 49 46 50 60 51 79 52 44 53 45 54 59 56
REMARK SMILES IDX 80 57 47 58 31 59 32 60 40 61 33 62 35 63 41 64 34 65 36 66
REMARK SMILES IDX 37 67 38 68 39 69 63 70 64 71 72 72 65 73 67 74 73 75 66 76
REMARK SMILES IDX 68 77 69 78 70 79 71 80 48 81 49 82 57 83 50 84 52 85 58 86
REMARK SMILES IDX 51 87 53 88 54 89 55 90 56 91
REMARK H PARENT 15 6 19 25 78 44 46 55
REMARK Flexibility Score: inf
ROOT
ATOM      1  C   UNL     1      -3.610   3.324  -1.449  1.00  0.00     0.042 C 
ENDROOT
BRANCH   1   2
ATOM      2  C   UNL     1      -3.706   1.793  -1.393  1.00  0.00     0.117 C 
BRANCH   2   3
ATOM      3  N   UNL     1      -2.434   1.108  -1.580  1.00  0.00    -0.356 N 
ATOM      4  C   UNL     1      -1.406   0.702  -0.795  1.00  0.00     0.226 C 
ATOM      5  O   UNL     1      -0.445   0.270  -1.441  1.00  0.00    -0.274 OA
ATOM      6  H   UNL     1      -2.281   0.880  -2.525  1.00  0.00     0.163 HD
BRANCH   4   7
ATOM      7  C   UNL     1      -1.401   0.662   0.753  1.00  0.00     0.058 C 
ATOM      8  C   UNL     1       1.540  -1.032   0.026  1.00  0.00     0.042 C 
ATOM      9  C   UNL     1       0.754  -0.817   1.329  1.00  0.00     0.064 C 
ATOM     10  C   UNL     1       1.781  -0.828   2.483  1.00  0.00     0.042 C 
ATOM     11  C   UNL     1       0.026   0.537   1.380  1.00  0.00     0.052 C 
ATOM     12  O   UNL     1      -0.144  -1.898   1.601  1.00  0.00    -0.376 OA
ATOM     13  C   UNL     1      -1.364  -1.873   0.864  1.00  0.00     0.162 C 
ATOM     14  C   UNL     1      -2.178  -0.610   1.162  1.00  0.00     0.046 C 
BRANCH   7  15
ATOM     15  C   UNL     1      -2.015   1.942   1.391  1.00  0.00     0.052 C 
BRANCH  15  16
ATOM     16  C   UNL     1      -1.238   3.246   1.234  1.00  0.00    -0.047 A 
ATOM     17  C   UNL     1      -1.377   4.234   2.219  1.00  0.00     0.004 A 
ATOM     18  C   UNL     1      -0.406   3.530   0.137  1.00  0.00     0.004 A 
ATOM     19  C   UNL     1      -0.677   5.441   2.126  1.00  0.00     0.000 A 
ATOM     20  C   UNL     1       0.296   4.731   0.046  1.00  0.00     0.000 A 
ATOM     21  C   UNL     1       0.164   5.686   1.044  1.00  0.00     0.000 A 
ENDBRANCH  15  16
ENDBRANCH   7  15
ENDBRANCH   4   7
ENDBRANCH   2   3
ENDBRANCH   1   2
BRANCH   1  22
ATOM     22  C   UNL     1      -2.833   3.893  -2.638  1.00  0.00     0.118 C 
BRANCH  22  23
ATOM     23  N   UNL     1      -3.600   3.811  -3.869  1.00  0.00    -0.352 N 
ATOM     24  C   UNL     1      -4.089   4.821  -4.661  1.00  0.00     0.251 C 
ATOM     25  H   UNL     1      -3.797   2.898  -4.182  1.00  0.00     0.163 HD
ATOM     26  O   UNL     1      -4.945   4.555  -5.502  1.00  0.00    -0.269 OA
BRANCH  24  27
ATOM     27  C   UNL     1      -3.601   6.215  -4.525  1.00  0.00     0.039 A 
ATOM     28  C   UNL     1      -4.521   7.264  -4.637  1.00  0.00     0.014 A 
ATOM     29  C   UNL     1      -2.239   6.504  -4.392  1.00  0.00     0.014 A 
ATOM     30  C   UNL     1      -4.083   8.592  -4.600  1.00  0.00     0.010 A 
ATOM     31  C   UNL     1      -1.808   7.831  -4.304  1.00  0.00     0.010 A 
ATOM     32  C   UNL     1      -2.722   8.889  -4.430  1.00  0.00    -0.014 A 
BRANCH  32  33
ATOM     33  C   UNL     1      -2.237  10.297  -4.419  1.00  0.00     0.031 A 
ATOM     34  C   UNL     1      -1.352  10.805  -5.529  1.00  0.00     0.074 A 
ATOM     35  C   UNL     1      -2.544  11.108  -3.388  1.00  0.00     0.049 A 
ATOM     36  N   UNL     1      -0.802  11.984  -5.675  1.00  0.00    -0.248 NA
ATOM     37  C   UNL     1      -1.025   9.856  -6.606  1.00  0.00     0.031 C 
ATOM     38  C   UNL     1      -3.345  10.728  -2.224  1.00  0.00     0.029 A 
ATOM     39  N   UNL     1      -2.200  12.415  -3.143  1.00  0.00    -0.354 N 
ATOM     40  C   UNL     1      -0.040  11.909  -6.836  1.00  0.00     0.074 A 
ATOM     41  C   UNL     1      -0.173  10.559  -7.339  1.00  0.00     0.031 C 
ATOM     42  C   UNL     1      -3.436  11.779  -1.392  1.00  0.00     0.029 A 
ATOM     43  C   UNL     1      -2.683  12.899  -1.949  1.00  0.00     0.049 A 
ATOM     44  H   UNL     1      -1.659  12.956  -3.763  1.00  0.00     0.167 HD
ATOM     45  C   UNL     1       0.679  12.881  -7.449  1.00  0.00     0.034 A 
ATOM     46  C   UNL     1      -2.538  14.108  -1.370  1.00  0.00     0.034 A 
ATOM     47  C   UNL     1       0.774  14.237  -6.978  1.00  0.00     0.049 A 
ATOM     48  C   UNL     1      -1.763  15.181  -2.087  1.00  0.00     0.074 A 
ATOM     49  C   UNL     1       1.421  15.311  -7.565  1.00  0.00     0.029 A 
ATOM     50  N   UNL     1       0.203  14.709  -5.806  1.00  0.00    -0.354 N 
ATOM     51  N   UNL     1      -1.168  15.130  -3.254  1.00  0.00    -0.248 NA
ATOM     52  C   UNL     1      -1.671  16.490  -1.424  1.00  0.00     0.031 C 
ATOM     53  C   UNL     1       1.248  16.430  -6.742  1.00  0.00     0.029 A 
ATOM     54  C   UNL     1       0.481  16.056  -5.651  1.00  0.00     0.049 A 
ATOM     55  H   UNL     1      -0.323  14.165  -5.176  1.00  0.00     0.167 HD
ATOM     56  C   UNL     1      -0.670  16.407  -3.485  1.00  0.00     0.074 A 
ATOM     57  C   UNL     1      -1.045  17.215  -2.343  1.00  0.00     0.031 C 
ATOM     58  C   UNL     1       0.046  16.866  -4.541  1.00  0.00     0.034 A 
BRANCH  45  59
ATOM     59  C   UNL     1       1.374  12.524  -8.739  1.00  0.00     0.023 A 
ATOM     60  C   UNL     1       0.605  12.322  -9.904  1.00  0.00     0.012 A 
ATOM     61  C   UNL     1       2.778  12.433  -8.816  1.00  0.00     0.148 A 
ATOM     62  C   UNL     1       1.216  11.995 -11.113  1.00  0.00     0.002 A 
ATOM     63  C   UNL     1       3.383  12.148 -10.036  1.00  0.00     0.091 A 
ATOM     64  F   UNL     1       3.494  12.607  -7.696  1.00  0.00    -0.205 F 
ATOM     65  C   UNL     1       2.604  11.917 -11.181  1.00  0.00     0.022 A 
BRANCH  63  66
ATOM     66  S   UNL     1       5.169  12.104 -10.235  1.00  0.00     0.127 S 
ATOM     67  O   UNL     1       5.423  10.663 -10.294  1.00  0.00    -0.237 OA
ATOM     68  O   UNL     1       5.356  12.804 -11.509  1.00  0.00    -0.237 OA
ATOM     69  O   UNL     1       5.715  12.795  -9.082  1.00  0.00    -0.744 OA
ENDBRANCH  63  66
ENDBRANCH  45  59
BRANCH  46  70
ATOM     70  C   UNL     1      -3.223  14.398  -0.078  1.00  0.00     0.023 A 
ATOM     71  C   UNL     1      -4.327  15.274  -0.070  1.00  0.00     0.012 A 
ATOM     72  C   UNL     1      -2.816  13.796   1.128  1.00  0.00     0.148 A 
ATOM     73  C   UNL     1      -4.995  15.566   1.119  1.00  0.00     0.002 A 
ATOM     74  C   UNL     1      -3.519  14.051   2.300  1.00  0.00     0.091 A 
ATOM     75  F   UNL     1      -1.755  12.977   1.103  1.00  0.00    -0.205 F 
ATOM     76  C   UNL     1      -4.599  14.947   2.301  1.00  0.00     0.022 A 
BRANCH  74  77
ATOM     77  S   UNL     1      -3.160  13.202   3.842  1.00  0.00     0.127 S 
ATOM     78  O   UNL     1      -2.545  14.264   4.633  1.00  0.00    -0.237 OA
ATOM     79  O   UNL     1      -4.496  12.798   4.285  1.00  0.00    -0.237 OA
ATOM     80  O   UNL     1      -2.289  12.091   3.484  1.00  0.00    -0.744 OA
ENDBRANCH  74  77
ENDBRANCH  46  70
BRANCH  58  81
ATOM     81  C   UNL     1       0.442  18.320  -4.542  1.00  0.00     0.023 A 
ATOM     82  C   UNL     1       1.468  18.766  -3.685  1.00  0.00     0.012 A 
ATOM     83  C   UNL     1      -0.149  19.227  -5.443  1.00  0.00     0.148 A 
ATOM     84  C   UNL     1       1.879  20.098  -3.706  1.00  0.00     0.002 A 
ATOM     85  C   UNL     1       0.297  20.543  -5.489  1.00  0.00     0.091 A 
ATOM     86  F   UNL     1      -1.139  18.790  -6.235  1.00  0.00    -0.205 F 
ATOM     87  C   UNL     1       1.303  20.983  -4.615  1.00  0.00     0.022 A 
BRANCH  85  88
ATOM     88  S   UNL     1      -0.325  21.724  -6.692  1.00  0.00     0.127 S 
ATOM     89  O   UNL     1      -1.215  22.545  -5.872  1.00  0.00    -0.237 OA
ATOM     90  O   UNL     1       0.897  22.400  -7.129  1.00  0.00    -0.237 OA
ATOM     91  O   UNL     1      -0.976  20.932  -7.727  1.00  0.00    -0.744 OA
ENDBRANCH  85  88
ENDBRANCH  58  81
ENDBRANCH  32  33
ENDBRANCH  24  27
ENDBRANCH  22  23
ENDBRANCH   1  22
TORSDOF 15
