REMARK SMILES Cc1cc(F)c([C@H](O)[C@H]2CCCC[C@@H]2C(=O)NCCCNC(=O)c2ccc(-c3c4nc(c(-c5cccc(S(=O)(=O)[O-])c5F)c5ccc([nH]5)c(-c5cccc(S(=O)(=O)[O-])c5F)c5nc(c(-c6cccc(S(=O)(=O)[O-])c6F)c6ccc3[nH]6)C=C5)C=C4)cc2)cc1F
REMARK SMILES IDX 19 1 18 2 17 3 15 4 16 5 14 7 9 8 10 9 11 10 13 11 12 12
REMARK SMILES IDX 7 13 6 14 1 15 2 16 3 17 88 18 4 19 87 20 89 21 5 22 8 23
REMARK SMILES IDX 20 25 21 26 22 27 23 29 24 30 25 31 86 32 26 33 85 34 27 35
REMARK SMILES IDX 28 36 29 37 79 38 30 39 84 40 78 41 80 42 31 43 83 44 77 45
REMARK SMILES IDX 76 46 32 48 64 49 44 50 63 51 45 52 48 53 62 54 81 55 46 56
REMARK SMILES IDX 47 57 61 59 82 60 49 61 33 62 34 63 42 64 35 65 37 66 43 67
REMARK SMILES IDX 36 68 38 69 39 70 40 71 41 72 65 73 66 74 74 75 67 76 69 77
REMARK SMILES IDX 75 78 68 79 70 80 71 81 72 82 73 83 50 84 51 85 59 86 52 87
REMARK SMILES IDX 54 88 60 89 53 90 55 91 56 92 57 93 58 94
REMARK H PARENT 17 6 8 24 21 28 80 47 48 58
REMARK Flexibility Score: inf
ROOT
ATOM      1  C   UNL     1      -1.529  -1.541   6.499  1.00  0.00     0.042 C 
ENDROOT
BRANCH   1   2
ATOM      2  C   UNL     1      -0.464  -0.476   6.303  1.00  0.00     0.117 C 
BRANCH   2   3
ATOM      3  N   UNL     1      -0.651   0.267   5.069  1.00  0.00    -0.356 N 
ATOM      4  C   UNL     1      -0.965   1.537   4.738  1.00  0.00     0.223 C 
ATOM      5  O   UNL     1      -0.999   1.744   3.516  1.00  0.00    -0.275 OA
ATOM      6  H   UNL     1      -0.514  -0.298   4.274  1.00  0.00     0.163 HD
BRANCH   4   7
ATOM      7  C   UNL     1      -1.336   2.679   5.708  1.00  0.00     0.084 C 
ATOM      8  C   UNL     1      -0.743   4.010   5.141  1.00  0.00     0.035 C 
ATOM      9  C   UNL     1       0.795   4.002   5.351  1.00  0.00     0.007 C 
ATOM     10  C   UNL     1       1.202   3.800   6.812  1.00  0.00     0.000 C 
ATOM     11  C   UNL     1      -0.986   2.571   7.190  1.00  0.00     0.014 C 
ATOM     12  C   UNL     1       0.522   2.591   7.442  1.00  0.00     0.001 C 
BRANCH   8  13
ATOM     13  C   UNL     1      -1.362   5.305   5.741  1.00  0.00     0.151 C 
BRANCH  13  14
ATOM     14  C   UNL     1      -2.865   5.418   5.783  1.00  0.00     0.019 A 
ATOM     15  C   UNL     1      -7.170   5.801   6.035  1.00  0.00     0.047 C 
ATOM     16  C   UNL     1      -5.682   5.678   5.926  1.00  0.00    -0.012 A 
ATOM     17  C   UNL     1      -5.068   5.235   4.750  1.00  0.00     0.046 A 
ATOM     18  C   UNL     1      -4.875   6.001   7.017  1.00  0.00     0.126 A 
ATOM     19  C   UNL     1      -3.677   5.122   4.684  1.00  0.00     0.129 A 
ATOM     20  C   UNL     1      -3.489   5.878   6.954  1.00  0.00     0.049 A 
ATOM     21  F   UNL     1      -5.432   6.444   8.152  1.00  0.00    -0.207 F 
ATOM     22  F   UNL     1      -3.124   4.732   3.529  1.00  0.00    -0.207 F 
ENDBRANCH  13  14
BRANCH  13  23
ATOM     23  O   UNL     1      -0.872   6.441   5.022  1.00  0.00    -0.388 OA
ATOM     24  H   UNL     1      -1.192   6.407   4.107  1.00  0.00     0.211 HD
ENDBRANCH  13  23
ENDBRANCH   8  13
ENDBRANCH   4   7
ENDBRANCH   2   3
ENDBRANCH   1   2
BRANCH   1  25
ATOM     25  C   UNL     1      -1.349  -2.725   5.559  1.00  0.00     0.118 C 
BRANCH  25  26
ATOM     26  N   UNL     1      -0.131  -3.481   5.844  1.00  0.00    -0.352 N 
ATOM     27  C   UNL     1       0.052  -4.669   6.516  1.00  0.00     0.251 C 
ATOM     28  H   UNL     1       0.696  -3.073   5.497  1.00  0.00     0.163 HD
ATOM     29  O   UNL     1       1.179  -5.008   6.850  1.00  0.00    -0.269 OA
BRANCH  27  30
ATOM     30  C   UNL     1      -1.117  -5.508   6.855  1.00  0.00     0.039 A 
ATOM     31  C   UNL     1      -2.143  -5.690   5.929  1.00  0.00     0.014 A 
ATOM     32  C   UNL     1      -1.198  -6.105   8.116  1.00  0.00     0.014 A 
ATOM     33  C   UNL     1      -3.338  -6.268   6.333  1.00  0.00     0.010 A 
ATOM     34  C   UNL     1      -2.360  -6.791   8.481  1.00  0.00     0.010 A 
ATOM     35  C   UNL     1      -3.464  -6.823   7.615  1.00  0.00    -0.014 A 
BRANCH  35  36
ATOM     36  C   UNL     1      -4.759  -7.422   8.029  1.00  0.00     0.031 A 
ATOM     37  C   UNL     1      -5.518  -6.869   9.207  1.00  0.00     0.074 A 
ATOM     38  C   UNL     1      -5.272  -8.444   7.316  1.00  0.00     0.049 A 
ATOM     39  N   UNL     1      -6.630  -7.301   9.742  1.00  0.00    -0.248 NA
ATOM     40  C   UNL     1      -4.959  -5.680   9.874  1.00  0.00     0.031 C 
ATOM     41  C   UNL     1      -4.636  -9.063   6.151  1.00  0.00     0.029 A 
ATOM     42  N   UNL     1      -6.448  -9.135   7.456  1.00  0.00    -0.354 N 
ATOM     43  C   UNL     1      -6.872  -6.481  10.837  1.00  0.00     0.074 A 
ATOM     44  C   UNL     1      -5.797  -5.515  10.889  1.00  0.00     0.031 C 
ATOM     45  C   UNL     1      -5.445 -10.011   5.658  1.00  0.00     0.029 A 
ATOM     46  C   UNL     1      -6.621 -10.120   6.513  1.00  0.00     0.049 A 
ATOM     47  H   UNL     1      -7.105  -8.944   8.164  1.00  0.00     0.167 HD
ATOM     48  C   UNL     1      -7.906  -6.519  11.710  1.00  0.00     0.034 A 
ATOM     49  C   UNL     1      -7.599 -11.032   6.365  1.00  0.00     0.034 A 
ATOM     50  C   UNL     1      -9.010  -7.434  11.614  1.00  0.00     0.049 A 
ATOM     51  C   UNL     1      -8.730 -11.055   7.348  1.00  0.00     0.074 A 
ATOM     52  C   UNL     1     -10.128  -7.516  12.426  1.00  0.00     0.029 A 
ATOM     53  N   UNL     1      -9.142  -8.417  10.647  1.00  0.00    -0.354 N 
ATOM     54  N   UNL     1      -8.962 -10.243   8.350  1.00  0.00    -0.248 NA
ATOM     55  C   UNL     1      -9.733 -12.117   7.185  1.00  0.00     0.031 C 
ATOM     56  C   UNL     1     -10.936  -8.554  11.951  1.00  0.00     0.029 A 
ATOM     57  C   UNL     1     -10.321  -9.114  10.843  1.00  0.00     0.049 A 
ATOM     58  H   UNL     1      -8.494  -8.593   9.928  1.00  0.00     0.167 HD
ATOM     59  C   UNL     1     -10.135 -10.694   8.940  1.00  0.00     0.074 A 
ATOM     60  C   UNL     1     -10.583 -11.832   8.164  1.00  0.00     0.031 C 
ATOM     61  C   UNL     1     -10.768 -10.222  10.040  1.00  0.00     0.034 A 
BRANCH  48  62
ATOM     62  C   UNL     1      -7.927  -5.514  12.828  1.00  0.00     0.023 A 
ATOM     63  C   UNL     1      -8.375  -4.204  12.571  1.00  0.00     0.012 A 
ATOM     64  C   UNL     1      -7.601  -5.893  14.145  1.00  0.00     0.148 A 
ATOM     65  C   UNL     1      -8.491  -3.280  13.609  1.00  0.00     0.002 A 
ATOM     66  C   UNL     1      -7.745  -4.975  15.179  1.00  0.00     0.091 A 
ATOM     67  F   UNL     1      -7.165  -7.142  14.360  1.00  0.00    -0.205 F 
ATOM     68  C   UNL     1      -8.186  -3.668  14.912  1.00  0.00     0.022 A 
BRANCH  66  69
ATOM     69  S   UNL     1      -7.429  -5.384  16.899  1.00  0.00     0.127 S 
ATOM     70  O   UNL     1      -6.291  -4.517  17.203  1.00  0.00    -0.237 OA
ATOM     71  O   UNL     1      -8.683  -4.992  17.542  1.00  0.00    -0.237 OA
ATOM     72  O   UNL     1      -7.143  -6.811  16.930  1.00  0.00    -0.744 OA
ENDBRANCH  66  69
ENDBRANCH  48  62
BRANCH  49  73
ATOM     73  C   UNL     1      -7.540 -11.983   5.223  1.00  0.00     0.023 A 
ATOM     74  C   UNL     1      -8.404 -11.798   4.128  1.00  0.00     0.012 A 
ATOM     75  C   UNL     1      -6.574 -13.007   5.179  1.00  0.00     0.148 A 
ATOM     76  C   UNL     1      -8.307 -12.620   3.005  1.00  0.00     0.002 A 
ATOM     77  C   UNL     1      -6.453 -13.791   4.039  1.00  0.00     0.091 A 
ATOM     78  F   UNL     1      -5.769 -13.163   6.239  1.00  0.00    -0.205 F 
ATOM     79  C   UNL     1      -7.325 -13.606   2.955  1.00  0.00     0.022 A 
BRANCH  77  80
ATOM     80  S   UNL     1      -5.143 -15.003   3.833  1.00  0.00     0.127 S 
ATOM     81  O   UNL     1      -5.899 -16.252   3.773  1.00  0.00    -0.237 OA
ATOM     82  O   UNL     1      -4.545 -14.582   2.566  1.00  0.00    -0.237 OA
ATOM     83  O   UNL     1      -4.275 -14.851   4.992  1.00  0.00    -0.744 OA
ENDBRANCH  77  80
ENDBRANCH  49  73
BRANCH  61  84
ATOM     84  C   UNL     1     -12.011 -10.936  10.487  1.00  0.00     0.023 A 
ATOM     85  C   UNL     1     -11.886 -12.137  11.212  1.00  0.00     0.012 A 
ATOM     86  C   UNL     1     -13.284 -10.372  10.284  1.00  0.00     0.148 A 
ATOM     87  C   UNL     1     -13.015 -12.774  11.721  1.00  0.00     0.002 A 
ATOM     88  C   UNL     1     -14.403 -10.995  10.822  1.00  0.00     0.091 A 
ATOM     89  F   UNL     1     -13.373  -9.235   9.580  1.00  0.00    -0.205 F 
ATOM     90  C   UNL     1     -14.271 -12.198  11.537  1.00  0.00     0.022 A 
BRANCH  88  91
ATOM     91  S   UNL     1     -16.052 -10.295  10.700  1.00  0.00     0.127 S 
ATOM     92  O   UNL     1     -16.709 -11.236   9.796  1.00  0.00    -0.237 OA
ATOM     93  O   UNL     1     -16.517 -10.353  12.086  1.00  0.00    -0.237 OA
ATOM     94  O   UNL     1     -15.879  -8.947  10.176  1.00  0.00    -0.744 OA
ENDBRANCH  88  91
ENDBRANCH  61  84
ENDBRANCH  35  36
ENDBRANCH  27  30
ENDBRANCH  25  26
ENDBRANCH   1  25
TORSDOF 16
