REMARK SMILES CC[N@@H+]1CC[C@H](C[NH2+]Cc2cc(C(=O)NCCCNC(=O)c3ccc(-c4c5nc(c(-c6cccc(S(=O)(=O)[O-])c6F)c6ccc([nH]6)c(-c6cccc(S(=O)(=O)[O-])c6F)c6nc(c(-c7cccc(S(=O)(=O)[O-])c7F)c7ccc4[nH]7)C=C6)C=C5)cc3)cs2)C1
REMARK SMILES IDX 16 1 15 2 13 3 14 4 12 6 10 7 11 8 86 9 85 10 9 11 8 12 7 15
REMARK SMILES IDX 6 16 3 17 4 18 87 19 5 21 2 22 1 23 17 24 18 25 19 26 20 27
REMARK SMILES IDX 21 29 22 30 23 31 84 32 24 33 83 34 25 35 26 36 27 37 77 38
REMARK SMILES IDX 28 39 82 40 76 41 78 42 29 43 81 44 75 45 74 46 30 48 62 49
REMARK SMILES IDX 42 50 61 51 43 52 46 53 60 54 79 55 44 56 45 57 59 59 80 60
REMARK SMILES IDX 47 61 31 62 32 63 40 64 33 65 35 66 41 67 34 68 36 69 37 70
REMARK SMILES IDX 38 71 39 72 63 73 64 74 72 75 65 76 67 77 73 78 66 79 68 80
REMARK SMILES IDX 69 81 70 82 71 83 48 84 49 85 57 86 50 87 52 88 58 89 51 90
REMARK SMILES IDX 53 91 54 92 55 93 56 94
REMARK H PARENT 15 5 8 13 8 14 3 20 19 28 78 47 46 58
REMARK Flexibility Score: inf
ROOT
ATOM      1  C   UNL     1      -2.075   0.158   0.040  1.00  0.00     0.118 C 
ENDROOT
BRANCH   1   2
ATOM      2  N   UNL     1      -3.076   0.147  -1.010  1.00  0.00    -0.352 N 
ATOM      3  C   UNL     1      -3.653   1.177  -1.710  1.00  0.00     0.252 C 
ATOM      4  O   UNL     1      -4.334   0.890  -2.693  1.00  0.00    -0.269 OA
ATOM      5  H   UNL     1      -3.395  -0.749  -1.263  1.00  0.00     0.163 HD
BRANCH   3   6
ATOM      6  C   UNL     1      -3.394   2.566  -1.335  1.00  0.00     0.051 A 
ATOM      7  C   UNL     1      -2.796   4.460  -0.071  1.00  0.00     0.059 A 
ATOM      8  C   UNL     1      -3.208   3.139  -0.032  1.00  0.00     0.035 A 
ATOM      9  S   UNL     1      -2.905   5.083  -1.663  1.00  0.00    -0.142 S 
ATOM     10  C   UNL     1      -3.349   3.563  -2.294  1.00  0.00     0.079 A 
BRANCH   7  11
ATOM     11  C   UNL     1      -2.302   5.347   1.042  1.00  0.00     0.308 C 
BRANCH  11  12
ATOM     12  N   UNL     1      -1.520   4.642   2.067  1.00  0.00    -0.341 N 
ATOM     13  H   UNL     1      -1.267   5.308   2.796  1.00  0.00     0.346 HD
ATOM     14  H   UNL     1      -2.103   3.885   2.425  1.00  0.00     0.346 HD
BRANCH  12  15
ATOM     15  C   UNL     1      -0.295   4.038   1.543  1.00  0.00     0.270 C 
BRANCH  15  16
ATOM     16  C   UNL     1       0.503   3.302   2.627  1.00  0.00     0.105 C 
ATOM     17  N   UNL     1       1.721   1.197   2.566  1.00  0.00    -0.335 N 
ATOM     18  C   UNL     1       0.817   1.211   3.731  1.00  0.00     0.262 C 
ATOM     19  C   UNL     1       1.709   2.563   2.029  1.00  0.00     0.271 C 
ATOM     20  H   UNL     1       2.691   0.972   2.788  1.00  0.00     0.348 HD
ATOM     21  C   UNL     1      -0.264   2.213   3.362  1.00  0.00     0.076 C 
BRANCH  17  22
ATOM     22  C   UNL     1       1.344   0.115   1.646  1.00  0.00     0.258 C 
ATOM     23  C   UNL     1       1.878   0.191   0.220  1.00  0.00     0.071 C 
ENDBRANCH  17  22
ENDBRANCH  15  16
ENDBRANCH  12  15
ENDBRANCH  11  12
ENDBRANCH   7  11
ENDBRANCH   3   6
ENDBRANCH   1   2
BRANCH   1  24
ATOM     24  C   UNL     1      -2.642  -0.373   1.353  1.00  0.00     0.042 C 
BRANCH  24  25
ATOM     25  C   UNL     1      -2.651  -1.896   1.425  1.00  0.00     0.118 C 
BRANCH  25  26
ATOM     26  N   UNL     1      -1.301  -2.445   1.518  1.00  0.00    -0.352 N 
ATOM     27  C   UNL     1      -0.661  -3.079   2.556  1.00  0.00     0.251 C 
ATOM     28  H   UNL     1      -0.760  -2.345   0.702  1.00  0.00     0.163 HD
ATOM     29  O   UNL     1       0.556  -3.238   2.495  1.00  0.00    -0.269 OA
BRANCH  27  30
ATOM     30  C   UNL     1      -1.412  -3.583   3.726  1.00  0.00     0.039 A 
ATOM     31  C   UNL     1      -0.816  -3.550   4.993  1.00  0.00     0.014 A 
ATOM     32  C   UNL     1      -2.667  -4.174   3.567  1.00  0.00     0.014 A 
ATOM     33  C   UNL     1      -1.491  -4.082   6.098  1.00  0.00     0.010 A 
ATOM     34  C   UNL     1      -3.374  -4.618   4.677  1.00  0.00     0.010 A 
ATOM     35  C   UNL     1      -2.782  -4.612   5.948  1.00  0.00    -0.014 A 
BRANCH  35  36
ATOM     36  C   UNL     1      -3.524  -5.237   7.072  1.00  0.00     0.031 A 
ATOM     37  C   UNL     1      -3.912  -6.691   6.978  1.00  0.00     0.074 A 
ATOM     38  C   UNL     1      -3.955  -4.484   8.102  1.00  0.00     0.049 A 
ATOM     39  N   UNL     1      -4.719  -7.385   7.737  1.00  0.00    -0.248 NA
ATOM     40  C   UNL     1      -3.354  -7.453   5.846  1.00  0.00     0.031 C 
ATOM     41  C   UNL     1      -3.707  -3.051   8.267  1.00  0.00     0.029 A 
ATOM     42  N   UNL     1      -4.734  -4.815   9.182  1.00  0.00    -0.354 N 
ATOM     43  C   UNL     1      -4.812  -8.639   7.144  1.00  0.00     0.074 A 
ATOM     44  C   UNL     1      -4.006  -8.601   5.944  1.00  0.00     0.031 C 
ATOM     45  C   UNL     1      -4.333  -2.622   9.375  1.00  0.00     0.029 A 
ATOM     46  C   UNL     1      -5.048  -3.741   9.982  1.00  0.00     0.049 A 
ATOM     47  H   UNL     1      -5.039  -5.732   9.367  1.00  0.00     0.167 HD
ATOM     48  C   UNL     1      -5.481  -9.736   7.574  1.00  0.00     0.034 A 
ATOM     49  C   UNL     1      -5.832  -3.667  11.076  1.00  0.00     0.034 A 
ATOM     50  C   UNL     1      -6.215  -9.789   8.809  1.00  0.00     0.049 A 
ATOM     51  C   UNL     1      -6.478  -4.925  11.593  1.00  0.00     0.074 A 
ATOM     52  C   UNL     1      -6.867 -10.867   9.380  1.00  0.00     0.029 A 
ATOM     53  N   UNL     1      -6.375  -8.719   9.675  1.00  0.00    -0.354 N 
ATOM     54  N   UNL     1      -6.457  -6.133  11.082  1.00  0.00    -0.248 NA
ATOM     55  C   UNL     1      -7.216  -4.822  12.860  1.00  0.00     0.031 C 
ATOM     56  C   UNL     1      -7.415 -10.449  10.598  1.00  0.00     0.029 A 
ATOM     57  C   UNL     1      -7.095  -9.114  10.788  1.00  0.00     0.049 A 
ATOM     58  H   UNL     1      -6.026  -7.811   9.521  1.00  0.00     0.167 HD
ATOM     59  C   UNL     1      -7.143  -6.940  11.983  1.00  0.00     0.074 A 
ATOM     60  C   UNL     1      -7.550  -6.086  13.081  1.00  0.00     0.031 C 
ATOM     61  C   UNL     1      -7.427  -8.263  11.902  1.00  0.00     0.034 A 
BRANCH  48  62
ATOM     62  C   UNL     1      -5.383 -10.987   6.739  1.00  0.00     0.023 A 
ATOM     63  C   UNL     1      -4.163 -11.694   6.692  1.00  0.00     0.012 A 
ATOM     64  C   UNL     1      -6.497 -11.489   6.036  1.00  0.00     0.148 A 
ATOM     65  C   UNL     1      -4.039 -12.853   5.928  1.00  0.00     0.002 A 
ATOM     66  C   UNL     1      -6.378 -12.671   5.312  1.00  0.00     0.091 A 
ATOM     67  F   UNL     1      -7.643 -10.795   6.072  1.00  0.00    -0.205 F 
ATOM     68  C   UNL     1      -5.148 -13.347   5.247  1.00  0.00     0.022 A 
BRANCH  66  69
ATOM     69  S   UNL     1      -7.768 -13.432   4.465  1.00  0.00     0.127 S 
ATOM     70  O   UNL     1      -7.447 -13.156   3.065  1.00  0.00    -0.237 OA
ATOM     71  O   UNL     1      -7.636 -14.837   4.854  1.00  0.00    -0.237 OA
ATOM     72  O   UNL     1      -8.959 -12.771   4.978  1.00  0.00    -0.744 OA
ENDBRANCH  66  69
ENDBRANCH  48  62
BRANCH  49  73
ATOM     73  C   UNL     1      -5.973  -2.373  11.800  1.00  0.00     0.023 A 
ATOM     74  C   UNL     1      -5.337  -2.211  13.046  1.00  0.00     0.012 A 
ATOM     75  C   UNL     1      -6.686  -1.291  11.248  1.00  0.00     0.148 A 
ATOM     76  C   UNL     1      -5.433  -1.008  13.745  1.00  0.00     0.002 A 
ATOM     77  C   UNL     1      -6.733  -0.076  11.925  1.00  0.00     0.091 A 
ATOM     78  F   UNL     1      -7.295  -1.466  10.067  1.00  0.00    -0.205 F 
ATOM     79  C   UNL     1      -6.121   0.063  13.180  1.00  0.00     0.022 A 
BRANCH  77  80
ATOM     80  S   UNL     1      -7.476   1.392  11.204  1.00  0.00     0.127 S 
ATOM     81  O   UNL     1      -8.735   1.482  11.938  1.00  0.00    -0.237 OA
ATOM     82  O   UNL     1      -6.495   2.426  11.533  1.00  0.00    -0.237 OA
ATOM     83  O   UNL     1      -7.587   1.109   9.778  1.00  0.00    -0.744 OA
ENDBRANCH  77  80
ENDBRANCH  49  73
BRANCH  61  84
ATOM     84  C   UNL     1      -8.172  -8.886  13.051  1.00  0.00     0.023 A 
ATOM     85  C   UNL     1      -9.548  -8.634  13.212  1.00  0.00     0.012 A 
ATOM     86  C   UNL     1      -7.523  -9.778  13.927  1.00  0.00     0.148 A 
ATOM     87  C   UNL     1     -10.261  -9.236  14.247  1.00  0.00     0.002 A 
ATOM     88  C   UNL     1      -8.250 -10.408  14.930  1.00  0.00     0.091 A 
ATOM     89  F   UNL     1      -6.208  -9.988  13.773  1.00  0.00    -0.205 F 
ATOM     90  C   UNL     1      -9.616 -10.131  15.098  1.00  0.00     0.022 A 
BRANCH  88  91
ATOM     91  S   UNL     1      -7.512 -11.642  16.007  1.00  0.00     0.127 S 
ATOM     92  O   UNL     1      -7.255 -10.867  17.219  1.00  0.00    -0.237 OA
ATOM     93  O   UNL     1      -8.582 -12.633  16.133  1.00  0.00    -0.237 OA
ATOM     94  O   UNL     1      -6.331 -12.124  15.302  1.00  0.00    -0.744 OA
ENDBRANCH  88  91
ENDBRANCH  61  84
ENDBRANCH  35  36
ENDBRANCH  27  30
ENDBRANCH  25  26
ENDBRANCH  24  25
ENDBRANCH   1  24
TORSDOF 18
