REMARK SMILES O=C1O[C@@H](c2ccc(O)c(O)c2)[C@H](C(=O)NCCCNC(=O)c2ccc(-c3c4nc(c(-c5cccc(S(=O)(=O)[O-])c5F)c5ccc([nH]5)c(-c5cccc(S(=O)(=O)[O-])c5F)c5nc(c(-c6cccc(S(=O)(=O)[O-])c6F)c6ccc3[nH]6)C=C5)C=C4)cc2)/C1=C\c1ccc(O)c(O)c1
REMARK SMILES IDX 18 1 17 2 16 3 14 4 15 5 13 7 1 8 2 9 3 10 86 11 4 12 87 13
REMARK SMILES IDX 5 14 6 15 12 16 7 17 10 18 8 19 11 20 9 22 88 24 89 25 95 26
REMARK SMILES IDX 90 27 93 28 91 29 94 30 92 32 19 34 20 35 21 36 22 38 23 39
REMARK SMILES IDX 24 40 85 41 25 42 84 43 26 44 27 45 28 46 78 47 29 48 83 49
REMARK SMILES IDX 77 50 79 51 30 52 82 53 76 54 75 55 31 57 63 58 43 59 62 60
REMARK SMILES IDX 44 61 47 62 61 63 80 64 45 65 46 66 60 68 81 69 48 70 32 71
REMARK SMILES IDX 33 72 41 73 34 74 36 75 42 76 35 77 37 78 38 79 39 80 40 81
REMARK SMILES IDX 64 82 65 83 73 84 66 85 68 86 74 87 67 88 69 89 70 90 71 91
REMARK SMILES IDX 72 92 49 93 50 94 58 95 51 96 53 97 59 98 52 99 54 100
REMARK SMILES IDX 55 101 56 102 57 103
REMARK H PARENT 16 6 11 21 9 23 94 31 92 33 20 37 79 56 47 67
REMARK Flexibility Score: inf
ROOT
ATOM      1  C   UNL     1       5.190   1.432   1.490  1.00  0.00     0.042 C 
ENDROOT
BRANCH   1   2
ATOM      2  C   UNL     1       4.039   0.446   1.547  1.00  0.00     0.117 C 
BRANCH   2   3
ATOM      3  N   UNL     1       2.832   0.976   2.155  1.00  0.00    -0.355 N 
ATOM      4  C   UNL     1       1.554   1.091   1.689  1.00  0.00     0.231 C 
ATOM      5  O   UNL     1       0.700   1.421   2.516  1.00  0.00    -0.274 OA
ATOM      6  H   UNL     1       2.959   1.315   3.071  1.00  0.00     0.163 HD
BRANCH   4   7
ATOM      7  C   UNL     1       1.232   0.921   0.200  1.00  0.00     0.161 C 
ATOM      8  O   UNL     1      -1.890  -0.798  -0.102  1.00  0.00    -0.247 OA
ATOM      9  C   UNL     1      -0.730  -0.426  -0.133  1.00  0.00     0.335 C 
ATOM     10  O   UNL     1       0.344  -1.236  -0.283  1.00  0.00    -0.453 OA
ATOM     11  C   UNL     1      -0.242   0.960  -0.040  1.00  0.00     0.054 C 
ATOM     12  C   UNL     1       1.561  -0.470  -0.335  1.00  0.00     0.224 C 
ATOM     13  C   UNL     1      -1.105   1.974  -0.206  1.00  0.00     0.020 C 
BRANCH  12  14
ATOM     14  C   UNL     1       2.183  -0.477  -1.734  1.00  0.00    -0.002 A 
ATOM     15  C   UNL     1       3.251   0.390  -2.065  1.00  0.00     0.012 A 
ATOM     16  C   UNL     1       1.772  -1.406  -2.702  1.00  0.00     0.057 A 
ATOM     17  C   UNL     1       3.892   0.333  -3.307  1.00  0.00     0.050 A 
ATOM     18  C   UNL     1       2.402  -1.446  -3.941  1.00  0.00     0.157 A 
ATOM     19  C   UNL     1       3.459  -0.591  -4.242  1.00  0.00     0.157 A 
BRANCH  18  20
ATOM     20  O   UNL     1       1.982  -2.350  -4.874  1.00  0.00    -0.504 OA
ATOM     21  H   UNL     1       2.398  -2.387  -5.712  1.00  0.00     0.293 HD
ENDBRANCH  18  20
BRANCH  19  22
ATOM     22  O   UNL     1       4.044  -0.703  -5.471  1.00  0.00    -0.504 OA
ATOM     23  H   UNL     1       4.758  -0.141  -5.703  1.00  0.00     0.293 HD
ENDBRANCH  19  22
ENDBRANCH  12  14
BRANCH  13  24
ATOM     24  C   UNL     1      -0.747   3.390  -0.166  1.00  0.00    -0.021 A 
ATOM     25  C   UNL     1       0.129   3.946  -1.111  1.00  0.00     0.012 A 
ATOM     26  C   UNL     1      -1.331   4.211   0.805  1.00  0.00     0.058 A 
ATOM     27  C   UNL     1       0.449   5.306  -1.071  1.00  0.00     0.051 A 
ATOM     28  C   UNL     1      -1.016   5.561   0.832  1.00  0.00     0.157 A 
ATOM     29  C   UNL     1      -0.127   6.106  -0.092  1.00  0.00     0.157 A 
BRANCH  28  30
ATOM     30  O   UNL     1      -1.588   6.362   1.779  1.00  0.00    -0.504 OA
ATOM     31  H   UNL     1      -1.383   7.276   1.807  1.00  0.00     0.293 HD
ENDBRANCH  28  30
BRANCH  29  32
ATOM     32  O   UNL     1       0.146   7.442   0.002  1.00  0.00    -0.504 OA
ATOM     33  H   UNL     1       0.739   7.843  -0.603  1.00  0.00     0.293 HD
ENDBRANCH  29  32
ENDBRANCH  13  24
ENDBRANCH   4   7
ENDBRANCH   2   3
ENDBRANCH   1   2
BRANCH   1  34
ATOM     34  C   UNL     1       5.745   1.810   2.854  1.00  0.00     0.118 C 
BRANCH  34  35
ATOM     35  N   UNL     1       6.236   0.658   3.601  1.00  0.00    -0.352 N 
ATOM     36  C   UNL     1       7.508   0.327   3.998  1.00  0.00     0.251 C 
ATOM     37  H   UNL     1       5.541   0.011   3.864  1.00  0.00     0.163 HD
ATOM     38  O   UNL     1       7.727  -0.797   4.443  1.00  0.00    -0.269 OA
BRANCH  36  39
ATOM     39  C   UNL     1       8.611   1.303   3.873  1.00  0.00     0.039 A 
ATOM     40  C   UNL     1       9.869   0.858   3.458  1.00  0.00     0.014 A 
ATOM     41  C   UNL     1       8.412   2.652   4.171  1.00  0.00     0.014 A 
ATOM     42  C   UNL     1      10.900   1.780   3.267  1.00  0.00     0.010 A 
ATOM     43  C   UNL     1       9.406   3.580   3.880  1.00  0.00     0.010 A 
ATOM     44  C   UNL     1      10.664   3.155   3.432  1.00  0.00    -0.014 A 
BRANCH  44  45
ATOM     45  C   UNL     1      11.711   4.162   3.124  1.00  0.00     0.031 A 
ATOM     46  C   UNL     1      12.198   5.105   4.192  1.00  0.00     0.074 A 
ATOM     47  C   UNL     1      12.152   4.293   1.856  1.00  0.00     0.049 A 
ATOM     48  N   UNL     1      13.055   6.088   4.092  1.00  0.00    -0.248 NA
ATOM     49  C   UNL     1      11.629   4.945   5.541  1.00  0.00     0.031 C 
ATOM     50  C   UNL     1      11.691   3.499   0.714  1.00  0.00     0.029 A 
ATOM     51  N   UNL     1      13.062   5.162   1.307  1.00  0.00    -0.354 N 
ATOM     52  C   UNL     1      13.093   6.688   5.344  1.00  0.00     0.074 A 
ATOM     53  C   UNL     1      12.156   5.977   6.184  1.00  0.00     0.031 C 
ATOM     54  C   UNL     1      12.320   3.917  -0.397  1.00  0.00     0.029 A 
ATOM     55  C   UNL     1      13.195   5.033  -0.057  1.00  0.00     0.049 A 
ATOM     56  H   UNL     1      13.572   5.816   1.838  1.00  0.00     0.167 HD
ATOM     57  C   UNL     1      13.855   7.725   5.763  1.00  0.00     0.034 A 
ATOM     58  C   UNL     1      13.921   5.747  -0.940  1.00  0.00     0.034 A 
ATOM     59  C   UNL     1      14.819   8.401   4.937  1.00  0.00     0.049 A 
ATOM     60  C   UNL     1      14.794   6.863  -0.435  1.00  0.00     0.074 A 
ATOM     61  C   UNL     1      15.720   9.385   5.303  1.00  0.00     0.029 A 
ATOM     62  N   UNL     1      14.993   8.182   3.581  1.00  0.00    -0.354 N 
ATOM     63  N   UNL     1      14.948   7.297   0.792  1.00  0.00    -0.248 NA
ATOM     64  C   UNL     1      15.619   7.566  -1.428  1.00  0.00     0.031 C 
ATOM     65  C   UNL     1      16.406   9.796   4.156  1.00  0.00     0.029 A 
ATOM     66  C   UNL     1      15.968   9.031   3.087  1.00  0.00     0.049 A 
ATOM     67  H   UNL     1      14.496   7.520   3.047  1.00  0.00     0.167 HD
ATOM     68  C   UNL     1      15.911   8.298   0.723  1.00  0.00     0.074 A 
ATOM     69  C   UNL     1      16.322   8.388  -0.662  1.00  0.00     0.031 C 
ATOM     70  C   UNL     1      16.400   9.081   1.715  1.00  0.00     0.034 A 
BRANCH  57  71
ATOM     71  C   UNL     1      13.708   8.185   7.189  1.00  0.00     0.023 A 
ATOM     72  C   UNL     1      14.193   7.384   8.243  1.00  0.00     0.012 A 
ATOM     73  C   UNL     1      13.169   9.455   7.477  1.00  0.00     0.148 A 
ATOM     74  C   UNL     1      14.120   7.828   9.563  1.00  0.00     0.002 A 
ATOM     75  C   UNL     1      13.146   9.911   8.789  1.00  0.00     0.091 A 
ATOM     76  F   UNL     1      12.694  10.191   6.462  1.00  0.00    -0.205 F 
ATOM     77  C   UNL     1      13.611   9.096   9.833  1.00  0.00     0.022 A 
BRANCH  75  78
ATOM     78  S   UNL     1      12.591  11.561   9.231  1.00  0.00     0.127 S 
ATOM     79  O   UNL     1      11.380  11.268   9.996  1.00  0.00    -0.237 OA
ATOM     80  O   UNL     1      13.712  12.056  10.029  1.00  0.00    -0.237 OA
ATOM     81  O   UNL     1      12.376  12.265   7.975  1.00  0.00    -0.744 OA
ENDBRANCH  75  78
ENDBRANCH  57  71
BRANCH  58  82
ATOM     82  C   UNL     1      13.873   5.411  -2.392  1.00  0.00     0.023 A 
ATOM     83  C   UNL     1      15.013   4.881  -3.028  1.00  0.00     0.012 A 
ATOM     84  C   UNL     1      12.698   5.608  -3.143  1.00  0.00     0.148 A 
ATOM     85  C   UNL     1      14.996   4.597  -4.394  1.00  0.00     0.002 A 
ATOM     86  C   UNL     1      12.668   5.262  -4.488  1.00  0.00     0.091 A 
ATOM     87  F   UNL     1      11.626   6.122  -2.523  1.00  0.00    -0.205 F 
ATOM     88  C   UNL     1      13.822   4.778  -5.122  1.00  0.00     0.022 A 
BRANCH  86  89
ATOM     89  S   UNL     1      11.159   5.326  -5.460  1.00  0.00     0.127 S 
ATOM     90  O   UNL     1      11.423   6.452  -6.352  1.00  0.00    -0.237 OA
ATOM     91  O   UNL     1      11.159   4.013  -6.106  1.00  0.00    -0.237 OA
ATOM     92  O   UNL     1      10.079   5.516  -4.502  1.00  0.00    -0.744 OA
ENDBRANCH  86  89
ENDBRANCH  58  82
BRANCH  70  93
ATOM     93  C   UNL     1      17.469  10.080   1.357  1.00  0.00     0.023 A 
ATOM     94  C   UNL     1      17.146  11.219   0.593  1.00  0.00     0.012 A 
ATOM     95  C   UNL     1      18.782   9.923   1.843  1.00  0.00     0.148 A 
ATOM     96  C   UNL     1      18.122  12.167   0.287  1.00  0.00     0.002 A 
ATOM     97  C   UNL     1      19.735  10.899   1.582  1.00  0.00     0.091 A 
ATOM     98  F   UNL     1      19.073   8.825   2.555  1.00  0.00    -0.205 F 
ATOM     99  C   UNL     1      19.412  12.014   0.792  1.00  0.00     0.022 A 
BRANCH  97 100
ATOM    100  S   UNL     1      21.392  10.838   2.272  1.00  0.00     0.127 S 
ATOM    101  O   UNL     1      22.200  10.577   1.082  1.00  0.00    -0.237 OA
ATOM    102  O   UNL     1      21.543  12.181   2.831  1.00  0.00    -0.237 OA
ATOM    103  O   UNL     1      21.378   9.768   3.261  1.00  0.00    -0.744 OA
ENDBRANCH  97 100
ENDBRANCH  70  93
ENDBRANCH  44  45
ENDBRANCH  36  39
ENDBRANCH  34  35
ENDBRANCH   1  34
TORSDOF 19
