REMARK SMILES COc1ccc([C@H](NC(=O)[C@H]2CC(C)=C(C)C[C@@H]2C(=O)NCCCNC(=O)c2ccc(-c3c4nc(c(-c5cccc(S(=O)(=O)[O-])c5F)c5ccc([nH]5)c(-c5cccc(S(=O)(=O)[O-])c5F)c5nc(c(-c6cccc(S(=O)(=O)[O-])c6F)c6ccc3[nH]6)C=C5)C=C4)cc2)c2ccccc2)cc1
REMARK SMILES IDX 22 1 21 2 19 3 20 4 18 6 11 7 12 8 13 9 17 10 14 11 15 12
REMARK SMILES IDX 16 13 9 14 8 15 10 17 7 18 6 19 3 20 4 21 98 22 5 23 97 24
REMARK SMILES IDX 2 25 1 26 91 27 92 28 96 29 93 30 95 31 94 32 23 33 24 34
REMARK SMILES IDX 25 35 26 36 27 38 28 39 29 40 90 41 30 42 89 43 31 44 32 45
REMARK SMILES IDX 33 46 83 47 34 48 88 49 82 50 84 51 35 52 87 53 81 54 80 55
REMARK SMILES IDX 36 57 68 58 48 59 67 60 49 61 52 62 66 63 85 64 50 65 51 66
REMARK SMILES IDX 65 68 86 69 53 70 37 71 38 72 46 73 39 74 41 75 47 76 40 77
REMARK SMILES IDX 42 78 43 79 44 80 45 81 69 82 70 83 78 84 71 85 73 86 79 87
REMARK SMILES IDX 72 88 74 89 75 90 76 91 77 92 54 93 55 94 63 95 56 96 58 97
REMARK SMILES IDX 64 98 57 99 59 100 60 101 61 102 62 103
REMARK H PARENT 21 5 8 16 25 37 84 56 52 67
REMARK Flexibility Score: inf
ROOT
ATOM      1  C   UNL     1       2.903   3.344  -8.502  1.00  0.00     0.117 C 
ENDROOT
BRANCH   1   2
ATOM      2  N   UNL     1       3.385   4.154  -7.402  1.00  0.00    -0.356 N 
ATOM      3  C   UNL     1       3.271   4.061  -6.056  1.00  0.00     0.224 C 
ATOM      4  O   UNL     1       4.171   4.643  -5.432  1.00  0.00    -0.275 OA
ATOM      5  H   UNL     1       3.905   4.937  -7.694  1.00  0.00     0.163 HD
BRANCH   3   6
ATOM      6  C   UNL     1       2.058   3.488  -5.305  1.00  0.00     0.095 C 
ATOM      7  C   UNL     1       2.441   3.265  -3.819  1.00  0.00     0.095 C 
ATOM      8  C   UNL     1       3.093   1.874  -3.608  1.00  0.00     0.045 C 
ATOM      9  C   UNL     1       2.780   0.776  -4.615  1.00  0.00    -0.074 C 
ATOM     10  C   UNL     1       1.277   2.299  -5.852  1.00  0.00     0.045 C 
ATOM     11  C   UNL     1       3.438  -0.546  -4.311  1.00  0.00     0.039 C 
ATOM     12  C   UNL     1       1.960   0.975  -5.667  1.00  0.00    -0.074 C 
ATOM     13  C   UNL     1       1.612  -0.090  -6.674  1.00  0.00     0.039 C 
BRANCH   7  14
ATOM     14  C   UNL     1       1.253   3.500  -2.884  1.00  0.00     0.224 C 
ATOM     15  N   UNL     1       0.937   4.752  -2.438  1.00  0.00    -0.345 N 
ATOM     16  H   UNL     1       0.122   4.783  -1.885  1.00  0.00     0.164 HD
ATOM     17  O   UNL     1       0.533   2.572  -2.506  1.00  0.00    -0.275 OA
BRANCH  15  18
ATOM     18  C   UNL     1       1.577   6.063  -2.624  1.00  0.00     0.143 C 
BRANCH  18  19
ATOM     19  C   UNL     1       1.383   6.595  -4.038  1.00  0.00    -0.021 A 
ATOM     20  C   UNL     1       1.044   7.579  -6.658  1.00  0.00     0.118 A 
ATOM     21  C   UNL     1       2.196   7.884  -5.929  1.00  0.00     0.047 A 
ATOM     22  C   UNL     1       0.036   6.829  -6.058  1.00  0.00     0.047 A 
ATOM     23  C   UNL     1       2.370   7.394  -4.633  1.00  0.00     0.010 A 
ATOM     24  C   UNL     1       0.193   6.362  -4.750  1.00  0.00     0.010 A 
BRANCH  20  25
ATOM     25  O   UNL     1       1.024   8.064  -7.937  1.00  0.00    -0.497 OA
ATOM     26  C   UNL     1      -0.094   7.697  -8.738  1.00  0.00     0.278 C 
ENDBRANCH  20  25
ENDBRANCH  18  19
BRANCH  18  27
ATOM     27  C   UNL     1       1.075   7.042  -1.546  1.00  0.00    -0.021 A 
ATOM     28  C   UNL     1       0.305   8.182  -1.853  1.00  0.00     0.006 A 
ATOM     29  C   UNL     1       1.367   6.802  -0.192  1.00  0.00     0.006 A 
ATOM     30  C   UNL     1      -0.158   9.042  -0.855  1.00  0.00     0.000 A 
ATOM     31  C   UNL     1       0.898   7.663   0.809  1.00  0.00     0.000 A 
ATOM     32  C   UNL     1       0.136   8.780   0.478  1.00  0.00     0.000 A 
ENDBRANCH  18  27
ENDBRANCH  15  18
ENDBRANCH   7  14
ENDBRANCH   3   6
ENDBRANCH   1   2
BRANCH   1  33
ATOM     33  C   UNL     1       1.931   4.076  -9.421  1.00  0.00     0.042 C 
BRANCH  33  34
ATOM     34  C   UNL     1       2.534   5.296 -10.120  1.00  0.00     0.118 C 
BRANCH  34  35
ATOM     35  N   UNL     1       3.692   4.953 -10.940  1.00  0.00    -0.352 N 
ATOM     36  C   UNL     1       3.832   4.856 -12.302  1.00  0.00     0.251 C 
ATOM     37  H   UNL     1       4.511   4.759 -10.430  1.00  0.00     0.163 HD
ATOM     38  O   UNL     1       4.821   4.292 -12.765  1.00  0.00    -0.269 OA
BRANCH  36  39
ATOM     39  C   UNL     1       2.817   5.424 -13.216  1.00  0.00     0.039 A 
ATOM     40  C   UNL     1       2.480   4.725 -14.381  1.00  0.00     0.014 A 
ATOM     41  C   UNL     1       2.250   6.676 -12.970  1.00  0.00     0.014 A 
ATOM     42  C   UNL     1       1.539   5.257 -15.268  1.00  0.00     0.010 A 
ATOM     43  C   UNL     1       1.259   7.170 -13.815  1.00  0.00     0.010 A 
ATOM     44  C   UNL     1       0.901   6.474 -14.980  1.00  0.00    -0.014 A 
BRANCH  44  45
ATOM     45  C   UNL     1      -0.135   7.047 -15.879  1.00  0.00     0.031 A 
ATOM     46  C   UNL     1       0.089   8.386 -16.533  1.00  0.00     0.074 A 
ATOM     47  C   UNL     1      -1.318   6.416 -16.020  1.00  0.00     0.049 A 
ATOM     48  N   UNL     1      -0.733   9.096 -17.262  1.00  0.00    -0.248 NA
ATOM     49  C   UNL     1       1.395   9.030 -16.311  1.00  0.00     0.031 C 
ATOM     50  C   UNL     1      -1.687   5.152 -15.377  1.00  0.00     0.029 A 
ATOM     51  N   UNL     1      -2.443   6.768 -16.724  1.00  0.00    -0.354 N 
ATOM     52  C   UNL     1      -0.070  10.287 -17.535  1.00  0.00     0.074 A 
ATOM     53  C   UNL     1       1.216  10.214 -16.878  1.00  0.00     0.031 C 
ATOM     54  C   UNL     1      -2.947   4.835 -15.717  1.00  0.00     0.029 A 
ATOM     55  C   UNL     1      -3.487   5.883 -16.577  1.00  0.00     0.049 A 
ATOM     56  H   UNL     1      -2.498   7.577 -17.282  1.00  0.00     0.167 HD
ATOM     57  C   UNL     1      -0.483  11.336 -18.286  1.00  0.00     0.034 A 
ATOM     58  C   UNL     1      -4.740   5.916 -17.074  1.00  0.00     0.034 A 
ATOM     59  C   UNL     1      -1.728  11.368 -19.005  1.00  0.00     0.049 A 
ATOM     60  C   UNL     1      -5.141   7.061 -17.966  1.00  0.00     0.074 A 
ATOM     61  C   UNL     1      -2.182  12.326 -19.893  1.00  0.00     0.029 A 
ATOM     62  N   UNL     1      -2.715  10.400 -18.919  1.00  0.00    -0.354 N 
ATOM     63  N   UNL     1      -4.432   8.093 -18.353  1.00  0.00    -0.248 NA
ATOM     64  C   UNL     1      -6.503   7.027 -18.520  1.00  0.00     0.031 C 
ATOM     65  C   UNL     1      -3.453  11.945 -20.334  1.00  0.00     0.029 A 
ATOM     66  C   UNL     1      -3.781  10.740 -19.732  1.00  0.00     0.049 A 
ATOM     67  H   UNL     1      -2.665   9.589 -18.363  1.00  0.00     0.167 HD
ATOM     68  C   UNL     1      -5.245   8.807 -19.227  1.00  0.00     0.074 A 
ATOM     69  C   UNL     1      -6.493   8.079 -19.327  1.00  0.00     0.031 C 
ATOM     70  C   UNL     1      -4.988   9.969 -19.875  1.00  0.00     0.034 A 
BRANCH  57  71
ATOM     71  C   UNL     1       0.441  12.517 -18.427  1.00  0.00     0.023 A 
ATOM     72  C   UNL     1       1.595  12.406 -19.228  1.00  0.00     0.012 A 
ATOM     73  C   UNL     1       0.123  13.758 -17.840  1.00  0.00     0.148 A 
ATOM     74  C   UNL     1       2.434  13.503 -19.421  1.00  0.00     0.002 A 
ATOM     75  C   UNL     1       0.941  14.858 -18.072  1.00  0.00     0.091 A 
ATOM     76  F   UNL     1      -0.969  13.838 -17.066  1.00  0.00    -0.205 F 
ATOM     77  C   UNL     1       2.101  14.730 -18.854  1.00  0.00     0.022 A 
BRANCH  75  78
ATOM     78  S   UNL     1       0.556  16.500 -17.452  1.00  0.00     0.127 S 
ATOM     79  O   UNL     1       1.608  16.690 -16.450  1.00  0.00    -0.237 OA
ATOM     80  O   UNL     1       0.708  17.325 -18.654  1.00  0.00    -0.237 OA
ATOM     81  O   UNL     1      -0.796  16.429 -16.930  1.00  0.00    -0.744 OA
ENDBRANCH  75  78
ENDBRANCH  57  71
BRANCH  58  82
ATOM     82  C   UNL     1      -5.684   4.793 -16.808  1.00  0.00     0.023 A 
ATOM     83  C   UNL     1      -6.042   3.933 -17.866  1.00  0.00     0.012 A 
ATOM     84  C   UNL     1      -6.220   4.563 -15.527  1.00  0.00     0.148 A 
ATOM     85  C   UNL     1      -6.945   2.890 -17.662  1.00  0.00     0.002 A 
ATOM     86  C   UNL     1      -7.077   3.488 -15.319  1.00  0.00     0.091 A 
ATOM     87  F   UNL     1      -5.883   5.399 -14.535  1.00  0.00    -0.205 F 
ATOM     88  C   UNL     1      -7.455   2.661 -16.387  1.00  0.00     0.022 A 
BRANCH  86  89
ATOM     89  S   UNL     1      -7.671   3.047 -13.681  1.00  0.00     0.127 S 
ATOM     90  O   UNL     1      -9.034   3.569 -13.705  1.00  0.00    -0.237 OA
ATOM     91  O   UNL     1      -7.569   1.587 -13.698  1.00  0.00    -0.237 OA
ATOM     92  O   UNL     1      -6.753   3.696 -12.753  1.00  0.00    -0.744 OA
ENDBRANCH  86  89
ENDBRANCH  58  82
BRANCH  70  93
ATOM     93  C   UNL     1      -6.055  10.513 -20.787  1.00  0.00     0.023 A 
ATOM     94  C   UNL     1      -7.212  11.100 -20.239  1.00  0.00     0.012 A 
ATOM     95  C   UNL     1      -5.871  10.515 -22.184  1.00  0.00     0.148 A 
ATOM     96  C   UNL     1      -8.184  11.656 -21.069  1.00  0.00     0.002 A 
ATOM     97  C   UNL     1      -6.822  11.114 -23.002  1.00  0.00     0.091 A 
ATOM     98  F   UNL     1      -4.773   9.933 -22.687  1.00  0.00    -0.205 F 
ATOM     99  C   UNL     1      -7.983  11.675 -22.447  1.00  0.00     0.022 A 
BRANCH  97 100
ATOM    100  S   UNL     1      -6.596  11.271 -24.777  1.00  0.00     0.127 S 
ATOM    101  O   UNL     1      -7.513  10.252 -25.285  1.00  0.00    -0.237 OA
ATOM    102  O   UNL     1      -7.019  12.650 -25.025  1.00  0.00    -0.237 OA
ATOM    103  O   UNL     1      -5.182  11.022 -25.023  1.00  0.00    -0.744 OA
ENDBRANCH  97 100
ENDBRANCH  70  93
ENDBRANCH  44  45
ENDBRANCH  36  39
ENDBRANCH  34  35
ENDBRANCH  33  34
ENDBRANCH   1  33
TORSDOF 18
