REMARK SMILES C[C@@H](C(=O)NCCCNC(=O)c1ccc(-c2c3nc(c(-c4cccc(S(=O)(=O)[O-])c4F)c4ccc([nH]4)c(-c4cccc(S(=O)(=O)[O-])c4F)c4nc(c(-c5cccc(S(=O)(=O)[O-])c5F)c5ccc2[nH]5)C=C4)C=C3)cc1)c1ccccc1-c1ccn(C(F)F)c(=O)c1
REMARK SMILES IDX 7 1 6 2 5 3 3 4 4 5 2 7 1 8 75 9 76 10 80 11 77 12 79 13
REMARK SMILES IDX 78 14 81 15 82 16 90 17 83 18 88 19 84 20 89 21 85 22 86 23
REMARK SMILES IDX 87 24 8 25 9 26 10 27 11 29 12 30 13 31 74 32 14 33 73 34
REMARK SMILES IDX 15 35 16 36 17 37 67 38 18 39 72 40 66 41 68 42 19 43 71 44
REMARK SMILES IDX 65 45 64 46 20 48 52 49 32 50 51 51 33 52 36 53 50 54 69 55
REMARK SMILES IDX 34 56 35 57 49 59 70 60 37 61 21 62 22 63 30 64 23 65 25 66
REMARK SMILES IDX 31 67 24 68 26 69 27 70 28 71 29 72 53 73 54 74 62 75 55 76
REMARK SMILES IDX 57 77 63 78 56 79 58 80 59 81 60 82 61 83 38 84 39 85 47 86
REMARK SMILES IDX 40 87 42 88 48 89 41 90 43 91 44 92 45 93 46 94
REMARK H PARENT 5 6 9 28 68 47 36 58
REMARK Flexibility Score: inf
ROOT
ATOM      1  C   UNL     1       4.525   1.278  -0.818  1.00  0.00     0.042 C 
ENDROOT
BRANCH   1   2
ATOM      2  C   UNL     1       3.545   2.180  -0.054  1.00  0.00     0.117 C 
BRANCH   2   3
ATOM      3  N   UNL     1       2.421   2.654  -0.857  1.00  0.00    -0.356 N 
ATOM      4  C   UNL     1       1.092   2.300  -0.854  1.00  0.00     0.227 C 
ATOM      5  O   UNL     1       0.364   2.890  -1.655  1.00  0.00    -0.274 OA
ATOM      6  H   UNL     1       2.655   3.349  -1.514  1.00  0.00     0.163 HD
BRANCH   4   7
ATOM      7  C   UNL     1       0.584   1.214   0.124  1.00  0.00     0.106 C 
ATOM      8  C   UNL     1       1.263  -0.078  -0.311  1.00  0.00     0.023 C 
BRANCH   7   9
ATOM      9  C   UNL     1      -0.956   1.149   0.324  1.00  0.00    -0.028 A 
ATOM     10  C   UNL     1      -1.634   2.385   0.455  1.00  0.00     0.005 A 
ATOM     11  C   UNL     1      -1.749  -0.032   0.449  1.00  0.00    -0.014 A 
ATOM     12  C   UNL     1      -3.021   2.466   0.620  1.00  0.00     0.000 A 
ATOM     13  C   UNL     1      -3.145   0.071   0.632  1.00  0.00     0.009 A 
ATOM     14  C   UNL     1      -3.778   1.308   0.703  1.00  0.00     0.001 A 
BRANCH  11  15
ATOM     15  C   UNL     1      -1.232  -1.417   0.350  1.00  0.00    -0.011 A 
ATOM     16  C   UNL     1      -0.491  -2.086   1.406  1.00  0.00     0.027 A 
ATOM     17  C   UNL     1      -1.354  -2.020  -0.845  1.00  0.00     0.080 A 
ATOM     18  C   UNL     1       0.299  -3.128   1.107  1.00  0.00     0.095 A 
ATOM     19  C   UNL     1      -0.563  -3.242  -1.161  1.00  0.00     0.255 A 
ATOM     20  N   UNL     1       0.329  -3.645  -0.176  1.00  0.00    -0.258 N 
ATOM     21  O   UNL     1      -0.702  -3.744  -2.268  1.00  0.00    -0.269 OA
BRANCH  20  22
ATOM     22  C   UNL     1       1.321  -4.624  -0.570  1.00  0.00     0.451 C 
ATOM     23  F   UNL     1       0.721  -5.794  -0.889  1.00  0.00    -0.185 F 
ATOM     24  F   UNL     1       1.995  -4.172  -1.655  1.00  0.00    -0.185 F 
ENDBRANCH  20  22
ENDBRANCH  11  15
ENDBRANCH   7   9
ENDBRANCH   4   7
ENDBRANCH   2   3
ENDBRANCH   1   2
BRANCH   1  25
ATOM     25  C   UNL     1       5.203   1.933  -2.012  1.00  0.00     0.118 C 
BRANCH  25  26
ATOM     26  N   UNL     1       6.201   2.906  -1.604  1.00  0.00    -0.352 N 
ATOM     27  C   UNL     1       7.571   2.852  -1.703  1.00  0.00     0.251 C 
ATOM     28  H   UNL     1       5.843   3.727  -1.195  1.00  0.00     0.163 HD
ATOM     29  O   UNL     1       8.249   3.665  -1.080  1.00  0.00    -0.269 OA
BRANCH  27  30
ATOM     30  C   UNL     1       8.233   1.813  -2.529  1.00  0.00     0.039 A 
ATOM     31  C   UNL     1       9.376   1.184  -2.026  1.00  0.00     0.014 A 
ATOM     32  C   UNL     1       7.754   1.468  -3.795  1.00  0.00     0.014 A 
ATOM     33  C   UNL     1       9.986   0.158  -2.754  1.00  0.00     0.010 A 
ATOM     34  C   UNL     1       8.318   0.395  -4.487  1.00  0.00     0.010 A 
ATOM     35  C   UNL     1       9.434  -0.279  -3.970  1.00  0.00    -0.014 A 
BRANCH  35  36
ATOM     36  C   UNL     1       9.966  -1.479  -4.671  1.00  0.00     0.031 A 
ATOM     37  C   UNL     1      10.544  -1.371  -6.057  1.00  0.00     0.074 A 
ATOM     38  C   UNL     1       9.831  -2.690  -4.091  1.00  0.00     0.049 A 
ATOM     39  N   UNL     1      10.987  -2.323  -6.838  1.00  0.00    -0.248 NA
ATOM     40  C   UNL     1      10.621  -0.026  -6.652  1.00  0.00     0.031 C 
ATOM     41  C   UNL     1       9.218  -2.935  -2.783  1.00  0.00     0.029 A 
ATOM     42  N   UNL     1      10.162  -3.946  -4.539  1.00  0.00    -0.354 N 
ATOM     43  C   UNL     1      11.356  -1.704  -8.026  1.00  0.00     0.074 A 
ATOM     44  C   UNL     1      11.079  -0.292  -7.869  1.00  0.00     0.031 C 
ATOM     45  C   UNL     1       9.208  -4.255  -2.540  1.00  0.00     0.029 A 
ATOM     46  C   UNL     1       9.771  -4.956  -3.688  1.00  0.00     0.049 A 
ATOM     47  H   UNL     1      10.635  -4.109  -5.387  1.00  0.00     0.167 HD
ATOM     48  C   UNL     1      11.890  -2.259  -9.139  1.00  0.00     0.034 A 
ATOM     49  C   UNL     1       9.828  -6.296  -3.826  1.00  0.00     0.034 A 
ATOM     50  C   UNL     1      12.202  -3.657  -9.277  1.00  0.00     0.049 A 
ATOM     51  C   UNL     1      10.443  -6.876  -5.073  1.00  0.00     0.074 A 
ATOM     52  C   UNL     1      12.856  -4.289 -10.321  1.00  0.00     0.029 A 
ATOM     53  N   UNL     1      11.861  -4.641  -8.365  1.00  0.00    -0.354 N 
ATOM     54  N   UNL     1      10.973  -6.255  -6.097  1.00  0.00    -0.248 NA
ATOM     55  C   UNL     1      10.494  -8.343  -5.171  1.00  0.00     0.031 C 
ATOM     56  C   UNL     1      12.868  -5.662 -10.061  1.00  0.00     0.029 A 
ATOM     57  C   UNL     1      12.257  -5.880  -8.838  1.00  0.00     0.049 A 
ATOM     58  H   UNL     1      11.404  -4.483  -7.507  1.00  0.00     0.167 HD
ATOM     59  C   UNL     1      11.441  -7.251  -6.947  1.00  0.00     0.074 A 
ATOM     60  C   UNL     1      11.166  -8.516  -6.300  1.00  0.00     0.031 C 
ATOM     61  C   UNL     1      12.023  -7.131  -8.165  1.00  0.00     0.034 A 
BRANCH  48  62
ATOM     62  C   UNL     1      12.217  -1.362 -10.304  1.00  0.00     0.023 A 
ATOM     63  C   UNL     1      13.339  -0.512 -10.238  1.00  0.00     0.012 A 
ATOM     64  C   UNL     1      11.492  -1.460 -11.508  1.00  0.00     0.148 A 
ATOM     65  C   UNL     1      13.727   0.237 -11.348  1.00  0.00     0.002 A 
ATOM     66  C   UNL     1      11.909  -0.743 -12.623  1.00  0.00     0.091 A 
ATOM     67  F   UNL     1      10.420  -2.264 -11.543  1.00  0.00    -0.205 F 
ATOM     68  C   UNL     1      13.022   0.111 -12.542  1.00  0.00     0.022 A 
BRANCH  66  69
ATOM     69  S   UNL     1      11.123  -0.898 -14.231  1.00  0.00     0.127 S 
ATOM     70  O   UNL     1      10.576   0.445 -14.421  1.00  0.00    -0.237 OA
ATOM     71  O   UNL     1      12.258  -1.221 -15.095  1.00  0.00    -0.237 OA
ATOM     72  O   UNL     1      10.133  -1.956 -14.097  1.00  0.00    -0.744 OA
ENDBRANCH  66  69
ENDBRANCH  48  62
BRANCH  49  73
ATOM     73  C   UNL     1       9.306  -7.190  -2.750  1.00  0.00     0.023 A 
ATOM     74  C   UNL     1      10.199  -8.014  -2.038  1.00  0.00     0.012 A 
ATOM     75  C   UNL     1       7.934  -7.235  -2.433  1.00  0.00     0.148 A 
ATOM     76  C   UNL     1       9.730  -8.904  -1.070  1.00  0.00     0.002 A 
ATOM     77  C   UNL     1       7.482  -8.072  -1.419  1.00  0.00     0.091 A 
ATOM     78  F   UNL     1       7.091  -6.458  -3.129  1.00  0.00    -0.205 F 
ATOM     79  C   UNL     1       8.374  -8.927  -0.755  1.00  0.00     0.022 A 
BRANCH  77  80
ATOM     80  S   UNL     1       5.779  -8.046  -0.846  1.00  0.00     0.127 S 
ATOM     81  O   UNL     1       5.237  -9.255  -1.458  1.00  0.00    -0.237 OA
ATOM     82  O   UNL     1       5.942  -8.111   0.608  1.00  0.00    -0.237 OA
ATOM     83  O   UNL     1       5.228  -6.782  -1.316  1.00  0.00    -0.744 OA
ENDBRANCH  77  80
ENDBRANCH  49  73
BRANCH  61  84
ATOM     84  C   UNL     1      12.424  -8.396  -8.879  1.00  0.00     0.023 A 
ATOM     85  C   UNL     1      11.430  -9.236  -9.421  1.00  0.00     0.012 A 
ATOM     86  C   UNL     1      13.782  -8.712  -9.081  1.00  0.00     0.148 A 
ATOM     87  C   UNL     1      11.782 -10.387 -10.125  1.00  0.00     0.002 A 
ATOM     88  C   UNL     1      14.125  -9.833  -9.827  1.00  0.00     0.091 A 
ATOM     89  F   UNL     1      14.711  -7.907  -8.546  1.00  0.00    -0.205 F 
ATOM     90  C   UNL     1      13.127 -10.679 -10.338  1.00  0.00     0.022 A 
BRANCH  88  91
ATOM     91  S   UNL     1      15.826 -10.241 -10.235  1.00  0.00     0.127 S 
ATOM     92  O   UNL     1      16.027 -11.474  -9.475  1.00  0.00    -0.237 OA
ATOM     93  O   UNL     1      15.760 -10.422 -11.685  1.00  0.00    -0.237 OA
ATOM     94  O   UNL     1      16.630  -9.107  -9.800  1.00  0.00    -0.744 OA
ENDBRANCH  88  91
ENDBRANCH  61  84
ENDBRANCH  35  36
ENDBRANCH  27  30
ENDBRANCH  25  26
ENDBRANCH   1  25
TORSDOF 16
