REMARK SMILES O=C(NCCCNC(=O)[C@@H]1CS[C@@H](C2CC2)N1C(=O)Cc1ccn[nH]1)c1ccc(-c2c3nc(c(-c4cccc(S(=O)(=O)[O-])c4F)c4ccc([nH]4)c(-c4cccc(S(=O)(=O)[O-])c4F)c4nc(c(-c5cccc(S(=O)(=O)[O-])c5F)c5ccc2[nH]5)C=C4)C=C3)cc1
REMARK SMILES IDX 5 1 4 2 3 3 1 4 2 5 26 7 27 8 88 9 28 10 87 11 29 12 30 13
REMARK SMILES IDX 31 14 81 15 32 16 86 17 80 18 82 19 33 20 85 21 79 22 78 23
REMARK SMILES IDX 34 25 66 26 46 27 65 28 47 29 50 30 64 31 83 32 48 33 49 34
REMARK SMILES IDX 63 36 84 37 51 38 35 39 36 40 44 41 37 42 39 43 45 44 38 45
REMARK SMILES IDX 40 46 41 47 42 48 43 49 67 50 68 51 76 52 69 53 71 54 77 55
REMARK SMILES IDX 70 56 72 57 73 58 74 59 75 60 52 61 53 62 61 63 54 64 56 65
REMARK SMILES IDX 62 66 55 67 57 68 58 69 59 70 60 71 6 72 7 73 8 74 9 76
REMARK SMILES IDX 10 77 11 78 17 79 12 80 13 81 18 82 19 83 20 84 21 85 22 86
REMARK SMILES IDX 25 87 23 88 24 89 14 91 15 92 16 93
REMARK H PARENT 3 6 82 24 50 35 7 75 25 90
REMARK Flexibility Score: inf
ROOT
ATOM      1  C   UNL     1       2.702  -2.607  -7.542  1.00  0.00     0.042 C 
ENDROOT
BRANCH   1   2
ATOM      2  C   UNL     1       1.581  -3.167  -8.393  1.00  0.00     0.118 C 
BRANCH   2   3
ATOM      3  N   UNL     1       1.414  -4.611  -8.309  1.00  0.00    -0.352 N 
ATOM      4  O   UNL     1       0.302  -6.569  -8.236  1.00  0.00    -0.269 OA
ATOM      5  C   UNL     1       0.250  -5.348  -8.364  1.00  0.00     0.251 C 
ATOM      6  H   UNL     1       2.243  -5.131  -8.197  1.00  0.00     0.163 HD
BRANCH   5   7
ATOM      7  C   UNL     1      -1.057  -4.663  -8.511  1.00  0.00     0.039 A 
ATOM      8  C   UNL     1      -1.198  -3.540  -9.326  1.00  0.00     0.014 A 
ATOM      9  C   UNL     1      -2.156  -5.129  -7.782  1.00  0.00     0.014 A 
ATOM     10  C   UNL     1      -2.346  -2.766  -9.247  1.00  0.00     0.010 A 
ATOM     11  C   UNL     1      -3.362  -4.421  -7.810  1.00  0.00     0.010 A 
ATOM     12  C   UNL     1      -3.453  -3.209  -8.508  1.00  0.00    -0.014 A 
BRANCH  12  13
ATOM     13  C   UNL     1      -4.708  -2.418  -8.561  1.00  0.00     0.031 A 
ATOM     14  C   UNL     1      -5.318  -1.823  -7.322  1.00  0.00     0.074 A 
ATOM     15  C   UNL     1      -5.284  -2.224  -9.765  1.00  0.00     0.049 A 
ATOM     16  N   UNL     1      -6.399  -1.095  -7.213  1.00  0.00    -0.248 NA
ATOM     17  C   UNL     1      -4.641  -2.083  -6.041  1.00  0.00     0.031 C 
ATOM     18  C   UNL     1      -4.799  -2.794 -11.026  1.00  0.00     0.029 A 
ATOM     19  N   UNL     1      -6.381  -1.493 -10.136  1.00  0.00    -0.354 N 
ATOM     20  C   UNL     1      -6.566  -0.858  -5.854  1.00  0.00     0.074 A 
ATOM     21  C   UNL     1      -5.470  -1.515  -5.175  1.00  0.00     0.031 C 
ATOM     22  C   UNL     1      -5.561  -2.353 -12.034  1.00  0.00     0.029 A 
ATOM     23  C   UNL     1      -6.633  -1.531 -11.487  1.00  0.00     0.049 A 
ATOM     24  H   UNL     1      -6.937  -0.991  -9.496  1.00  0.00     0.167 HD
ATOM     25  C   UNL     1      -7.540  -0.148  -5.234  1.00  0.00     0.034 A 
ATOM     26  C   UNL     1      -7.626  -0.982 -12.211  1.00  0.00     0.034 A 
ATOM     27  C   UNL     1      -8.593   0.547  -5.927  1.00  0.00     0.049 A 
ATOM     28  C   UNL     1      -8.657  -0.158 -11.502  1.00  0.00     0.074 A 
ATOM     29  C   UNL     1      -9.589   1.348  -5.397  1.00  0.00     0.029 A 
ATOM     30  N   UNL     1      -8.788   0.525  -7.300  1.00  0.00    -0.354 N 
ATOM     31  N   UNL     1      -8.734   0.142 -10.228  1.00  0.00    -0.248 NA
ATOM     32  C   UNL     1      -9.726   0.419 -12.326  1.00  0.00     0.031 C 
ATOM     33  C   UNL     1     -10.395   1.799  -6.449  1.00  0.00     0.029 A 
ATOM     34  C   UNL     1      -9.891   1.291  -7.636  1.00  0.00     0.049 A 
ATOM     35  H   UNL     1      -8.224   0.036  -7.942  1.00  0.00     0.167 HD
ATOM     36  C   UNL     1      -9.853   0.951 -10.096  1.00  0.00     0.074 A 
ATOM     37  C   UNL     1     -10.402   1.123 -11.427  1.00  0.00     0.031 C 
ATOM     38  C   UNL     1     -10.395   1.482  -8.972  1.00  0.00     0.034 A 
BRANCH  25  39
ATOM     39  C   UNL     1      -7.498  -0.052  -3.730  1.00  0.00     0.023 A 
ATOM     40  C   UNL     1      -6.552   0.789  -3.110  1.00  0.00     0.012 A 
ATOM     41  C   UNL     1      -8.440  -0.735  -2.935  1.00  0.00     0.148 A 
ATOM     42  C   UNL     1      -6.529   0.931  -1.722  1.00  0.00     0.002 A 
ATOM     43  C   UNL     1      -8.434  -0.560  -1.555  1.00  0.00     0.091 A 
ATOM     44  F   UNL     1      -9.318  -1.549  -3.539  1.00  0.00    -0.205 F 
ATOM     45  C   UNL     1      -7.475   0.266  -0.947  1.00  0.00     0.022 A 
BRANCH  43  46
ATOM     46  S   UNL     1      -9.658  -1.319  -0.479  1.00  0.00     0.127 S 
ATOM     47  O   UNL     1      -8.875  -2.378   0.157  1.00  0.00    -0.237 OA
ATOM     48  O   UNL     1     -10.020  -0.214   0.408  1.00  0.00    -0.237 OA
ATOM     49  O   UNL     1     -10.732  -1.771  -1.352  1.00  0.00    -0.744 OA
ENDBRANCH  43  46
ENDBRANCH  25  39
BRANCH  26  50
ATOM     50  C   UNL     1      -7.648  -1.175 -13.688  1.00  0.00     0.023 A 
ATOM     51  C   UNL     1      -7.373  -0.084 -14.534  1.00  0.00     0.012 A 
ATOM     52  C   UNL     1      -7.850  -2.449 -14.253  1.00  0.00     0.148 A 
ATOM     53  C   UNL     1      -7.311  -0.258 -15.917  1.00  0.00     0.002 A 
ATOM     54  C   UNL     1      -7.722  -2.627 -15.625  1.00  0.00     0.091 A 
ATOM     55  F   UNL     1      -8.130  -3.473 -13.433  1.00  0.00    -0.205 F 
ATOM     56  C   UNL     1      -7.468  -1.531 -16.461  1.00  0.00     0.022 A 
BRANCH  54  57
ATOM     57  S   UNL     1      -7.742  -4.260 -16.375  1.00  0.00     0.127 S 
ATOM     58  O   UNL     1      -9.084  -4.309 -16.950  1.00  0.00    -0.237 OA
ATOM     59  O   UNL     1      -6.656  -4.163 -17.352  1.00  0.00    -0.237 OA
ATOM     60  O   UNL     1      -7.478  -5.189 -15.284  1.00  0.00    -0.744 OA
ENDBRANCH  54  57
ENDBRANCH  26  50
BRANCH  38  61
ATOM     61  C   UNL     1     -11.642   2.305  -9.138  1.00  0.00     0.023 A 
ATOM     62  C   UNL     1     -12.868   1.661  -9.394  1.00  0.00     0.012 A 
ATOM     63  C   UNL     1     -11.611   3.704  -8.981  1.00  0.00     0.148 A 
ATOM     64  C   UNL     1     -14.042   2.400  -9.522  1.00  0.00     0.002 A 
ATOM     65  C   UNL     1     -12.793   4.430  -9.067  1.00  0.00     0.091 A 
ATOM     66  F   UNL     1     -10.429   4.298  -8.761  1.00  0.00    -0.205 F 
ATOM     67  C   UNL     1     -14.007   3.781  -9.347  1.00  0.00     0.022 A 
BRANCH  65  68
ATOM     68  S   UNL     1     -12.849   6.200  -8.769  1.00  0.00     0.127 S 
ATOM     69  O   UNL     1     -12.955   6.728 -10.127  1.00  0.00    -0.237 OA
ATOM     70  O   UNL     1     -14.061   6.344  -7.961  1.00  0.00    -0.237 OA
ATOM     71  O   UNL     1     -11.616   6.522  -8.063  1.00  0.00    -0.744 OA
ENDBRANCH  65  68
ENDBRANCH  38  61
ENDBRANCH  12  13
ENDBRANCH   5   7
ENDBRANCH   2   3
ENDBRANCH   1   2
BRANCH   1  72
ATOM     72  C   UNL     1       4.055  -3.208  -7.872  1.00  0.00     0.117 C 
BRANCH  72  73
ATOM     73  N   UNL     1       5.103  -2.221  -7.902  1.00  0.00    -0.354 N 
ATOM     74  C   UNL     1       5.958  -1.703  -6.999  1.00  0.00     0.243 C 
ATOM     75  H   UNL     1       5.224  -1.832  -8.797  1.00  0.00     0.163 HD
ATOM     76  O   UNL     1       6.613  -0.747  -7.452  1.00  0.00    -0.273 OA
BRANCH  74  77
ATOM     77  C   UNL     1       6.129  -2.090  -5.488  1.00  0.00     0.185 C 
ATOM     78  C   UNL     1       7.624  -1.849  -5.243  1.00  0.00     0.107 C 
ATOM     79  N   UNL     1       5.688  -3.388  -4.879  1.00  0.00    -0.317 N 
ATOM     80  S   UNL     1       8.219  -3.083  -4.113  1.00  0.00    -0.134 SA
ATOM     81  C   UNL     1       6.766  -4.221  -4.315  1.00  0.00     0.147 C 
BRANCH  79  82
ATOM     82  C   UNL     1       4.330  -3.499  -4.660  1.00  0.00     0.230 C 
ATOM     83  O   UNL     1       3.661  -2.455  -4.594  1.00  0.00    -0.274 OA
BRANCH  82  84
ATOM     84  C   UNL     1       3.563  -4.807  -4.502  1.00  0.00     0.155 C 
BRANCH  84  85
ATOM     85  C   UNL     1       3.908  -5.998  -5.337  1.00  0.00     0.044 A 
ATOM     86  C   UNL     1       3.242  -7.207  -5.415  1.00  0.00     0.045 A 
ATOM     87  N   UNL     1       4.953  -6.122  -6.207  1.00  0.00    -0.282 N 
ATOM     88  C   UNL     1       3.977  -7.979  -6.327  1.00  0.00     0.135 A 
ATOM     89  N   UNL     1       5.035  -7.319  -6.800  1.00  0.00    -0.184 NA
ATOM     90  H   UNL     1       5.592  -5.393  -6.383  1.00  0.00     0.190 HD
ENDBRANCH  84  85
ENDBRANCH  82  84
ENDBRANCH  79  82
BRANCH  81  91
ATOM     91  C   UNL     1       6.738  -4.816  -2.918  1.00  0.00     0.022 C 
ATOM     92  C   UNL     1       5.676  -4.609  -1.868  1.00  0.00     0.007 C 
ATOM     93  C   UNL     1       5.873  -5.972  -2.483  1.00  0.00     0.007 C 
ENDBRANCH  81  91
ENDBRANCH  74  77
ENDBRANCH  72  73
ENDBRANCH   1  72
TORSDOF 17
