REMARK SMILES CS(=O)(=O)c1ccc(-n2nc(C(F)(F)F)cc2-c2ccc(CC(=O)NCCCNC(=O)c3ccc(-c4c5nc(c(-c6cccc(S(=O)(=O)[O-])c6F)c6ccc([nH]6)c(-c6cccc(S(=O)(=O)[O-])c6F)c6nc(c(-c7cccc(S(=O)(=O)[O-])c7F)c7ccc4[nH]7)C=C6)C=C5)cc3)cc2)cc1
REMARK SMILES IDX 26 1 25 2 23 3 24 4 22 6 21 7 18 8 19 9 96 10 20 11 95 12
REMARK SMILES IDX 17 13 9 14 10 15 11 16 16 17 8 18 5 19 6 20 98 21 7 22 97 23
REMARK SMILES IDX 2 24 1 25 3 26 4 27 12 28 13 29 14 30 15 31 27 32 28 33
REMARK SMILES IDX 29 34 30 35 31 37 32 38 33 39 94 40 34 41 93 42 35 43 36 44
REMARK SMILES IDX 37 45 87 46 38 47 92 48 86 49 88 50 39 51 91 52 85 53 84 54
REMARK SMILES IDX 40 56 72 57 52 58 71 59 53 60 56 61 70 62 89 63 54 64 55 65
REMARK SMILES IDX 69 67 90 68 57 69 41 70 42 71 50 72 43 73 45 74 51 75 44 76
REMARK SMILES IDX 46 77 47 78 48 79 49 80 73 81 74 82 82 83 75 84 77 85 83 86
REMARK SMILES IDX 76 87 78 88 79 89 80 90 81 91 58 92 59 93 67 94 60 95 62 96
REMARK SMILES IDX 68 97 61 98 63 99 64 100 65 101 66 102
REMARK H PARENT 25 5 29 36 88 55 56 66
REMARK Flexibility Score: inf
ROOT
ATOM      1  C   UNL     1      -3.925  -6.731  -2.421  1.00  0.00     0.117 C 
ENDROOT
BRANCH   1   2
ATOM      2  N   UNL     1      -4.522  -5.410  -2.456  1.00  0.00    -0.356 N 
ATOM      3  C   UNL     1      -4.852  -4.644  -3.538  1.00  0.00     0.224 C 
ATOM      4  O   UNL     1      -5.517  -3.624  -3.361  1.00  0.00    -0.275 OA
ATOM      5  H   UNL     1      -4.718  -5.010  -1.578  1.00  0.00     0.163 HD
BRANCH   3   6
ATOM      6  C   UNL     1      -4.480  -5.095  -4.939  1.00  0.00     0.135 C 
BRANCH   6   7
ATOM      7  C   UNL     1      -2.995  -5.159  -5.199  1.00  0.00    -0.039 A 
ATOM      8  C   UNL     1      -0.198  -5.309  -5.559  1.00  0.00     0.000 A 
ATOM      9  C   UNL     1      -0.826  -4.081  -5.299  1.00  0.00     0.010 A 
ATOM     10  C   UNL     1      -0.994  -6.451  -5.692  1.00  0.00     0.010 A 
ATOM     11  C   UNL     1      -2.207  -4.008  -5.101  1.00  0.00     0.005 A 
ATOM     12  C   UNL     1      -2.379  -6.374  -5.530  1.00  0.00     0.005 A 
BRANCH   8  13
ATOM     13  C   UNL     1       1.260  -5.405  -5.708  1.00  0.00     0.075 A 
ATOM     14  N   UNL     1       2.209  -4.777  -4.903  1.00  0.00    -0.233 N 
ATOM     15  N   UNL     1       3.454  -4.839  -5.438  1.00  0.00    -0.163 NA
ATOM     16  C   UNL     1       3.340  -5.675  -6.487  1.00  0.00     0.167 A 
ATOM     17  C   UNL     1       1.987  -6.035  -6.698  1.00  0.00     0.064 A 
BRANCH  14  18
ATOM     18  C   UNL     1       1.972  -4.088  -3.690  1.00  0.00     0.065 A 
ATOM     19  C   UNL     1       0.993  -2.510  -1.642  1.00  0.00     0.067 A 
ATOM     20  C   UNL     1       0.632  -3.861  -1.708  1.00  0.00     0.022 A 
ATOM     21  C   UNL     1       1.935  -1.972  -2.520  1.00  0.00     0.022 A 
ATOM     22  C   UNL     1       1.112  -4.653  -2.740  1.00  0.00     0.030 A 
ATOM     23  C   UNL     1       2.451  -2.779  -3.540  1.00  0.00     0.030 A 
BRANCH  19  24
ATOM     24  S   UNL     1       0.073  -1.528  -0.481  1.00  0.00     0.175 S 
ATOM     25  C   UNL     1       0.825   0.065  -0.365  1.00  0.00     0.163 C 
ATOM     26  O   UNL     1       0.229  -2.218   0.784  1.00  0.00    -0.224 OA
ATOM     27  O   UNL     1      -1.240  -1.402  -1.078  1.00  0.00    -0.224 OA
ENDBRANCH  19  24
ENDBRANCH  14  18
BRANCH  16  28
ATOM     28  C   UNL     1       4.511  -6.122  -7.314  1.00  0.00     0.435 C 
ATOM     29  F   UNL     1       5.339  -5.107  -7.676  1.00  0.00    -0.164 F 
ATOM     30  F   UNL     1       5.271  -7.051  -6.672  1.00  0.00    -0.164 F 
ATOM     31  F   UNL     1       4.105  -6.713  -8.476  1.00  0.00    -0.164 F 
ENDBRANCH  16  28
ENDBRANCH   8  13
ENDBRANCH   6   7
ENDBRANCH   3   6
ENDBRANCH   1   2
BRANCH   1  32
ATOM     32  C   UNL     1      -2.440  -6.725  -2.051  1.00  0.00     0.042 C 
BRANCH  32  33
ATOM     33  C   UNL     1      -2.214  -6.496  -0.567  1.00  0.00     0.118 C 
BRANCH  33  34
ATOM     34  N   UNL     1      -2.688  -7.611   0.261  1.00  0.00    -0.352 N 
ATOM     35  C   UNL     1      -2.629  -7.739   1.636  1.00  0.00     0.251 C 
ATOM     36  H   UNL     1      -3.099  -8.363  -0.224  1.00  0.00     0.163 HD
ATOM     37  O   UNL     1      -2.759  -8.838   2.166  1.00  0.00    -0.269 OA
BRANCH  35  38
ATOM     38  C   UNL     1      -2.398  -6.535   2.451  1.00  0.00     0.039 A 
ATOM     39  C   UNL     1      -1.568  -6.557   3.577  1.00  0.00     0.014 A 
ATOM     40  C   UNL     1      -2.999  -5.353   2.039  1.00  0.00     0.014 A 
ATOM     41  C   UNL     1      -1.298  -5.360   4.238  1.00  0.00     0.010 A 
ATOM     42  C   UNL     1      -2.555  -4.163   2.547  1.00  0.00     0.010 A 
ATOM     43  C   UNL     1      -1.781  -4.159   3.704  1.00  0.00    -0.014 A 
BRANCH  43  44
ATOM     44  C   UNL     1      -1.427  -2.861   4.280  1.00  0.00     0.031 A 
ATOM     45  C   UNL     1       0.042  -2.574   4.404  1.00  0.00     0.074 A 
ATOM     46  C   UNL     1      -2.384  -1.909   4.433  1.00  0.00     0.049 A 
ATOM     47  N   UNL     1       0.645  -1.940   5.355  1.00  0.00    -0.248 NA
ATOM     48  C   UNL     1       0.974  -3.081   3.381  1.00  0.00     0.031 C 
ATOM     49  C   UNL     1      -3.814  -1.997   4.080  1.00  0.00     0.029 A 
ATOM     50  N   UNL     1      -2.252  -0.590   4.750  1.00  0.00    -0.354 N 
ATOM     51  C   UNL     1       1.974  -1.787   4.954  1.00  0.00     0.074 A 
ATOM     52  C   UNL     1       2.133  -2.527   3.736  1.00  0.00     0.031 C 
ATOM     53  C   UNL     1      -4.313  -0.757   3.898  1.00  0.00     0.029 A 
ATOM     54  C   UNL     1      -3.308   0.206   4.295  1.00  0.00     0.049 A 
ATOM     55  H   UNL     1      -1.486  -0.231   5.252  1.00  0.00     0.167 HD
ATOM     56  C   UNL     1       2.812  -0.936   5.603  1.00  0.00     0.034 A 
ATOM     57  C   UNL     1      -3.338   1.559   4.188  1.00  0.00     0.034 A 
ATOM     58  C   UNL     1       2.376  -0.722   6.956  1.00  0.00     0.049 A 
ATOM     59  C   UNL     1      -2.262   2.079   5.061  1.00  0.00     0.074 A 
ATOM     60  C   UNL     1       2.106  -1.579   8.007  1.00  0.00     0.029 A 
ATOM     61  N   UNL     1       1.731   0.453   7.254  1.00  0.00    -0.354 N 
ATOM     62  N   UNL     1      -2.271   1.964   6.360  1.00  0.00    -0.248 NA
ATOM     63  C   UNL     1      -0.960   2.301   4.452  1.00  0.00     0.031 C 
ATOM     64  C   UNL     1       0.893  -1.083   8.561  1.00  0.00     0.029 A 
ATOM     65  C   UNL     1       0.569   0.098   7.890  1.00  0.00     0.049 A 
ATOM     66  H   UNL     1       2.039   1.365   7.051  1.00  0.00     0.167 HD
ATOM     67  C   UNL     1      -0.965   1.617   6.675  1.00  0.00     0.074 A 
ATOM     68  C   UNL     1      -0.185   1.932   5.476  1.00  0.00     0.031 C 
ATOM     69  C   UNL     1      -0.670   0.829   7.750  1.00  0.00     0.034 A 
BRANCH  56  70
ATOM     70  C   UNL     1       3.829  -0.047   4.936  1.00  0.00     0.023 A 
ATOM     71  C   UNL     1       4.685   0.694   5.784  1.00  0.00     0.012 A 
ATOM     72  C   UNL     1       3.769   0.339   3.577  1.00  0.00     0.148 A 
ATOM     73  C   UNL     1       5.373   1.821   5.328  1.00  0.00     0.002 A 
ATOM     74  C   UNL     1       4.500   1.432   3.117  1.00  0.00     0.091 A 
ATOM     75  F   UNL     1       2.915  -0.268   2.745  1.00  0.00    -0.205 F 
ATOM     76  C   UNL     1       5.275   2.195   3.995  1.00  0.00     0.022 A 
BRANCH  74  77
ATOM     77  S   UNL     1       4.443   1.939   1.394  1.00  0.00     0.127 S 
ATOM     78  O   UNL     1       3.453   3.010   1.430  1.00  0.00    -0.237 OA
ATOM     79  O   UNL     1       5.819   2.372   1.151  1.00  0.00    -0.237 OA
ATOM     80  O   UNL     1       4.060   0.742   0.652  1.00  0.00    -0.744 OA
ENDBRANCH  74  77
ENDBRANCH  56  70
BRANCH  57  81
ATOM     81  C   UNL     1      -4.066   2.425   3.227  1.00  0.00     0.023 A 
ATOM     82  C   UNL     1      -4.262   3.790   3.521  1.00  0.00     0.012 A 
ATOM     83  C   UNL     1      -4.346   1.990   1.911  1.00  0.00     0.148 A 
ATOM     84  C   UNL     1      -4.696   4.691   2.538  1.00  0.00     0.002 A 
ATOM     85  C   UNL     1      -4.792   2.886   0.942  1.00  0.00     0.091 A 
ATOM     86  F   UNL     1      -4.080   0.719   1.579  1.00  0.00    -0.205 F 
ATOM     87  C   UNL     1      -4.958   4.241   1.248  1.00  0.00     0.022 A 
BRANCH  85  88
ATOM     88  S   UNL     1      -5.141   2.363  -0.743  1.00  0.00     0.127 S 
ATOM     89  O   UNL     1      -6.341   3.138  -1.066  1.00  0.00    -0.237 OA
ATOM     90  O   UNL     1      -3.934   2.788  -1.447  1.00  0.00    -0.237 OA
ATOM     91  O   UNL     1      -5.369   0.927  -0.657  1.00  0.00    -0.744 OA
ENDBRANCH  85  88
ENDBRANCH  57  81
BRANCH  69  92
ATOM     92  C   UNL     1      -1.763   0.461   8.725  1.00  0.00     0.023 A 
ATOM     93  C   UNL     1      -2.928  -0.234   8.337  1.00  0.00     0.012 A 
ATOM     94  C   UNL     1      -1.500   0.620  10.097  1.00  0.00     0.148 A 
ATOM     95  C   UNL     1      -3.814  -0.743   9.292  1.00  0.00     0.002 A 
ATOM     96  C   UNL     1      -2.353   0.066  11.043  1.00  0.00     0.091 A 
ATOM     97  F   UNL     1      -0.390   1.282  10.457  1.00  0.00    -0.205 F 
ATOM     98  C   UNL     1      -3.518  -0.609  10.646  1.00  0.00     0.022 A 
BRANCH  96  99
ATOM     99  S   UNL     1      -1.940   0.086  12.788  1.00  0.00     0.127 S 
ATOM    100  O   UNL     1      -2.786   1.166  13.289  1.00  0.00    -0.237 OA
ATOM    101  O   UNL     1      -2.334  -1.254  13.226  1.00  0.00    -0.237 OA
ATOM    102  O   UNL     1      -0.503   0.330  12.854  1.00  0.00    -0.744 OA
ENDBRANCH  96  99
ENDBRANCH  69  92
ENDBRANCH  43  44
ENDBRANCH  35  38
ENDBRANCH  33  34
ENDBRANCH  32  33
ENDBRANCH   1  32
TORSDOF 18
