REMARK SMILES N#CCC[NH+]1CCN(c2ccc(NS(=O)(=O)c3ccccc3Cl)cc2C(=O)NCCCNC(=O)c2ccc(-c3c4nc(c(-c5cccc(S(=O)(=O)[O-])c5F)c5ccc([nH]5)c(-c5cccc(S(=O)(=O)[O-])c5F)c5nc(c(-c6cccc(S(=O)(=O)[O-])c6F)c6ccc3[nH]6)C=C5)C=C4)cc2)CC1
REMARK SMILES IDX 29 1 28 2 26 3 27 4 25 6 9 7 10 8 11 9 24 10 12 11 8 12 5 13
REMARK SMILES IDX 6 14 99 15 7 17 98 18 4 19 3 20 2 21 1 22 13 23 14 25 15 26
REMARK SMILES IDX 16 27 17 28 18 29 22 30 19 31 21 32 23 33 20 34 30 35 31 36
REMARK SMILES IDX 32 37 33 38 34 40 35 41 36 42 97 43 37 44 96 45 38 46 39 47
REMARK SMILES IDX 40 48 90 49 41 50 95 51 89 52 91 53 42 54 94 55 88 56 87 57
REMARK SMILES IDX 43 59 75 60 55 61 74 62 56 63 59 64 73 65 92 66 57 67 58 68
REMARK SMILES IDX 72 70 93 71 60 72 44 73 45 74 53 75 46 76 48 77 54 78 47 79
REMARK SMILES IDX 49 80 50 81 51 82 52 83 76 84 77 85 85 86 78 87 80 88 86 89
REMARK SMILES IDX 79 90 81 91 82 92 83 93 84 94 61 95 62 96 70 97 63 98 65 99
REMARK SMILES IDX 71 100 64 101 66 102 67 103 68 104 69 105
REMARK H PARENT 28 5 5 16 13 24 32 39 91 58 59 69
REMARK Flexibility Score: inf
ROOT
ATOM      1  C   UNL     1       0.978  -2.163  -3.834  1.00  0.00     0.118 C 
ENDROOT
BRANCH   1   2
ATOM      2  N   UNL     1       0.518  -3.554  -3.675  1.00  0.00    -0.352 N 
ATOM      3  C   UNL     1      -0.276  -3.971  -2.623  1.00  0.00     0.253 C 
ATOM      4  O   UNL     1      -1.381  -3.467  -2.434  1.00  0.00    -0.269 OA
ATOM      5  H   UNL     1       0.789  -4.218  -4.349  1.00  0.00     0.163 HD
BRANCH   3   6
ATOM      6  C   UNL     1       0.117  -5.229  -1.882  1.00  0.00     0.065 A 
ATOM      7  C   UNL     1       1.300  -5.478  -1.120  1.00  0.00     0.050 A 
ATOM      8  C   UNL     1       1.449  -6.803  -0.652  1.00  0.00     0.029 A 
ATOM      9  C   UNL     1       0.464  -7.788  -0.793  1.00  0.00     0.029 A 
ATOM     10  C   UNL     1      -0.900  -6.213  -1.940  1.00  0.00     0.042 A 
ATOM     11  C   UNL     1      -0.770  -7.450  -1.309  1.00  0.00     0.050 A 
BRANCH   7  12
ATOM     12  N   UNL     1       2.271  -4.557  -0.760  1.00  0.00    -0.360 N 
ATOM     13  N   UNL     1       4.348  -2.402  -0.822  1.00  0.00    -0.331 N 
ATOM     14  C   UNL     1       4.729  -3.800  -0.493  1.00  0.00     0.284 C 
ATOM     15  C   UNL     1       3.050  -2.460  -1.486  1.00  0.00     0.284 C 
ATOM     16  H   UNL     1       5.062  -2.017  -1.441  1.00  0.00     0.348 HD
ATOM     17  C   UNL     1       3.606  -4.870  -0.164  1.00  0.00     0.178 C 
ATOM     18  C   UNL     1       1.964  -3.143  -0.652  1.00  0.00     0.178 C 
BRANCH  13  19
ATOM     19  C   UNL     1       4.400  -1.435   0.287  1.00  0.00     0.277 C 
BRANCH  19  20
ATOM     20  C   UNL     1       3.860  -0.007  -0.061  1.00  0.00     0.181 C 
BRANCH  20  21
ATOM     21  C   UNL     1       2.340  -0.007  -0.061  1.00  0.00     0.068 C 
ATOM     22  N   UNL     1       1.079  -0.007  -0.061  1.00  0.00    -0.198 NA
ENDBRANCH  20  21
ENDBRANCH  19  20
ENDBRANCH  13  19
ENDBRANCH   7  12
BRANCH  11  23
ATOM     23  N   UNL     1      -1.892  -8.339  -1.344  1.00  0.00    -0.280 N 
ATOM     24  H   UNL     1      -2.437  -8.366  -2.164  1.00  0.00     0.180 HD
BRANCH  23  25
ATOM     25  S   UNL     1      -2.340  -9.348  -0.055  1.00  0.00     0.263 S 
ATOM     26  O   UNL     1      -3.693  -8.967   0.301  1.00  0.00    -0.201 OA
ATOM     27  O   UNL     1      -2.090 -10.703  -0.503  1.00  0.00    -0.201 OA
BRANCH  25  28
ATOM     28  C   UNL     1      -1.309  -9.056   1.356  1.00  0.00     0.106 A 
ATOM     29  C   UNL     1      -0.471 -10.112   1.770  1.00  0.00     0.024 A 
ATOM     30  C   UNL     1      -1.279  -7.840   2.039  1.00  0.00     0.061 A 
ATOM     31  C   UNL     1       0.440  -9.929   2.808  1.00  0.00     0.002 A 
ATOM     32  C   UNL     1      -0.351  -7.664   3.076  1.00  0.00     0.022 A 
ATOM     33  Cl  UNL     1      -2.294  -6.497   1.667  1.00  0.00    -0.083 Cl
ATOM     34  C   UNL     1       0.512  -8.698   3.451  1.00  0.00     0.002 A 
ENDBRANCH  25  28
ENDBRANCH  23  25
ENDBRANCH  11  23
ENDBRANCH   3   6
ENDBRANCH   1   2
BRANCH   1  35
ATOM     35  C   UNL     1       2.246  -2.145  -4.696  1.00  0.00     0.042 C 
BRANCH  35  36
ATOM     36  C   UNL     1       3.414  -1.172  -4.448  1.00  0.00     0.118 C 
BRANCH  36  37
ATOM     37  N   UNL     1       3.183   0.135  -3.865  1.00  0.00    -0.352 N 
ATOM     38  C   UNL     1       4.134   1.020  -3.369  1.00  0.00     0.251 C 
ATOM     39  H   UNL     1       2.245   0.429  -3.815  1.00  0.00     0.163 HD
ATOM     40  O   UNL     1       3.751   2.038  -2.791  1.00  0.00    -0.269 OA
BRANCH  38  41
ATOM     41  C   UNL     1       5.607   0.739  -3.431  1.00  0.00     0.039 A 
ATOM     42  C   UNL     1       6.448   1.154  -2.376  1.00  0.00     0.014 A 
ATOM     43  C   UNL     1       6.192   0.137  -4.541  1.00  0.00     0.014 A 
ATOM     44  C   UNL     1       7.836   0.932  -2.419  1.00  0.00     0.010 A 
ATOM     45  C   UNL     1       7.559  -0.132  -4.566  1.00  0.00     0.010 A 
ATOM     46  C   UNL     1       8.401   0.295  -3.526  1.00  0.00    -0.014 A 
BRANCH  46  47
ATOM     47  C   UNL     1       9.865   0.211  -3.773  1.00  0.00     0.031 A 
ATOM     48  C   UNL     1      10.419   1.014  -4.923  1.00  0.00     0.074 A 
ATOM     49  C   UNL     1      10.646  -0.669  -3.120  1.00  0.00     0.049 A 
ATOM     50  N   UNL     1      11.544   0.877  -5.571  1.00  0.00    -0.248 NA
ATOM     51  C   UNL     1       9.549   2.085  -5.444  1.00  0.00     0.031 C 
ATOM     52  C   UNL     1      10.227  -1.515  -2.005  1.00  0.00     0.029 A 
ATOM     53  N   UNL     1      11.949  -1.043  -3.356  1.00  0.00    -0.354 N 
ATOM     54  C   UNL     1      11.489   1.796  -6.614  1.00  0.00     0.074 A 
ATOM     55  C   UNL     1      10.213   2.469  -6.524  1.00  0.00     0.031 C 
ATOM     56  C   UNL     1      11.234  -2.348  -1.686  1.00  0.00     0.029 A 
ATOM     57  C   UNL     1      12.351  -2.123  -2.601  1.00  0.00     0.049 A 
ATOM     58  H   UNL     1      12.535  -0.585  -4.000  1.00  0.00     0.167 HD
ATOM     59  C   UNL     1      12.425   2.068  -7.554  1.00  0.00     0.034 A 
ATOM     60  C   UNL     1      13.473  -2.870  -2.675  1.00  0.00     0.034 A 
ATOM     61  C   UNL     1      13.712   1.433  -7.603  1.00  0.00     0.049 A 
ATOM     62  C   UNL     1      14.518  -2.524  -3.708  1.00  0.00     0.074 A 
ATOM     63  C   UNL     1      14.758   1.671  -8.476  1.00  0.00     0.029 A 
ATOM     64  N   UNL     1      14.133   0.441  -6.731  1.00  0.00    -0.354 N 
ATOM     65  N   UNL     1      14.492  -1.593  -4.632  1.00  0.00    -0.248 NA
ATOM     66  C   UNL     1      15.761  -3.311  -3.690  1.00  0.00     0.031 C 
ATOM     67  C   UNL     1      15.812   0.818  -8.133  1.00  0.00     0.029 A 
ATOM     68  C   UNL     1      15.429   0.066  -7.034  1.00  0.00     0.049 A 
ATOM     69  H   UNL     1      13.590   0.061  -6.004  1.00  0.00     0.167 HD
ATOM     70  C   UNL     1      15.726  -1.655  -5.274  1.00  0.00     0.074 A 
ATOM     71  C   UNL     1      16.483  -2.702  -4.620  1.00  0.00     0.031 C 
ATOM     72  C   UNL     1      16.188  -0.928  -6.321  1.00  0.00     0.034 A 
BRANCH  59  73
ATOM     73  C   UNL     1      12.112   3.139  -8.567  1.00  0.00     0.023 A 
ATOM     74  C   UNL     1      12.066   4.487  -8.158  1.00  0.00     0.012 A 
ATOM     75  C   UNL     1      11.921   2.823  -9.927  1.00  0.00     0.148 A 
ATOM     76  C   UNL     1      11.799   5.501  -9.076  1.00  0.00     0.002 A 
ATOM     77  C   UNL     1      11.704   3.845 -10.845  1.00  0.00     0.091 A 
ATOM     78  F   UNL     1      11.950   1.535 -10.295  1.00  0.00    -0.205 F 
ATOM     79  C   UNL     1      11.630   5.181 -10.420  1.00  0.00     0.022 A 
BRANCH  77  80
ATOM     80  S   UNL     1      11.551   3.551 -12.611  1.00  0.00     0.127 S 
ATOM     81  O   UNL     1      10.156   3.920 -12.852  1.00  0.00    -0.237 OA
ATOM     82  O   UNL     1      12.533   4.487 -13.161  1.00  0.00    -0.237 OA
ATOM     83  O   UNL     1      11.866   2.145 -12.816  1.00  0.00    -0.744 OA
ENDBRANCH  77  80
ENDBRANCH  59  73
BRANCH  60  84
ATOM     84  C   UNL     1      13.688  -4.005  -1.730  1.00  0.00     0.023 A 
ATOM     85  C   UNL     1      14.700  -3.911  -0.754  1.00  0.00     0.012 A 
ATOM     86  C   UNL     1      12.903  -5.174  -1.788  1.00  0.00     0.148 A 
ATOM     87  C   UNL     1      14.955  -4.972   0.116  1.00  0.00     0.002 A 
ATOM     88  C   UNL     1      13.121  -6.203  -0.877  1.00  0.00     0.091 A 
ATOM     89  F   UNL     1      11.956  -5.260  -2.733  1.00  0.00    -0.205 F 
ATOM     90  C   UNL     1      14.160  -6.113   0.062  1.00  0.00     0.022 A 
BRANCH  88  91
ATOM     91  S   UNL     1      12.050  -7.643  -0.784  1.00  0.00     0.127 S 
ATOM     92  O   UNL     1      12.881  -8.676  -1.396  1.00  0.00    -0.237 OA
ATOM     93  O   UNL     1      11.854  -7.785   0.660  1.00  0.00    -0.237 OA
ATOM     94  O   UNL     1      10.844  -7.277  -1.514  1.00  0.00    -0.744 OA
ENDBRANCH  88  91
ENDBRANCH  60  84
BRANCH  72  95
ATOM     95  C   UNL     1      17.596  -1.186  -6.790  1.00  0.00     0.023 A 
ATOM     96  C   UNL     1      17.894  -2.358  -7.511  1.00  0.00     0.012 A 
ATOM     97  C   UNL     1      18.603  -0.221  -6.587  1.00  0.00     0.148 A 
ATOM     98  C   UNL     1      19.182  -2.581  -7.996  1.00  0.00     0.002 A 
ATOM     99  C   UNL     1      19.871  -0.427  -7.116  1.00  0.00     0.091 A 
ATOM    100  F   UNL     1      18.301   0.880  -5.884  1.00  0.00    -0.205 F 
ATOM    101  C   UNL     1      20.166  -1.612  -7.810  1.00  0.00     0.022 A 
BRANCH  99 102
ATOM    102  S   UNL     1      21.171   0.808  -7.008  1.00  0.00     0.127 S 
ATOM    103  O   UNL     1      22.074   0.204  -6.030  1.00  0.00    -0.237 OA
ATOM    104  O   UNL     1      21.685   0.836  -8.378  1.00  0.00    -0.237 OA
ATOM    105  O   UNL     1      20.520   2.039  -6.582  1.00  0.00    -0.744 OA
ENDBRANCH  99 102
ENDBRANCH  72  95
ENDBRANCH  46  47
ENDBRANCH  38  41
ENDBRANCH  36  37
ENDBRANCH  35  36
ENDBRANCH   1  35
TORSDOF 20
