REMARK SMILES Cn1c(=O)c2c(-c3ccc(Cl)cc3)n(CC(=O)NCCCNC(=O)c3ccc(-c4c5nc(c(-c6cccc(S(=O)(=O)[O-])c6F)c6ccc([nH]6)c(-c6cccc(S(=O)(=O)[O-])c6F)c6nc(c(-c7cccc(S(=O)(=O)[O-])c7F)c7ccc4[nH]7)C=C6)C=C5)cc3)cc2n(C)c1=O
REMARK SMILES IDX 20 1 19 2 18 3 16 4 17 5 15 7 14 8 1 9 2 10 3 11 92 12 4 13
REMARK SMILES IDX 5 14 90 15 93 16 6 17 89 18 91 19 88 20 7 21 8 22 13 23 9 24
REMARK SMILES IDX 12 25 10 26 11 27 21 28 22 29 23 30 24 32 25 33 26 34 87 35
REMARK SMILES IDX 27 36 86 37 28 38 29 39 30 40 80 41 31 42 85 43 79 44 81 45
REMARK SMILES IDX 32 46 84 47 78 48 77 49 33 51 65 52 45 53 64 54 46 55 49 56
REMARK SMILES IDX 63 57 82 58 47 59 48 60 62 62 83 63 50 64 34 65 35 66 43 67
REMARK SMILES IDX 36 68 38 69 44 70 37 71 39 72 40 73 41 74 42 75 66 76 67 77
REMARK SMILES IDX 75 78 68 79 70 80 76 81 69 82 71 83 72 84 73 85 74 86 51 87
REMARK SMILES IDX 52 88 60 89 53 90 55 91 61 92 54 93 56 94 57 95 58 96 59 97
REMARK H PARENT 18 6 22 31 81 50 49 61
REMARK Flexibility Score: inf
ROOT
ATOM      1  C   UNL     1      -4.038   1.378  -4.065  1.00  0.00     0.042 C 
ENDROOT
BRANCH   1   2
ATOM      2  C   UNL     1      -4.094   1.304  -5.593  1.00  0.00     0.117 C 
BRANCH   2   3
ATOM      3  N   UNL     1      -3.744   2.556  -6.237  1.00  0.00    -0.354 N 
ATOM      4  C   UNL     1      -2.549   2.925  -6.788  1.00  0.00     0.239 C 
ATOM      5  O   UNL     1      -2.482   4.001  -7.383  1.00  0.00    -0.273 OA
ATOM      6  H   UNL     1      -4.461   3.228  -6.282  1.00  0.00     0.163 HD
BRANCH   4   7
ATOM      7  C   UNL     1      -1.361   1.988  -6.748  1.00  0.00     0.222 C 
BRANCH   7   8
ATOM      8  N   UNL     1      -0.827   1.764  -5.409  1.00  0.00    -0.335 N 
ATOM      9  C   UNL     1       0.895  -0.030  -0.037  1.00  0.00     0.158 C 
ATOM     10  N   UNL     1       0.568   0.731  -1.226  1.00  0.00    -0.263 N 
ATOM     11  C   UNL     1       0.075   0.022  -2.330  1.00  0.00     0.265 A 
ATOM     12  C   UNL     1       0.820   2.116  -1.158  1.00  0.00     0.330 A 
ATOM     13  O   UNL     1      -0.101  -1.188  -2.339  1.00  0.00    -0.268 OA
ATOM     14  C   UNL     1      -0.209   0.865  -3.471  1.00  0.00     0.090 A 
ATOM     15  N   UNL     1       0.488   2.883  -2.279  1.00  0.00    -0.295 N 
ATOM     16  O   UNL     1       1.327   2.612  -0.148  1.00  0.00    -0.248 OA
ATOM     17  C   UNL     1      -0.687   0.546  -4.741  1.00  0.00     0.064 A 
ATOM     18  C   UNL     1      -0.003   2.251  -3.408  1.00  0.00     0.076 A 
ATOM     19  C   UNL     1       0.675   4.329  -2.237  1.00  0.00     0.155 C 
ATOM     20  C   UNL     1      -0.367   2.791  -4.612  1.00  0.00     0.114 A 
BRANCH  17  21
ATOM     21  C   UNL     1      -1.084  -0.753  -5.303  1.00  0.00    -0.001 A 
ATOM     22  C   UNL     1      -0.546  -1.210  -6.512  1.00  0.00     0.012 A 
ATOM     23  C   UNL     1      -2.063  -1.532  -4.668  1.00  0.00     0.012 A 
ATOM     24  C   UNL     1      -1.030  -2.379  -7.109  1.00  0.00     0.021 A 
ATOM     25  C   UNL     1      -2.555  -2.695  -5.264  1.00  0.00     0.021 A 
ATOM     26  C   UNL     1      -2.043  -3.108  -6.489  1.00  0.00     0.041 A 
ATOM     27  Cl  UNL     1      -2.665  -4.524  -7.243  1.00  0.00    -0.084 Cl
ENDBRANCH  17  21
ENDBRANCH   7   8
ENDBRANCH   4   7
ENDBRANCH   2   3
ENDBRANCH   1   2
BRANCH   1  28
ATOM     28  C   UNL     1      -5.277   2.027  -3.486  1.00  0.00     0.118 C 
BRANCH  28  29
ATOM     29  N   UNL     1      -6.468   1.182  -3.639  1.00  0.00    -0.352 N 
ATOM     30  C   UNL     1      -7.746   1.427  -3.175  1.00  0.00     0.251 C 
ATOM     31  H   UNL     1      -6.340   0.339  -4.132  1.00  0.00     0.163 HD
ATOM     32  O   UNL     1      -8.570   0.524  -3.091  1.00  0.00    -0.269 OA
BRANCH  30  33
ATOM     33  C   UNL     1      -8.089   2.804  -2.792  1.00  0.00     0.039 A 
ATOM     34  C   UNL     1      -8.826   3.089  -1.639  1.00  0.00     0.014 A 
ATOM     35  C   UNL     1      -7.591   3.825  -3.595  1.00  0.00     0.014 A 
ATOM     36  C   UNL     1      -8.986   4.420  -1.265  1.00  0.00     0.010 A 
ATOM     37  C   UNL     1      -7.573   5.105  -3.120  1.00  0.00     0.010 A 
ATOM     38  C   UNL     1      -8.336   5.420  -2.005  1.00  0.00    -0.014 A 
BRANCH  38  39
ATOM     39  C   UNL     1      -8.343   6.813  -1.584  1.00  0.00     0.031 A 
ATOM     40  C   UNL     1      -7.801   7.044  -0.217  1.00  0.00     0.074 A 
ATOM     41  C   UNL     1      -8.594   7.812  -2.462  1.00  0.00     0.049 A 
ATOM     42  N   UNL     1      -8.442   7.497   0.807  1.00  0.00    -0.248 NA
ATOM     43  C   UNL     1      -6.438   6.580   0.095  1.00  0.00     0.031 C 
ATOM     44  C   UNL     1      -8.837   7.707  -3.910  1.00  0.00     0.029 A 
ATOM     45  N   UNL     1      -8.516   9.156  -2.279  1.00  0.00    -0.354 N 
ATOM     46  C   UNL     1      -7.503   7.598   1.831  1.00  0.00     0.074 A 
ATOM     47  C   UNL     1      -6.356   6.842   1.402  1.00  0.00     0.031 C 
ATOM     48  C   UNL     1      -8.601   8.901  -4.496  1.00  0.00     0.029 A 
ATOM     49  C   UNL     1      -8.371   9.886  -3.458  1.00  0.00     0.049 A 
ATOM     50  H   UNL     1      -8.559   9.578  -1.391  1.00  0.00     0.167 HD
ATOM     51  C   UNL     1      -7.659   8.495   2.844  1.00  0.00     0.034 A 
ATOM     52  C   UNL     1      -8.031  11.196  -3.565  1.00  0.00     0.034 A 
ATOM     53  C   UNL     1      -8.991   9.046   2.846  1.00  0.00     0.049 A 
ATOM     54  C   UNL     1      -8.323  11.818  -2.253  1.00  0.00     0.074 A 
ATOM     55  C   UNL     1     -10.259   8.524   2.990  1.00  0.00     0.029 A 
ATOM     56  N   UNL     1      -9.146  10.280   2.261  1.00  0.00    -0.354 N 
ATOM     57  N   UNL     1      -9.529  11.939  -1.774  1.00  0.00    -0.248 NA
ATOM     58  C   UNL     1      -7.247  11.873  -1.277  1.00  0.00     0.031 C 
ATOM     59  C   UNL     1     -11.057   9.249   2.058  1.00  0.00     0.029 A 
ATOM     60  C   UNL     1     -10.255  10.224   1.460  1.00  0.00     0.049 A 
ATOM     61  H   UNL     1      -8.565  11.063   2.394  1.00  0.00     0.167 HD
ATOM     62  C   UNL     1      -9.396  11.600  -0.434  1.00  0.00     0.074 A 
ATOM     63  C   UNL     1      -7.959  11.678  -0.163  1.00  0.00     0.031 C 
ATOM     64  C   UNL     1     -10.414  10.992   0.244  1.00  0.00     0.034 A 
BRANCH  51  65
ATOM     65  C   UNL     1      -6.547   9.155   3.623  1.00  0.00     0.023 A 
ATOM     66  C   UNL     1      -6.917   9.911   4.759  1.00  0.00     0.012 A 
ATOM     67  C   UNL     1      -5.220   9.300   3.161  1.00  0.00     0.148 A 
ATOM     68  C   UNL     1      -6.030  10.801   5.372  1.00  0.00     0.002 A 
ATOM     69  C   UNL     1      -4.318  10.130   3.818  1.00  0.00     0.091 A 
ATOM     70  F   UNL     1      -4.851   8.738   2.006  1.00  0.00    -0.205 F 
ATOM     71  C   UNL     1      -4.727  10.906   4.905  1.00  0.00     0.022 A 
BRANCH  69  72
ATOM     72  S   UNL     1      -2.605  10.278   3.293  1.00  0.00     0.127 S 
ATOM     73  O   UNL     1      -2.576  11.639   2.765  1.00  0.00    -0.237 OA
ATOM     74  O   UNL     1      -1.891  10.087   4.556  1.00  0.00    -0.237 OA
ATOM     75  O   UNL     1      -2.398   9.213   2.321  1.00  0.00    -0.744 OA
ENDBRANCH  69  72
ENDBRANCH  51  65
BRANCH  52  76
ATOM     76  C   UNL     1      -7.226  11.897  -4.595  1.00  0.00     0.023 A 
ATOM     77  C   UNL     1      -7.287  13.303  -4.688  1.00  0.00     0.012 A 
ATOM     78  C   UNL     1      -6.175  11.233  -5.266  1.00  0.00     0.148 A 
ATOM     79  C   UNL     1      -6.309  14.027  -5.384  1.00  0.00     0.002 A 
ATOM     80  C   UNL     1      -5.201  11.957  -5.950  1.00  0.00     0.091 A 
ATOM     81  F   UNL     1      -6.077   9.902  -5.152  1.00  0.00    -0.205 F 
ATOM     82  C   UNL     1      -5.259  13.356  -6.002  1.00  0.00     0.022 A 
BRANCH  80  83
ATOM     83  S   UNL     1      -3.779  11.166  -6.717  1.00  0.00     0.127 S 
ATOM     84  O   UNL     1      -3.800  11.745  -8.061  1.00  0.00    -0.237 OA
ATOM     85  O   UNL     1      -2.685  11.628  -5.867  1.00  0.00    -0.237 OA
ATOM     86  O   UNL     1      -4.050   9.735  -6.673  1.00  0.00    -0.744 OA
ENDBRANCH  80  83
ENDBRANCH  52  76
BRANCH  64  87
ATOM     87  C   UNL     1     -11.762  10.886  -0.432  1.00  0.00     0.023 A 
ATOM     88  C   UNL     1     -11.966  10.129  -1.607  1.00  0.00     0.012 A 
ATOM     89  C   UNL     1     -12.882  11.382   0.252  1.00  0.00     0.148 A 
ATOM     90  C   UNL     1     -13.254   9.883  -2.090  1.00  0.00     0.002 A 
ATOM     91  C   UNL     1     -14.163  11.090  -0.200  1.00  0.00     0.091 A 
ATOM     92  F   UNL     1     -12.674  12.098   1.367  1.00  0.00    -0.205 F 
ATOM     93  C   UNL     1     -14.355  10.349  -1.377  1.00  0.00     0.022 A 
BRANCH  91  94
ATOM     94  S   UNL     1     -15.616  11.534   0.754  1.00  0.00     0.127 S 
ATOM     95  O   UNL     1     -16.177  12.628  -0.037  1.00  0.00    -0.237 OA
ATOM     96  O   UNL     1     -16.398  10.297   0.728  1.00  0.00    -0.237 OA
ATOM     97  O   UNL     1     -15.131  11.904   2.078  1.00  0.00    -0.744 OA
ENDBRANCH  91  94
ENDBRANCH  64  87
ENDBRANCH  38  39
ENDBRANCH  30  33
ENDBRANCH  28  29
ENDBRANCH   1  28
TORSDOF 15
