REMARK SMILES CC1(C)[C@H](C(=O)NCCCNC(=O)c2ccc(-c3c4nc(c(-c5cccc(S(=O)(=O)[O-])c5F)c5ccc([nH]5)c(-c5cccc(S(=O)(=O)[O-])c5F)c5nc(c(-c6cccc(S(=O)(=O)[O-])c6F)c6ccc3[nH]6)C=C5)C=C4)cc2)[C@@H]1c1nc2ccc(F)cc2s1
REMARK SMILES IDX 10 1 9 2 8 3 7 4 5 5 6 6 4 8 1 9 2 10 3 11 77 12 78 13 79 14
REMARK SMILES IDX 87 15 80 16 86 17 81 18 85 19 82 20 83 21 84 22 11 23 12 24
REMARK SMILES IDX 13 26 14 27 15 28 76 29 16 30 75 31 17 32 18 33 19 34 69 35
REMARK SMILES IDX 20 36 74 37 68 38 70 39 21 40 73 41 67 42 66 43 22 45 54 46
REMARK SMILES IDX 34 47 53 48 35 49 38 50 52 51 71 52 36 53 37 54 51 56 72 57
REMARK SMILES IDX 39 58 23 59 24 60 32 61 25 62 27 63 33 64 26 65 28 66 29 67
REMARK SMILES IDX 30 68 31 69 55 70 56 71 64 72 57 73 59 74 65 75 58 76 60 77
REMARK SMILES IDX 61 78 62 79 63 80 40 81 41 82 49 83 42 84 44 85 50 86 43 87
REMARK SMILES IDX 45 88 46 89 47 90 48 91
REMARK H PARENT 7 7 11 25 70 44 38 55
REMARK Flexibility Score: inf
ROOT
ATOM      1  C   UNL     1      -0.769   5.186  -1.799  1.00  0.00     0.118 C 
ENDROOT
BRANCH   1   2
ATOM      2  C   UNL     1      -0.248   4.050  -0.945  1.00  0.00     0.042 C 
BRANCH   2   3
ATOM      3  C   UNL     1      -1.337   3.091  -0.509  1.00  0.00     0.117 C 
BRANCH   3   4
ATOM      4  N   UNL     1      -1.690   2.120  -1.502  1.00  0.00    -0.356 N 
ATOM      5  C   UNL     1      -1.645   0.756  -1.510  1.00  0.00     0.224 C 
ATOM      6  O   UNL     1      -2.076   0.227  -2.539  1.00  0.00    -0.275 OA
ATOM      7  H   UNL     1      -2.030   2.511  -2.339  1.00  0.00     0.163 HD
BRANCH   5   8
ATOM      8  C   UNL     1      -1.149  -0.167  -0.452  1.00  0.00     0.095 C 
ATOM      9  C   UNL     1       0.980  -1.447   0.175  1.00  0.00     0.013 C 
ATOM     10  C   UNL     1       0.218  -0.136   0.251  1.00  0.00    -0.013 C 
ATOM     11  C   UNL     1       1.146   1.041   0.095  1.00  0.00     0.013 C 
ATOM     12  C   UNL     1      -1.083  -0.117   1.043  1.00  0.00     0.068 C 
BRANCH  12  13
ATOM     13  C   UNL     1      -1.762   0.957   1.880  1.00  0.00     0.098 A 
ATOM     14  N   UNL     1      -3.073   0.945   1.976  1.00  0.00    -0.241 NA
ATOM     15  S   UNL     1      -0.980   2.141   2.846  1.00  0.00    -0.118 S 
ATOM     16  C   UNL     1      -3.505   2.116   2.570  1.00  0.00     0.082 A 
ATOM     17  C   UNL     1      -2.488   2.968   3.013  1.00  0.00     0.057 A 
ATOM     18  C   UNL     1      -4.848   2.523   2.712  1.00  0.00     0.033 A 
ATOM     19  C   UNL     1      -2.762   4.255   3.502  1.00  0.00     0.060 A 
ATOM     20  C   UNL     1      -5.134   3.796   3.213  1.00  0.00     0.041 A 
ATOM     21  C   UNL     1      -4.098   4.646   3.576  1.00  0.00     0.124 A 
ATOM     22  F   UNL     1      -4.396   5.876   4.018  1.00  0.00    -0.207 F 
ENDBRANCH  12  13
ENDBRANCH   5   8
ENDBRANCH   3   4
ENDBRANCH   2   3
ENDBRANCH   1   2
BRANCH   1  23
ATOM     23  N   UNL     1      -1.641   6.085  -1.049  1.00  0.00    -0.352 N 
ATOM     24  C   UNL     1      -1.443   7.386  -0.652  1.00  0.00     0.251 C 
ATOM     25  H   UNL     1      -2.507   5.698  -0.786  1.00  0.00     0.163 HD
ATOM     26  O   UNL     1      -2.205   7.893   0.164  1.00  0.00    -0.269 OA
BRANCH  24  27
ATOM     27  C   UNL     1      -0.307   8.162  -1.195  1.00  0.00     0.039 A 
ATOM     28  C   UNL     1       0.397   9.028  -0.354  1.00  0.00     0.014 A 
ATOM     29  C   UNL     1       0.066   8.034  -2.534  1.00  0.00     0.014 A 
ATOM     30  C   UNL     1       1.518   9.705  -0.842  1.00  0.00     0.010 A 
ATOM     31  C   UNL     1       1.248   8.608  -2.980  1.00  0.00     0.010 A 
ATOM     32  C   UNL     1       1.977   9.467  -2.147  1.00  0.00    -0.014 A 
BRANCH  32  33
ATOM     33  C   UNL     1       3.198  10.120  -2.684  1.00  0.00     0.031 A 
ATOM     34  C   UNL     1       3.100  10.986  -3.914  1.00  0.00     0.074 A 
ATOM     35  C   UNL     1       4.398   9.861  -2.128  1.00  0.00     0.049 A 
ATOM     36  N   UNL     1       4.057  11.552  -4.602  1.00  0.00    -0.248 NA
ATOM     37  C   UNL     1       1.752  11.217  -4.466  1.00  0.00     0.031 C 
ATOM     38  C   UNL     1       4.631   8.982  -0.979  1.00  0.00     0.029 A 
ATOM     39  N   UNL     1       5.655  10.289  -2.474  1.00  0.00    -0.354 N 
ATOM     40  C   UNL     1       3.433  12.170  -5.680  1.00  0.00     0.074 A 
ATOM     41  C   UNL     1       2.023  11.871  -5.585  1.00  0.00     0.031 C 
ATOM     42  C   UNL     1       5.946   8.946  -0.710  1.00  0.00     0.029 A 
ATOM     43  C   UNL     1       6.655   9.761  -1.690  1.00  0.00     0.049 A 
ATOM     44  H   UNL     1       5.826  10.916  -3.214  1.00  0.00     0.167 HD
ATOM     45  C   UNL     1       3.978  12.950  -6.643  1.00  0.00     0.034 A 
ATOM     46  C   UNL     1       7.993   9.907  -1.762  1.00  0.00     0.034 A 
ATOM     47  C   UNL     1       5.374  13.284  -6.706  1.00  0.00     0.049 A 
ATOM     48  C   UNL     1       8.569  10.796  -2.833  1.00  0.00     0.074 A 
ATOM     49  C   UNL     1       6.017  14.123  -7.598  1.00  0.00     0.029 A 
ATOM     50  N   UNL     1       6.342  12.798  -5.842  1.00  0.00    -0.354 N 
ATOM     51  N   UNL     1       7.947  11.481  -3.761  1.00  0.00    -0.248 NA
ATOM     52  C   UNL     1      10.030  10.961  -2.845  1.00  0.00     0.031 C 
ATOM     53  C   UNL     1       7.380  14.123  -7.289  1.00  0.00     0.029 A 
ATOM     54  C   UNL     1       7.579  13.316  -6.181  1.00  0.00     0.049 A 
ATOM     55  H   UNL     1       6.174  12.176  -5.097  1.00  0.00     0.167 HD
ATOM     56  C   UNL     1       8.932  12.195  -4.434  1.00  0.00     0.074 A 
ATOM     57  C   UNL     1      10.191  11.870  -3.796  1.00  0.00     0.031 C 
ATOM     58  C   UNL     1       8.810  13.034  -5.491  1.00  0.00     0.034 A 
BRANCH  45  59
ATOM     59  C   UNL     1       3.055  13.546  -7.673  1.00  0.00     0.023 A 
ATOM     60  C   UNL     1       2.155  14.564  -7.294  1.00  0.00     0.012 A 
ATOM     61  C   UNL     1       3.125  13.155  -9.024  1.00  0.00     0.148 A 
ATOM     62  C   UNL     1       1.316  15.159  -8.235  1.00  0.00     0.002 A 
ATOM     63  C   UNL     1       2.321  13.787  -9.965  1.00  0.00     0.091 A 
ATOM     64  F   UNL     1       3.973  12.174  -9.362  1.00  0.00    -0.205 F 
ATOM     65  C   UNL     1       1.408  14.779  -9.571  1.00  0.00     0.022 A 
BRANCH  63  66
ATOM     66  S   UNL     1       2.418  13.432 -11.723  1.00  0.00     0.127 S 
ATOM     67  O   UNL     1       1.109  12.829 -11.975  1.00  0.00    -0.237 OA
ATOM     68  O   UNL     1       2.595  14.767 -12.294  1.00  0.00    -0.237 OA
ATOM     69  O   UNL     1       3.555  12.539 -11.893  1.00  0.00    -0.744 OA
ENDBRANCH  63  66
ENDBRANCH  45  59
BRANCH  46  70
ATOM     70  C   UNL     1       8.883   9.243  -0.767  1.00  0.00     0.023 A 
ATOM     71  C   UNL     1       9.600  10.031   0.155  1.00  0.00     0.012 A 
ATOM     72  C   UNL     1       9.032   7.843  -0.732  1.00  0.00     0.148 A 
ATOM     73  C   UNL     1      10.486   9.444   1.058  1.00  0.00     0.002 A 
ATOM     74  C   UNL     1       9.872   7.259   0.210  1.00  0.00     0.091 A 
ATOM     75  F   UNL     1       8.349   7.109  -1.621  1.00  0.00    -0.205 F 
ATOM     76  C   UNL     1      10.617   8.058   1.091  1.00  0.00     0.022 A 
BRANCH  74  77
ATOM     77  S   UNL     1      10.003   5.479   0.409  1.00  0.00     0.127 S 
ATOM     78  O   UNL     1      11.335   5.215  -0.127  1.00  0.00    -0.237 OA
ATOM     79  O   UNL     1       9.879   5.326   1.859  1.00  0.00    -0.237 OA
ATOM     80  O   UNL     1       8.891   4.918  -0.348  1.00  0.00    -0.744 OA
ENDBRANCH  74  77
ENDBRANCH  46  70
BRANCH  58  81
ATOM     81  C   UNL     1      10.054  13.719  -5.991  1.00  0.00     0.023 A 
ATOM     82  C   UNL     1      11.032  12.988  -6.692  1.00  0.00     0.012 A 
ATOM     83  C   UNL     1      10.206  15.111  -5.836  1.00  0.00     0.148 A 
ATOM     84  C   UNL     1      12.161  13.628  -7.203  1.00  0.00     0.002 A 
ATOM     85  C   UNL     1      11.305  15.750  -6.395  1.00  0.00     0.091 A 
ATOM     86  F   UNL     1       9.270  15.785  -5.151  1.00  0.00    -0.205 F 
ATOM     87  C   UNL     1      12.290  15.008  -7.067  1.00  0.00     0.022 A 
BRANCH  85  88
ATOM     88  S   UNL     1      11.504  17.535  -6.359  1.00  0.00     0.127 S 
ATOM     89  O   UNL     1      12.636  17.689  -5.447  1.00  0.00    -0.237 OA
ATOM     90  O   UNL     1      11.803  17.839  -7.759  1.00  0.00    -0.237 OA
ATOM     91  O   UNL     1      10.239  18.073  -5.878  1.00  0.00    -0.744 OA
ENDBRANCH  85  88
ENDBRANCH  58  81
ENDBRANCH  32  33
ENDBRANCH  24  27
ENDBRANCH   1  23
TORSDOF 14
