REMARK SMILES Cc1cc(C)cc(C(=O)N2CC[C@H](C(=O)NCCCNC(=O)c3ccc(-c4c5nc(c(-c6cccc(S(=O)(=O)[O-])c6F)c6ccc([nH]6)c(-c6cccc(S(=O)(=O)[O-])c6F)c6nc(c(-c7cccc(S(=O)(=O)[O-])c7F)c7ccc4[nH]7)C=C6)C=C5)cc3)[C@@H]2C)c1
REMARK SMILES IDX 18 1 17 2 16 3 14 4 15 5 13 7 10 8 11 9 86 10 12 11 87 12
REMARK SMILES IDX 8 13 9 14 7 15 1 16 2 17 3 18 88 19 4 20 5 21 6 22 19 23
REMARK SMILES IDX 20 24 21 25 22 27 23 28 24 29 85 30 25 31 84 32 26 33 27 34
REMARK SMILES IDX 28 35 78 36 29 37 83 38 77 39 79 40 30 41 82 42 76 43 75 44
REMARK SMILES IDX 31 46 63 47 43 48 62 49 44 50 47 51 61 52 80 53 45 54 46 55
REMARK SMILES IDX 60 57 81 58 48 59 32 60 33 61 41 62 34 63 36 64 42 65 35 66
REMARK SMILES IDX 37 67 38 68 39 69 40 70 64 71 65 72 73 73 66 74 68 75 74 76
REMARK SMILES IDX 67 77 69 78 70 79 71 80 72 81 49 82 50 83 58 84 51 85 53 86
REMARK SMILES IDX 59 87 52 88 54 89 55 90 56 91 57 92
REMARK H PARENT 16 6 20 26 79 45 47 56
REMARK Flexibility Score: inf
ROOT
ATOM      1  C   UNL     1       5.811  -4.631   3.660  1.00  0.00     0.042 C 
ENDROOT
BRANCH   1   2
ATOM      2  C   UNL     1       5.862  -5.085   2.206  1.00  0.00     0.117 C 
BRANCH   2   3
ATOM      3  N   UNL     1       4.860  -6.091   1.902  1.00  0.00    -0.356 N 
ATOM      4  C   UNL     1       3.783  -6.055   1.072  1.00  0.00     0.225 C 
ATOM      5  O   UNL     1       3.125  -7.089   0.943  1.00  0.00    -0.275 OA
ATOM      6  H   UNL     1       4.981  -6.944   2.378  1.00  0.00     0.163 HD
BRANCH   4   7
ATOM      7  C   UNL     1       3.425  -4.777   0.332  1.00  0.00     0.102 C 
ATOM      8  N   UNL     1       1.218  -4.001  -0.134  1.00  0.00    -0.335 N 
ATOM      9  C   UNL     1       1.464  -5.114  -1.022  1.00  0.00     0.121 C 
ATOM     10  C   UNL     1       2.241  -3.968   0.926  1.00  0.00     0.094 C 
ATOM     11  C   UNL     1       2.977  -5.127  -1.101  1.00  0.00     0.037 C 
ATOM     12  C   UNL     1       1.671  -4.499   2.242  1.00  0.00     0.032 C 
BRANCH   8  13
ATOM     13  C   UNL     1       0.093  -3.222  -0.334  1.00  0.00     0.254 C 
ATOM     14  O   UNL     1      -0.905  -3.676  -0.897  1.00  0.00    -0.269 OA
BRANCH  13  15
ATOM     15  C   UNL     1       0.106  -1.764  -0.025  1.00  0.00     0.040 A 
ATOM     16  C   UNL     1       2.499   1.206  -0.025  1.00  0.00     0.044 C 
ATOM     17  C   UNL     1       1.239   0.394   0.032  1.00  0.00    -0.050 A 
ATOM     18  C   UNL     1      -0.001   1.033   0.151  1.00  0.00     0.006 A 
ATOM     19  C   UNL     1       1.279  -1.002  -0.095  1.00  0.00     0.017 A 
ATOM     20  C   UNL     1      -1.191   0.294   0.164  1.00  0.00    -0.050 A 
ATOM     21  C   UNL     1      -2.511   1.007   0.173  1.00  0.00     0.044 C 
ATOM     22  C   UNL     1      -1.126  -1.104   0.098  1.00  0.00     0.017 A 
ENDBRANCH  13  15
ENDBRANCH   8  13
ENDBRANCH   4   7
ENDBRANCH   2   3
ENDBRANCH   1   2
BRANCH   1  23
ATOM     23  C   UNL     1       6.044  -5.737   4.686  1.00  0.00     0.118 C 
BRANCH  23  24
ATOM     24  N   UNL     1       7.331  -6.399   4.530  1.00  0.00    -0.352 N 
ATOM     25  C   UNL     1       8.343  -6.615   5.432  1.00  0.00     0.251 C 
ATOM     26  H   UNL     1       7.504  -6.751   3.627  1.00  0.00     0.163 HD
ATOM     27  O   UNL     1       9.409  -7.072   5.021  1.00  0.00    -0.269 OA
BRANCH  25  28
ATOM     28  C   UNL     1       8.185  -6.295   6.871  1.00  0.00     0.039 A 
ATOM     29  C   UNL     1       9.290  -5.787   7.561  1.00  0.00     0.014 A 
ATOM     30  C   UNL     1       6.992  -6.531   7.560  1.00  0.00     0.014 A 
ATOM     31  C   UNL     1       9.183  -5.469   8.917  1.00  0.00     0.010 A 
ATOM     32  C   UNL     1       6.862  -6.136   8.892  1.00  0.00     0.010 A 
ATOM     33  C   UNL     1       7.958  -5.610   9.590  1.00  0.00    -0.014 A 
BRANCH  33  34
ATOM     34  C   UNL     1       7.824  -5.191  11.011  1.00  0.00     0.031 A 
ATOM     35  C   UNL     1       7.486  -6.188  12.089  1.00  0.00     0.074 A 
ATOM     36  C   UNL     1       7.962  -3.887  11.329  1.00  0.00     0.049 A 
ATOM     37  N   UNL     1       7.375  -5.998  13.379  1.00  0.00    -0.248 NA
ATOM     38  C   UNL     1       7.212  -7.570  11.665  1.00  0.00     0.031 C 
ATOM     39  C   UNL     1       8.193  -2.805  10.369  1.00  0.00     0.029 A 
ATOM     40  N   UNL     1       7.917  -3.248  12.543  1.00  0.00    -0.354 N 
ATOM     41  C   UNL     1       6.995  -7.222  13.916  1.00  0.00     0.074 A 
ATOM     42  C   UNL     1       6.855  -8.140  12.807  1.00  0.00     0.031 C 
ATOM     43  C   UNL     1       8.290  -1.642  11.032  1.00  0.00     0.029 A 
ATOM     44  C   UNL     1       8.106  -1.889  12.458  1.00  0.00     0.049 A 
ATOM     45  H   UNL     1       7.763  -3.719  13.394  1.00  0.00     0.167 HD
ATOM     46  C   UNL     1       6.810  -7.563  15.215  1.00  0.00     0.034 A 
ATOM     47  C   UNL     1       8.138  -0.945  13.420  1.00  0.00     0.034 A 
ATOM     48  C   UNL     1       6.986  -6.659  16.321  1.00  0.00     0.049 A 
ATOM     49  C   UNL     1       7.994  -1.362  14.858  1.00  0.00     0.074 A 
ATOM     50  C   UNL     1       6.911  -6.931  17.676  1.00  0.00     0.029 A 
ATOM     51  N   UNL     1       7.264  -5.306  16.202  1.00  0.00    -0.354 N 
ATOM     52  N   UNL     1       7.812  -2.560  15.357  1.00  0.00    -0.248 NA
ATOM     53  C   UNL     1       8.107  -0.301  15.870  1.00  0.00     0.031 C 
ATOM     54  C   UNL     1       7.119  -5.737  18.376  1.00  0.00     0.029 A 
ATOM     55  C   UNL     1       7.355  -4.727  17.457  1.00  0.00     0.049 A 
ATOM     56  H   UNL     1       7.379  -4.827  15.350  1.00  0.00     0.167 HD
ATOM     57  C   UNL     1       7.821  -2.404  16.738  1.00  0.00     0.074 A 
ATOM     58  C   UNL     1       8.057  -0.998  16.996  1.00  0.00     0.031 C 
ATOM     59  C   UNL     1       7.634  -3.336  17.705  1.00  0.00     0.034 A 
BRANCH  46  60
ATOM     60  C   UNL     1       6.450  -8.996  15.519  1.00  0.00     0.023 A 
ATOM     61  C   UNL     1       7.419 -10.007  15.347  1.00  0.00     0.012 A 
ATOM     62  C   UNL     1       5.184  -9.337  16.033  1.00  0.00     0.148 A 
ATOM     63  C   UNL     1       7.123 -11.336  15.647  1.00  0.00     0.002 A 
ATOM     64  C   UNL     1       4.911 -10.658  16.373  1.00  0.00     0.091 A 
ATOM     65  F   UNL     1       4.268  -8.368  16.172  1.00  0.00    -0.205 F 
ATOM     66  C   UNL     1       5.874 -11.659  16.169  1.00  0.00     0.022 A 
BRANCH  64  67
ATOM     67  S   UNL     1       3.362 -11.164  17.129  1.00  0.00     0.127 S 
ATOM     68  O   UNL     1       2.733 -11.911  16.040  1.00  0.00    -0.237 OA
ATOM     69  O   UNL     1       3.821 -11.990  18.247  1.00  0.00    -0.237 OA
ATOM     70  O   UNL     1       2.685  -9.937  17.519  1.00  0.00    -0.744 OA
ENDBRANCH  64  67
ENDBRANCH  46  60
BRANCH  47  71
ATOM     71  C   UNL     1       8.398   0.477  13.057  1.00  0.00     0.023 A 
ATOM     72  C   UNL     1       9.626   1.069  13.411  1.00  0.00     0.012 A 
ATOM     73  C   UNL     1       7.452   1.233  12.339  1.00  0.00     0.148 A 
ATOM     74  C   UNL     1       9.893   2.400  13.088  1.00  0.00     0.002 A 
ATOM     75  C   UNL     1       7.749   2.540  11.969  1.00  0.00     0.091 A 
ATOM     76  F   UNL     1       6.285   0.655  12.021  1.00  0.00    -0.205 F 
ATOM     77  C   UNL     1       8.960   3.131  12.358  1.00  0.00     0.022 A 
BRANCH  75  78
ATOM     78  S   UNL     1       6.666   3.506  10.909  1.00  0.00     0.127 S 
ATOM     79  O   UNL     1       6.135   4.494  11.845  1.00  0.00    -0.237 OA
ATOM     80  O   UNL     1       7.607   4.037   9.921  1.00  0.00    -0.237 OA
ATOM     81  O   UNL     1       5.702   2.561  10.368  1.00  0.00    -0.744 OA
ENDBRANCH  75  78
ENDBRANCH  47  71
BRANCH  59  82
ATOM     82  C   UNL     1       7.705  -2.873  19.138  1.00  0.00     0.023 A 
ATOM     83  C   UNL     1       6.679  -2.064  19.667  1.00  0.00     0.012 A 
ATOM     84  C   UNL     1       8.767  -3.273  19.973  1.00  0.00     0.148 A 
ATOM     85  C   UNL     1       6.733  -1.622  20.989  1.00  0.00     0.002 A 
ATOM     86  C   UNL     1       8.788  -2.871  21.304  1.00  0.00     0.091 A 
ATOM     87  F   UNL     1       9.746  -4.025  19.450  1.00  0.00    -0.205 F 
ATOM     88  C   UNL     1       7.780  -2.034  21.809  1.00  0.00     0.022 A 
BRANCH  86  89
ATOM     89  S   UNL     1      10.048  -3.433  22.454  1.00  0.00     0.127 S 
ATOM     90  O   UNL     1      10.906  -2.255  22.556  1.00  0.00    -0.237 OA
ATOM     91  O   UNL     1       9.267  -3.725  23.657  1.00  0.00    -0.237 OA
ATOM     92  O   UNL     1      10.656  -4.603  21.835  1.00  0.00    -0.744 OA
ENDBRANCH  86  89
ENDBRANCH  59  82
ENDBRANCH  33  34
ENDBRANCH  25  28
ENDBRANCH  23  24
ENDBRANCH   1  23
TORSDOF 15
