REMARK SMILES O=C(NCCCNC(=O)[C@]12C[NH2+]C[C@H]1CN(C(=O)c1ccccc1-n1cncn1)C2)c1ccc(-c2c3nc(c(-c4cccc(S(=O)(=O)[O-])c4F)c4ccc([nH]4)c(-c4cccc(S(=O)(=O)[O-])c4F)c4nc(c(-c5cccc(S(=O)(=O)[O-])c5F)c5ccc2[nH]5)C=C4)C=C3)cc1
REMARK SMILES IDX 5 1 4 2 3 3 1 4 2 5 31 7 32 8 93 9 33 10 92 11 34 12 35 13
REMARK SMILES IDX 36 14 86 15 37 16 91 17 85 18 87 19 38 20 90 21 84 22 83 23
REMARK SMILES IDX 39 25 71 26 51 27 70 28 52 29 55 30 69 31 88 32 53 33 54 34
REMARK SMILES IDX 68 36 89 37 56 38 40 39 41 40 49 41 42 42 44 43 50 44 43 45
REMARK SMILES IDX 45 46 46 47 47 48 48 49 72 50 73 51 81 52 74 53 76 54 82 55
REMARK SMILES IDX 75 56 77 57 78 58 79 59 80 60 57 61 58 62 66 63 59 64 61 65
REMARK SMILES IDX 67 66 60 67 62 68 63 69 64 70 65 71 6 72 7 73 8 74 9 76
REMARK SMILES IDX 10 77 11 78 14 79 30 80 12 81 13 82 15 83 16 84 17 87 18 88
REMARK SMILES IDX 19 89 20 90 24 91 21 92 23 93 22 94 25 95 26 96 29 97 27 98
REMARK SMILES IDX 28 99
REMARK H PARENT 3 6 87 24 55 35 7 75 12 85 12 86
REMARK Flexibility Score: inf
ROOT
ATOM      1  C   UNL     1       4.780  -1.832  -0.789  1.00  0.00     0.042 C 
ENDROOT
BRANCH   1   2
ATOM      2  C   UNL     1       4.701  -0.307  -0.846  1.00  0.00     0.118 C 
BRANCH   2   3
ATOM      3  N   UNL     1       3.344   0.177  -1.010  1.00  0.00    -0.352 N 
ATOM      4  O   UNL     1       1.244   0.755  -0.740  1.00  0.00    -0.269 OA
ATOM      5  C   UNL     1       2.264   0.334  -0.188  1.00  0.00     0.251 C 
ATOM      6  H   UNL     1       3.155   0.459  -1.934  1.00  0.00     0.163 HD
BRANCH   5   7
ATOM      7  C   UNL     1       2.216  -0.010   1.260  1.00  0.00     0.039 A 
ATOM      8  C   UNL     1       3.296  -0.423   2.044  1.00  0.00     0.014 A 
ATOM      9  C   UNL     1       0.947   0.088   1.863  1.00  0.00     0.014 A 
ATOM     10  C   UNL     1       3.099  -0.808   3.369  1.00  0.00     0.010 A 
ATOM     11  C   UNL     1       0.746  -0.282   3.186  1.00  0.00     0.010 A 
ATOM     12  C   UNL     1       1.819  -0.763   3.927  1.00  0.00    -0.014 A 
BRANCH  12  13
ATOM     13  C   UNL     1       1.667  -1.030   5.355  1.00  0.00     0.031 A 
ATOM     14  C   UNL     1       2.315  -0.002   6.221  1.00  0.00     0.074 A 
ATOM     15  C   UNL     1       0.874  -2.006   5.845  1.00  0.00     0.049 A 
ATOM     16  N   UNL     1       3.298  -0.157   7.048  1.00  0.00    -0.248 NA
ATOM     17  C   UNL     1       1.929   1.404   6.017  1.00  0.00     0.031 C 
ATOM     18  C   UNL     1      -0.040  -2.869   5.091  1.00  0.00     0.029 A 
ATOM     19  N   UNL     1       0.601  -2.335   7.142  1.00  0.00    -0.354 N 
ATOM     20  C   UNL     1       3.486   1.092   7.645  1.00  0.00     0.074 A 
ATOM     21  C   UNL     1       2.783   2.035   6.822  1.00  0.00     0.031 C 
ATOM     22  C   UNL     1      -0.934  -3.421   5.941  1.00  0.00     0.029 A 
ATOM     23  C   UNL     1      -0.584  -3.055   7.302  1.00  0.00     0.049 A 
ATOM     24  H   UNL     1       1.185  -2.087   7.894  1.00  0.00     0.167 HD
ATOM     25  C   UNL     1       3.971   1.202   8.915  1.00  0.00     0.034 A 
ATOM     26  C   UNL     1      -1.270  -3.256   8.457  1.00  0.00     0.034 A 
ATOM     27  C   UNL     1       4.615  -0.022   9.326  1.00  0.00     0.049 A 
ATOM     28  C   UNL     1      -0.340  -2.996   9.578  1.00  0.00     0.074 A 
ATOM     29  C   UNL     1       5.672  -0.784   8.871  1.00  0.00     0.029 A 
ATOM     30  N   UNL     1       3.906  -0.831  10.178  1.00  0.00    -0.354 N 
ATOM     31  N   UNL     1       0.692  -3.744   9.842  1.00  0.00    -0.248 NA
ATOM     32  C   UNL     1      -0.309  -1.655  10.136  1.00  0.00     0.031 C 
ATOM     33  C   UNL     1       5.272  -2.135   9.097  1.00  0.00     0.029 A 
ATOM     34  C   UNL     1       4.032  -2.116   9.738  1.00  0.00     0.049 A 
ATOM     35  H   UNL     1       3.396  -0.536  10.968  1.00  0.00     0.167 HD
ATOM     36  C   UNL     1       1.689  -2.837  10.170  1.00  0.00     0.074 A 
ATOM     37  C   UNL     1       0.989  -1.581  10.440  1.00  0.00     0.031 C 
ATOM     38  C   UNL     1       2.998  -3.111   9.898  1.00  0.00     0.034 A 
BRANCH  25  39
ATOM     39  C   UNL     1       3.486   2.207   9.954  1.00  0.00     0.023 A 
ATOM     40  C   UNL     1       4.067   2.111  11.243  1.00  0.00     0.012 A 
ATOM     41  C   UNL     1       2.311   2.988   9.852  1.00  0.00     0.148 A 
ATOM     42  C   UNL     1       3.442   2.635  12.380  1.00  0.00     0.002 A 
ATOM     43  C   UNL     1       1.722   3.558  10.978  1.00  0.00     0.091 A 
ATOM     44  F   UNL     1       1.678   3.114   8.687  1.00  0.00    -0.205 F 
ATOM     45  C   UNL     1       2.260   3.348  12.248  1.00  0.00     0.022 A 
BRANCH  43  46
ATOM     46  S   UNL     1       0.208   4.523  10.864  1.00  0.00     0.127 S 
ATOM     47  O   UNL     1      -0.755   3.620  11.494  1.00  0.00    -0.237 OA
ATOM     48  O   UNL     1       0.554   5.707  11.655  1.00  0.00    -0.237 OA
ATOM     49  O   UNL     1       0.005   4.785   9.450  1.00  0.00    -0.744 OA
ENDBRANCH  43  46
ENDBRANCH  25  39
BRANCH  26  50
ATOM     50  C   UNL     1      -2.732  -3.371   8.689  1.00  0.00     0.023 A 
ATOM     51  C   UNL     1      -3.214  -3.937   9.889  1.00  0.00     0.012 A 
ATOM     52  C   UNL     1      -3.647  -2.666   7.876  1.00  0.00     0.148 A 
ATOM     53  C   UNL     1      -4.552  -3.780  10.278  1.00  0.00     0.002 A 
ATOM     54  C   UNL     1      -4.976  -2.518   8.263  1.00  0.00     0.091 A 
ATOM     55  F   UNL     1      -3.192  -2.060   6.772  1.00  0.00    -0.205 F 
ATOM     56  C   UNL     1      -5.430  -3.064   9.470  1.00  0.00     0.022 A 
BRANCH  54  57
ATOM     57  S   UNL     1      -6.159  -1.582   7.284  1.00  0.00     0.127 S 
ATOM     58  O   UNL     1      -7.279  -2.519   7.189  1.00  0.00    -0.237 OA
ATOM     59  O   UNL     1      -6.403  -0.420   8.134  1.00  0.00    -0.237 OA
ATOM     60  O   UNL     1      -5.497  -1.309   6.014  1.00  0.00    -0.744 OA
ENDBRANCH  54  57
ENDBRANCH  26  50
BRANCH  38  61
ATOM     61  C   UNL     1       3.363  -4.516   9.501  1.00  0.00     0.023 A 
ATOM     62  C   UNL     1       2.898  -5.119   8.314  1.00  0.00     0.012 A 
ATOM     63  C   UNL     1       4.342  -5.172  10.262  1.00  0.00     0.148 A 
ATOM     64  C   UNL     1       3.390  -6.363   7.907  1.00  0.00     0.002 A 
ATOM     65  C   UNL     1       4.864  -6.383   9.830  1.00  0.00     0.091 A 
ATOM     66  F   UNL     1       4.771  -4.580  11.387  1.00  0.00    -0.205 F 
ATOM     67  C   UNL     1       4.384  -6.987   8.657  1.00  0.00     0.022 A 
BRANCH  65  68
ATOM     68  S   UNL     1       6.233  -7.164  10.683  1.00  0.00     0.127 S 
ATOM     69  O   UNL     1       5.575  -8.280  11.357  1.00  0.00    -0.237 OA
ATOM     70  O   UNL     1       7.113  -7.548   9.578  1.00  0.00    -0.237 OA
ATOM     71  O   UNL     1       6.794  -6.144  11.561  1.00  0.00    -0.744 OA
ENDBRANCH  65  68
ENDBRANCH  38  61
ENDBRANCH  12  13
ENDBRANCH   5   7
ENDBRANCH   2   3
ENDBRANCH   1   2
BRANCH   1  72
ATOM     72  C   UNL     1       4.303  -2.465  -2.107  1.00  0.00     0.117 C 
BRANCH  72  73
ATOM     73  N   UNL     1       5.450  -2.696  -3.012  1.00  0.00    -0.355 N 
ATOM     74  C   UNL     1       6.435  -3.684  -3.014  1.00  0.00     0.234 C 
ATOM     75  H   UNL     1       5.533  -2.038  -3.740  1.00  0.00     0.163 HD
ATOM     76  O   UNL     1       7.593  -3.311  -3.222  1.00  0.00    -0.274 OA
BRANCH  74  77
ATOM     77  C   UNL     1       6.021  -5.166  -3.180  1.00  0.00     0.125 C 
ATOM     78  C   UNL     1       4.959  -5.486  -2.136  1.00  0.00     0.280 C 
ATOM     79  C   UNL     1       6.915  -6.432  -3.024  1.00  0.00     0.087 C 
ATOM     80  C   UNL     1       5.842  -5.183  -4.742  1.00  0.00     0.143 C 
ATOM     81  N   UNL     1       5.512  -6.393  -1.138  1.00  0.00    -0.345 N 
ATOM     82  C   UNL     1       6.604  -7.132  -1.708  1.00  0.00     0.267 C 
ATOM     83  C   UNL     1       6.388  -7.386  -4.116  1.00  0.00     0.130 C 
ATOM     84  N   UNL     1       6.065  -6.541  -5.220  1.00  0.00    -0.337 N 
ATOM     85  H   UNL     1       4.787  -7.042  -0.830  1.00  0.00     0.346 HD
ATOM     86  H   UNL     1       5.849  -5.853  -0.340  1.00  0.00     0.346 HD
BRANCH  84  87
ATOM     87  C   UNL     1       6.084  -7.039  -6.503  1.00  0.00     0.256 C 
ATOM     88  O   UNL     1       6.021  -8.242  -6.777  1.00  0.00    -0.269 OA
BRANCH  87  89
ATOM     89  C   UNL     1       6.347  -6.117  -7.620  1.00  0.00     0.065 A 
ATOM     90  C   UNL     1       5.293  -5.850  -8.501  1.00  0.00     0.016 A 
ATOM     91  C   UNL     1       7.602  -5.514  -7.817  1.00  0.00     0.079 A 
ATOM     92  C   UNL     1       5.471  -4.943  -9.547  1.00  0.00     0.001 A 
ATOM     93  C   UNL     1       7.756  -4.564  -8.841  1.00  0.00     0.029 A 
ATOM     94  C   UNL     1       6.695  -4.291  -9.707  1.00  0.00     0.002 A 
BRANCH  91  95
ATOM     95  N   UNL     1       8.730  -5.833  -7.024  1.00  0.00    -0.220 N 
ATOM     96  C   UNL     1       9.081  -7.020  -6.427  1.00  0.00     0.225 A 
ATOM     97  N   UNL     1       9.691  -4.912  -6.765  1.00  0.00    -0.155 NA
ATOM     98  N   UNL     1      10.125  -6.852  -5.648  1.00  0.00    -0.223 NA
ATOM     99  C   UNL     1      10.433  -5.541  -5.851  1.00  0.00     0.246 A 
ENDBRANCH  91  95
ENDBRANCH  87  89
ENDBRANCH  84  87
ENDBRANCH  74  77
ENDBRANCH  72  73
ENDBRANCH   1  72
TORSDOF 16
