REMARK SMILES O=C(NCCCNC(=O)c1ccc2c(=O)n(CCC[NH+]3CCOCC3)c(=O)[nH]c2c1)c1ccc(-c2c3nc(c(-c4cccc(S(=O)(=O)[O-])c4F)c4ccc([nH]4)c(-c4cccc(S(=O)(=O)[O-])c4F)c4nc(c(-c5cccc(S(=O)(=O)[O-])c5F)c5ccc2[nH]5)C=C4)C=C3)cc1
REMARK SMILES IDX 5 1 4 2 3 3 1 4 2 5 31 7 32 8 93 9 33 10 92 11 34 12 35 13
REMARK SMILES IDX 36 14 86 15 37 16 91 17 85 18 87 19 38 20 90 21 84 22 83 23
REMARK SMILES IDX 39 25 71 26 51 27 70 28 52 29 55 30 69 31 88 32 53 33 54 34
REMARK SMILES IDX 68 36 89 37 56 38 40 39 41 40 49 41 42 42 44 43 50 44 43 45
REMARK SMILES IDX 45 46 46 47 47 48 48 49 72 50 73 51 81 52 74 53 76 54 82 55
REMARK SMILES IDX 75 56 77 57 78 58 79 59 80 60 57 61 58 62 66 63 59 64 61 65
REMARK SMILES IDX 67 66 60 67 62 68 63 69 64 70 65 71 6 72 7 73 8 74 9 76
REMARK SMILES IDX 10 77 11 78 30 79 12 80 29 81 13 82 28 83 14 84 26 85 15 87
REMARK SMILES IDX 16 88 27 89 17 90 18 91 19 92 20 93 21 94 25 95 22 97 24 98
REMARK SMILES IDX 23 99
REMARK H PARENT 3 6 87 24 55 35 7 75 28 86 20 96
REMARK Flexibility Score: inf
ROOT
ATOM      1  C   UNL     1       4.882   1.012  -2.228  1.00  0.00     0.042 C 
ENDROOT
BRANCH   1   2
ATOM      2  C   UNL     1       4.495   0.982  -0.762  1.00  0.00     0.118 C 
BRANCH   2   3
ATOM      3  N   UNL     1       3.054   0.918  -0.557  1.00  0.00    -0.352 N 
ATOM      4  O   UNL     1       1.077   0.068   0.078  1.00  0.00    -0.269 OA
ATOM      5  C   UNL     1       2.302   0.028   0.168  1.00  0.00     0.251 C 
ATOM      6  H   UNL     1       2.539   1.625  -1.010  1.00  0.00     0.163 HD
BRANCH   5   7
ATOM      7  C   UNL     1       2.953  -0.980   1.033  1.00  0.00     0.039 A 
ATOM      8  C   UNL     1       2.388  -2.254   1.126  1.00  0.00     0.014 A 
ATOM      9  C   UNL     1       4.098  -0.673   1.772  1.00  0.00     0.014 A 
ATOM     10  C   UNL     1       2.994  -3.224   1.927  1.00  0.00     0.010 A 
ATOM     11  C   UNL     1       4.762  -1.670   2.478  1.00  0.00     0.010 A 
ATOM     12  C   UNL     1       4.200  -2.947   2.592  1.00  0.00    -0.014 A 
BRANCH  12  13
ATOM     13  C   UNL     1       4.851  -3.963   3.457  1.00  0.00     0.031 A 
ATOM     14  C   UNL     1       5.050  -3.684   4.926  1.00  0.00     0.074 A 
ATOM     15  C   UNL     1       5.295  -5.118   2.922  1.00  0.00     0.049 A 
ATOM     16  N   UNL     1       5.617  -4.437   5.832  1.00  0.00    -0.248 NA
ATOM     17  C   UNL     1       4.581  -2.385   5.442  1.00  0.00     0.031 C 
ATOM     18  C   UNL     1       5.239  -5.470   1.501  1.00  0.00     0.029 A 
ATOM     19  N   UNL     1       5.889  -6.207   3.510  1.00  0.00    -0.354 N 
ATOM     20  C   UNL     1       5.600  -3.694   7.006  1.00  0.00     0.074 A 
ATOM     21  C   UNL     1       5.010  -2.414   6.695  1.00  0.00     0.031 C 
ATOM     22  C   UNL     1       5.750  -6.700   1.332  1.00  0.00     0.029 A 
ATOM     23  C   UNL     1       6.190  -7.216   2.625  1.00  0.00     0.049 A 
ATOM     24  H   UNL     1       6.081  -6.261   4.474  1.00  0.00     0.167 HD
ATOM     25  C   UNL     1       5.993  -4.062   8.245  1.00  0.00     0.034 A 
ATOM     26  C   UNL     1       6.749  -8.426   2.832  1.00  0.00     0.034 A 
ATOM     27  C   UNL     1       6.495  -5.364   8.574  1.00  0.00     0.049 A 
ATOM     28  C   UNL     1       7.111  -8.839   4.231  1.00  0.00     0.074 A 
ATOM     29  C   UNL     1       6.837  -5.856   9.821  1.00  0.00     0.029 A 
ATOM     30  N   UNL     1       6.706  -6.383   7.662  1.00  0.00    -0.354 N 
ATOM     31  N   UNL     1       6.976  -8.162   5.345  1.00  0.00    -0.248 NA
ATOM     32  C   UNL     1       7.673 -10.186   4.412  1.00  0.00     0.031 C 
ATOM     33  C   UNL     1       7.252  -7.179   9.662  1.00  0.00     0.029 A 
ATOM     34  C   UNL     1       7.165  -7.508   8.318  1.00  0.00     0.049 A 
ATOM     35  H   UNL     1       6.553  -6.315   6.691  1.00  0.00     0.167 HD
ATOM     36  C   UNL     1       7.414  -9.004   6.359  1.00  0.00     0.074 A 
ATOM     37  C   UNL     1       7.809 -10.248   5.732  1.00  0.00     0.031 C 
ATOM     38  C   UNL     1       7.494  -8.758   7.687  1.00  0.00     0.034 A 
BRANCH  25  39
ATOM     39  C   UNL     1       5.799  -3.088   9.372  1.00  0.00     0.023 A 
ATOM     40  C   UNL     1       4.510  -2.929   9.918  1.00  0.00     0.012 A 
ATOM     41  C   UNL     1       6.894  -2.434   9.967  1.00  0.00     0.148 A 
ATOM     42  C   UNL     1       4.310  -2.127  11.039  1.00  0.00     0.002 A 
ATOM     43  C   UNL     1       6.692  -1.661  11.104  1.00  0.00     0.091 A 
ATOM     44  F   UNL     1       8.108  -2.596   9.421  1.00  0.00    -0.205 F 
ATOM     45  C   UNL     1       5.402  -1.504  11.638  1.00  0.00     0.022 A 
BRANCH  43  46
ATOM     46  S   UNL     1       8.033  -0.859  11.989  1.00  0.00     0.127 S 
ATOM     47  O   UNL     1       7.664   0.552  11.869  1.00  0.00    -0.237 OA
ATOM     48  O   UNL     1       7.887  -1.415  13.333  1.00  0.00    -0.237 OA
ATOM     49  O   UNL     1       9.258  -1.233  11.296  1.00  0.00    -0.744 OA
ENDBRANCH  43  46
ENDBRANCH  25  39
BRANCH  26  50
ATOM     50  C   UNL     1       6.920  -9.355   1.682  1.00  0.00     0.023 A 
ATOM     51  C   UNL     1       6.034 -10.439   1.534  1.00  0.00     0.012 A 
ATOM     52  C   UNL     1       7.901  -9.125   0.699  1.00  0.00     0.148 A 
ATOM     53  C   UNL     1       6.129 -11.287   0.429  1.00  0.00     0.002 A 
ATOM     54  C   UNL     1       7.964  -9.948  -0.419  1.00  0.00     0.091 A 
ATOM     55  F   UNL     1       8.733  -8.088   0.866  1.00  0.00    -0.205 F 
ATOM     56  C   UNL     1       7.086 -11.036  -0.551  1.00  0.00     0.022 A 
BRANCH  54  57
ATOM     57  S   UNL     1       9.089  -9.641  -1.786  1.00  0.00     0.127 S 
ATOM     58  O   UNL     1       9.977 -10.798  -1.707  1.00  0.00    -0.237 OA
ATOM     59  O   UNL     1       8.176  -9.641  -2.930  1.00  0.00    -0.237 OA
ATOM     60  O   UNL     1       9.708  -8.353  -1.508  1.00  0.00    -0.744 OA
ENDBRANCH  54  57
ENDBRANCH  26  50
BRANCH  38  61
ATOM     61  C   UNL     1       8.009  -9.838   8.594  1.00  0.00     0.023 A 
ATOM     62  C   UNL     1       9.399  -9.998   8.743  1.00  0.00     0.012 A 
ATOM     63  C   UNL     1       7.127 -10.537   9.441  1.00  0.00     0.148 A 
ATOM     64  C   UNL     1       9.907 -10.833   9.736  1.00  0.00     0.002 A 
ATOM     65  C   UNL     1       7.641 -11.342  10.448  1.00  0.00     0.091 A 
ATOM     66  F   UNL     1       5.809 -10.357   9.274  1.00  0.00    -0.205 F 
ATOM     67  C   UNL     1       9.030 -11.492  10.597  1.00  0.00     0.022 A 
BRANCH  65  68
ATOM     68  S   UNL     1       6.601 -12.164  11.660  1.00  0.00     0.127 S 
ATOM     69  O   UNL     1       6.923 -13.571  11.424  1.00  0.00    -0.237 OA
ATOM     70  O   UNL     1       7.111 -11.623  12.919  1.00  0.00    -0.237 OA
ATOM     71  O   UNL     1       5.230 -11.788  11.341  1.00  0.00    -0.744 OA
ENDBRANCH  65  68
ENDBRANCH  38  61
ENDBRANCH  12  13
ENDBRANCH   5   7
ENDBRANCH   2   3
ENDBRANCH   1   2
BRANCH   1  72
ATOM     72  C   UNL     1       4.321   2.201  -2.986  1.00  0.00     0.118 C 
BRANCH  72  73
ATOM     73  N   UNL     1       4.871   3.482  -2.547  1.00  0.00    -0.352 N 
ATOM     74  C   UNL     1       5.752   4.327  -3.189  1.00  0.00     0.251 C 
ATOM     75  H   UNL     1       4.568   3.787  -1.661  1.00  0.00     0.163 HD
ATOM     76  O   UNL     1       6.220   5.307  -2.632  1.00  0.00    -0.269 OA
BRANCH  74  77
ATOM     77  C   UNL     1       6.159   3.992  -4.568  1.00  0.00     0.041 A 
ATOM     78  C   UNL     1       5.175   3.716  -5.524  1.00  0.00     0.015 A 
ATOM     79  C   UNL     1       7.519   3.824  -4.856  1.00  0.00     0.040 A 
ATOM     80  C   UNL     1       5.526   3.006  -6.662  1.00  0.00     0.017 A 
ATOM     81  C   UNL     1       7.864   3.198  -6.049  1.00  0.00     0.056 A 
ATOM     82  C   UNL     1       6.870   2.700  -6.878  1.00  0.00     0.064 A 
ATOM     83  N   UNL     1       9.190   3.050  -6.441  1.00  0.00    -0.307 N 
ATOM     84  C   UNL     1       7.267   1.748  -7.919  1.00  0.00     0.264 A 
ATOM     85  C   UNL     1       9.565   2.483  -7.633  1.00  0.00     0.328 A 
ATOM     86  H   UNL     1       9.896   3.367  -5.832  1.00  0.00     0.171 HD
ATOM     87  O   UNL     1       6.434   0.902  -8.230  1.00  0.00    -0.268 OA
ATOM     88  N   UNL     1       8.571   1.837  -8.368  1.00  0.00    -0.260 N 
ATOM     89  O   UNL     1      10.741   2.565  -7.985  1.00  0.00    -0.248 OA
BRANCH  88  90
ATOM     90  C   UNL     1       9.008   1.220  -9.623  1.00  0.00     0.137 C 
BRANCH  90  91
ATOM     91  C   UNL     1       8.126   0.227 -10.407  1.00  0.00     0.083 C 
BRANCH  91  92
ATOM     92  C   UNL     1       6.797   0.713 -11.027  1.00  0.00     0.264 C 
BRANCH  92  93
ATOM     93  N   UNL     1       6.650   2.155 -10.973  1.00  0.00    -0.331 N 
ATOM     94  C   UNL     1       7.295   2.899 -12.056  1.00  0.00     0.291 C 
ATOM     95  C   UNL     1       5.272   2.632 -10.810  1.00  0.00     0.291 C 
ATOM     96  H   UNL     1       7.162   2.362 -10.115  1.00  0.00     0.348 HD
ATOM     97  C   UNL     1       7.360   4.366 -11.608  1.00  0.00     0.221 C 
ATOM     98  C   UNL     1       5.332   4.119 -10.417  1.00  0.00     0.221 C 
ATOM     99  O   UNL     1       6.041   4.900 -11.395  1.00  0.00    -0.370 OA
ENDBRANCH  92  93
ENDBRANCH  91  92
ENDBRANCH  90  91
ENDBRANCH  88  90
ENDBRANCH  74  77
ENDBRANCH  72  73
ENDBRANCH   1  72
TORSDOF 17
