REMARK SMILES C[C@H](NC(=O)N(CC(=O)NCCCNC(=O)c1ccc(-c2c3nc(c(-c4cccc(S(=O)(=O)[O-])c4F)c4ccc([nH]4)c(-c4cccc(S(=O)(=O)[O-])c4F)c4nc(c(-c5cccc(S(=O)(=O)[O-])c5F)c5ccc2[nH]5)C=C4)C=C3)cc1)CC(F)(F)F)[C@@H]1CCCO1
REMARK SMILES IDX 11 1 10 2 8 3 9 4 7 6 6 7 4 8 3 9 5 11 2 12 1 13 85 14 86 15
REMARK SMILES IDX 89 16 87 17 88 18 80 19 81 20 82 21 83 22 84 23 12 24 13 25
REMARK SMILES IDX 14 26 15 27 16 29 17 30 18 31 79 32 19 33 78 34 20 35 21 36
REMARK SMILES IDX 22 37 72 38 23 39 77 40 71 41 73 42 24 43 76 44 70 45 69 46
REMARK SMILES IDX 25 48 57 49 37 50 56 51 38 52 41 53 55 54 74 55 39 56 40 57
REMARK SMILES IDX 54 59 75 60 42 61 26 62 27 63 35 64 28 65 30 66 36 67 29 68
REMARK SMILES IDX 31 69 32 70 33 71 34 72 58 73 59 74 67 75 60 76 62 77 68 78
REMARK SMILES IDX 61 79 63 80 64 81 65 82 66 83 43 84 44 85 52 86 45 87 47 88
REMARK SMILES IDX 53 89 46 90 48 91 49 92 50 93 51 94
REMARK H PARENT 10 5 3 10 14 28 73 47 41 58
REMARK Flexibility Score: inf
ROOT
ATOM      1  C   UNL     1       3.532  -1.911   1.554  1.00  0.00     0.117 C 
ENDROOT
BRANCH   1   2
ATOM      2  N   UNL     1       4.229  -1.266   2.651  1.00  0.00    -0.354 N 
ATOM      3  C   UNL     1       4.057  -0.011   3.154  1.00  0.00     0.239 C 
ATOM      4  O   UNL     1       4.805   0.388   4.047  1.00  0.00    -0.273 OA
ATOM      5  H   UNL     1       4.921  -1.809   3.093  1.00  0.00     0.163 HD
BRANCH   3   6
ATOM      6  C   UNL     1       2.850   0.807   2.709  1.00  0.00     0.221 C 
BRANCH   6   7
ATOM      7  N   UNL     1       2.804   1.313   1.340  1.00  0.00    -0.306 N 
BRANCH   7   8
ATOM      8  C   UNL     1       1.882   1.038   0.373  1.00  0.00     0.318 C 
ATOM      9  N   UNL     1       0.697   0.447   0.604  1.00  0.00    -0.333 N 
ATOM     10  H   UNL     1       0.206   0.326  -0.241  1.00  0.00     0.165 HD
ATOM     11  O   UNL     1       2.073   1.385  -0.795  1.00  0.00    -0.249 OA
BRANCH   9  12
ATOM     12  C   UNL     1      -0.094  -0.076   1.735  1.00  0.00     0.109 C 
ATOM     13  C   UNL     1      -0.272   0.965   2.855  1.00  0.00     0.034 C 
BRANCH  12  14
ATOM     14  C   UNL     1      -1.505  -0.524   1.273  1.00  0.00     0.140 C 
ATOM     15  C   UNL     1      -1.591  -1.708   0.321  1.00  0.00     0.036 C 
ATOM     16  O   UNL     1      -2.180   0.570   0.612  1.00  0.00    -0.376 OA
ATOM     17  C   UNL     1      -2.935  -1.453  -0.326  1.00  0.00     0.031 C 
ATOM     18  C   UNL     1      -2.899   0.048  -0.512  1.00  0.00     0.160 C 
ENDBRANCH  12  14
ENDBRANCH   9  12
ENDBRANCH   7   8
BRANCH   7  19
ATOM     19  C   UNL     1       3.839   2.321   0.984  1.00  0.00     0.237 C 
BRANCH  19  20
ATOM     20  C   UNL     1       5.120   1.839   0.295  1.00  0.00     0.406 C 
ATOM     21  F   UNL     1       4.901   1.277  -0.907  1.00  0.00    -0.169 F 
ATOM     22  F   UNL     1       5.963   2.885   0.112  1.00  0.00    -0.169 F 
ATOM     23  F   UNL     1       5.777   0.937   1.060  1.00  0.00    -0.169 F 
ENDBRANCH  19  20
ENDBRANCH   7  19
ENDBRANCH   6   7
ENDBRANCH   3   6
ENDBRANCH   1   2
BRANCH   1  24
ATOM     24  C   UNL     1       4.367  -1.923   0.283  1.00  0.00     0.042 C 
BRANCH  24  25
ATOM     25  C   UNL     1       5.694  -2.644   0.454  1.00  0.00     0.118 C 
BRANCH  25  26
ATOM     26  N   UNL     1       5.504  -4.061   0.742  1.00  0.00    -0.352 N 
ATOM     27  C   UNL     1       6.079  -5.138   0.123  1.00  0.00     0.251 C 
ATOM     28  H   UNL     1       4.882  -4.270   1.476  1.00  0.00     0.163 HD
ATOM     29  O   UNL     1       5.638  -6.270   0.322  1.00  0.00    -0.269 OA
BRANCH  27  30
ATOM     30  C   UNL     1       7.221  -4.924  -0.786  1.00  0.00     0.039 A 
ATOM     31  C   UNL     1       7.254  -5.596  -2.008  1.00  0.00     0.014 A 
ATOM     32  C   UNL     1       8.249  -4.044  -0.430  1.00  0.00     0.014 A 
ATOM     33  C   UNL     1       8.306  -5.356  -2.892  1.00  0.00     0.010 A 
ATOM     34  C   UNL     1       9.243  -3.738  -1.350  1.00  0.00     0.010 A 
ATOM     35  C   UNL     1       9.296  -4.408  -2.579  1.00  0.00    -0.014 A 
BRANCH  35  36
ATOM     36  C   UNL     1      10.403  -4.120  -3.524  1.00  0.00     0.031 A 
ATOM     37  C   UNL     1      11.829  -4.390  -3.123  1.00  0.00     0.074 A 
ATOM     38  C   UNL     1      10.128  -3.558  -4.717  1.00  0.00     0.049 A 
ATOM     39  N   UNL     1      12.926  -4.200  -3.808  1.00  0.00    -0.248 NA
ATOM     40  C   UNL     1      12.057  -4.915  -1.765  1.00  0.00     0.031 C 
ATOM     41  C   UNL     1       8.794  -3.165  -5.179  1.00  0.00     0.029 A 
ATOM     42  N   UNL     1      10.955  -3.200  -5.750  1.00  0.00    -0.354 N 
ATOM     43  C   UNL     1      13.970  -4.545  -2.957  1.00  0.00     0.074 A 
ATOM     44  C   UNL     1      13.379  -4.916  -1.692  1.00  0.00     0.031 C 
ATOM     45  C   UNL     1       8.893  -2.637  -6.410  1.00  0.00     0.029 A 
ATOM     46  C   UNL     1      10.296  -2.625  -6.811  1.00  0.00     0.049 A 
ATOM     47  H   UNL     1      11.929  -3.343  -5.735  1.00  0.00     0.167 HD
ATOM     48  C   UNL     1      15.298  -4.582  -3.216  1.00  0.00     0.034 A 
ATOM     49  C   UNL     1      10.770  -2.140  -7.975  1.00  0.00     0.034 A 
ATOM     50  C   UNL     1      15.874  -4.248  -4.490  1.00  0.00     0.049 A 
ATOM     51  C   UNL     1      12.245  -2.237  -8.255  1.00  0.00     0.074 A 
ATOM     52  C   UNL     1      17.196  -4.340  -4.886  1.00  0.00     0.029 A 
ATOM     53  N   UNL     1      15.165  -3.747  -5.570  1.00  0.00    -0.354 N 
ATOM     54  N   UNL     1      13.199  -2.725  -7.500  1.00  0.00    -0.248 NA
ATOM     55  C   UNL     1      12.704  -1.754  -9.565  1.00  0.00     0.031 C 
ATOM     56  C   UNL     1      17.292  -3.862  -6.197  1.00  0.00     0.029 A 
ATOM     57  C   UNL     1      16.023  -3.513  -6.631  1.00  0.00     0.049 A 
ATOM     58  H   UNL     1      14.195  -3.582  -5.582  1.00  0.00     0.167 HD
ATOM     59  C   UNL     1      14.363  -2.645  -8.255  1.00  0.00     0.074 A 
ATOM     60  C   UNL     1      13.989  -2.080  -9.536  1.00  0.00     0.031 C 
ATOM     61  C   UNL     1      15.627  -2.997  -7.916  1.00  0.00     0.034 A 
BRANCH  48  62
ATOM     62  C   UNL     1      16.216  -5.041  -2.112  1.00  0.00     0.023 A 
ATOM     63  C   UNL     1      16.197  -6.391  -1.704  1.00  0.00     0.012 A 
ATOM     64  C   UNL     1      17.133  -4.154  -1.517  1.00  0.00     0.148 A 
ATOM     65  C   UNL     1      17.048  -6.842  -0.695  1.00  0.00     0.002 A 
ATOM     66  C   UNL     1      18.013  -4.622  -0.547  1.00  0.00     0.091 A 
ATOM     67  F   UNL     1      17.123  -2.870  -1.902  1.00  0.00    -0.205 F 
ATOM     68  C   UNL     1      17.962  -5.961  -0.126  1.00  0.00     0.022 A 
BRANCH  66  69
ATOM     69  S   UNL     1      19.286  -3.589   0.187  1.00  0.00     0.127 S 
ATOM     70  O   UNL     1      18.799  -3.451   1.559  1.00  0.00    -0.237 OA
ATOM     71  O   UNL     1      20.478  -4.426   0.045  1.00  0.00    -0.237 OA
ATOM     72  O   UNL     1      19.309  -2.361  -0.594  1.00  0.00    -0.744 OA
ENDBRANCH  66  69
ENDBRANCH  48  62
BRANCH  49  73
ATOM     73  C   UNL     1       9.830  -1.581  -8.988  1.00  0.00     0.023 A 
ATOM     74  C   UNL     1       9.607  -2.283 -10.189  1.00  0.00     0.012 A 
ATOM     75  C   UNL     1       9.141  -0.376  -8.759  1.00  0.00     0.148 A 
ATOM     76  C   UNL     1       8.743  -1.775 -11.160  1.00  0.00     0.002 A 
ATOM     77  C   UNL     1       8.239   0.096  -9.706  1.00  0.00     0.091 A 
ATOM     78  F   UNL     1       9.372   0.280  -7.613  1.00  0.00    -0.205 F 
ATOM     79  C   UNL     1       8.053  -0.592 -10.915  1.00  0.00     0.022 A 
BRANCH  77  80
ATOM     80  S   UNL     1       7.212   1.542  -9.424  1.00  0.00     0.127 S 
ATOM     81  O   UNL     1       7.767   2.494 -10.382  1.00  0.00    -0.237 OA
ATOM     82  O   UNL     1       5.881   1.034  -9.760  1.00  0.00    -0.237 OA
ATOM     83  O   UNL     1       7.389   1.883  -8.019  1.00  0.00    -0.744 OA
ENDBRANCH  77  80
ENDBRANCH  49  73
BRANCH  61  84
ATOM     84  C   UNL     1      16.702  -2.832  -8.959  1.00  0.00     0.023 A 
ATOM     85  C   UNL     1      17.143  -1.544  -9.322  1.00  0.00     0.012 A 
ATOM     86  C   UNL     1      17.324  -3.962  -9.526  1.00  0.00     0.148 A 
ATOM     87  C   UNL     1      18.161  -1.383 -10.261  1.00  0.00     0.002 A 
ATOM     88  C   UNL     1      18.375  -3.795 -10.419  1.00  0.00     0.091 A 
ATOM     89  F   UNL     1      16.878  -5.178  -9.180  1.00  0.00    -0.205 F 
ATOM     90  C   UNL     1      18.785  -2.507 -10.799  1.00  0.00     0.022 A 
BRANCH  88  91
ATOM     91  S   UNL     1      19.303  -5.182 -11.082  1.00  0.00     0.127 S 
ATOM     92  O   UNL     1      18.863  -5.195 -12.476  1.00  0.00    -0.237 OA
ATOM     93  O   UNL     1      20.688  -4.750 -10.884  1.00  0.00    -0.237 OA
ATOM     94  O   UNL     1      18.913  -6.342 -10.293  1.00  0.00    -0.744 OA
ENDBRANCH  88  91
ENDBRANCH  61  84
ENDBRANCH  35  36
ENDBRANCH  27  30
ENDBRANCH  25  26
ENDBRANCH  24  25
ENDBRANCH   1  24
TORSDOF 19
