REMARK SMILES CC(C)(C)OC(=O)C1=C(C(=O)NCCCNC(=O)c2ccc(-c3c4nc(c(-c5cccc(S(=O)(=O)[O-])c5F)c5ccc([nH]5)c(-c5cccc(S(=O)(=O)[O-])c5F)c5nc(c(-c6cccc(S(=O)(=O)[O-])c6F)c6ccc3[nH]6)C=C5)C=C4)cc2)C[C@@H]([NH3+])C=C1
REMARK SMILES IDX 14 1 13 2 12 3 10 4 11 5 9 7 8 8 86 9 82 10 85 11 83 12 6 13
REMARK SMILES IDX 7 14 5 15 2 16 1 17 3 18 4 19 84 20 15 24 16 25 17 26 18 28
REMARK SMILES IDX 19 29 20 30 81 31 21 32 80 33 22 34 23 35 24 36 74 37 25 38
REMARK SMILES IDX 79 39 73 40 75 41 26 42 78 43 72 44 71 45 27 47 59 48 39 49
REMARK SMILES IDX 58 50 40 51 43 52 57 53 76 54 41 55 42 56 56 58 77 59 44 60
REMARK SMILES IDX 28 61 29 62 37 63 30 64 32 65 38 66 31 67 33 68 34 69 35 70
REMARK SMILES IDX 36 71 60 72 61 73 69 74 62 75 64 76 70 77 63 78 65 79 66 80
REMARK SMILES IDX 67 81 68 82 45 83 46 84 54 85 47 86 49 87 55 88 48 89 50 90
REMARK SMILES IDX 51 91 52 92 53 93
REMARK H PARENT 12 6 84 21 84 22 84 23 16 27 75 46 43 57
REMARK Flexibility Score: inf
ROOT
ATOM      1  C   UNL     1      -2.275   7.789   4.318  1.00  0.00     0.042 C 
ENDROOT
BRANCH   1   2
ATOM      2  C   UNL     1      -2.099   6.298   4.577  1.00  0.00     0.118 C 
BRANCH   2   3
ATOM      3  N   UNL     1      -2.060   5.507   3.356  1.00  0.00    -0.352 N 
ATOM      4  C   UNL     1      -1.126   4.827   2.644  1.00  0.00     0.248 C 
ATOM      5  O   UNL     1      -1.594   4.104   1.762  1.00  0.00    -0.270 OA
ATOM      6  H   UNL     1      -2.948   5.450   2.935  1.00  0.00     0.163 HD
BRANCH   4   7
ATOM      7  C   UNL     1       0.351   4.851   2.921  1.00  0.00     0.038 C 
ATOM      8  C   UNL     1       1.209   4.234   2.071  1.00  0.00     0.068 C 
ATOM      9  C   UNL     1       2.625   4.102   2.388  1.00  0.00     0.018 C 
ATOM     10  C   UNL     1       0.870   5.478   4.189  1.00  0.00     0.111 C 
ATOM     11  C   UNL     1       3.177   4.643   3.480  1.00  0.00     0.038 C 
ATOM     12  C   UNL     1       2.397   5.458   4.453  1.00  0.00     0.209 C 
BRANCH   8  13
ATOM     13  C   UNL     1       0.773   3.644   0.769  1.00  0.00     0.339 C 
ATOM     14  O   UNL     1       0.442   4.306  -0.204  1.00  0.00    -0.246 OA
BRANCH  13  15
ATOM     15  O   UNL     1       0.918   2.297   0.848  1.00  0.00    -0.456 OA
BRANCH  15  16
ATOM     16  C   UNL     1       0.487   1.440  -0.239  1.00  0.00     0.104 C 
ATOM     17  C   UNL     1       0.996   0.042   0.143  1.00  0.00     0.056 C 
ATOM     18  C   UNL     1       1.104   1.822  -1.589  1.00  0.00     0.056 C 
ATOM     19  C   UNL     1      -1.043   1.414  -0.302  1.00  0.00     0.056 C 
ENDBRANCH  15  16
ENDBRANCH  13  15
ENDBRANCH   8  13
BRANCH  12  20
ATOM     20  N   UNL     1       2.694   4.982   5.807  1.00  0.00    -0.352 N 
ATOM     21  H   UNL     1       2.394   4.011   5.899  1.00  0.00     0.345 HD
ATOM     22  H   UNL     1       2.197   5.558   6.486  1.00  0.00     0.345 HD
ATOM     23  H   UNL     1       3.698   5.045   5.977  1.00  0.00     0.345 HD
ENDBRANCH  12  20
ENDBRANCH   4   7
ENDBRANCH   2   3
ENDBRANCH   1   2
BRANCH   1  24
ATOM     24  C   UNL     1      -3.679   8.167   3.850  1.00  0.00     0.118 C 
BRANCH  24  25
ATOM     25  N   UNL     1      -4.702   7.819   4.833  1.00  0.00    -0.352 N 
ATOM     26  C   UNL     1      -5.488   8.611   5.633  1.00  0.00     0.251 C 
ATOM     27  H   UNL     1      -4.854   6.852   4.940  1.00  0.00     0.163 HD
ATOM     28  O   UNL     1      -6.097   8.098   6.569  1.00  0.00    -0.269 OA
BRANCH  26  29
ATOM     29  C   UNL     1      -5.612  10.063   5.379  1.00  0.00     0.039 A 
ATOM     30  C   UNL     1      -5.686  10.940   6.467  1.00  0.00     0.014 A 
ATOM     31  C   UNL     1      -5.715  10.558   4.078  1.00  0.00     0.014 A 
ATOM     32  C   UNL     1      -5.796  12.316   6.246  1.00  0.00     0.010 A 
ATOM     33  C   UNL     1      -5.745  11.932   3.858  1.00  0.00     0.010 A 
ATOM     34  C   UNL     1      -5.792  12.825   4.938  1.00  0.00    -0.014 A 
BRANCH  34  35
ATOM     35  C   UNL     1      -5.824  14.285   4.667  1.00  0.00     0.031 A 
ATOM     36  C   UNL     1      -6.971  14.889   3.904  1.00  0.00     0.074 A 
ATOM     37  C   UNL     1      -4.762  15.043   5.007  1.00  0.00     0.049 A 
ATOM     38  N   UNL     1      -7.122  16.116   3.477  1.00  0.00    -0.248 NA
ATOM     39  C   UNL     1      -8.081  13.990   3.545  1.00  0.00     0.031 C 
ATOM     40  C   UNL     1      -3.554  14.555   5.676  1.00  0.00     0.029 A 
ATOM     41  N   UNL     1      -4.512  16.376   4.802  1.00  0.00    -0.354 N 
ATOM     42  C   UNL     1      -8.315  16.127   2.764  1.00  0.00     0.074 A 
ATOM     43  C   UNL     1      -8.836  14.777   2.792  1.00  0.00     0.031 C 
ATOM     44  C   UNL     1      -2.691  15.572   5.822  1.00  0.00     0.029 A 
ATOM     45  C   UNL     1      -3.268  16.776   5.233  1.00  0.00     0.049 A 
ATOM     46  H   UNL     1      -5.161  16.989   4.386  1.00  0.00     0.167 HD
ATOM     47  C   UNL     1      -8.937  17.171   2.166  1.00  0.00     0.034 A 
ATOM     48  C   UNL     1      -2.656  17.973   5.153  1.00  0.00     0.034 A 
ATOM     49  C   UNL     1      -8.443  18.521   2.190  1.00  0.00     0.049 A 
ATOM     50  C   UNL     1      -3.393  19.128   4.532  1.00  0.00     0.074 A 
ATOM     51  C   UNL     1      -9.047  19.667   1.702  1.00  0.00     0.029 A 
ATOM     52  N   UNL     1      -7.227  18.909   2.731  1.00  0.00    -0.354 N 
ATOM     53  N   UNL     1      -4.595  19.153   4.008  1.00  0.00    -0.248 NA
ATOM     54  C   UNL     1      -2.707  20.428   4.525  1.00  0.00     0.031 C 
ATOM     55  C   UNL     1      -8.188  20.746   1.937  1.00  0.00     0.029 A 
ATOM     56  C   UNL     1      -7.057  20.274   2.585  1.00  0.00     0.049 A 
ATOM     57  H   UNL     1      -6.579  18.302   3.156  1.00  0.00     0.167 HD
ATOM     58  C   UNL     1      -4.822  20.474   3.637  1.00  0.00     0.074 A 
ATOM     59  C   UNL     1      -3.642  21.223   4.019  1.00  0.00     0.031 C 
ATOM     60  C   UNL     1      -5.901  21.014   3.020  1.00  0.00     0.034 A 
BRANCH  47  61
ATOM     61  C   UNL     1     -10.256  16.906   1.487  1.00  0.00     0.023 A 
ATOM     62  C   UNL     1     -11.399  16.650   2.272  1.00  0.00     0.012 A 
ATOM     63  C   UNL     1     -10.381  16.966   0.085  1.00  0.00     0.148 A 
ATOM     64  C   UNL     1     -12.637  16.426   1.674  1.00  0.00     0.002 A 
ATOM     65  C   UNL     1     -11.628  16.783  -0.502  1.00  0.00     0.091 A 
ATOM     66  F   UNL     1      -9.280  17.188  -0.647  1.00  0.00    -0.205 F 
ATOM     67  C   UNL     1     -12.754  16.502   0.289  1.00  0.00     0.022 A 
BRANCH  65  68
ATOM     68  S   UNL     1     -11.897  16.938  -2.272  1.00  0.00     0.127 S 
ATOM     69  O   UNL     1     -12.095  15.543  -2.663  1.00  0.00    -0.237 OA
ATOM     70  O   UNL     1     -13.104  17.764  -2.330  1.00  0.00    -0.237 OA
ATOM     71  O   UNL     1     -10.701  17.575  -2.804  1.00  0.00    -0.744 OA
ENDBRANCH  65  68
ENDBRANCH  47  61
BRANCH  48  72
ATOM     72  C   UNL     1      -1.300  18.154   5.743  1.00  0.00     0.023 A 
ATOM     73  C   UNL     1      -1.158  18.917   6.918  1.00  0.00     0.012 A 
ATOM     74  C   UNL     1      -0.162  17.546   5.178  1.00  0.00     0.148 A 
ATOM     75  C   UNL     1       0.095  19.096   7.505  1.00  0.00     0.002 A 
ATOM     76  C   UNL     1       1.075  17.683   5.798  1.00  0.00     0.091 A 
ATOM     77  F   UNL     1      -0.314  16.835   4.051  1.00  0.00    -0.205 F 
ATOM     78  C   UNL     1       1.209  18.470   6.952  1.00  0.00     0.022 A 
BRANCH  76  79
ATOM     79  S   UNL     1       2.534  16.799   5.233  1.00  0.00     0.127 S 
ATOM     80  O   UNL     1       3.308  17.867   4.606  1.00  0.00    -0.237 OA
ATOM     81  O   UNL     1       3.088  16.290   6.489  1.00  0.00    -0.237 OA
ATOM     82  O   UNL     1       2.038  15.761   4.338  1.00  0.00    -0.744 OA
ENDBRANCH  76  79
ENDBRANCH  48  72
BRANCH  60  83
ATOM     83  C   UNL     1      -5.874  22.493   2.739  1.00  0.00     0.023 A 
ATOM     84  C   UNL     1      -5.058  22.990   1.704  1.00  0.00     0.012 A 
ATOM     85  C   UNL     1      -6.711  23.377   3.447  1.00  0.00     0.148 A 
ATOM     86  C   UNL     1      -5.055  24.350   1.396  1.00  0.00     0.002 A 
ATOM     87  C   UNL     1      -6.737  24.724   3.104  1.00  0.00     0.091 A 
ATOM     88  F   UNL     1      -7.465  22.887   4.442  1.00  0.00    -0.205 F 
ATOM     89  C   UNL     1      -5.902  25.214   2.087  1.00  0.00     0.022 A 
BRANCH  87  90
ATOM     90  S   UNL     1      -7.864  25.889   3.878  1.00  0.00     0.127 S 
ATOM     91  O   UNL     1      -6.965  26.632   4.760  1.00  0.00    -0.237 OA
ATOM     92  O   UNL     1      -8.361  26.652   2.732  1.00  0.00    -0.237 OA
ATOM     93  O   UNL     1      -8.875  25.082   4.547  1.00  0.00    -0.744 OA
ENDBRANCH  87  90
ENDBRANCH  60  83
ENDBRANCH  34  35
ENDBRANCH  26  29
ENDBRANCH  24  25
ENDBRANCH   1  24
TORSDOF 17
