REMARK SMILES O=C(NCCCNC(=O)c1ccc(-c2c3nc(c(-c4cccc(S(=O)(=O)[O-])c4F)c4ccc([nH]4)c(-c4cccc(S(=O)(=O)[O-])c4F)c4nc(c(-c5cccc(S(=O)(=O)[O-])c5F)c5ccc2[nH]5)C=C4)C=C3)cc1)C1=Cc2cc(Cl)cc(-c3ccccc3)c2O[C@@H]1C(F)(F)F
REMARK SMILES IDX 6 1 5 2 4 3 3 4 1 5 2 6 73 8 74 9 89 10 75 11 88 12 76 13
REMARK SMILES IDX 87 14 77 15 80 16 78 17 79 18 90 19 91 20 92 21 93 22 81 23
REMARK SMILES IDX 82 24 86 25 83 26 85 27 84 28 7 29 8 30 9 32 10 33 11 34
REMARK SMILES IDX 72 35 12 36 71 37 13 38 14 39 15 40 65 41 16 42 70 43 64 44
REMARK SMILES IDX 66 45 17 46 69 47 63 48 62 49 18 51 50 52 30 53 49 54 31 55
REMARK SMILES IDX 34 56 48 57 67 58 32 59 33 60 47 62 68 63 35 64 19 65 20 66
REMARK SMILES IDX 28 67 21 68 23 69 29 70 22 71 24 72 25 73 26 74 27 75 51 76
REMARK SMILES IDX 52 77 60 78 53 79 55 80 61 81 54 82 56 83 57 84 58 85 59 86
REMARK SMILES IDX 36 87 37 88 45 89 38 90 40 91 46 92 39 93 41 94 42 95 43 96
REMARK SMILES IDX 44 97
REMARK H PARENT 3 7 7 31 66 50 34 61
REMARK Flexibility Score: inf
ROOT
ATOM      1  C   UNL     1       4.497  -1.051   3.915  1.00  0.00     0.118 C 
ENDROOT
BRANCH   1   2
ATOM      2  C   UNL     1       3.985   0.035   2.972  1.00  0.00     0.042 C 
BRANCH   2   3
ATOM      3  C   UNL     1       2.953  -0.495   1.974  1.00  0.00     0.118 C 
BRANCH   3   4
ATOM      4  N   UNL     1       2.113   0.565   1.406  1.00  0.00    -0.352 N 
ATOM      5  O   UNL     1       1.210   1.834  -0.250  1.00  0.00    -0.270 OA
ATOM      6  C   UNL     1       2.117   1.113   0.150  1.00  0.00     0.251 C 
ATOM      7  H   UNL     1       1.443   0.941   2.022  1.00  0.00     0.163 HD
BRANCH   6   8
ATOM      8  C   UNL     1       3.224   0.727  -0.733  1.00  0.00     0.067 C 
ATOM      9  C   UNL     1       4.462   1.084  -0.374  1.00  0.00     0.025 C 
ATOM     10  C   UNL     1       2.949  -0.315  -1.766  1.00  0.00     0.314 C 
ATOM     11  C   UNL     1       5.485   0.070  -0.643  1.00  0.00     0.019 A 
ATOM     12  O   UNL     1       3.832  -1.453  -1.609  1.00  0.00    -0.475 OA
ATOM     13  C   UNL     1       6.754   0.263  -0.092  1.00  0.00     0.032 A 
ATOM     14  C   UNL     1       5.075  -1.215  -1.064  1.00  0.00     0.135 A 
ATOM     15  C   UNL     1       7.569  -0.839   0.139  1.00  0.00     0.042 A 
ATOM     16  C   UNL     1       5.870  -2.338  -0.771  1.00  0.00     0.026 A 
ATOM     17  Cl  UNL     1       9.072  -0.623   0.946  1.00  0.00    -0.084 Cl
ATOM     18  C   UNL     1       7.124  -2.125  -0.166  1.00  0.00     0.033 A 
BRANCH  10  19
ATOM     19  C   UNL     1       2.992   0.263  -3.191  1.00  0.00     0.429 C 
ATOM     20  F   UNL     1       2.643  -0.672  -4.109  1.00  0.00    -0.167 F 
ATOM     21  F   UNL     1       2.124   1.292  -3.343  1.00  0.00    -0.167 F 
ATOM     22  F   UNL     1       4.218   0.720  -3.537  1.00  0.00    -0.167 F 
ENDBRANCH  10  19
BRANCH  16  23
ATOM     23  C   UNL     1       5.357  -3.716  -0.881  1.00  0.00    -0.015 A 
ATOM     24  C   UNL     1       4.995  -4.417   0.282  1.00  0.00     0.009 A 
ATOM     25  C   UNL     1       5.234  -4.379  -2.105  1.00  0.00     0.009 A 
ATOM     26  C   UNL     1       4.579  -5.746   0.245  1.00  0.00     0.001 A 
ATOM     27  C   UNL     1       4.806  -5.713  -2.150  1.00  0.00     0.001 A 
ATOM     28  C   UNL     1       4.492  -6.399  -0.976  1.00  0.00     0.000 A 
ENDBRANCH  16  23
ENDBRANCH   6   8
ENDBRANCH   3   4
ENDBRANCH   2   3
ENDBRANCH   1   2
BRANCH   1  29
ATOM     29  N   UNL     1       5.248  -2.119   3.276  1.00  0.00    -0.352 N 
ATOM     30  C   UNL     1       5.958  -3.159   3.844  1.00  0.00     0.251 C 
ATOM     31  H   UNL     1       5.251  -2.097   2.291  1.00  0.00     0.163 HD
ATOM     32  O   UNL     1       6.547  -3.952   3.111  1.00  0.00    -0.269 OA
BRANCH  30  33
ATOM     33  C   UNL     1       6.116  -3.287   5.314  1.00  0.00     0.039 A 
ATOM     34  C   UNL     1       7.343  -3.765   5.797  1.00  0.00     0.014 A 
ATOM     35  C   UNL     1       5.143  -2.876   6.221  1.00  0.00     0.014 A 
ATOM     36  C   UNL     1       7.638  -3.686   7.158  1.00  0.00     0.010 A 
ATOM     37  C   UNL     1       5.475  -2.688   7.555  1.00  0.00     0.010 A 
ATOM     38  C   UNL     1       6.736  -3.064   8.032  1.00  0.00    -0.014 A 
BRANCH  38  39
ATOM     39  C   UNL     1       7.116  -2.717   9.422  1.00  0.00     0.031 A 
ATOM     40  C   UNL     1       6.315  -3.239  10.580  1.00  0.00     0.074 A 
ATOM     41  C   UNL     1       8.097  -1.810   9.614  1.00  0.00     0.049 A 
ATOM     42  N   UNL     1       6.434  -2.966  11.852  1.00  0.00    -0.248 NA
ATOM     43  C   UNL     1       5.198  -4.146  10.265  1.00  0.00     0.031 C 
ATOM     44  C   UNL     1       8.845  -1.134   8.549  1.00  0.00     0.029 A 
ATOM     45  N   UNL     1       8.615  -1.277  10.766  1.00  0.00    -0.354 N 
ATOM     46  C   UNL     1       5.378  -3.616  12.479  1.00  0.00     0.074 A 
ATOM     47  C   UNL     1       4.606  -4.266  11.444  1.00  0.00     0.031 C 
ATOM     48  C   UNL     1       9.740  -0.297   9.097  1.00  0.00     0.029 A 
ATOM     49  C   UNL     1       9.615  -0.357  10.547  1.00  0.00     0.049 A 
ATOM     50  H   UNL     1       8.302  -1.529  11.665  1.00  0.00     0.167 HD
ATOM     51  C   UNL     1       5.099  -3.693  13.801  1.00  0.00     0.034 A 
ATOM     52  C   UNL     1      10.356   0.350  11.422  1.00  0.00     0.034 A 
ATOM     53  C   UNL     1       5.929  -3.108  14.818  1.00  0.00     0.049 A 
ATOM     54  C   UNL     1      10.127   0.121  12.890  1.00  0.00     0.074 A 
ATOM     55  C   UNL     1       5.818  -3.214  16.192  1.00  0.00     0.029 A 
ATOM     56  N   UNL     1       7.039  -2.313  14.565  1.00  0.00    -0.354 N 
ATOM     57  N   UNL     1       9.230  -0.638  13.474  1.00  0.00    -0.248 NA
ATOM     58  C   UNL     1      11.036   0.804  13.821  1.00  0.00     0.031 C 
ATOM     59  C   UNL     1       6.865  -2.486  16.770  1.00  0.00     0.029 A 
ATOM     60  C   UNL     1       7.631  -1.932  15.755  1.00  0.00     0.049 A 
ATOM     61  H   UNL     1       7.357  -2.059  13.669  1.00  0.00     0.167 HD
ATOM     62  C   UNL     1       9.482  -0.549  14.836  1.00  0.00     0.074 A 
ATOM     63  C   UNL     1      10.634   0.319  14.989  1.00  0.00     0.031 C 
ATOM     64  C   UNL     1       8.812  -1.114  15.870  1.00  0.00     0.034 A 
BRANCH  51  65
ATOM     65  C   UNL     1       3.894  -4.499  14.213  1.00  0.00     0.023 A 
ATOM     66  C   UNL     1       3.920  -5.903  14.076  1.00  0.00     0.012 A 
ATOM     67  C   UNL     1       2.746  -3.880  14.745  1.00  0.00     0.148 A 
ATOM     68  C   UNL     1       2.808  -6.673  14.414  1.00  0.00     0.002 A 
ATOM     69  C   UNL     1       1.657  -4.660  15.120  1.00  0.00     0.091 A 
ATOM     70  F   UNL     1       2.727  -2.544  14.848  1.00  0.00    -0.205 F 
ATOM     71  C   UNL     1       1.681  -6.053  14.943  1.00  0.00     0.022 A 
BRANCH  69  72
ATOM     72  S   UNL     1       0.183  -3.964  15.876  1.00  0.00     0.127 S 
ATOM     73  O   UNL     1      -0.779  -4.045  14.778  1.00  0.00    -0.237 OA
ATOM     74  O   UNL     1      -0.070  -4.894  16.977  1.00  0.00    -0.237 OA
ATOM     75  O   UNL     1       0.547  -2.617  16.295  1.00  0.00    -0.744 OA
ENDBRANCH  69  72
ENDBRANCH  51  65
BRANCH  52  76
ATOM     76  C   UNL     1      11.451   1.232  10.927  1.00  0.00     0.023 A 
ATOM     77  C   UNL     1      12.789   0.823  11.095  1.00  0.00     0.012 A 
ATOM     78  C   UNL     1      11.184   2.430  10.236  1.00  0.00     0.148 A 
ATOM     79  C   UNL     1      13.841   1.602  10.611  1.00  0.00     0.002 A 
ATOM     80  C   UNL     1      12.235   3.177   9.711  1.00  0.00     0.091 A 
ATOM     81  F   UNL     1       9.907   2.809  10.090  1.00  0.00    -0.205 F 
ATOM     82  C   UNL     1      13.564   2.772   9.910  1.00  0.00     0.022 A 
BRANCH  80  83
ATOM     83  S   UNL     1      11.960   4.623   8.679  1.00  0.00     0.127 S 
ATOM     84  O   UNL     1      12.266   5.712   9.602  1.00  0.00    -0.237 OA
ATOM     85  O   UNL     1      12.941   4.428   7.609  1.00  0.00    -0.237 OA
ATOM     86  O   UNL     1      10.574   4.527   8.241  1.00  0.00    -0.744 OA
ENDBRANCH  80  83
ENDBRANCH  52  76
BRANCH  64  87
ATOM     87  C   UNL     1       9.318  -0.831  17.256  1.00  0.00     0.023 A 
ATOM     88  C   UNL     1       9.079   0.429  17.838  1.00  0.00     0.012 A 
ATOM     89  C   UNL     1       9.952  -1.837  18.009  1.00  0.00     0.148 A 
ATOM     90  C   UNL     1       9.488   0.692  19.144  1.00  0.00     0.002 A 
ATOM     91  C   UNL     1      10.316  -1.582  19.325  1.00  0.00     0.091 A 
ATOM     92  F   UNL     1      10.192  -3.021  17.426  1.00  0.00    -0.205 F 
ATOM     93  C   UNL     1      10.094  -0.316  19.891  1.00  0.00     0.022 A 
BRANCH  91  94
ATOM     94  S   UNL     1      11.012  -2.857  20.381  1.00  0.00     0.127 S 
ATOM     95  O   UNL     1      12.436  -2.534  20.342  1.00  0.00    -0.237 OA
ATOM     96  O   UNL     1      10.361  -2.593  21.666  1.00  0.00    -0.237 OA
ATOM     97  O   UNL     1      10.634  -4.124  19.769  1.00  0.00    -0.744 OA
ENDBRANCH  91  94
ENDBRANCH  64  87
ENDBRANCH  38  39
ENDBRANCH  30  33
ENDBRANCH   1  29
TORSDOF 15
