REMARK SMILES O=C(NCCCNC(=O)c1ccccc1C(=O)Nc1ccc(Cl)cn1)c1ccc(-c2c3nc(c(-c4cccc(S(=O)(=O)[O-])c4F)c4ccc([nH]4)c(-c4cccc(S(=O)(=O)[O-])c4F)c4nc(c(-c5cccc(S(=O)(=O)[O-])c5F)c5ccc2[nH]5)C=C4)C=C3)cc1
REMARK SMILES IDX 4 1 3 2 1 3 2 4 26 6 27 7 88 8 28 9 87 10 29 11 30 12 31 13
REMARK SMILES IDX 81 14 32 15 86 16 80 17 82 18 33 19 85 20 79 21 78 22 34 24
REMARK SMILES IDX 66 25 46 26 65 27 47 28 50 29 64 30 83 31 48 32 49 33 63 35
REMARK SMILES IDX 84 36 51 37 35 38 36 39 44 40 37 41 39 42 45 43 38 44 40 45
REMARK SMILES IDX 41 46 42 47 43 48 67 49 68 50 76 51 69 52 71 53 77 54 70 55
REMARK SMILES IDX 72 56 73 57 74 58 75 59 52 60 53 61 61 62 54 63 56 64 62 65
REMARK SMILES IDX 55 66 57 67 58 68 59 69 60 70 5 71 6 72 7 73 8 74 9 76 10 77
REMARK SMILES IDX 11 78 15 79 12 80 14 81 13 82 16 83 17 84 18 85 19 87 20 88
REMARK SMILES IDX 25 89 21 90 24 91 22 92 23 93
REMARK H PARENT 3 5 82 23 50 34 7 75 18 86
REMARK Flexibility Score: inf
ROOT
ATOM      1  C   UNL     1       4.820  -1.092  -0.370  1.00  0.00     0.118 C 
ENDROOT
BRANCH   1   2
ATOM      2  N   UNL     1       3.399  -0.932  -0.648  1.00  0.00    -0.352 N 
ATOM      3  O   UNL     1       1.312  -0.102  -0.317  1.00  0.00    -0.269 OA
ATOM      4  C   UNL     1       2.498  -0.075  -0.040  1.00  0.00     0.251 C 
ATOM      5  H   UNL     1       3.033  -1.506  -1.359  1.00  0.00     0.163 HD
BRANCH   4   6
ATOM      6  C   UNL     1       3.018   0.853   0.991  1.00  0.00     0.039 A 
ATOM      7  C   UNL     1       4.125   1.650   0.698  1.00  0.00     0.014 A 
ATOM      8  C   UNL     1       2.496   0.810   2.284  1.00  0.00     0.014 A 
ATOM      9  C   UNL     1       4.849   2.209   1.742  1.00  0.00     0.010 A 
ATOM     10  C   UNL     1       3.167   1.475   3.317  1.00  0.00     0.010 A 
ATOM     11  C   UNL     1       4.391   2.116   3.069  1.00  0.00    -0.014 A 
BRANCH  11  12
ATOM     12  C   UNL     1       5.224   2.689   4.164  1.00  0.00     0.031 A 
ATOM     13  C   UNL     1       5.769   1.826   5.277  1.00  0.00     0.074 A 
ATOM     14  C   UNL     1       5.536   3.999   4.122  1.00  0.00     0.049 A 
ATOM     15  N   UNL     1       6.559   2.164   6.265  1.00  0.00    -0.248 NA
ATOM     16  C   UNL     1       5.372   0.409   5.297  1.00  0.00     0.031 C 
ATOM     17  C   UNL     1       5.044   4.948   3.120  1.00  0.00     0.029 A 
ATOM     18  N   UNL     1       6.353   4.758   4.922  1.00  0.00    -0.354 N 
ATOM     19  C   UNL     1       6.704   1.027   7.053  1.00  0.00     0.074 A 
ATOM     20  C   UNL     1       5.922  -0.017   6.427  1.00  0.00     0.031 C 
ATOM     21  C   UNL     1       5.612   6.143   3.328  1.00  0.00     0.029 A 
ATOM     22  C   UNL     1       6.460   6.066   4.512  1.00  0.00     0.049 A 
ATOM     23  H   UNL     1       6.817   4.400   5.713  1.00  0.00     0.167 HD
ATOM     24  C   UNL     1       7.434   0.861   8.183  1.00  0.00     0.034 A 
ATOM     25  C   UNL     1       7.159   7.095   5.028  1.00  0.00     0.034 A 
ATOM     26  C   UNL     1       8.271   1.878   8.765  1.00  0.00     0.049 A 
ATOM     27  C   UNL     1       8.007   6.863   6.244  1.00  0.00     0.074 A 
ATOM     28  C   UNL     1       9.106   1.779   9.864  1.00  0.00     0.029 A 
ATOM     29  N   UNL     1       8.384   3.177   8.294  1.00  0.00    -0.354 N 
ATOM     30  N   UNL     1       8.220   5.748   6.899  1.00  0.00    -0.248 NA
ATOM     31  C   UNL     1       8.730   8.025   6.777  1.00  0.00     0.031 C 
ATOM     32  C   UNL     1       9.717   3.022  10.065  1.00  0.00     0.029 A 
ATOM     33  C   UNL     1       9.271   3.891   9.083  1.00  0.00     0.049 A 
ATOM     34  H   UNL     1       7.904   3.538   7.514  1.00  0.00     0.167 HD
ATOM     35  C   UNL     1       9.117   6.069   7.910  1.00  0.00     0.074 A 
ATOM     36  C   UNL     1       9.431   7.475   7.760  1.00  0.00     0.031 C 
ATOM     37  C   UNL     1       9.616   5.276   8.890  1.00  0.00     0.034 A 
BRANCH  24  38
ATOM     38  C   UNL     1       7.402  -0.489   8.855  1.00  0.00     0.023 A 
ATOM     39  C   UNL     1       8.120  -1.564   8.296  1.00  0.00     0.012 A 
ATOM     40  C   UNL     1       6.730  -0.672  10.081  1.00  0.00     0.148 A 
ATOM     41  C   UNL     1       8.151  -2.806   8.931  1.00  0.00     0.002 A 
ATOM     42  C   UNL     1       6.796  -1.902  10.727  1.00  0.00     0.091 A 
ATOM     43  F   UNL     1       6.032   0.354  10.588  1.00  0.00    -0.205 F 
ATOM     44  C   UNL     1       7.499  -2.971  10.150  1.00  0.00     0.022 A 
BRANCH  42  45
ATOM     45  S   UNL     1       6.051  -2.183  12.339  1.00  0.00     0.127 S 
ATOM     46  O   UNL     1       4.848  -2.931  11.982  1.00  0.00    -0.237 OA
ATOM     47  O   UNL     1       7.077  -2.971  13.025  1.00  0.00    -0.237 OA
ATOM     48  O   UNL     1       5.828  -0.861  12.908  1.00  0.00    -0.744 OA
ENDBRANCH  42  45
ENDBRANCH  24  38
BRANCH  25  49
ATOM     49  C   UNL     1       7.129   8.418   4.345  1.00  0.00     0.023 A 
ATOM     50  C   UNL     1       8.282   8.878   3.680  1.00  0.00     0.012 A 
ATOM     51  C   UNL     1       5.951   9.188   4.291  1.00  0.00     0.148 A 
ATOM     52  C   UNL     1       8.266  10.089   2.989  1.00  0.00     0.002 A 
ATOM     53  C   UNL     1       5.925  10.362   3.549  1.00  0.00     0.091 A 
ATOM     54  F   UNL     1       4.870   8.745   4.949  1.00  0.00    -0.205 F 
ATOM     55  C   UNL     1       7.085  10.823   2.909  1.00  0.00     0.022 A 
BRANCH  53  56
ATOM     56  S   UNL     1       4.402  11.273   3.271  1.00  0.00     0.127 S 
ATOM     57  O   UNL     1       4.541  12.383   4.209  1.00  0.00    -0.237 OA
ATOM     58  O   UNL     1       4.516  11.641   1.859  1.00  0.00    -0.237 OA
ATOM     59  O   UNL     1       3.332  10.325   3.552  1.00  0.00    -0.744 OA
ENDBRANCH  53  56
ENDBRANCH  25  49
BRANCH  37  60
ATOM     60  C   UNL     1      10.572   5.905   9.867  1.00  0.00     0.023 A 
ATOM     61  C   UNL     1      10.078   6.780  10.855  1.00  0.00     0.012 A 
ATOM     62  C   UNL     1      11.944   5.592   9.842  1.00  0.00     0.148 A 
ATOM     63  C   UNL     1      10.942   7.359  11.783  1.00  0.00     0.002 A 
ATOM     64  C   UNL     1      12.792   6.140  10.797  1.00  0.00     0.091 A 
ATOM     65  F   UNL     1      12.400   4.777   8.879  1.00  0.00    -0.205 F 
ATOM     66  C   UNL     1      12.296   7.032  11.762  1.00  0.00     0.022 A 
BRANCH  64  67
ATOM     67  S   UNL     1      14.531   5.698  10.887  1.00  0.00     0.127 S 
ATOM     68  O   UNL     1      15.163   6.826  10.207  1.00  0.00    -0.237 OA
ATOM     69  O   UNL     1      14.771   5.643  12.330  1.00  0.00    -0.237 OA
ATOM     70  O   UNL     1      14.643   4.410  10.214  1.00  0.00    -0.744 OA
ENDBRANCH  64  67
ENDBRANCH  37  60
ENDBRANCH  11  12
ENDBRANCH   4   6
ENDBRANCH   1   2
BRANCH   1  71
ATOM     71  C   UNL     1       5.239  -2.511  -0.001  1.00  0.00     0.042 C 
BRANCH  71  72
ATOM     72  C   UNL     1       5.276  -3.467  -1.179  1.00  0.00     0.118 C 
BRANCH  72  73
ATOM     73  N   UNL     1       6.202  -3.026  -2.205  1.00  0.00    -0.352 N 
ATOM     74  C   UNL     1       6.744  -3.698  -3.256  1.00  0.00     0.252 C 
ATOM     75  H   UNL     1       6.485  -2.086  -2.127  1.00  0.00     0.163 HD
ATOM     76  O   UNL     1       7.572  -3.134  -3.970  1.00  0.00    -0.269 OA
BRANCH  74  77
ATOM     77  C   UNL     1       6.438  -5.112  -3.519  1.00  0.00     0.052 A 
ATOM     78  C   UNL     1       7.600  -5.913  -3.574  1.00  0.00     0.014 A 
ATOM     79  C   UNL     1       5.176  -5.689  -3.722  1.00  0.00     0.052 A 
ATOM     80  C   UNL     1       7.522  -7.291  -3.747  1.00  0.00     0.001 A 
ATOM     81  C   UNL     1       5.125  -7.095  -3.876  1.00  0.00     0.014 A 
ATOM     82  C   UNL     1       6.278  -7.886  -3.880  1.00  0.00     0.001 A 
BRANCH  79  83
ATOM     83  C   UNL     1       3.834  -5.040  -3.665  1.00  0.00     0.257 C 
ATOM     84  O   UNL     1       2.917  -5.704  -3.166  1.00  0.00    -0.269 OA
ATOM     85  N   UNL     1       3.536  -3.754  -4.012  1.00  0.00    -0.307 N 
ATOM     86  H   UNL     1       2.650  -3.471  -3.689  1.00  0.00     0.171 HD
BRANCH  85  87
ATOM     87  C   UNL     1       4.188  -2.756  -4.712  1.00  0.00     0.132 A 
ATOM     88  C   UNL     1       5.070  -2.996  -5.753  1.00  0.00     0.049 A 
ATOM     89  N   UNL     1       3.887  -1.516  -4.268  1.00  0.00    -0.238 NA
ATOM     90  C   UNL     1       5.758  -1.909  -6.299  1.00  0.00     0.026 A 
ATOM     91  C   UNL     1       4.590  -0.484  -4.793  1.00  0.00     0.134 A 
ATOM     92  C   UNL     1       5.537  -0.635  -5.790  1.00  0.00     0.059 A 
ATOM     93  Cl  UNL     1       6.421   0.712  -6.377  1.00  0.00    -0.083 Cl
ENDBRANCH  85  87
ENDBRANCH  79  83
ENDBRANCH  74  77
ENDBRANCH  72  73
ENDBRANCH  71  72
ENDBRANCH   1  71
TORSDOF 15
