REMARK SMILES CN(C)c1cc(C(F)(F)F)cc(-c2cccc(/C=C/C(=O)NCCCNC(=O)c3ccc(-c4c5nc(c(-c6cccc(S(=O)(=O)[O-])c6F)c6ccc([nH]6)c(-c6cccc(S(=O)(=O)[O-])c6F)c6nc(c(-c7cccc(S(=O)(=O)[O-])c7F)c7ccc4[nH]7)C=C6)C=C5)cc3)c2)n1
REMARK SMILES IDX 24 1 23 2 22 3 20 4 21 5 19 7 18 8 17 9 13 10 14 11 92 12
REMARK SMILES IDX 15 13 16 14 12 15 4 16 5 17 93 18 6 19 11 20 2 21 1 22 3 23
REMARK SMILES IDX 7 24 8 25 9 26 10 27 25 28 26 29 27 30 28 32 29 33 30 34
REMARK SMILES IDX 91 35 31 36 90 37 32 38 33 39 34 40 84 41 35 42 89 43 83 44
REMARK SMILES IDX 85 45 36 46 88 47 82 48 81 49 37 51 69 52 49 53 68 54 50 55
REMARK SMILES IDX 53 56 67 57 86 58 51 59 52 60 66 62 87 63 54 64 38 65 39 66
REMARK SMILES IDX 47 67 40 68 42 69 48 70 41 71 43 72 44 73 45 74 46 75 70 76
REMARK SMILES IDX 71 77 79 78 72 79 74 80 80 81 73 82 75 83 76 84 77 85 78 86
REMARK SMILES IDX 55 87 56 88 64 89 57 90 59 91 65 92 58 93 60 94 61 95 62 96
REMARK SMILES IDX 63 97
REMARK H PARENT 22 6 26 31 85 50 53 61
REMARK Flexibility Score: inf
ROOT
ATOM      1  C   UNL     1       0.091 -10.088  -3.574  1.00  0.00     0.042 C 
ENDROOT
BRANCH   1   2
ATOM      2  C   UNL     1      -0.238  -9.791  -5.035  1.00  0.00     0.118 C 
BRANCH   2   3
ATOM      3  N   UNL     1      -1.587 -10.206  -5.384  1.00  0.00    -0.352 N 
ATOM      4  C   UNL     1      -2.687  -9.468  -5.696  1.00  0.00     0.244 C 
ATOM      5  O   UNL     1      -3.697 -10.026  -6.118  1.00  0.00    -0.270 OA
ATOM      6  H   UNL     1      -1.728 -11.180  -5.398  1.00  0.00     0.163 HD
BRANCH   4   7
ATOM      7  C   UNL     1      -2.652  -7.990  -5.628  1.00  0.00     0.072 C 
ATOM      8  C   UNL     1      -2.178  -7.303  -4.580  1.00  0.00     0.014 C 
BRANCH   8   9
ATOM      9  C   UNL     1      -2.146  -5.838  -4.498  1.00  0.00    -0.025 A 
ATOM     10  C   UNL     1      -0.967  -3.835  -3.724  1.00  0.00     0.001 A 
ATOM     11  C   UNL     1      -2.059  -3.061  -4.144  1.00  0.00     0.010 A 
ATOM     12  C   UNL     1      -1.031  -5.227  -3.905  1.00  0.00     0.018 A 
ATOM     13  C   UNL     1      -3.170  -3.656  -4.744  1.00  0.00     0.001 A 
ATOM     14  C   UNL     1      -3.214  -5.040  -4.918  1.00  0.00     0.008 A 
BRANCH  10  15
ATOM     15  C   UNL     1       0.201  -3.212  -3.092  1.00  0.00     0.073 A 
ATOM     16  C   UNL     1       0.990  -1.995  -1.261  1.00  0.00     0.129 A 
ATOM     17  C   UNL     1       2.278  -2.015  -1.787  1.00  0.00     0.060 A 
ATOM     18  N   UNL     1      -0.034  -2.581  -1.919  1.00  0.00    -0.231 NA
ATOM     19  C   UNL     1       2.533  -2.670  -2.996  1.00  0.00     0.061 A 
ATOM     20  C   UNL     1       1.466  -3.278  -3.659  1.00  0.00     0.042 A 
BRANCH  16  21
ATOM     21  N   UNL     1       0.750  -1.397  -0.031  1.00  0.00    -0.363 N 
ATOM     22  C   UNL     1       1.105  -0.001   0.126  1.00  0.00     0.144 C 
ATOM     23  C   UNL     1      -0.370  -1.925   0.734  1.00  0.00     0.144 C 
ENDBRANCH  16  21
BRANCH  19  24
ATOM     24  C   UNL     1       3.919  -2.738  -3.568  1.00  0.00     0.416 C 
ATOM     25  F   UNL     1       4.342  -4.017  -3.765  1.00  0.00    -0.166 F 
ATOM     26  F   UNL     1       4.004  -2.129  -4.785  1.00  0.00    -0.166 F 
ATOM     27  F   UNL     1       4.867  -2.143  -2.792  1.00  0.00    -0.166 F 
ENDBRANCH  19  24
ENDBRANCH  10  15
ENDBRANCH   8   9
ENDBRANCH   4   7
ENDBRANCH   2   3
ENDBRANCH   1   2
BRANCH   1  28
ATOM     28  C   UNL     1       0.304 -11.571  -3.278  1.00  0.00     0.118 C 
BRANCH  28  29
ATOM     29  N   UNL     1       1.494 -12.096  -3.934  1.00  0.00    -0.352 N 
ATOM     30  C   UNL     1       2.612 -12.688  -3.402  1.00  0.00     0.251 C 
ATOM     31  H   UNL     1       1.498 -12.012  -4.915  1.00  0.00     0.163 HD
ATOM     32  O   UNL     1       3.597 -12.856  -4.119  1.00  0.00    -0.269 OA
BRANCH  30  33
ATOM     33  C   UNL     1       2.647 -13.123  -1.987  1.00  0.00     0.039 A 
ATOM     34  C   UNL     1       3.828 -12.948  -1.259  1.00  0.00     0.014 A 
ATOM     35  C   UNL     1       1.551 -13.753  -1.393  1.00  0.00     0.014 A 
ATOM     36  C   UNL     1       3.894 -13.362   0.075  1.00  0.00     0.010 A 
ATOM     37  C   UNL     1       1.594 -14.102  -0.044  1.00  0.00     0.010 A 
ATOM     38  C   UNL     1       2.769 -13.921   0.702  1.00  0.00    -0.014 A 
BRANCH  38  39
ATOM     39  C   UNL     1       2.799 -14.315   2.134  1.00  0.00     0.031 A 
ATOM     40  C   UNL     1       2.617 -15.757   2.532  1.00  0.00     0.074 A 
ATOM     41  C   UNL     1       2.901 -13.362   3.082  1.00  0.00     0.049 A 
ATOM     42  N   UNL     1       2.559 -16.280   3.729  1.00  0.00    -0.248 NA
ATOM     43  C   UNL     1       2.450 -16.735   1.444  1.00  0.00     0.031 C 
ATOM     44  C   UNL     1       3.002 -11.924   2.827  1.00  0.00     0.029 A 
ATOM     45  N   UNL     1       2.904 -13.456   4.452  1.00  0.00    -0.354 N 
ATOM     46  C   UNL     1       2.304 -17.634   3.542  1.00  0.00     0.074 A 
ATOM     47  C   UNL     1       2.197 -17.850   2.116  1.00  0.00     0.031 C 
ATOM     48  C   UNL     1       3.059 -11.271   3.999  1.00  0.00     0.029 A 
ATOM     49  C   UNL     1       2.971 -12.238   5.088  1.00  0.00     0.049 A 
ATOM     50  H   UNL     1       2.863 -14.313   4.933  1.00  0.00     0.167 HD
ATOM     51  C   UNL     1       2.193 -18.613   4.472  1.00  0.00     0.034 A 
ATOM     52  C   UNL     1       2.958 -11.933   6.401  1.00  0.00     0.034 A 
ATOM     53  C   UNL     1       2.360 -18.404   5.885  1.00  0.00     0.049 A 
ATOM     54  C   UNL     1       2.894 -13.050   7.409  1.00  0.00     0.074 A 
ATOM     55  C   UNL     1       2.382 -19.347   6.897  1.00  0.00     0.029 A 
ATOM     56  N   UNL     1       2.528 -17.167   6.487  1.00  0.00    -0.354 N 
ATOM     57  N   UNL     1       2.836 -14.343   7.205  1.00  0.00    -0.248 NA
ATOM     58  C   UNL     1       2.932 -12.667   8.828  1.00  0.00     0.031 C 
ATOM     59  C   UNL     1       2.540 -18.678   8.114  1.00  0.00     0.029 A 
ATOM     60  C   UNL     1       2.641 -17.320   7.858  1.00  0.00     0.049 A 
ATOM     61  H   UNL     1       2.561 -16.306   6.010  1.00  0.00     0.167 HD
ATOM     62  C   UNL     1       2.872 -14.930   8.465  1.00  0.00     0.074 A 
ATOM     63  C   UNL     1       2.977 -13.851   9.425  1.00  0.00     0.031 C 
ATOM     64  C   UNL     1       2.809 -16.242   8.798  1.00  0.00     0.034 A 
BRANCH  51  65
ATOM     65  C   UNL     1       1.929 -20.017   3.993  1.00  0.00     0.023 A 
ATOM     66  C   UNL     1       2.955 -20.737   3.347  1.00  0.00     0.012 A 
ATOM     67  C   UNL     1       0.697 -20.651   4.249  1.00  0.00     0.148 A 
ATOM     68  C   UNL     1       2.750 -22.054   2.938  1.00  0.00     0.002 A 
ATOM     69  C   UNL     1       0.515 -21.978   3.877  1.00  0.00     0.091 A 
ATOM     70  F   UNL     1      -0.273 -19.945   4.846  1.00  0.00    -0.205 F 
ATOM     71  C   UNL     1       1.536 -22.677   3.213  1.00  0.00     0.022 A 
BRANCH  69  72
ATOM     72  S   UNL     1      -0.982 -22.895   4.258  1.00  0.00     0.127 S 
ATOM     73  O   UNL     1      -1.587 -23.033   2.933  1.00  0.00    -0.237 OA
ATOM     74  O   UNL     1      -0.449 -24.138   4.816  1.00  0.00    -0.237 OA
ATOM     75  O   UNL     1      -1.727 -22.075   5.203  1.00  0.00    -0.744 OA
ENDBRANCH  69  72
ENDBRANCH  51  65
BRANCH  52  76
ATOM     76  C   UNL     1       3.082 -10.514   6.842  1.00  0.00     0.023 A 
ATOM     77  C   UNL     1       4.268 -10.093   7.475  1.00  0.00     0.012 A 
ATOM     78  C   UNL     1       2.051  -9.580   6.625  1.00  0.00     0.148 A 
ATOM     79  C   UNL     1       4.411  -8.777   7.917  1.00  0.00     0.002 A 
ATOM     80  C   UNL     1       2.222  -8.257   7.019  1.00  0.00     0.091 A 
ATOM     81  F   UNL     1       0.924 -10.001   6.034  1.00  0.00    -0.205 F 
ATOM     82  C   UNL     1       3.393  -7.858   7.681  1.00  0.00     0.022 A 
BRANCH  80  83
ATOM     83  S   UNL     1       1.017  -6.981   6.637  1.00  0.00     0.127 S 
ATOM     84  O   UNL     1       0.381  -6.771   7.934  1.00  0.00    -0.237 OA
ATOM     85  O   UNL     1       1.869  -5.881   6.183  1.00  0.00    -0.237 OA
ATOM     86  O   UNL     1       0.170  -7.547   5.595  1.00  0.00    -0.744 OA
ENDBRANCH  80  83
ENDBRANCH  52  76
BRANCH  64  87
ATOM     87  C   UNL     1       2.894 -16.599  10.258  1.00  0.00     0.023 A 
ATOM     88  C   UNL     1       1.799 -16.343  11.107  1.00  0.00     0.012 A 
ATOM     89  C   UNL     1       4.028 -17.259  10.771  1.00  0.00     0.148 A 
ATOM     90  C   UNL     1       1.844 -16.711  12.451  1.00  0.00     0.002 A 
ATOM     91  C   UNL     1       4.046 -17.667  12.099  1.00  0.00     0.091 A 
ATOM     92  F   UNL     1       5.068 -17.476   9.952  1.00  0.00    -0.205 F 
ATOM     93  C   UNL     1       2.961 -17.383  12.944  1.00  0.00     0.022 A 
BRANCH  91  94
ATOM     94  S   UNL     1       5.400 -18.624  12.791  1.00  0.00     0.127 S 
ATOM     95  O   UNL     1       6.079 -17.627  13.617  1.00  0.00    -0.237 OA
ATOM     96  O   UNL     1       4.695 -19.662  13.545  1.00  0.00    -0.237 OA
ATOM     97  O   UNL     1       6.162 -19.120  11.653  1.00  0.00    -0.744 OA
ENDBRANCH  91  94
ENDBRANCH  64  87
ENDBRANCH  38  39
ENDBRANCH  30  33
ENDBRANCH  28  29
ENDBRANCH   1  28
TORSDOF 17
