REMARK SMILES CCN(C[C@@H](C)C#N)C(=O)NC[C@@H]1CC[C@H](C(=O)NCCCNC(=O)c2ccc(-c3c4nc(c(-c5cccc(S(=O)(=O)[O-])c5F)c5ccc([nH]5)c(-c5cccc(S(=O)(=O)[O-])c5F)c5nc(c(-c6cccc(S(=O)(=O)[O-])c6F)c6ccc3[nH]6)C=C5)C=C4)cc2)O1
REMARK SMILES IDX 17 1 18 2 19 3 16 5 13 6 14 7 89 8 15 9 12 10 11 11 9 12
REMARK SMILES IDX 10 13 3 15 2 16 1 17 4 18 5 19 6 20 7 21 8 22 20 23 21 24
REMARK SMILES IDX 22 25 23 26 24 27 25 29 26 30 27 31 88 32 28 33 87 34 29 35
REMARK SMILES IDX 30 36 31 37 81 38 32 39 86 40 80 41 82 42 33 43 85 44 79 45
REMARK SMILES IDX 78 46 34 48 66 49 46 50 65 51 47 52 50 53 64 54 83 55 48 56
REMARK SMILES IDX 49 57 63 59 84 60 51 61 35 62 36 63 44 64 37 65 39 66 45 67
REMARK SMILES IDX 38 68 40 69 41 70 42 71 43 72 67 73 68 74 76 75 69 76 71 77
REMARK SMILES IDX 77 78 70 79 72 80 73 81 74 82 75 83 52 84 53 85 61 86 54 87
REMARK SMILES IDX 56 88 62 89 55 90 57 91 58 92 59 93 60 94
REMARK H PARENT 19 4 11 14 23 28 82 47 50 58
REMARK Flexibility Score: inf
ROOT
ATOM      1  C   UNL     1      -0.538  -2.179  -8.544  1.00  0.00     0.249 C 
ATOM      2  O   UNL     1      -1.009  -2.738  -9.552  1.00  0.00    -0.272 OA
ATOM      3  N   UNL     1      -1.300  -1.130  -8.084  1.00  0.00    -0.354 N 
ATOM      4  H   UNL     1      -2.166  -1.039  -8.543  1.00  0.00     0.163 HD
ENDROOT
BRANCH   1   5
ATOM      5  C   UNL     1       0.870  -2.740  -7.986  1.00  0.00     0.207 C 
ATOM      6  C   UNL     1       2.501  -3.458  -6.461  1.00  0.00     0.138 C 
ATOM      7  C   UNL     1       3.160  -2.321  -7.218  1.00  0.00     0.037 C 
ATOM      8  O   UNL     1       1.094  -3.230  -6.660  1.00  0.00    -0.363 OA
ATOM      9  C   UNL     1       2.123  -1.920  -8.290  1.00  0.00     0.045 C 
BRANCH   6  10
ATOM     10  C   UNL     1       2.873  -3.779  -4.967  1.00  0.00     0.149 C 
BRANCH  10  11
ATOM     11  N   UNL     1       3.459  -2.763  -4.068  1.00  0.00    -0.335 N 
ATOM     12  C   UNL     1       3.138  -2.027  -2.970  1.00  0.00     0.317 C 
ATOM     13  O   UNL     1       4.083  -1.461  -2.412  1.00  0.00    -0.249 OA
ATOM     14  H   UNL     1       4.376  -2.550  -4.357  1.00  0.00     0.165 HD
BRANCH  12  15
ATOM     15  N   UNL     1       1.847  -1.811  -2.566  1.00  0.00    -0.324 N 
BRANCH  15  16
ATOM     16  C   UNL     1       1.546  -0.609  -1.757  1.00  0.00     0.118 C 
ATOM     17  C   UNL     1       1.496  -0.845  -0.258  1.00  0.00     0.027 C 
ENDBRANCH  15  16
BRANCH  15  18
ATOM     18  C   UNL     1       0.691  -2.464  -3.136  1.00  0.00     0.139 C 
BRANCH  18  19
ATOM     19  C   UNL     1       0.212  -1.776  -4.421  1.00  0.00     0.109 C 
ATOM     20  C   UNL     1       1.149  -0.778  -5.107  1.00  0.00     0.026 C 
BRANCH  19  21
ATOM     21  C   UNL     1      -0.775  -2.688  -5.131  1.00  0.00     0.067 C 
ATOM     22  N   UNL     1      -1.595  -3.444  -5.719  1.00  0.00    -0.198 NA
ENDBRANCH  19  21
ENDBRANCH  18  19
ENDBRANCH  15  18
ENDBRANCH  12  15
ENDBRANCH  10  11
ENDBRANCH   6  10
ENDBRANCH   1   5
BRANCH   3  23
ATOM     23  C   UNL     1      -1.079  -0.137  -7.057  1.00  0.00     0.117 C 
BRANCH  23  24
ATOM     24  C   UNL     1      -2.201   0.780  -6.556  1.00  0.00     0.042 C 
BRANCH  24  25
ATOM     25  C   UNL     1      -3.321   0.194  -5.666  1.00  0.00     0.118 C 
BRANCH  25  26
ATOM     26  N   UNL     1      -2.951  -0.449  -4.391  1.00  0.00    -0.352 N 
ATOM     27  C   UNL     1      -2.928  -0.066  -3.061  1.00  0.00     0.251 C 
ATOM     28  H   UNL     1      -2.646  -1.376  -4.516  1.00  0.00     0.163 HD
ATOM     29  O   UNL     1      -2.462  -0.846  -2.226  1.00  0.00    -0.269 OA
BRANCH  27  30
ATOM     30  C   UNL     1      -3.404   1.261  -2.609  1.00  0.00     0.039 A 
ATOM     31  C   UNL     1      -2.761   1.940  -1.563  1.00  0.00     0.014 A 
ATOM     32  C   UNL     1      -4.493   1.853  -3.226  1.00  0.00     0.014 A 
ATOM     33  C   UNL     1      -3.087   3.279  -1.293  1.00  0.00     0.010 A 
ATOM     34  C   UNL     1      -4.713   3.212  -3.064  1.00  0.00     0.010 A 
ATOM     35  C   UNL     1      -3.986   3.961  -2.126  1.00  0.00    -0.014 A 
BRANCH  35  36
ATOM     36  C   UNL     1      -4.148   5.446  -2.139  1.00  0.00     0.031 A 
ATOM     37  C   UNL     1      -5.532   6.050  -2.157  1.00  0.00     0.074 A 
ATOM     38  C   UNL     1      -3.077   6.234  -2.380  1.00  0.00     0.049 A 
ATOM     39  N   UNL     1      -5.908   7.250  -2.517  1.00  0.00    -0.248 NA
ATOM     40  C   UNL     1      -6.648   5.156  -1.801  1.00  0.00     0.031 C 
ATOM     41  C   UNL     1      -1.688   5.779  -2.495  1.00  0.00     0.029 A 
ATOM     42  N   UNL     1      -2.996   7.584  -2.628  1.00  0.00    -0.354 N 
ATOM     43  C   UNL     1      -7.299   7.223  -2.528  1.00  0.00     0.074 A 
ATOM     44  C   UNL     1      -7.696   5.878  -2.169  1.00  0.00     0.031 C 
ATOM     45  C   UNL     1      -0.897   6.825  -2.782  1.00  0.00     0.029 A 
ATOM     46  C   UNL     1      -1.722   8.017  -2.926  1.00  0.00     0.049 A 
ATOM     47  H   UNL     1      -3.775   8.185  -2.597  1.00  0.00     0.167 HD
ATOM     48  C   UNL     1      -8.169   8.230  -2.782  1.00  0.00     0.034 A 
ATOM     49  C   UNL     1      -1.265   9.230  -3.295  1.00  0.00     0.034 A 
ATOM     50  C   UNL     1      -7.769   9.591  -3.014  1.00  0.00     0.049 A 
ATOM     51  C   UNL     1      -2.242  10.365  -3.433  1.00  0.00     0.074 A 
ATOM     52  C   UNL     1      -8.567  10.715  -3.135  1.00  0.00     0.029 A 
ATOM     53  N   UNL     1      -6.456  10.018  -3.133  1.00  0.00    -0.354 N 
ATOM     54  N   UNL     1      -3.546  10.350  -3.301  1.00  0.00    -0.248 NA
ATOM     55  C   UNL     1      -1.684  11.690  -3.741  1.00  0.00     0.031 C 
ATOM     56  C   UNL     1      -7.735  11.823  -3.325  1.00  0.00     0.029 A 
ATOM     57  C   UNL     1      -6.419  11.390  -3.313  1.00  0.00     0.049 A 
ATOM     58  H   UNL     1      -5.666   9.432  -3.095  1.00  0.00     0.167 HD
ATOM     59  C   UNL     1      -3.961  11.665  -3.474  1.00  0.00     0.074 A 
ATOM     60  C   UNL     1      -2.768  12.454  -3.698  1.00  0.00     0.031 C 
ATOM     61  C   UNL     1      -5.219  12.170  -3.469  1.00  0.00     0.034 A 
BRANCH  48  62
ATOM     62  C   UNL     1      -9.644   7.915  -2.736  1.00  0.00     0.023 A 
ATOM     63  C   UNL     1     -10.251   7.607  -1.501  1.00  0.00     0.012 A 
ATOM     64  C   UNL     1     -10.439   7.966  -3.899  1.00  0.00     0.148 A 
ATOM     65  C   UNL     1     -11.610   7.304  -1.429  1.00  0.00     0.002 A 
ATOM     66  C   UNL     1     -11.805   7.713  -3.811  1.00  0.00     0.091 A 
ATOM     67  F   UNL     1      -9.847   8.245  -5.069  1.00  0.00    -0.205 F 
ATOM     68  C   UNL     1     -12.387   7.366  -2.581  1.00  0.00     0.022 A 
BRANCH  66  69
ATOM     69  S   UNL     1     -12.911   7.852  -5.220  1.00  0.00     0.127 S 
ATOM     70  O   UNL     1     -13.216   6.448  -5.496  1.00  0.00    -0.237 OA
ATOM     71  O   UNL     1     -14.026   8.619  -4.662  1.00  0.00    -0.237 OA
ATOM     72  O   UNL     1     -12.157   8.544  -6.255  1.00  0.00    -0.744 OA
ENDBRANCH  66  69
ENDBRANCH  48  62
BRANCH  49  73
ATOM     73  C   UNL     1       0.199   9.455  -3.473  1.00  0.00     0.023 A 
ATOM     74  C   UNL     1       0.891  10.210  -2.504  1.00  0.00     0.012 A 
ATOM     75  C   UNL     1       0.916   8.905  -4.552  1.00  0.00     0.148 A 
ATOM     76  C   UNL     1       2.261  10.442  -2.624  1.00  0.00     0.002 A 
ATOM     77  C   UNL     1       2.292   9.094  -4.637  1.00  0.00     0.091 A 
ATOM     78  F   UNL     1       0.242   8.196  -5.469  1.00  0.00    -0.205 F 
ATOM     79  C   UNL     1       2.963   9.876  -3.684  1.00  0.00     0.022 A 
BRANCH  77  80
ATOM     80  S   UNL     1       3.298   8.291  -5.891  1.00  0.00     0.127 S 
ATOM     81  O   UNL     1       3.614   9.404  -6.782  1.00  0.00    -0.237 OA
ATOM     82  O   UNL     1       4.426   7.791  -5.104  1.00  0.00    -0.237 OA
ATOM     83  O   UNL     1       2.455   7.244  -6.455  1.00  0.00    -0.744 OA
ENDBRANCH  77  80
ENDBRANCH  49  73
BRANCH  61  84
ATOM     84  C   UNL     1      -5.376  13.652  -3.672  1.00  0.00     0.023 A 
ATOM     85  C   UNL     1      -5.194  14.204  -4.955  1.00  0.00     0.012 A 
ATOM     86  C   UNL     1      -5.785  14.483  -2.611  1.00  0.00     0.148 A 
ATOM     87  C   UNL     1      -5.393  15.566  -5.174  1.00  0.00     0.002 A 
ATOM     88  C   UNL     1      -6.026  15.831  -2.847  1.00  0.00     0.091 A 
ATOM     89  F   UNL     1      -5.931  13.941  -1.393  1.00  0.00    -0.205 F 
ATOM     90  C   UNL     1      -5.821  16.376  -4.124  1.00  0.00     0.022 A 
BRANCH  88  91
ATOM     91  S   UNL     1      -6.671  16.926  -1.577  1.00  0.00     0.127 S 
ATOM     92  O   UNL     1      -5.488  17.712  -1.232  1.00  0.00    -0.237 OA
ATOM     93  O   UNL     1      -7.706  17.667  -2.300  1.00  0.00    -0.237 OA
ATOM     94  O   UNL     1      -7.179  16.059  -0.522  1.00  0.00    -0.744 OA
ENDBRANCH  88  91
ENDBRANCH  61  84
ENDBRANCH  35  36
ENDBRANCH  27  30
ENDBRANCH  25  26
ENDBRANCH  24  25
ENDBRANCH  23  24
ENDBRANCH   3  23
TORSDOF 20
