REMARK SMILES O=C(NCCCNC(=O)[C@@H]1CN(c2ncccn2)CCN1C(=O)C1CCOCC1)c1ccc(-c2c3nc(c(-c4cccc(S(=O)(=O)[O-])c4F)c4ccc([nH]4)c(-c4cccc(S(=O)(=O)[O-])c4F)c4nc(c(-c5cccc(S(=O)(=O)[O-])c5F)c5ccc2[nH]5)C=C4)C=C3)cc1
REMARK SMILES IDX 4 1 3 2 1 3 2 4 30 6 31 7 92 8 32 9 91 10 33 11 34 12 35 13
REMARK SMILES IDX 85 14 36 15 90 16 84 17 86 18 37 19 89 20 83 21 82 22 38 24
REMARK SMILES IDX 70 25 50 26 69 27 51 28 54 29 68 30 87 31 52 32 53 33 67 35
REMARK SMILES IDX 88 36 55 37 39 38 40 39 48 40 41 41 43 42 49 43 42 44 44 45
REMARK SMILES IDX 45 46 46 47 47 48 71 49 72 50 80 51 73 52 75 53 81 54 74 55
REMARK SMILES IDX 76 56 77 57 78 58 79 59 56 60 57 61 65 62 58 63 60 64 66 65
REMARK SMILES IDX 59 66 61 67 62 68 63 69 64 70 5 71 6 72 7 73 8 74 9 76 10 77
REMARK SMILES IDX 11 78 21 79 12 80 20 81 19 82 22 83 23 84 24 85 25 86 29 87
REMARK SMILES IDX 26 88 28 89 27 90 13 91 14 92 18 93 15 94 17 95 16 96
REMARK H PARENT 3 5 86 23 54 34 7 75
REMARK Flexibility Score: inf
ROOT
ATOM      1  C   UNL     1       4.268  -1.245   0.812  1.00  0.00     0.118 C 
ENDROOT
BRANCH   1   2
ATOM      2  N   UNL     1       2.879  -1.134   0.404  1.00  0.00    -0.352 N 
ATOM      3  O   UNL     1       0.963  -0.097  -0.129  1.00  0.00    -0.269 OA
ATOM      4  C   UNL     1       2.190  -0.048  -0.070  1.00  0.00     0.251 C 
ATOM      5  H   UNL     1       2.354  -1.963   0.478  1.00  0.00     0.163 HD
BRANCH   4   6
ATOM      6  C   UNL     1       2.908   1.179  -0.480  1.00  0.00     0.039 A 
ATOM      7  C   UNL     1       4.061   1.117  -1.268  1.00  0.00     0.014 A 
ATOM      8  C   UNL     1       2.385   2.419  -0.106  1.00  0.00     0.014 A 
ATOM      9  C   UNL     1       4.758   2.283  -1.577  1.00  0.00     0.010 A 
ATOM     10  C   UNL     1       3.044   3.592  -0.480  1.00  0.00     0.010 A 
ATOM     11  C   UNL     1       4.251   3.534  -1.195  1.00  0.00    -0.014 A 
BRANCH  11  12
ATOM     12  C   UNL     1       4.952   4.781  -1.595  1.00  0.00     0.031 A 
ATOM     13  C   UNL     1       5.534   5.706  -0.563  1.00  0.00     0.074 A 
ATOM     14  C   UNL     1       5.021   5.101  -2.902  1.00  0.00     0.049 A 
ATOM     15  N   UNL     1       6.136   6.855  -0.732  1.00  0.00    -0.248 NA
ATOM     16  C   UNL     1       5.417   5.293   0.845  1.00  0.00     0.031 C 
ATOM     17  C   UNL     1       4.455   4.306  -3.994  1.00  0.00     0.029 A 
ATOM     18  N   UNL     1       5.577   6.185  -3.533  1.00  0.00    -0.354 N 
ATOM     19  C   UNL     1       6.432   7.324   0.542  1.00  0.00     0.074 A 
ATOM     20  C   UNL     1       5.935   6.338   1.478  1.00  0.00     0.031 C 
ATOM     21  C   UNL     1       4.692   4.927  -5.159  1.00  0.00     0.029 A 
ATOM     22  C   UNL     1       5.386   6.183  -4.895  1.00  0.00     0.049 A 
ATOM     23  H   UNL     1       6.064   6.896  -3.058  1.00  0.00     0.167 HD
ATOM     24  C   UNL     1       7.074   8.463   0.899  1.00  0.00     0.034 A 
ATOM     25  C   UNL     1       5.714   7.097  -5.828  1.00  0.00     0.034 A 
ATOM     26  C   UNL     1       7.598   9.422  -0.037  1.00  0.00     0.049 A 
ATOM     27  C   UNL     1       6.445   8.340  -5.408  1.00  0.00     0.074 A 
ATOM     28  C   UNL     1       8.323  10.572   0.224  1.00  0.00     0.029 A 
ATOM     29  N   UNL     1       7.447   9.351  -1.414  1.00  0.00    -0.354 N 
ATOM     30  N   UNL     1       6.832   8.701  -4.209  1.00  0.00    -0.248 NA
ATOM     31  C   UNL     1       6.813   9.286  -6.471  1.00  0.00     0.031 C 
ATOM     32  C   UNL     1       8.595  11.204  -0.994  1.00  0.00     0.029 A 
ATOM     33  C   UNL     1       8.058  10.438  -2.016  1.00  0.00     0.049 A 
ATOM     34  H   UNL     1       6.975   8.632  -1.893  1.00  0.00     0.167 HD
ATOM     35  C   UNL     1       7.516   9.899  -4.375  1.00  0.00     0.074 A 
ATOM     36  C   UNL     1       7.506  10.193  -5.794  1.00  0.00     0.031 C 
ATOM     37  C   UNL     1       8.088  10.691  -3.434  1.00  0.00     0.034 A 
BRANCH  24  38
ATOM     38  C   UNL     1       7.283   8.717   2.369  1.00  0.00     0.023 A 
ATOM     39  C   UNL     1       8.240   7.961   3.076  1.00  0.00     0.012 A 
ATOM     40  C   UNL     1       6.577   9.736   3.039  1.00  0.00     0.148 A 
ATOM     41  C   UNL     1       8.469   8.192   4.432  1.00  0.00     0.002 A 
ATOM     42  C   UNL     1       6.839   9.986   4.382  1.00  0.00     0.091 A 
ATOM     43  F   UNL     1       5.654  10.431   2.359  1.00  0.00    -0.205 F 
ATOM     44  C   UNL     1       7.776   9.210   5.082  1.00  0.00     0.022 A 
BRANCH  42  45
ATOM     45  S   UNL     1       6.047  11.324   5.284  1.00  0.00     0.127 S 
ATOM     46  O   UNL     1       5.058  10.598   6.079  1.00  0.00    -0.237 OA
ATOM     47  O   UNL     1       7.158  11.881   6.057  1.00  0.00    -0.237 OA
ATOM     48  O   UNL     1       5.507  12.220   4.271  1.00  0.00    -0.744 OA
ENDBRANCH  42  45
ENDBRANCH  24  38
BRANCH  25  49
ATOM     49  C   UNL     1       5.393   6.830  -7.258  1.00  0.00     0.023 A 
ATOM     50  C   UNL     1       6.434   6.526  -8.155  1.00  0.00     0.012 A 
ATOM     51  C   UNL     1       4.060   6.810  -7.716  1.00  0.00     0.148 A 
ATOM     52  C   UNL     1       6.156   6.223  -9.488  1.00  0.00     0.002 A 
ATOM     53  C   UNL     1       3.787   6.453  -9.031  1.00  0.00     0.091 A 
ATOM     54  F   UNL     1       3.086   7.115  -6.847  1.00  0.00    -0.205 F 
ATOM     55  C   UNL     1       4.833   6.174  -9.922  1.00  0.00     0.022 A 
BRANCH  53  56
ATOM     56  S   UNL     1       2.110   6.229  -9.636  1.00  0.00     0.127 S 
ATOM     57  O   UNL     1       1.964   7.373 -10.536  1.00  0.00    -0.237 OA
ATOM     58  O   UNL     1       2.204   4.929 -10.306  1.00  0.00    -0.237 OA
ATOM     59  O   UNL     1       1.260   6.238  -8.459  1.00  0.00    -0.744 OA
ENDBRANCH  53  56
ENDBRANCH  25  49
BRANCH  37  60
ATOM     60  C   UNL     1       8.784  11.941  -3.904  1.00  0.00     0.023 A 
ATOM     61  C   UNL     1       8.024  13.047  -4.329  1.00  0.00     0.012 A 
ATOM     62  C   UNL     1      10.188  12.045  -3.846  1.00  0.00     0.148 A 
ATOM     63  C   UNL     1       8.652  14.231  -4.715  1.00  0.00     0.002 A 
ATOM     64  C   UNL     1      10.804  13.243  -4.188  1.00  0.00     0.091 A 
ATOM     65  F   UNL     1      10.894  10.973  -3.458  1.00  0.00    -0.205 F 
ATOM     66  C   UNL     1      10.039  14.334  -4.632  1.00  0.00     0.022 A 
BRANCH  64  67
ATOM     67  S   UNL     1      12.575  13.494  -4.022  1.00  0.00     0.127 S 
ATOM     68  O   UNL     1      13.013  13.463  -5.417  1.00  0.00    -0.237 OA
ATOM     69  O   UNL     1      12.646  14.812  -3.390  1.00  0.00    -0.237 OA
ATOM     70  O   UNL     1      13.058  12.400  -3.189  1.00  0.00    -0.744 OA
ENDBRANCH  64  67
ENDBRANCH  37  60
ENDBRANCH  11  12
ENDBRANCH   4   6
ENDBRANCH   1   2
BRANCH   1  71
ATOM     71  C   UNL     1       4.421  -1.307   2.331  1.00  0.00     0.042 C 
BRANCH  71  72
ATOM     72  C   UNL     1       3.784  -2.536   2.992  1.00  0.00     0.117 C 
BRANCH  72  73
ATOM     73  N   UNL     1       4.162  -3.768   2.324  1.00  0.00    -0.354 N 
ATOM     74  C   UNL     1       5.457  -4.209   2.313  1.00  0.00     0.244 C 
ATOM     75  H   UNL     1       3.470  -4.300   1.868  1.00  0.00     0.163 HD
ATOM     76  O   UNL     1       6.020  -4.245   1.225  1.00  0.00    -0.273 OA
BRANCH  74  77
ATOM     77  C   UNL     1       6.141  -4.567   3.632  1.00  0.00     0.193 C 
ATOM     78  C   UNL     1       7.229  -3.500   3.872  1.00  0.00     0.155 C 
ATOM     79  N   UNL     1       6.698  -5.926   3.971  1.00  0.00    -0.327 N 
ATOM     80  N   UNL     1       7.727  -3.560   5.246  1.00  0.00    -0.336 N 
ATOM     81  C   UNL     1       7.107  -5.956   5.401  1.00  0.00     0.142 C 
ATOM     82  C   UNL     1       8.170  -4.869   5.726  1.00  0.00     0.141 C 
BRANCH  79  83
ATOM     83  C   UNL     1       7.354  -6.845   3.159  1.00  0.00     0.226 C 
ATOM     84  O   UNL     1       8.285  -7.522   3.625  1.00  0.00    -0.275 OA
BRANCH  83  85
ATOM     85  C   UNL     1       6.952  -7.166   1.714  1.00  0.00     0.083 C 
ATOM     86  C   UNL     1       7.745  -6.348   0.695  1.00  0.00     0.042 C 
ATOM     87  C   UNL     1       5.454  -7.333   1.467  1.00  0.00     0.042 C 
ATOM     88  C   UNL     1       7.120  -6.305  -0.698  1.00  0.00     0.161 C 
ATOM     89  C   UNL     1       5.132  -7.387  -0.017  1.00  0.00     0.161 C 
ATOM     90  O   UNL     1       5.696  -6.274  -0.693  1.00  0.00    -0.381 OA
ENDBRANCH  83  85
ENDBRANCH  79  83
BRANCH  80  91
ATOM     91  C   UNL     1       7.184  -2.687   6.160  1.00  0.00     0.225 A 
ATOM     92  N   UNL     1       8.017  -2.120   7.045  1.00  0.00    -0.221 NA
ATOM     93  N   UNL     1       5.882  -2.362   6.063  1.00  0.00    -0.221 NA
ATOM     94  C   UNL     1       7.528  -1.117   7.801  1.00  0.00     0.117 A 
ATOM     95  C   UNL     1       5.424  -1.396   6.886  1.00  0.00     0.117 A 
ATOM     96  C   UNL     1       6.219  -0.710   7.768  1.00  0.00     0.040 A 
ENDBRANCH  80  91
ENDBRANCH  74  77
ENDBRANCH  72  73
ENDBRANCH  71  72
ENDBRANCH   1  71
TORSDOF 16
