REMARK SMILES O=C(NCCCNC(=O)[C@@H](CO)NS(=O)(=O)c1cc[nH]c1)c1ccc(-c2c3nc(c(-c4cccc(S(=O)(=O)[O-])c4F)c4ccc([nH]4)c(-c4cccc(S(=O)(=O)[O-])c4F)c4nc(c(-c5cccc(S(=O)(=O)[O-])c5F)c5ccc2[nH]5)C=C4)C=C3)cc1
REMARK SMILES IDX 5 1 4 2 3 3 1 4 2 5 22 7 23 8 84 9 24 10 83 11 25 12 26 13
REMARK SMILES IDX 27 14 77 15 28 16 82 17 76 18 78 19 29 20 81 21 75 22 74 23
REMARK SMILES IDX 30 25 62 26 42 27 61 28 43 29 46 30 60 31 79 32 44 33 45 34
REMARK SMILES IDX 59 36 80 37 47 38 31 39 32 40 40 41 33 42 35 43 41 44 34 45
REMARK SMILES IDX 36 46 37 47 38 48 39 49 63 50 64 51 72 52 65 53 67 54 73 55
REMARK SMILES IDX 66 56 68 57 69 58 70 59 71 60 48 61 49 62 57 63 50 64 52 65
REMARK SMILES IDX 58 66 51 67 53 68 54 69 55 70 56 71 6 72 7 73 8 74 9 76
REMARK SMILES IDX 10 77 11 78 12 79 13 81 14 83 15 84 16 85 17 86 18 87 21 88
REMARK SMILES IDX 19 89 20 90
REMARK H PARENT 3 6 78 24 46 35 7 75 12 80 13 82 20 91
REMARK Flexibility Score: inf
ROOT
ATOM      1  C   UNL     1       4.786  -1.753   1.218  1.00  0.00     0.042 C 
ENDROOT
BRANCH   1   2
ATOM      2  C   UNL     1       4.476  -1.141  -0.144  1.00  0.00     0.118 C 
BRANCH   2   3
ATOM      3  N   UNL     1       3.102  -0.732  -0.361  1.00  0.00    -0.352 N 
ATOM      4  O   UNL     1       1.195   0.408  -0.249  1.00  0.00    -0.269 OA
ATOM      5  C   UNL     1       2.308   0.215   0.238  1.00  0.00     0.251 C 
ATOM      6  H   UNL     1       2.650  -1.230  -1.080  1.00  0.00     0.163 HD
BRANCH   5   7
ATOM      7  C   UNL     1       2.714   0.936   1.470  1.00  0.00     0.039 A 
ATOM      8  C   UNL     1       4.014   1.397   1.692  1.00  0.00     0.014 A 
ATOM      9  C   UNL     1       1.718   1.196   2.424  1.00  0.00     0.014 A 
ATOM     10  C   UNL     1       4.334   2.050   2.879  1.00  0.00     0.010 A 
ATOM     11  C   UNL     1       2.026   1.877   3.603  1.00  0.00     0.010 A 
ATOM     12  C   UNL     1       3.333   2.325   3.821  1.00  0.00    -0.014 A 
BRANCH  12  13
ATOM     13  C   UNL     1       3.630   3.385   4.822  1.00  0.00     0.031 A 
ATOM     14  C   UNL     1       3.557   4.786   4.153  1.00  0.00     0.074 A 
ATOM     15  C   UNL     1       3.981   3.003   6.090  1.00  0.00     0.049 A 
ATOM     16  N   UNL     1       4.270   5.858   4.354  1.00  0.00    -0.248 NA
ATOM     17  C   UNL     1       2.652   4.974   2.982  1.00  0.00     0.031 C 
ATOM     18  C   UNL     1       3.950   1.612   6.593  1.00  0.00     0.029 A 
ATOM     19  N   UNL     1       4.429   3.681   7.212  1.00  0.00    -0.354 N 
ATOM     20  C   UNL     1       3.718   6.881   3.535  1.00  0.00     0.074 A 
ATOM     21  C   UNL     1       2.867   6.231   2.595  1.00  0.00     0.031 C 
ATOM     22  C   UNL     1       4.425   1.541   7.859  1.00  0.00     0.029 A 
ATOM     23  C   UNL     1       4.786   2.870   8.323  1.00  0.00     0.049 A 
ATOM     24  H   UNL     1       4.496   4.663   7.238  1.00  0.00     0.167 HD
ATOM     25  C   UNL     1       3.844   8.214   3.810  1.00  0.00     0.034 A 
ATOM     26  C   UNL     1       5.359   3.232   9.518  1.00  0.00     0.034 A 
ATOM     27  C   UNL     1       4.615   8.368   4.997  1.00  0.00     0.049 A 
ATOM     28  C   UNL     1       5.360   4.698   9.528  1.00  0.00     0.074 A 
ATOM     29  C   UNL     1       5.944   8.243   5.292  1.00  0.00     0.029 A 
ATOM     30  N   UNL     1       3.878   8.390   6.155  1.00  0.00    -0.354 N 
ATOM     31  N   UNL     1       4.307   5.434   9.730  1.00  0.00    -0.248 NA
ATOM     32  C   UNL     1       6.607   5.409   9.214  1.00  0.00     0.031 C 
ATOM     33  C   UNL     1       5.940   7.780   6.622  1.00  0.00     0.029 A 
ATOM     34  C   UNL     1       4.635   7.806   7.131  1.00  0.00     0.049 A 
ATOM     35  H   UNL     1       2.972   8.759   6.263  1.00  0.00     0.167 HD
ATOM     36  C   UNL     1       4.705   6.634   9.199  1.00  0.00     0.074 A 
ATOM     37  C   UNL     1       6.148   6.655   9.264  1.00  0.00     0.031 C 
ATOM     38  C   UNL     1       3.936   7.227   8.252  1.00  0.00     0.034 A 
BRANCH  25  39
ATOM     39  C   UNL     1       3.115   9.465   3.346  1.00  0.00     0.023 A 
ATOM     40  C   UNL     1       3.685  10.695   3.794  1.00  0.00     0.012 A 
ATOM     41  C   UNL     1       1.812   9.524   2.823  1.00  0.00     0.148 A 
ATOM     42  C   UNL     1       2.950  11.875   3.891  1.00  0.00     0.002 A 
ATOM     43  C   UNL     1       1.100  10.729   2.861  1.00  0.00     0.091 A 
ATOM     44  F   UNL     1       1.229   8.415   2.364  1.00  0.00    -0.205 F 
ATOM     45  C   UNL     1       1.645  11.885   3.441  1.00  0.00     0.022 A 
BRANCH  43  46
ATOM     46  S   UNL     1      -0.556  10.905   2.186  1.00  0.00     0.127 S 
ATOM     47  O   UNL     1      -1.373  10.966   3.393  1.00  0.00    -0.237 OA
ATOM     48  O   UNL     1      -0.451  12.174   1.461  1.00  0.00    -0.237 OA
ATOM     49  O   UNL     1      -0.753   9.748   1.323  1.00  0.00    -0.744 OA
ENDBRANCH  43  46
ENDBRANCH  25  39
BRANCH  26  50
ATOM     50  C   UNL     1       6.012   2.558  10.714  1.00  0.00     0.023 A 
ATOM     51  C   UNL     1       5.847   1.209  11.054  1.00  0.00     0.012 A 
ATOM     52  C   UNL     1       6.915   3.293  11.550  1.00  0.00     0.148 A 
ATOM     53  C   UNL     1       6.607   0.615  12.088  1.00  0.00     0.002 A 
ATOM     54  C   UNL     1       7.756   2.683  12.474  1.00  0.00     0.091 A 
ATOM     55  F   UNL     1       6.938   4.627  11.500  1.00  0.00    -0.205 F 
ATOM     56  C   UNL     1       7.595   1.335  12.762  1.00  0.00     0.022 A 
BRANCH  54  57
ATOM     57  S   UNL     1       9.158   3.560  13.205  1.00  0.00     0.127 S 
ATOM     58  O   UNL     1       8.950   3.349  14.636  1.00  0.00    -0.237 OA
ATOM     59  O   UNL     1      10.288   2.827  12.634  1.00  0.00    -0.237 OA
ATOM     60  O   UNL     1       9.056   4.945  12.764  1.00  0.00    -0.744 OA
ENDBRANCH  54  57
ENDBRANCH  26  50
BRANCH  38  61
ATOM     61  C   UNL     1       2.449   6.895   8.337  1.00  0.00     0.023 A 
ATOM     62  C   UNL     1       1.770   7.307   9.501  1.00  0.00     0.012 A 
ATOM     63  C   UNL     1       1.724   6.112   7.406  1.00  0.00     0.148 A 
ATOM     64  C   UNL     1       0.439   6.952   9.738  1.00  0.00     0.002 A 
ATOM     65  C   UNL     1       0.397   5.741   7.651  1.00  0.00     0.091 A 
ATOM     66  F   UNL     1       2.334   5.730   6.286  1.00  0.00    -0.205 F 
ATOM     67  C   UNL     1      -0.247   6.168   8.817  1.00  0.00     0.022 A 
BRANCH  65  68
ATOM     68  S   UNL     1      -0.563   4.657   6.571  1.00  0.00     0.127 S 
ATOM     69  O   UNL     1      -1.016   3.614   7.494  1.00  0.00    -0.237 OA
ATOM     70  O   UNL     1      -1.626   5.545   6.108  1.00  0.00    -0.237 OA
ATOM     71  O   UNL     1       0.351   4.184   5.539  1.00  0.00    -0.744 OA
ENDBRANCH  65  68
ENDBRANCH  38  61
ENDBRANCH  12  13
ENDBRANCH   5   7
ENDBRANCH   2   3
ENDBRANCH   1   2
BRANCH   1  72
ATOM     72  C   UNL     1       4.191  -3.138   1.442  1.00  0.00     0.117 C 
BRANCH  72  73
ATOM     73  N   UNL     1       4.831  -4.162   0.628  1.00  0.00    -0.355 N 
ATOM     74  C   UNL     1       5.708  -5.162   0.924  1.00  0.00     0.240 C 
ATOM     75  H   UNL     1       4.582  -4.123  -0.323  1.00  0.00     0.163 HD
ATOM     76  O   UNL     1       6.142  -5.811  -0.038  1.00  0.00    -0.273 OA
BRANCH  74  77
ATOM     77  C   UNL     1       6.195  -5.491   2.342  1.00  0.00     0.184 C 
BRANCH  77  78
ATOM     78  C   UNL     1       7.229  -4.461   2.809  1.00  0.00     0.186 C 
BRANCH  78  79
ATOM     79  O   UNL     1       6.638  -3.229   3.190  1.00  0.00    -0.394 OA
ATOM     80  H   UNL     1       6.183  -2.839   2.428  1.00  0.00     0.210 HD
ENDBRANCH  78  79
ENDBRANCH  77  78
BRANCH  77  81
ATOM     81  N   UNL     1       5.067  -5.771   3.268  1.00  0.00    -0.196 NA
ATOM     82  H   UNL     1       4.490  -6.484   2.821  1.00  0.00     0.142 HD
BRANCH  81  83
ATOM     83  S   UNL     1       5.371  -6.306   4.828  1.00  0.00     0.242 S 
ATOM     84  O   UNL     1       6.184  -5.311   5.511  1.00  0.00    -0.207 OA
ATOM     85  O   UNL     1       4.127  -6.769   5.370  1.00  0.00    -0.207 OA
BRANCH  83  86
ATOM     86  C   UNL     1       6.383  -7.705   4.767  1.00  0.00     0.099 A 
ATOM     87  C   UNL     1       5.937  -9.046   4.647  1.00  0.00     0.041 A 
ATOM     88  C   UNL     1       7.763  -7.733   4.837  1.00  0.00     0.104 A 
ATOM     89  C   UNL     1       7.058  -9.849   4.658  1.00  0.00     0.083 A 
ATOM     90  N   UNL     1       8.161  -9.042   4.775  1.00  0.00    -0.366 N 
ATOM     91  H   UNL     1       9.094  -9.354   4.808  1.00  0.00     0.165 HD
ENDBRANCH  83  86
ENDBRANCH  81  83
ENDBRANCH  77  81
ENDBRANCH  74  77
ENDBRANCH  72  73
ENDBRANCH   1  72
TORSDOF 18
