REMARK SMILES COc1cccc(NC(=O)[C@@H]2[C@@H](C(=O)NCCCNC(=O)c3ccc(-c4c5nc(c(-c6cccc(S(=O)(=O)[O-])c6F)c6ccc([nH]6)c(-c6cccc(S(=O)(=O)[O-])c6F)c6nc(c(-c7cccc(S(=O)(=O)[O-])c7F)c7ccc4[nH]7)C=C6)C=C5)cc3)[C@H]3C=C[C@@H]2C3)c1
REMARK SMILES IDX 17 1 16 2 15 3 13 4 14 5 12 7 11 8 88 9 85 10 87 11 89 12
REMARK SMILES IDX 86 13 9 14 8 15 10 17 7 18 3 19 4 20 90 21 5 22 6 23 2 24
REMARK SMILES IDX 1 25 18 26 19 27 20 28 21 30 22 31 23 32 84 33 24 34 83 35
REMARK SMILES IDX 25 36 26 37 27 38 77 39 28 40 82 41 76 42 78 43 29 44 81 45
REMARK SMILES IDX 75 46 74 47 30 49 62 50 42 51 61 52 43 53 46 54 60 55 79 56
REMARK SMILES IDX 44 57 45 58 59 60 80 61 47 62 31 63 32 64 40 65 33 66 35 67
REMARK SMILES IDX 41 68 34 69 36 70 37 71 38 72 39 73 63 74 64 75 72 76 65 77
REMARK SMILES IDX 67 78 73 79 66 80 68 81 69 82 70 83 71 84 48 85 49 86 57 87
REMARK SMILES IDX 50 88 52 89 58 90 51 91 53 92 54 93 55 94 56 95
REMARK H PARENT 15 6 8 16 19 29 78 48 46 59
REMARK Flexibility Score: inf
ROOT
ATOM      1  C   UNL     1      -1.748  -1.446  -7.520  1.00  0.00     0.042 C 
ENDROOT
BRANCH   1   2
ATOM      2  C   UNL     1      -0.894  -2.684  -7.347  1.00  0.00     0.117 C 
BRANCH   2   3
ATOM      3  N   UNL     1       0.311  -2.710  -8.158  1.00  0.00    -0.356 N 
ATOM      4  C   UNL     1       1.556  -3.164  -7.800  1.00  0.00     0.224 C 
ATOM      5  O   UNL     1       2.446  -3.196  -8.647  1.00  0.00    -0.275 OA
ATOM      6  H   UNL     1       0.225  -2.359  -9.073  1.00  0.00     0.163 HD
BRANCH   4   7
ATOM      7  C   UNL     1       1.771  -3.513  -6.334  1.00  0.00     0.098 C 
ATOM      8  C   UNL     1       3.192  -3.924  -5.923  1.00  0.00     0.099 C 
ATOM      9  C   UNL     1       3.028  -5.391  -5.443  1.00  0.00     0.025 C 
ATOM     10  C   UNL     1       0.939  -4.752  -5.860  1.00  0.00     0.025 C 
ATOM     11  C   UNL     1       2.510  -6.244  -6.590  1.00  0.00    -0.027 C 
ATOM     12  C   UNL     1       1.723  -5.309  -4.666  1.00  0.00     0.017 C 
ATOM     13  C   UNL     1       1.237  -5.881  -6.816  1.00  0.00    -0.027 C 
BRANCH   8  14
ATOM     14  C   UNL     1       3.871  -3.040  -4.871  1.00  0.00     0.228 C 
ATOM     15  N   UNL     1       3.382  -2.472  -3.737  1.00  0.00    -0.326 N 
ATOM     16  H   UNL     1       4.136  -2.084  -3.237  1.00  0.00     0.169 HD
ATOM     17  O   UNL     1       5.104  -2.900  -4.989  1.00  0.00    -0.274 OA
BRANCH  15  18
ATOM     18  C   UNL     1       2.191  -2.229  -3.007  1.00  0.00     0.044 A 
ATOM     19  C   UNL     1       1.283  -1.581  -0.836  1.00  0.00     0.120 A 
ATOM     20  C   UNL     1      -0.021  -1.775  -1.268  1.00  0.00     0.046 A 
ATOM     21  C   UNL     1       2.376  -1.823  -1.676  1.00  0.00     0.072 A 
ATOM     22  C   UNL     1      -0.229  -2.119  -2.587  1.00  0.00     0.006 A 
ATOM     23  C   UNL     1       0.867  -2.321  -3.437  1.00  0.00     0.026 A 
BRANCH  19  24
ATOM     24  O   UNL     1       1.505  -1.151   0.443  1.00  0.00    -0.497 OA
ATOM     25  C   UNL     1       1.324   0.268   0.499  1.00  0.00     0.278 C 
ENDBRANCH  19  24
ENDBRANCH  15  18
ENDBRANCH   8  14
ENDBRANCH   4   7
ENDBRANCH   2   3
ENDBRANCH   1   2
BRANCH   1  26
ATOM     26  C   UNL     1      -2.266  -1.227  -8.927  1.00  0.00     0.118 C 
BRANCH  26  27
ATOM     27  N   UNL     1      -3.083  -2.328  -9.420  1.00  0.00    -0.352 N 
ATOM     28  C   UNL     1      -4.415  -2.370  -9.771  1.00  0.00     0.251 C 
ATOM     29  H   UNL     1      -2.605  -3.183  -9.518  1.00  0.00     0.163 HD
ATOM     30  O   UNL     1      -4.935  -3.445 -10.028  1.00  0.00    -0.269 OA
BRANCH  28  31
ATOM     31  C   UNL     1      -5.219  -1.125  -9.804  1.00  0.00     0.039 A 
ATOM     32  C   UNL     1      -6.531  -1.155  -9.323  1.00  0.00     0.014 A 
ATOM     33  C   UNL     1      -4.688   0.067 -10.296  1.00  0.00     0.014 A 
ATOM     34  C   UNL     1      -7.273   0.029  -9.257  1.00  0.00     0.010 A 
ATOM     35  C   UNL     1      -5.379   1.259 -10.118  1.00  0.00     0.010 A 
ATOM     36  C   UNL     1      -6.685   1.255  -9.610  1.00  0.00    -0.014 A 
BRANCH  36  37
ATOM     37  C   UNL     1      -7.411   2.543  -9.463  1.00  0.00     0.031 A 
ATOM     38  C   UNL     1      -7.631   3.427 -10.665  1.00  0.00     0.074 A 
ATOM     39  C   UNL     1      -7.779   2.970  -8.238  1.00  0.00     0.049 A 
ATOM     40  N   UNL     1      -8.155   4.623 -10.724  1.00  0.00    -0.248 NA
ATOM     41  C   UNL     1      -7.166   2.914 -11.965  1.00  0.00     0.031 C 
ATOM     42  C   UNL     1      -7.541   2.252  -6.983  1.00  0.00     0.029 A 
ATOM     43  N   UNL     1      -8.404   4.126  -7.842  1.00  0.00    -0.354 N 
ATOM     44  C   UNL     1      -8.043   5.022 -12.051  1.00  0.00     0.074 A 
ATOM     45  C   UNL     1      -7.360   3.960 -12.755  1.00  0.00     0.031 C 
ATOM     46  C   UNL     1      -8.019   2.978  -5.961  1.00  0.00     0.029 A 
ATOM     47  C   UNL     1      -8.566   4.228  -6.479  1.00  0.00     0.049 A 
ATOM     48  H   UNL     1      -8.707   4.818  -8.473  1.00  0.00     0.167 HD
ATOM     49  C   UNL     1      -8.498   6.152 -12.642  1.00  0.00     0.034 A 
ATOM     50  C   UNL     1      -9.089   5.219  -5.730  1.00  0.00     0.034 A 
ATOM     51  C   UNL     1      -9.227   7.180 -11.950  1.00  0.00     0.049 A 
ATOM     52  C   UNL     1      -9.640   6.439  -6.417  1.00  0.00     0.074 A 
ATOM     53  C   UNL     1      -9.815   8.317 -12.474  1.00  0.00     0.029 A 
ATOM     54  N   UNL     1      -9.465   7.197 -10.585  1.00  0.00    -0.354 N 
ATOM     55  N   UNL     1      -9.667   6.724  -7.696  1.00  0.00    -0.248 NA
ATOM     56  C   UNL     1     -10.267   7.458  -5.562  1.00  0.00     0.031 C 
ATOM     57  C   UNL     1     -10.391   9.034 -11.420  1.00  0.00     0.029 A 
ATOM     58  C   UNL     1     -10.186   8.329 -10.245  1.00  0.00     0.049 A 
ATOM     59  H   UNL     1      -9.165   6.507  -9.951  1.00  0.00     0.167 HD
ATOM     60  C   UNL     1     -10.343   7.934  -7.803  1.00  0.00     0.074 A 
ATOM     61  C   UNL     1     -10.728   8.317  -6.460  1.00  0.00     0.031 C 
ATOM     62  C   UNL     1     -10.608   8.669  -8.911  1.00  0.00     0.034 A 
BRANCH  49  63
ATOM     63  C   UNL     1      -8.275   6.304 -14.124  1.00  0.00     0.023 A 
ATOM     64  C   UNL     1      -8.986   5.482 -15.023  1.00  0.00     0.012 A 
ATOM     65  C   UNL     1      -7.405   7.289 -14.632  1.00  0.00     0.148 A 
ATOM     66  C   UNL     1      -8.804   5.607 -16.400  1.00  0.00     0.002 A 
ATOM     67  C   UNL     1      -7.266   7.441 -16.007  1.00  0.00     0.091 A 
ATOM     68  F   UNL     1      -6.722   8.048 -13.764  1.00  0.00    -0.205 F 
ATOM     69  C   UNL     1      -7.953   6.593 -16.891  1.00  0.00     0.022 A 
BRANCH  67  70
ATOM     70  S   UNL     1      -6.258   8.733 -16.742  1.00  0.00     0.127 S 
ATOM     71  O   UNL     1      -5.142   7.962 -17.288  1.00  0.00    -0.237 OA
ATOM     72  O   UNL     1      -7.162   9.293 -17.748  1.00  0.00    -0.237 OA
ATOM     73  O   UNL     1      -5.918   9.643 -15.658  1.00  0.00    -0.744 OA
ENDBRANCH  67  70
ENDBRANCH  49  63
BRANCH  50  74
ATOM     74  C   UNL     1      -9.176   5.065  -4.250  1.00  0.00     0.023 A 
ATOM     75  C   UNL     1     -10.436   4.886  -3.646  1.00  0.00     0.012 A 
ATOM     76  C   UNL     1      -8.022   5.062  -3.442  1.00  0.00     0.148 A 
ATOM     77  C   UNL     1     -10.549   4.740  -2.263  1.00  0.00     0.002 A 
ATOM     78  C   UNL     1      -8.137   4.859  -2.072  1.00  0.00     0.091 A 
ATOM     79  F   UNL     1      -6.833   5.243  -4.034  1.00  0.00    -0.205 F 
ATOM     80  C   UNL     1      -9.400   4.716  -1.477  1.00  0.00     0.022 A 
BRANCH  78  81
ATOM     81  S   UNL     1      -6.704   4.675  -1.003  1.00  0.00     0.127 S 
ATOM     82  O   UNL     1      -6.741   5.916  -0.235  1.00  0.00    -0.237 OA
ATOM     83  O   UNL     1      -7.044   3.470  -0.246  1.00  0.00    -0.237 OA
ATOM     84  O   UNL     1      -5.564   4.516  -1.897  1.00  0.00    -0.744 OA
ENDBRANCH  78  81
ENDBRANCH  50  74
BRANCH  62  85
ATOM     85  C   UNL     1     -11.384   9.948  -8.733  1.00  0.00     0.023 A 
ATOM     86  C   UNL     1     -10.766  11.068  -8.144  1.00  0.00     0.012 A 
ATOM     87  C   UNL     1     -12.701  10.060  -9.223  1.00  0.00     0.148 A 
ATOM     88  C   UNL     1     -11.458  12.272  -8.015  1.00  0.00     0.002 A 
ATOM     89  C   UNL     1     -13.366  11.277  -9.137  1.00  0.00     0.091 A 
ATOM     90  F   UNL     1     -13.277   8.977  -9.764  1.00  0.00    -0.205 F 
ATOM     91  C   UNL     1     -12.751  12.380  -8.522  1.00  0.00     0.022 A 
BRANCH  89  92
ATOM     92  S   UNL     1     -14.994  11.537  -9.849  1.00  0.00     0.127 S 
ATOM     93  O   UNL     1     -15.833  11.614  -8.655  1.00  0.00    -0.237 OA
ATOM     94  O   UNL     1     -14.824  12.806 -10.558  1.00  0.00    -0.237 OA
ATOM     95  O   UNL     1     -15.241  10.391 -10.714  1.00  0.00    -0.744 OA
ENDBRANCH  89  92
ENDBRANCH  62  85
ENDBRANCH  36  37
ENDBRANCH  28  31
ENDBRANCH  26  27
ENDBRANCH   1  26
TORSDOF 16
