REMARK SMILES [NH3+][C@@H](C[S@@](=O)c1cccc(F)c1)C(=O)NCCCNC(=O)c1ccc(-c2c3nc(c(-c4cccc(S(=O)(=O)[O-])c4F)c4ccc([nH]4)c(-c4cccc(S(=O)(=O)[O-])c4F)c4nc(c(-c5cccc(S(=O)(=O)[O-])c5F)c5ccc2[nH]5)C=C4)C=C3)cc1
REMARK SMILES IDX 17 1 16 2 15 3 13 4 14 5 2 7 1 8 3 12 4 13 5 14 6 15 7 16
REMARK SMILES IDX 12 17 8 18 10 19 9 20 11 21 18 22 19 23 20 24 21 26 22 27
REMARK SMILES IDX 23 28 84 29 24 30 83 31 25 32 26 33 27 34 77 35 28 36 82 37
REMARK SMILES IDX 76 38 78 39 29 40 81 41 75 42 74 43 30 45 62 46 42 47 61 48
REMARK SMILES IDX 43 49 46 50 60 51 79 52 44 53 45 54 59 56 80 57 47 58 31 59
REMARK SMILES IDX 32 60 40 61 33 62 35 63 41 64 34 65 36 66 37 67 38 68 39 69
REMARK SMILES IDX 63 70 64 71 72 72 65 73 67 74 73 75 66 76 68 77 69 78 70 79
REMARK SMILES IDX 71 80 48 81 49 82 57 83 50 84 52 85 58 86 51 87 53 88 54 89
REMARK SMILES IDX 55 90 56 91
REMARK H PARENT 15 6 1 9 1 10 1 11 19 25 78 44 46 55
REMARK Flexibility Score: inf
ROOT
ATOM      1  C   UNL     1      -2.015  -2.084   1.302  1.00  0.00     0.042 C 
ENDROOT
BRANCH   1   2
ATOM      2  C   UNL     1      -1.336  -2.090  -0.048  1.00  0.00     0.118 C 
BRANCH   2   3
ATOM      3  N   UNL     1      -1.791  -1.108  -1.001  1.00  0.00    -0.351 N 
ATOM      4  C   UNL     1      -1.048  -0.314  -1.828  1.00  0.00     0.279 C 
ATOM      5  O   UNL     1      -1.628   0.188  -2.797  1.00  0.00    -0.268 OA
ATOM      6  H   UNL     1      -2.767  -0.996  -1.065  1.00  0.00     0.163 HD
BRANCH   4   7
ATOM      7  C   UNL     1       0.449  -0.014  -1.574  1.00  0.00     0.283 C 
BRANCH   7   8
ATOM      8  N   UNL     1       0.669   0.538  -0.221  1.00  0.00    -0.347 N 
ATOM      9  H   UNL     1       1.663   0.724  -0.087  1.00  0.00     0.345 HD
ATOM     10  H   UNL     1       0.352  -0.135   0.476  1.00  0.00     0.345 HD
ATOM     11  H   UNL     1       0.144   1.407  -0.119  1.00  0.00     0.345 HD
ENDBRANCH   7   8
BRANCH   7  12
ATOM     12  C   UNL     1       1.497  -0.987  -2.137  1.00  0.00     0.185 C 
BRANCH  12  13
ATOM     13  S   UNL     1       1.384  -2.757  -1.828  1.00  0.00     0.060 S 
ATOM     14  O   UNL     1       2.460  -3.436  -2.621  1.00  0.00    -0.254 OA
BRANCH  13  15
ATOM     15  C   UNL     1       1.873  -2.998  -0.100  1.00  0.00     0.042 A 
ATOM     16  C   UNL     1       2.484  -2.026   0.699  1.00  0.00     0.018 A 
ATOM     17  C   UNL     1       1.498  -4.214   0.495  1.00  0.00     0.057 A 
ATOM     18  C   UNL     1       2.625  -2.224   2.079  1.00  0.00     0.004 A 
ATOM     19  C   UNL     1       1.665  -4.410   1.862  1.00  0.00     0.124 A 
ATOM     20  C   UNL     1       2.204  -3.415   2.665  1.00  0.00     0.039 A 
ATOM     21  F   UNL     1       1.268  -5.564   2.413  1.00  0.00    -0.207 F 
ENDBRANCH  13  15
ENDBRANCH  12  13
ENDBRANCH   7  12
ENDBRANCH   4   7
ENDBRANCH   2   3
ENDBRANCH   1   2
BRANCH   1  22
ATOM     22  C   UNL     1      -3.493  -2.418   1.267  1.00  0.00     0.118 C 
BRANCH  22  23
ATOM     23  N   UNL     1      -3.783  -3.724   0.687  1.00  0.00    -0.352 N 
ATOM     24  C   UNL     1      -4.203  -4.908   1.253  1.00  0.00     0.251 C 
ATOM     25  H   UNL     1      -3.654  -3.768  -0.288  1.00  0.00     0.163 HD
ATOM     26  O   UNL     1      -4.247  -5.914   0.556  1.00  0.00    -0.269 OA
BRANCH  24  27
ATOM     27  C   UNL     1      -4.569  -4.984   2.687  1.00  0.00     0.039 A 
ATOM     28  C   UNL     1      -4.240  -6.134   3.413  1.00  0.00     0.014 A 
ATOM     29  C   UNL     1      -5.246  -3.945   3.321  1.00  0.00     0.014 A 
ATOM     30  C   UNL     1      -4.507  -6.193   4.785  1.00  0.00     0.010 A 
ATOM     31  C   UNL     1      -5.393  -3.950   4.702  1.00  0.00     0.010 A 
ATOM     32  C   UNL     1      -5.038  -5.079   5.453  1.00  0.00    -0.014 A 
BRANCH  32  33
ATOM     33  C   UNL     1      -5.242  -5.058   6.926  1.00  0.00     0.031 A 
ATOM     34  C   UNL     1      -6.609  -4.781   7.496  1.00  0.00     0.074 A 
ATOM     35  C   UNL     1      -4.181  -5.173   7.751  1.00  0.00     0.049 A 
ATOM     36  N   UNL     1      -6.961  -4.595   8.742  1.00  0.00    -0.248 NA
ATOM     37  C   UNL     1      -7.723  -4.651   6.539  1.00  0.00     0.031 C 
ATOM     38  C   UNL     1      -2.791  -5.354   7.324  1.00  0.00     0.029 A 
ATOM     39  N   UNL     1      -4.101  -5.127   9.121  1.00  0.00    -0.354 N 
ATOM     40  C   UNL     1      -8.313  -4.276   8.711  1.00  0.00     0.074 A 
ATOM     41  C   UNL     1      -8.713  -4.253   7.323  1.00  0.00     0.031 C 
ATOM     42  C   UNL     1      -2.002  -5.423   8.407  1.00  0.00     0.029 A 
ATOM     43  C   UNL     1      -2.819  -5.254   9.605  1.00  0.00     0.049 A 
ATOM     44  H   UNL     1      -4.887  -5.014   9.703  1.00  0.00     0.167 HD
ATOM     45  C   UNL     1      -9.159  -4.063   9.746  1.00  0.00     0.034 A 
ATOM     46  C   UNL     1      -2.350  -5.235  10.869  1.00  0.00     0.034 A 
ATOM     47  C   UNL     1      -8.779  -4.176  11.127  1.00  0.00     0.049 A 
ATOM     48  C   UNL     1      -3.323  -5.079  12.006  1.00  0.00     0.074 A 
ATOM     49  C   UNL     1      -9.585  -4.087  12.248  1.00  0.00     0.029 A 
ATOM     50  N   UNL     1      -7.490  -4.416  11.576  1.00  0.00    -0.354 N 
ATOM     51  N   UNL     1      -4.624  -4.922  11.959  1.00  0.00    -0.248 NA
ATOM     52  C   UNL     1      -2.774  -5.130  13.369  1.00  0.00     0.031 C 
ATOM     53  C   UNL     1      -8.780  -4.264  13.377  1.00  0.00     0.029 A 
ATOM     54  C   UNL     1      -7.477  -4.479  12.957  1.00  0.00     0.049 A 
ATOM     55  H   UNL     1      -6.701  -4.526  10.997  1.00  0.00     0.167 HD
ATOM     56  C   UNL     1      -5.053  -4.886  13.281  1.00  0.00     0.074 A 
ATOM     57  C   UNL     1      -3.875  -5.056  14.107  1.00  0.00     0.031 C 
ATOM     58  C   UNL     1      -6.307  -4.709  13.765  1.00  0.00     0.034 A 
BRANCH  45  59
ATOM     59  C   UNL     1     -10.603  -3.770   9.433  1.00  0.00     0.023 A 
ATOM     60  C   UNL     1     -11.427  -4.805   8.946  1.00  0.00     0.012 A 
ATOM     61  C   UNL     1     -11.164  -2.505   9.697  1.00  0.00     0.148 A 
ATOM     62  C   UNL     1     -12.781  -4.580   8.700  1.00  0.00     0.002 A 
ATOM     63  C   UNL     1     -12.524  -2.301   9.493  1.00  0.00     0.091 A 
ATOM     64  F   UNL     1     -10.360  -1.528  10.140  1.00  0.00    -0.205 F 
ATOM     65  C   UNL     1     -13.331  -3.333   8.986  1.00  0.00     0.022 A 
BRANCH  63  66
ATOM     66  S   UNL     1     -13.348  -0.760   9.908  1.00  0.00     0.127 S 
ATOM     67  O   UNL     1     -13.674  -0.234   8.583  1.00  0.00    -0.237 OA
ATOM     68  O   UNL     1     -14.500  -1.225  10.680  1.00  0.00    -0.237 OA
ATOM     69  O   UNL     1     -12.382   0.021  10.668  1.00  0.00    -0.744 OA
ENDBRANCH  63  66
ENDBRANCH  45  59
BRANCH  46  70
ATOM     70  C   UNL     1      -0.899  -5.466  11.117  1.00  0.00     0.023 A 
ATOM     71  C   UNL     1      -0.486  -6.695  11.669  1.00  0.00     0.012 A 
ATOM     72  C   UNL     1       0.076  -4.520  10.743  1.00  0.00     0.148 A 
ATOM     73  C   UNL     1       0.868  -6.970  11.860  1.00  0.00     0.002 A 
ATOM     74  C   UNL     1       1.426  -4.824  10.884  1.00  0.00     0.091 A 
ATOM     75  F   UNL     1      -0.337  -3.352  10.231  1.00  0.00    -0.205 F 
ATOM     76  C   UNL     1       1.824  -6.042  11.456  1.00  0.00     0.022 A 
BRANCH  74  77
ATOM     77  S   UNL     1       2.725  -3.752  10.257  1.00  0.00     0.127 S 
ATOM     78  O   UNL     1       3.308  -3.233  11.490  1.00  0.00    -0.237 OA
ATOM     79  O   UNL     1       3.570  -4.695   9.524  1.00  0.00    -0.237 OA
ATOM     80  O   UNL     1       2.053  -2.772   9.412  1.00  0.00    -0.744 OA
ENDBRANCH  74  77
ENDBRANCH  46  70
BRANCH  58  81
ATOM     81  C   UNL     1      -6.498  -4.707  15.258  1.00  0.00     0.023 A 
ATOM     82  C   UNL     1      -6.110  -3.579  16.005  1.00  0.00     0.012 A 
ATOM     83  C   UNL     1      -7.183  -5.760  15.896  1.00  0.00     0.148 A 
ATOM     84  C   UNL     1      -6.388  -3.503  17.369  1.00  0.00     0.002 A 
ATOM     85  C   UNL     1      -7.498  -5.658  17.245  1.00  0.00     0.091 A 
ATOM     86  F   UNL     1      -7.529  -6.832  15.167  1.00  0.00    -0.205 F 
ATOM     87  C   UNL     1      -7.094  -4.534  17.985  1.00  0.00     0.022 A 
BRANCH  85  88
ATOM     88  S   UNL     1      -8.494  -6.886  18.099  1.00  0.00     0.127 S 
ATOM     89  O   UNL     1      -7.500  -7.535  18.951  1.00  0.00    -0.237 OA
ATOM     90  O   UNL     1      -9.464  -6.057  18.814  1.00  0.00    -0.237 OA
ATOM     91  O   UNL     1      -9.070  -7.729  17.059  1.00  0.00    -0.744 OA
ENDBRANCH  85  88
ENDBRANCH  58  81
ENDBRANCH  32  33
ENDBRANCH  24  27
ENDBRANCH  22  23
ENDBRANCH   1  22
TORSDOF 17
