REMARK SMILES Cc1cc(S(F)(F)(F)(F)F)cc2c1O[C@H](C(F)(F)F)C(C(=O)NCCCNC(=O)c1ccc(-c3c4nc(c(-c5cccc(S(=O)(=O)[O-])c5F)c5ccc([nH]5)c(-c5cccc(S(=O)(=O)[O-])c5F)c5nc(c(-c6cccc(S(=O)(=O)[O-])c6F)c6ccc3[nH]6)C=C5)C=C4)cc1)=C2
REMARK SMILES IDX 26 1 25 2 24 3 23 4 21 5 22 6 20 8 1 9 2 10 3 11 13 12 4 13
REMARK SMILES IDX 12 14 14 15 11 16 93 17 15 18 5 19 6 20 7 21 8 22 9 23 10 24
REMARK SMILES IDX 16 25 17 26 18 27 19 28 27 29 28 30 29 32 30 33 31 34 92 35
REMARK SMILES IDX 32 36 91 37 33 38 34 39 35 40 85 41 36 42 90 43 84 44 86 45
REMARK SMILES IDX 37 46 89 47 83 48 82 49 38 51 70 52 50 53 69 54 51 55 54 56
REMARK SMILES IDX 68 57 87 58 52 59 53 60 67 62 88 63 55 64 39 65 40 66 48 67
REMARK SMILES IDX 41 68 43 69 49 70 42 71 44 72 45 73 46 74 47 75 71 76 72 77
REMARK SMILES IDX 80 78 73 79 75 80 81 81 74 82 76 83 77 84 78 85 79 86 56 87
REMARK SMILES IDX 57 88 65 89 58 90 60 91 66 92 59 93 61 94 62 95 63 96 64 97
REMARK H PARENT 23 7 27 31 86 50 54 61
REMARK Flexibility Score: inf
ROOT
ATOM      1  C   UNL     1      -3.061  -2.658   7.239  1.00  0.00     0.118 C 
ENDROOT
BRANCH   1   2
ATOM      2  C   UNL     1      -2.191  -2.344   6.032  1.00  0.00     0.042 C 
BRANCH   2   3
ATOM      3  C   UNL     1      -2.935  -1.398   5.104  1.00  0.00     0.118 C 
BRANCH   3   4
ATOM      4  N   UNL     1      -3.248  -0.153   5.820  1.00  0.00    -0.352 N 
ATOM      5  C   UNL     1      -2.727   1.130   5.325  1.00  0.00     0.251 C 
ATOM      6  O   UNL     1      -2.997   2.206   5.944  1.00  0.00    -0.270 OA
ATOM      7  H   UNL     1      -3.806  -0.178   6.630  1.00  0.00     0.163 HD
BRANCH   5   8
ATOM      8  C   UNL     1      -1.865   1.168   4.074  1.00  0.00     0.067 C 
ATOM      9  C   UNL     1       1.011  -0.006  -0.099  1.00  0.00     0.048 C 
ATOM     10  C   UNL     1       0.504   1.231   0.625  1.00  0.00    -0.007 A 
ATOM     11  C   UNL     1       0.984   2.442   0.177  1.00  0.00     0.031 A 
ATOM     12  C   UNL     1      -0.287   1.190   1.772  1.00  0.00     0.130 A 
ATOM     13  C   UNL     1       0.692   3.617   0.858  1.00  0.00     0.108 A 
ATOM     14  C   UNL     1      -0.587   2.388   2.459  1.00  0.00     0.019 A 
ATOM     15  O   UNL     1      -0.828  -0.068   2.300  1.00  0.00    -0.475 OA
ATOM     16  C   UNL     1      -0.087   3.601   1.980  1.00  0.00     0.036 A 
ATOM     17  C   UNL     1      -1.419   2.317   3.660  1.00  0.00     0.025 C 
ATOM     18  C   UNL     1      -1.586  -0.030   3.416  1.00  0.00     0.314 C 
BRANCH  13  19
ATOM     19  S   UNL     1       1.351   5.189   0.250  1.00  0.00     0.310 S 
ATOM     20  F   UNL     1       2.518   5.300   1.318  1.00  0.00    -0.094 F 
ATOM     21  F   UNL     1       0.407   5.869   1.312  1.00  0.00    -0.094 F 
ATOM     22  F   UNL     1       1.794   6.579  -0.288  1.00  0.00    -0.094 F 
ATOM     23  F   UNL     1       2.395   4.494  -0.711  1.00  0.00    -0.094 F 
ATOM     24  F   UNL     1       0.995   3.776   0.862  1.00  0.00    -0.094 F 
ENDBRANCH  13  19
BRANCH  18  25
ATOM     25  C   UNL     1      -2.954  -0.437   2.892  1.00  0.00     0.429 C 
ATOM     26  F   UNL     1      -2.864  -1.621   2.292  1.00  0.00    -0.167 F 
ATOM     27  F   UNL     1      -3.811  -0.517   3.905  1.00  0.00    -0.167 F 
ATOM     28  F   UNL     1      -3.382   0.471   2.020  1.00  0.00    -0.167 F 
ENDBRANCH  18  25
ENDBRANCH   5   8
ENDBRANCH   3   4
ENDBRANCH   2   3
ENDBRANCH   1   2
BRANCH   1  29
ATOM     29  N   UNL     1      -4.309  -3.292   6.791  1.00  0.00    -0.352 N 
ATOM     30  C   UNL     1      -4.654  -4.643   7.255  1.00  0.00     0.251 C 
ATOM     31  H   UNL     1      -4.914  -2.812   6.180  1.00  0.00     0.163 HD
ATOM     32  O   UNL     1      -5.734  -5.192   6.869  1.00  0.00    -0.269 OA
BRANCH  30  33
ATOM     33  C   UNL     1      -3.721  -5.385   8.198  1.00  0.00     0.039 A 
ATOM     34  C   UNL     1      -3.306  -6.694   7.980  1.00  0.00     0.014 A 
ATOM     35  C   UNL     1      -3.217  -4.732   9.224  1.00  0.00     0.014 A 
ATOM     36  C   UNL     1      -2.053  -7.057   8.522  1.00  0.00     0.010 A 
ATOM     37  C   UNL     1      -2.293  -5.344  10.078  1.00  0.00     0.010 A 
ATOM     38  C   UNL     1      -1.717  -6.479   9.745  1.00  0.00    -0.014 A 
BRANCH  38  39
ATOM     39  C   UNL     1      -0.711  -7.143  10.670  1.00  0.00     0.031 A 
ATOM     40  C   UNL     1      -1.097  -7.526  11.956  1.00  0.00     0.074 A 
ATOM     41  C   UNL     1       0.541  -7.389  10.133  1.00  0.00     0.049 A 
ATOM     42  N   UNL     1      -0.378  -8.201  12.854  1.00  0.00    -0.248 NA
ATOM     43  C   UNL     1      -2.414  -7.236  12.542  1.00  0.00     0.031 C 
ATOM     44  C   UNL     1       0.935  -7.013   8.834  1.00  0.00     0.029 A 
ATOM     45  N   UNL     1       1.608  -8.022  10.730  1.00  0.00    -0.354 N 
ATOM     46  C   UNL     1      -1.093  -8.399  13.963  1.00  0.00     0.074 A 
ATOM     47  C   UNL     1      -2.411  -7.775  13.781  1.00  0.00     0.031 C 
ATOM     48  C   UNL     1       2.225  -7.403   8.655  1.00  0.00     0.029 A 
ATOM     49  C   UNL     1       2.658  -8.030   9.838  1.00  0.00     0.049 A 
ATOM     50  H   UNL     1       1.619  -8.403  11.638  1.00  0.00     0.167 HD
ATOM     51  C   UNL     1      -0.699  -9.075  15.119  1.00  0.00     0.034 A 
ATOM     52  C   UNL     1       3.929  -8.549  10.029  1.00  0.00     0.034 A 
ATOM     53  C   UNL     1       0.558  -9.632  15.293  1.00  0.00     0.049 A 
ATOM     54  C   UNL     1       4.343  -9.175  11.207  1.00  0.00     0.074 A 
ATOM     55  C   UNL     1       0.969 -10.324  16.448  1.00  0.00     0.029 A 
ATOM     56  N   UNL     1       1.616  -9.618  14.410  1.00  0.00    -0.354 N 
ATOM     57  N   UNL     1       3.615  -9.406  12.300  1.00  0.00    -0.248 NA
ATOM     58  C   UNL     1       5.696  -9.698  11.432  1.00  0.00     0.031 C 
ATOM     59  C   UNL     1       2.259 -10.714  16.269  1.00  0.00     0.029 A 
ATOM     60  C   UNL     1       2.676 -10.271  14.999  1.00  0.00     0.049 A 
ATOM     61  H   UNL     1       1.614  -9.212  13.514  1.00  0.00     0.167 HD
ATOM     62  C   UNL     1       4.348 -10.045  13.214  1.00  0.00     0.074 A 
ATOM     63  C   UNL     1       5.700 -10.236  12.671  1.00  0.00     0.031 C 
ATOM     64  C   UNL     1       3.943 -10.480  14.477  1.00  0.00     0.034 A 
BRANCH  51  65
ATOM     65  C   UNL     1      -1.706  -9.209  16.250  1.00  0.00     0.023 A 
ATOM     66  C   UNL     1      -2.915  -9.867  16.053  1.00  0.00     0.012 A 
ATOM     67  C   UNL     1      -1.451  -8.711  17.441  1.00  0.00     0.148 A 
ATOM     68  C   UNL     1      -3.542 -10.394  17.204  1.00  0.00     0.002 A 
ATOM     69  C   UNL     1      -2.380  -8.832  18.481  1.00  0.00     0.091 A 
ATOM     70  F   UNL     1      -0.298  -8.086  17.659  1.00  0.00    -0.205 F 
ATOM     71  C   UNL     1      -3.404  -9.652  18.377  1.00  0.00     0.022 A 
BRANCH  69  72
ATOM     72  S   UNL     1      -2.170  -7.849  19.986  1.00  0.00     0.127 S 
ATOM     73  O   UNL     1      -3.393  -6.949  20.182  1.00  0.00    -0.237 OA
ATOM     74  O   UNL     1      -2.026  -8.784  21.189  1.00  0.00    -0.237 OA
ATOM     75  O   UNL     1      -0.767  -6.882  19.844  1.00  0.00    -0.744 OA
ENDBRANCH  69  72
ENDBRANCH  51  65
BRANCH  52  76
ATOM     76  C   UNL     1       4.930  -8.429   8.891  1.00  0.00     0.023 A 
ATOM     77  C   UNL     1       5.497  -9.563   8.320  1.00  0.00     0.012 A 
ATOM     78  C   UNL     1       5.284  -7.251   8.425  1.00  0.00     0.148 A 
ATOM     79  C   UNL     1       5.993  -9.427   7.004  1.00  0.00     0.002 A 
ATOM     80  C   UNL     1       6.216  -7.142   7.387  1.00  0.00     0.091 A 
ATOM     81  F   UNL     1       4.750  -6.150   8.946  1.00  0.00    -0.205 F 
ATOM     82  C   UNL     1       6.568  -8.198   6.685  1.00  0.00     0.022 A 
BRANCH  80  83
ATOM     83  S   UNL     1       6.946  -5.530   7.005  1.00  0.00     0.127 S 
ATOM     84  O   UNL     1       8.465  -5.605   7.176  1.00  0.00    -0.237 OA
ATOM     85  O   UNL     1       6.613  -5.149   5.561  1.00  0.00    -0.237 OA
ATOM     86  O   UNL     1       6.310  -4.351   8.067  1.00  0.00    -0.744 OA
ENDBRANCH  80  83
ENDBRANCH  52  76
BRANCH  64  87
ATOM     87  C   UNL     1       4.953 -11.227  15.333  1.00  0.00     0.023 A 
ATOM     88  C   UNL     1       6.130 -10.646  15.794  1.00  0.00     0.012 A 
ATOM     89  C   UNL     1       4.673 -12.456  15.710  1.00  0.00     0.148 A 
ATOM     90  C   UNL     1       6.669 -11.175  16.988  1.00  0.00     0.002 A 
ATOM     91  C   UNL     1       5.543 -13.163  16.548  1.00  0.00     0.091 A 
ATOM     92  F   UNL     1       3.550 -13.032  15.292  1.00  0.00    -0.205 F 
ATOM     93  C   UNL     1       6.520 -12.547  17.178  1.00  0.00     0.022 A 
BRANCH  91  94
ATOM     94  S   UNL     1       5.321 -14.947  16.766  1.00  0.00     0.127 S 
ATOM     95  O   UNL     1       6.584 -15.678  16.305  1.00  0.00    -0.237 OA
ATOM     96  O   UNL     1       5.065 -15.252  18.244  1.00  0.00    -0.237 OA
ATOM     97  O   UNL     1       3.986 -15.473  15.836  1.00  0.00    -0.744 OA
ENDBRANCH  91  94
ENDBRANCH  64  87
ENDBRANCH  38  39
ENDBRANCH  30  33
ENDBRANCH   1  29
TORSDOF 15
