REMARK SMILES O=C(NCCCNC(=O)c1cc(-c2ccccc2)nc(Nc2nc3ccccc3s2)n1)c1ccc(-c2c3nc(c(-c4cccc(S(=O)(=O)[O-])c4F)c4ccc([nH]4)c(-c4cccc(S(=O)(=O)[O-])c4F)c4nc(c(-c5cccc(S(=O)(=O)[O-])c5F)c5ccc2[nH]5)C=C4)C=C3)cc1
REMARK SMILES IDX 4 1 3 2 1 3 2 4 32 6 33 7 94 8 34 9 93 10 35 11 36 12 37 13
REMARK SMILES IDX 87 14 38 15 92 16 86 17 88 18 39 19 91 20 85 21 84 22 40 24
REMARK SMILES IDX 72 25 52 26 71 27 53 28 56 29 70 30 89 31 54 32 55 33 69 35
REMARK SMILES IDX 90 36 57 37 41 38 42 39 50 40 43 41 45 42 51 43 44 44 46 45
REMARK SMILES IDX 47 46 48 47 49 48 73 49 74 50 82 51 75 52 77 53 83 54 76 55
REMARK SMILES IDX 78 56 79 57 80 58 81 59 58 60 59 61 67 62 60 63 62 64 68 65
REMARK SMILES IDX 61 66 63 67 64 68 65 69 66 70 5 71 6 72 7 73 8 74 9 76 10 77
REMARK SMILES IDX 11 78 31 79 12 80 20 81 19 82 13 83 14 84 18 85 15 86 17 87
REMARK SMILES IDX 16 88 21 89 22 91 23 92 30 93 24 94 29 95 25 96 28 97 26 98
REMARK SMILES IDX 27 99
REMARK H PARENT 3 5 88 23 56 34 7 75 21 90
REMARK Flexibility Score: inf
ROOT
ATOM      1  C   UNL     1       4.622  -0.272   1.391  1.00  0.00     0.118 C 
ENDROOT
BRANCH   1   2
ATOM      2  N   UNL     1       3.183  -0.347   1.181  1.00  0.00    -0.352 N 
ATOM      3  O   UNL     1       1.216  -0.025   0.145  1.00  0.00    -0.269 OA
ATOM      4  C   UNL     1       2.434  -0.092   0.054  1.00  0.00     0.251 C 
ATOM      5  H   UNL     1       2.663  -0.624   1.970  1.00  0.00     0.163 HD
BRANCH   4   6
ATOM      6  C   UNL     1       3.107   0.125  -1.246  1.00  0.00     0.039 A 
ATOM      7  C   UNL     1       4.197  -0.658  -1.624  1.00  0.00     0.014 A 
ATOM      8  C   UNL     1       2.631   1.119  -2.106  1.00  0.00     0.014 A 
ATOM      9  C   UNL     1       4.921  -0.335  -2.763  1.00  0.00     0.010 A 
ATOM     10  C   UNL     1       3.294   1.368  -3.312  1.00  0.00     0.010 A 
ATOM     11  C   UNL     1       4.467   0.668  -3.633  1.00  0.00    -0.014 A 
BRANCH  11  12
ATOM     12  C   UNL     1       5.189   0.896  -4.910  1.00  0.00     0.031 A 
ATOM     13  C   UNL     1       5.828   2.219  -5.226  1.00  0.00     0.074 A 
ATOM     14  C   UNL     1       5.257  -0.118  -5.795  1.00  0.00     0.049 A 
ATOM     15  N   UNL     1       6.503   2.569  -6.292  1.00  0.00    -0.248 NA
ATOM     16  C   UNL     1       5.686   3.292  -4.230  1.00  0.00     0.031 C 
ATOM     17  C   UNL     1       4.626  -1.429  -5.619  1.00  0.00     0.029 A 
ATOM     18  N   UNL     1       5.874  -0.209  -7.016  1.00  0.00    -0.354 N 
ATOM     19  C   UNL     1       6.826   3.909  -6.119  1.00  0.00     0.074 A 
ATOM     20  C   UNL     1       6.269   4.313  -4.845  1.00  0.00     0.031 C 
ATOM     21  C   UNL     1       4.904  -2.198  -6.680  1.00  0.00     0.029 A 
ATOM     22  C   UNL     1       5.679  -1.419  -7.637  1.00  0.00     0.049 A 
ATOM     23  H   UNL     1       6.404   0.521  -7.409  1.00  0.00     0.167 HD
ATOM     24  C   UNL     1       7.535   4.721  -6.940  1.00  0.00     0.034 A 
ATOM     25  C   UNL     1       6.056  -1.853  -8.854  1.00  0.00     0.034 A 
ATOM     26  C   UNL     1       8.116   4.299  -8.187  1.00  0.00     0.049 A 
ATOM     27  C   UNL     1       6.867  -0.942  -9.727  1.00  0.00     0.074 A 
ATOM     28  C   UNL     1       8.920   5.024  -9.050  1.00  0.00     0.029 A 
ATOM     29  N   UNL     1       7.948   3.047  -8.758  1.00  0.00    -0.354 N 
ATOM     30  N   UNL     1       7.286   0.275  -9.481  1.00  0.00    -0.248 NA
ATOM     31  C   UNL     1       7.284  -1.472 -11.032  1.00  0.00     0.031 C 
ATOM     32  C   UNL     1       9.216   4.218 -10.155  1.00  0.00     0.029 A 
ATOM     33  C   UNL     1       8.617   2.982  -9.969  1.00  0.00     0.049 A 
ATOM     34  H   UNL     1       7.428   2.311  -8.361  1.00  0.00     0.167 HD
ATOM     35  C   UNL     1       8.030   0.653 -10.590  1.00  0.00     0.074 A 
ATOM     36  C   UNL     1       8.030  -0.478 -11.496  1.00  0.00     0.031 C 
ATOM     37  C   UNL     1       8.643   1.836 -10.843  1.00  0.00     0.034 A 
BRANCH  24  38
ATOM     38  C   UNL     1       7.751   6.148  -6.502  1.00  0.00     0.023 A 
ATOM     39  C   UNL     1       8.650   6.429  -5.453  1.00  0.00     0.012 A 
ATOM     40  C   UNL     1       7.115   7.214  -7.169  1.00  0.00     0.148 A 
ATOM     41  C   UNL     1       8.888   7.744  -5.053  1.00  0.00     0.002 A 
ATOM     42  C   UNL     1       7.388   8.525  -6.792  1.00  0.00     0.091 A 
ATOM     43  F   UNL     1       6.246   6.930  -8.150  1.00  0.00    -0.205 F 
ATOM     44  C   UNL     1       8.265   8.791  -5.728  1.00  0.00     0.022 A 
BRANCH  42  45
ATOM     45  S   UNL     1       6.693   9.942  -7.651  1.00  0.00     0.127 S 
ATOM     46  O   UNL     1       5.678  10.394  -6.702  1.00  0.00    -0.237 OA
ATOM     47  O   UNL     1       7.850  10.830  -7.773  1.00  0.00    -0.237 OA
ATOM     48  O   UNL     1       6.188   9.431  -8.918  1.00  0.00    -0.744 OA
ENDBRANCH  42  45
ENDBRANCH  24  38
BRANCH  25  49
ATOM     49  C   UNL     1       5.686  -3.228  -9.286  1.00  0.00     0.023 A 
ATOM     50  C   UNL     1       6.680  -4.219  -9.387  1.00  0.00     0.012 A 
ATOM     51  C   UNL     1       4.340  -3.575  -9.520  1.00  0.00     0.148 A 
ATOM     52  C   UNL     1       6.342  -5.528  -9.732  1.00  0.00     0.002 A 
ATOM     53  C   UNL     1       4.004  -4.893  -9.802  1.00  0.00     0.091 A 
ATOM     54  F   UNL     1       3.411  -2.613  -9.430  1.00  0.00    -0.205 F 
ATOM     55  C   UNL     1       5.005  -5.868  -9.924  1.00  0.00     0.022 A 
BRANCH  53  56
ATOM     56  S   UNL     1       2.298  -5.444  -9.911  1.00  0.00     0.127 S 
ATOM     57  O   UNL     1       2.149  -5.674 -11.345  1.00  0.00    -0.237 OA
ATOM     58  O   UNL     1       2.317  -6.656  -9.090  1.00  0.00    -0.237 OA
ATOM     59  O   UNL     1       1.500  -4.360  -9.354  1.00  0.00    -0.744 OA
ENDBRANCH  53  56
ENDBRANCH  25  49
BRANCH  37  60
ATOM     60  C   UNL     1       9.381   1.966 -12.148  1.00  0.00     0.023 A 
ATOM     61  C   UNL     1       8.657   2.090 -13.350  1.00  0.00     0.012 A 
ATOM     62  C   UNL     1      10.788   2.030 -12.177  1.00  0.00     0.148 A 
ATOM     63  C   UNL     1       9.322   2.246 -14.565  1.00  0.00     0.002 A 
ATOM     64  C   UNL     1      11.443   2.233 -13.385  1.00  0.00     0.091 A 
ATOM     65  F   UNL     1      11.459   1.887 -11.024  1.00  0.00    -0.205 F 
ATOM     66  C   UNL     1      10.713   2.329 -14.581  1.00  0.00     0.022 A 
BRANCH  64  67
ATOM     67  S   UNL     1      13.223   2.444 -13.491  1.00  0.00     0.127 S 
ATOM     68  O   UNL     1      13.640   1.175 -14.084  1.00  0.00    -0.237 OA
ATOM     69  O   UNL     1      13.347   3.602 -14.377  1.00  0.00    -0.237 OA
ATOM     70  O   UNL     1      13.680   2.677 -12.127  1.00  0.00    -0.744 OA
ENDBRANCH  64  67
ENDBRANCH  37  60
ENDBRANCH  11  12
ENDBRANCH   4   6
ENDBRANCH   1   2
BRANCH   1  71
ATOM     71  C   UNL     1       5.022   0.847   2.340  1.00  0.00     0.042 C 
BRANCH  71  72
ATOM     72  C   UNL     1       4.453   0.701   3.740  1.00  0.00     0.118 C 
BRANCH  72  73
ATOM     73  N   UNL     1       4.857  -0.540   4.386  1.00  0.00    -0.351 N 
ATOM     74  C   UNL     1       5.587  -0.734   5.537  1.00  0.00     0.270 C 
ATOM     75  H   UNL     1       4.564  -1.363   3.932  1.00  0.00     0.163 HD
ATOM     76  O   UNL     1       5.904  -1.873   5.868  1.00  0.00    -0.268 OA
BRANCH  74  77
ATOM     77  C   UNL     1       5.945   0.429   6.384  1.00  0.00     0.134 A 
ATOM     78  C   UNL     1       4.978   1.301   6.793  1.00  0.00     0.063 A 
ATOM     79  N   UNL     1       7.237   0.557   6.698  1.00  0.00    -0.207 NA
ATOM     80  C   UNL     1       5.429   2.405   7.477  1.00  0.00     0.077 A 
ATOM     81  C   UNL     1       7.604   1.623   7.414  1.00  0.00     0.230 A 
ATOM     82  N   UNL     1       6.733   2.571   7.810  1.00  0.00    -0.213 NA
BRANCH  80  83
ATOM     83  C   UNL     1       4.493   3.500   7.775  1.00  0.00     0.000 A 
ATOM     84  C   UNL     1       4.785   4.820   7.395  1.00  0.00     0.010 A 
ATOM     85  C   UNL     1       3.223   3.236   8.323  1.00  0.00     0.010 A 
ATOM     86  C   UNL     1       3.826   5.831   7.521  1.00  0.00     0.001 A 
ATOM     87  C   UNL     1       2.266   4.245   8.450  1.00  0.00     0.001 A 
ATOM     88  C   UNL     1       2.566   5.540   8.040  1.00  0.00     0.000 A 
ENDBRANCH  80  83
BRANCH  81  89
ATOM     89  N   UNL     1       8.920   1.727   7.857  1.00  0.00    -0.300 N 
ATOM     90  H   UNL     1       9.157   2.469   8.460  1.00  0.00     0.172 HD
BRANCH  89  91
ATOM     91  C   UNL     1       9.885   0.856   7.495  1.00  0.00     0.190 A 
ATOM     92  N   UNL     1       9.995   0.304   6.308  1.00  0.00    -0.220 NA
ATOM     93  S   UNL     1      11.100   0.358   8.615  1.00  0.00    -0.097 S 
ATOM     94  C   UNL     1      10.927  -0.709   6.316  1.00  0.00     0.084 A 
ATOM     95  C   UNL     1      11.627  -0.860   7.511  1.00  0.00     0.056 A 
ATOM     96  C   UNL     1      11.194  -1.585   5.246  1.00  0.00     0.030 A 
ATOM     97  C   UNL     1      12.582  -1.878   7.679  1.00  0.00     0.021 A 
ATOM     98  C   UNL     1      12.132  -2.607   5.405  1.00  0.00     0.002 A 
ATOM     99  C   UNL     1      12.813  -2.753   6.610  1.00  0.00     0.002 A 
ENDBRANCH  89  91
ENDBRANCH  81  89
ENDBRANCH  74  77
ENDBRANCH  72  73
ENDBRANCH  71  72
ENDBRANCH   1  71
TORSDOF 16
