REMARK SMILES O=C(NCCCNC(=O)c1ccc(-n2cc(CSc3nc4ccccc4c(=O)n3-c3ccc(Cl)cc3)nn2)cc1)c1ccc(-c2c3nc(c(-c4cccc(S(=O)(=O)[O-])c4F)c4ccc([nH]4)c(-c4cccc(S(=O)(=O)[O-])c4F)c4nc(c(-c5cccc(S(=O)(=O)[O-])c5F)c5ccc2[nH]5)C=C4)C=C3)cc1
REMARK SMILES IDX 6 1 5 2 4 3 3 4 1 5 2 6 41 8 42 9 103 10 43 11 102 12 44 13
REMARK SMILES IDX 45 14 46 15 96 16 47 17 101 18 95 19 97 20 48 21 100 22
REMARK SMILES IDX 94 23 93 24 49 26 81 27 61 28 80 29 62 30 65 31 79 32 98 33
REMARK SMILES IDX 63 34 64 35 78 37 99 38 66 39 50 40 51 41 59 42 52 43 54 44
REMARK SMILES IDX 60 45 53 46 55 47 56 48 57 49 58 50 82 51 83 52 91 53 84 54
REMARK SMILES IDX 86 55 92 56 85 57 87 58 88 59 89 60 90 61 67 62 68 63 76 64
REMARK SMILES IDX 69 65 71 66 77 67 70 68 72 69 73 70 74 71 75 72 7 73 8 74
REMARK SMILES IDX 9 76 10 77 11 78 40 79 12 80 39 81 13 82 14 83 15 84 38 85
REMARK SMILES IDX 16 86 37 87 17 88 18 89 19 90 20 91 29 92 21 93 27 94 22 95
REMARK SMILES IDX 26 96 28 97 23 98 25 99 24 100 30 101 31 102 36 103 32 104
REMARK SMILES IDX 35 105 33 106 34 107
REMARK H PARENT 3 7 97 25 65 36 7 75
REMARK Flexibility Score: inf
ROOT
ATOM      1  C   UNL     1       4.406   2.898   2.129  1.00  0.00     0.118 C 
ENDROOT
BRANCH   1   2
ATOM      2  C   UNL     1       4.988   2.055   0.996  1.00  0.00     0.042 C 
BRANCH   2   3
ATOM      3  C   UNL     1       4.688   0.562   1.099  1.00  0.00     0.118 C 
BRANCH   3   4
ATOM      4  N   UNL     1       3.279   0.222   1.142  1.00  0.00    -0.352 N 
ATOM      5  O   UNL     1       1.204  -0.322   0.642  1.00  0.00    -0.269 OA
ATOM      6  C   UNL     1       2.277   0.115   0.217  1.00  0.00     0.251 C 
ATOM      7  H   UNL     1       2.970   0.020   2.055  1.00  0.00     0.163 HD
BRANCH   6   8
ATOM      8  C   UNL     1       2.372   0.534  -1.207  1.00  0.00     0.039 A 
ATOM      9  C   UNL     1       3.555   0.757  -1.913  1.00  0.00     0.014 A 
ATOM     10  C   UNL     1       1.146   0.702  -1.881  1.00  0.00     0.014 A 
ATOM     11  C   UNL     1       3.517   1.199  -3.235  1.00  0.00     0.010 A 
ATOM     12  C   UNL     1       1.102   1.127  -3.205  1.00  0.00     0.010 A 
ATOM     13  C   UNL     1       2.292   1.397  -3.877  1.00  0.00    -0.014 A 
BRANCH  13  14
ATOM     14  C   UNL     1       2.298   1.720  -5.304  1.00  0.00     0.031 A 
ATOM     15  C   UNL     1       2.798   0.632  -6.199  1.00  0.00     0.074 A 
ATOM     16  C   UNL     1       1.728   2.827  -5.823  1.00  0.00     0.049 A 
ATOM     17  N   UNL     1       3.771   0.674  -7.052  1.00  0.00    -0.248 NA
ATOM     18  C   UNL     1       2.181  -0.697  -6.060  1.00  0.00     0.031 C 
ATOM     19  C   UNL     1       0.909   3.816  -5.117  1.00  0.00     0.029 A 
ATOM     20  N   UNL     1       1.635   3.220  -7.129  1.00  0.00    -0.354 N 
ATOM     21  C   UNL     1       3.756  -0.561  -7.704  1.00  0.00     0.074 A 
ATOM     22  C   UNL     1       2.863  -1.407  -6.958  1.00  0.00     0.031 C 
ATOM     23  C   UNL     1       0.208   4.535  -6.022  1.00  0.00     0.029 A 
ATOM     24  C   UNL     1       0.621   4.145  -7.359  1.00  0.00     0.049 A 
ATOM     25  H   UNL     1       2.228   2.881  -7.838  1.00  0.00     0.167 HD
ATOM     26  C   UNL     1       4.316  -0.747  -8.931  1.00  0.00     0.034 A 
ATOM     27  C   UNL     1       0.097   4.499  -8.557  1.00  0.00     0.034 A 
ATOM     28  C   UNL     1       5.237   0.302  -9.271  1.00  0.00     0.049 A 
ATOM     29  C   UNL     1       1.058   4.108  -9.610  1.00  0.00     0.074 A 
ATOM     30  C   UNL     1       6.398   0.807  -8.722  1.00  0.00     0.029 A 
ATOM     31  N   UNL     1       4.822   1.230 -10.192  1.00  0.00    -0.354 N 
ATOM     32  N   UNL     1       2.217   4.675  -9.786  1.00  0.00    -0.248 NA
ATOM     33  C   UNL     1       0.882   2.821 -10.262  1.00  0.00     0.031 C 
ATOM     34  C   UNL     1       6.351   2.206  -8.988  1.00  0.00     0.029 A 
ATOM     35  C   UNL     1       5.184   2.458  -9.713  1.00  0.00     0.049 A 
ATOM     36  H   UNL     1       4.352   1.046 -11.037  1.00  0.00     0.167 HD
ATOM     37  C   UNL     1       3.050   3.638 -10.180  1.00  0.00     0.074 A 
ATOM     38  C   UNL     1       2.151   2.560 -10.579  1.00  0.00     0.031 C 
ATOM     39  C   UNL     1       4.380   3.650  -9.870  1.00  0.00     0.034 A 
BRANCH  26  40
ATOM     40  C   UNL     1       3.799  -1.704  -9.981  1.00  0.00     0.023 A 
ATOM     41  C   UNL     1       4.602  -1.925 -11.124  1.00  0.00     0.012 A 
ATOM     42  C   UNL     1       2.467  -2.175 -10.036  1.00  0.00     0.148 A 
ATOM     43  C   UNL     1       4.094  -2.539 -12.274  1.00  0.00     0.002 A 
ATOM     44  C   UNL     1       1.992  -2.861 -11.150  1.00  0.00     0.091 A 
ATOM     45  F   UNL     1       1.602  -1.847  -9.071  1.00  0.00    -0.205 F 
ATOM     46  C   UNL     1       2.790  -3.017 -12.284  1.00  0.00     0.022 A 
BRANCH  44  47
ATOM     47  S   UNL     1       0.335  -3.556 -11.177  1.00  0.00     0.127 S 
ATOM     48  O   UNL     1      -0.369  -2.593 -12.030  1.00  0.00    -0.237 OA
ATOM     49  O   UNL     1       0.571  -4.864 -11.800  1.00  0.00    -0.237 OA
ATOM     50  O   UNL     1      -0.081  -3.622  -9.794  1.00  0.00    -0.744 OA
ENDBRANCH  44  47
ENDBRANCH  26  40
BRANCH  27  51
ATOM     51  C   UNL     1      -1.276   4.942  -8.897  1.00  0.00     0.023 A 
ATOM     52  C   UNL     1      -1.505   5.662 -10.087  1.00  0.00     0.012 A 
ATOM     53  C   UNL     1      -2.394   4.428  -8.204  1.00  0.00     0.148 A 
ATOM     54  C   UNL     1      -2.801   5.839 -10.586  1.00  0.00     0.002 A 
ATOM     55  C   UNL     1      -3.682   4.616  -8.698  1.00  0.00     0.091 A 
ATOM     56  F   UNL     1      -2.189   3.675  -7.116  1.00  0.00    -0.205 F 
ATOM     57  C   UNL     1      -3.889   5.311  -9.896  1.00  0.00     0.022 A 
BRANCH  55  58
ATOM     58  S   UNL     1      -5.129   3.946  -7.868  1.00  0.00     0.127 S 
ATOM     59  O   UNL     1      -6.036   5.095  -7.867  1.00  0.00    -0.237 OA
ATOM     60  O   UNL     1      -5.516   2.861  -8.764  1.00  0.00    -0.237 OA
ATOM     61  O   UNL     1      -4.675   3.545  -6.543  1.00  0.00    -0.744 OA
ENDBRANCH  55  58
ENDBRANCH  27  51
BRANCH  39  62
ATOM     62  C   UNL     1       4.985   4.933  -9.359  1.00  0.00     0.023 A 
ATOM     63  C   UNL     1       4.549   5.545  -8.166  1.00  0.00     0.012 A 
ATOM     64  C   UNL     1       6.134   5.431  -9.998  1.00  0.00     0.148 A 
ATOM     65  C   UNL     1       5.227   6.647  -7.638  1.00  0.00     0.002 A 
ATOM     66  C   UNL     1       6.835   6.493  -9.441  1.00  0.00     0.091 A 
ATOM     67  F   UNL     1       6.540   4.835 -11.130  1.00  0.00    -0.205 F 
ATOM     68  C   UNL     1       6.379   7.111  -8.267  1.00  0.00     0.022 A 
BRANCH  66  69
ATOM     69  S   UNL     1       8.399   7.044 -10.127  1.00  0.00     0.127 S 
ATOM     70  O   UNL     1       8.013   8.268 -10.825  1.00  0.00    -0.237 OA
ATOM     71  O   UNL     1       9.213   7.253  -8.929  1.00  0.00    -0.237 OA
ATOM     72  O   UNL     1       8.867   5.955 -10.977  1.00  0.00    -0.744 OA
ENDBRANCH  66  69
ENDBRANCH  39  62
ENDBRANCH  13  14
ENDBRANCH   6   8
ENDBRANCH   3   4
ENDBRANCH   2   3
ENDBRANCH   1   2
BRANCH   1  73
ATOM     73  N   UNL     1       4.941   2.546   3.438  1.00  0.00    -0.352 N 
ATOM     74  C   UNL     1       5.826   3.214   4.245  1.00  0.00     0.251 C 
ATOM     75  H   UNL     1       4.614   1.692   3.802  1.00  0.00     0.163 HD
ATOM     76  O   UNL     1       6.235   2.694   5.280  1.00  0.00    -0.269 OA
BRANCH  74  77
ATOM     77  C   UNL     1       6.308   4.557   3.872  1.00  0.00     0.039 A 
ATOM     78  C   UNL     1       7.688   4.784   3.798  1.00  0.00     0.016 A 
ATOM     79  C   UNL     1       5.408   5.602   3.650  1.00  0.00     0.016 A 
ATOM     80  C   UNL     1       8.176   6.040   3.425  1.00  0.00     0.029 A 
ATOM     81  C   UNL     1       5.890   6.863   3.307  1.00  0.00     0.029 A 
ATOM     82  C   UNL     1       7.276   7.084   3.195  1.00  0.00     0.066 A 
BRANCH  82  83
ATOM     83  N   UNL     1       7.756   8.383   2.914  1.00  0.00    -0.220 N 
ATOM     84  C   UNL     1       7.104   9.557   3.176  1.00  0.00     0.141 A 
ATOM     85  N   UNL     1       8.957   8.657   2.355  1.00  0.00    -0.062 NA
ATOM     86  C   UNL     1       7.933  10.560   2.737  1.00  0.00     0.093 A 
ATOM     87  N   UNL     1       9.046   9.977   2.188  1.00  0.00    -0.134 NA
BRANCH  86  88
ATOM     88  C   UNL     1       7.632  12.002   2.603  1.00  0.00     0.138 C 
BRANCH  88  89
ATOM     89  S   UNL     1       7.984  13.203   3.892  1.00  0.00    -0.081 SA
BRANCH  89  90
ATOM     90  C   UNL     1       8.435  12.444   5.396  1.00  0.00     0.176 A 
ATOM     91  N   UNL     1       9.473  13.022   5.926  1.00  0.00    -0.223 NA
ATOM     92  N   UNL     1       7.776  11.389   6.020  1.00  0.00    -0.255 N 
ATOM     93  C   UNL     1      10.017  12.494   7.098  1.00  0.00     0.079 A 
ATOM     94  C   UNL     1       8.622  10.543   6.758  1.00  0.00     0.266 A 
ATOM     95  C   UNL     1      10.932  13.226   7.856  1.00  0.00     0.029 A 
ATOM     96  C   UNL     1       9.735  11.190   7.468  1.00  0.00     0.066 A 
ATOM     97  O   UNL     1       8.529   9.320   6.853  1.00  0.00    -0.268 OA
ATOM     98  C   UNL     1      11.602  12.626   8.929  1.00  0.00     0.002 A 
ATOM     99  C   UNL     1      10.431  10.559   8.505  1.00  0.00     0.016 A 
ATOM    100  C   UNL     1      11.377  11.281   9.230  1.00  0.00     0.001 A 
BRANCH  92 101
ATOM    101  C   UNL     1       6.361  11.049   5.936  1.00  0.00     0.051 A 
ATOM    102  C   UNL     1       5.835   9.988   6.707  1.00  0.00     0.028 A 
ATOM    103  C   UNL     1       5.427  11.714   5.129  1.00  0.00     0.028 A 
ATOM    104  C   UNL     1       4.553   9.466   6.497  1.00  0.00     0.022 A 
ATOM    105  C   UNL     1       4.156  11.171   4.870  1.00  0.00     0.022 A 
ATOM    106  C   UNL     1       3.742  10.020   5.524  1.00  0.00     0.041 A 
ATOM    107  Cl  UNL     1       2.248   9.280   5.121  1.00  0.00    -0.084 Cl
ENDBRANCH  92 101
ENDBRANCH  89  90
ENDBRANCH  88  89
ENDBRANCH  86  88
ENDBRANCH  82  83
ENDBRANCH  74  77
ENDBRANCH   1  73
TORSDOF 18
