REMARK SMILES CCc1ccc(C(=O)N2CC[C@H](C(=O)NCCCNC(=O)c3ccc(-c4c5nc(c(-c6cccc(S(=O)(=O)[O-])c6F)c6ccc([nH]6)c(-c6cccc(S(=O)(=O)[O-])c6F)c6nc(c(-c7cccc(S(=O)(=O)[O-])c7F)c7ccc4[nH]7)C=C6)C=C5)cc3)[C@@H]2C)s1
REMARK SMILES IDX 17 1 16 2 15 3 13 4 14 5 12 7 9 8 10 9 85 10 11 11 86 12
REMARK SMILES IDX 7 13 8 14 6 15 3 16 4 17 87 18 5 19 2 20 1 21 18 22 19 23
REMARK SMILES IDX 20 24 21 26 22 27 23 28 84 29 24 30 83 31 25 32 26 33 27 34
REMARK SMILES IDX 77 35 28 36 82 37 76 38 78 39 29 40 81 41 75 42 74 43 30 45
REMARK SMILES IDX 62 46 42 47 61 48 43 49 46 50 60 51 79 52 44 53 45 54 59 56
REMARK SMILES IDX 80 57 47 58 31 59 32 60 40 61 33 62 35 63 41 64 34 65 36 66
REMARK SMILES IDX 37 67 38 68 39 69 63 70 64 71 72 72 65 73 67 74 73 75 66 76
REMARK SMILES IDX 68 77 69 78 70 79 71 80 48 81 49 82 57 83 50 84 52 85 58 86
REMARK SMILES IDX 51 87 53 88 54 89 55 90 56 91
REMARK H PARENT 15 6 19 25 78 44 46 55
REMARK Flexibility Score: inf
ROOT
ATOM      1  C   UNL     1       6.349  -6.119  -3.730  1.00  0.00     0.042 C 
ENDROOT
BRANCH   1   2
ATOM      2  C   UNL     1       6.106  -5.638  -5.160  1.00  0.00     0.117 C 
BRANCH   2   3
ATOM      3  N   UNL     1       5.397  -6.652  -5.921  1.00  0.00    -0.356 N 
ATOM      4  C   UNL     1       4.115  -6.696  -6.374  1.00  0.00     0.225 C 
ATOM      5  O   UNL     1       3.718  -7.772  -6.822  1.00  0.00    -0.275 OA
ATOM      6  H   UNL     1       5.937  -7.444  -6.148  1.00  0.00     0.163 HD
BRANCH   4   7
ATOM      7  C   UNL     1       3.265  -5.433  -6.416  1.00  0.00     0.102 C 
ATOM      8  N   UNL     1       1.220  -4.777  -5.385  1.00  0.00    -0.334 N 
ATOM      9  C   UNL     1       0.858  -5.725  -6.410  1.00  0.00     0.121 C 
ATOM     10  C   UNL     1       2.653  -4.886  -5.100  1.00  0.00     0.094 C 
ATOM     11  C   UNL     1       2.043  -5.630  -7.350  1.00  0.00     0.037 C 
ATOM     12  C   UNL     1       2.845  -5.718  -3.836  1.00  0.00     0.032 C 
BRANCH   8  13
ATOM     13  C   UNL     1       0.253  -4.025  -4.726  1.00  0.00     0.264 C 
ATOM     14  O   UNL     1      -0.936  -4.332  -4.831  1.00  0.00    -0.268 OA
BRANCH  13  15
ATOM     15  C   UNL     1       0.685  -2.833  -4.004  1.00  0.00     0.092 A 
ATOM     16  C   UNL     1       0.758  -0.921  -2.425  1.00  0.00     0.005 A 
ATOM     17  C   UNL     1       1.661  -0.779  -3.458  1.00  0.00     0.016 A 
ATOM     18  S   UNL     1      -0.100  -2.399  -2.543  1.00  0.00    -0.135 S 
ATOM     19  C   UNL     1       1.599  -1.864  -4.378  1.00  0.00     0.026 A 
BRANCH  16  20
ATOM     20  C   UNL     1       0.452   0.056  -1.328  1.00  0.00     0.043 C 
ATOM     21  C   UNL     1       1.232  -0.228  -0.056  1.00  0.00     0.010 C 
ENDBRANCH  16  20
ENDBRANCH  13  15
ENDBRANCH   8  13
ENDBRANCH   4   7
ENDBRANCH   2   3
ENDBRANCH   1   2
BRANCH   1  22
ATOM     22  C   UNL     1       7.360  -7.254  -3.622  1.00  0.00     0.118 C 
BRANCH  22  23
ATOM     23  N   UNL     1       8.704  -6.763  -3.393  1.00  0.00    -0.352 N 
ATOM     24  C   UNL     1       9.458  -6.715  -2.245  1.00  0.00     0.251 C 
ATOM     25  H   UNL     1       9.152  -6.404  -4.193  1.00  0.00     0.163 HD
ATOM     26  O   UNL     1      10.479  -6.028  -2.258  1.00  0.00    -0.269 OA
BRANCH  24  27
ATOM     27  C   UNL     1       9.088  -7.452  -1.006  1.00  0.00     0.039 A 
ATOM     28  C   UNL     1       9.480  -6.910   0.225  1.00  0.00     0.014 A 
ATOM     29  C   UNL     1       8.479  -8.710  -1.023  1.00  0.00     0.014 A 
ATOM     30  C   UNL     1       9.275  -7.621   1.414  1.00  0.00     0.010 A 
ATOM     31  C   UNL     1       8.185  -9.375   0.171  1.00  0.00     0.010 A 
ATOM     32  C   UNL     1       8.631  -8.867   1.398  1.00  0.00    -0.014 A 
BRANCH  32  33
ATOM     33  C   UNL     1       8.527  -9.695   2.632  1.00  0.00     0.031 A 
ATOM     34  C   UNL     1       9.238 -11.027   2.707  1.00  0.00     0.074 A 
ATOM     35  C   UNL     1       7.777  -9.284   3.674  1.00  0.00     0.049 A 
ATOM     36  N   UNL     1       9.264 -11.897   3.685  1.00  0.00    -0.248 NA
ATOM     37  C   UNL     1       9.993 -11.453   1.516  1.00  0.00     0.031 C 
ATOM     38  C   UNL     1       6.970  -8.064   3.709  1.00  0.00     0.029 A 
ATOM     39  N   UNL     1       7.562  -9.860   4.902  1.00  0.00    -0.354 N 
ATOM     40  C   UNL     1       9.986 -12.986   3.209  1.00  0.00     0.074 A 
ATOM     41  C   UNL     1      10.355 -12.685   1.844  1.00  0.00     0.031 C 
ATOM     42  C   UNL     1       6.358  -7.976   4.902  1.00  0.00     0.029 A 
ATOM     43  C   UNL     1       6.725  -9.133   5.716  1.00  0.00     0.049 A 
ATOM     44  H   UNL     1       7.970 -10.713   5.175  1.00  0.00     0.167 HD
ATOM     45  C   UNL     1      10.351 -14.119   3.855  1.00  0.00     0.034 A 
ATOM     46  C   UNL     1       6.316  -9.361   6.980  1.00  0.00     0.034 A 
ATOM     47  C   UNL     1      10.079 -14.379   5.241  1.00  0.00     0.049 A 
ATOM     48  C   UNL     1       6.847 -10.561   7.721  1.00  0.00     0.074 A 
ATOM     49  C   UNL     1      10.486 -15.454   6.013  1.00  0.00     0.029 A 
ATOM     50  N   UNL     1       9.350 -13.543   6.071  1.00  0.00    -0.354 N 
ATOM     51  N   UNL     1       7.663 -11.497   7.298  1.00  0.00    -0.248 NA
ATOM     52  C   UNL     1       6.444 -10.708   9.128  1.00  0.00     0.031 C 
ATOM     53  C   UNL     1      10.016 -15.257   7.316  1.00  0.00     0.029 A 
ATOM     54  C   UNL     1       9.311 -14.065   7.351  1.00  0.00     0.049 A 
ATOM     55  H   UNL     1       8.923 -12.702   5.790  1.00  0.00     0.167 HD
ATOM     56  C   UNL     1       7.897 -12.320   8.394  1.00  0.00     0.074 A 
ATOM     57  C   UNL     1       7.157 -11.761   9.505  1.00  0.00     0.031 C 
ATOM     58  C   UNL     1       8.640 -13.453   8.467  1.00  0.00     0.034 A 
BRANCH  45  59
ATOM     59  C   UNL     1      11.169 -15.126   3.091  1.00  0.00     0.023 A 
ATOM     60  C   UNL     1      12.530 -14.857   2.841  1.00  0.00     0.012 A 
ATOM     61  C   UNL     1      10.616 -16.348   2.664  1.00  0.00     0.148 A 
ATOM     62  C   UNL     1      13.322 -15.774   2.152  1.00  0.00     0.002 A 
ATOM     63  C   UNL     1      11.421 -17.275   2.010  1.00  0.00     0.091 A 
ATOM     64  F   UNL     1       9.314 -16.577   2.888  1.00  0.00    -0.205 F 
ATOM     65  C   UNL     1      12.771 -16.986   1.746  1.00  0.00     0.022 A 
BRANCH  63  66
ATOM     66  S   UNL     1      10.819 -18.892   1.508  1.00  0.00     0.127 S 
ATOM     67  O   UNL     1      10.632 -18.705   0.071  1.00  0.00    -0.237 OA
ATOM     68  O   UNL     1      11.933 -19.768   1.870  1.00  0.00    -0.237 OA
ATOM     69  O   UNL     1       9.602 -19.116   2.279  1.00  0.00    -0.744 OA
ENDBRANCH  63  66
ENDBRANCH  45  59
BRANCH  46  70
ATOM     70  C   UNL     1       5.449  -8.365   7.670  1.00  0.00     0.023 A 
ATOM     71  C   UNL     1       6.010  -7.545   8.669  1.00  0.00     0.012 A 
ATOM     72  C   UNL     1       4.094  -8.199   7.328  1.00  0.00     0.148 A 
ATOM     73  C   UNL     1       5.231  -6.599   9.335  1.00  0.00     0.002 A 
ATOM     74  C   UNL     1       3.335  -7.221   7.962  1.00  0.00     0.091 A 
ATOM     75  F   UNL     1       3.569  -9.000   6.389  1.00  0.00    -0.205 F 
ATOM     76  C   UNL     1       3.897  -6.429   8.975  1.00  0.00     0.022 A 
BRANCH  74  77
ATOM     77  S   UNL     1       1.650  -6.862   7.454  1.00  0.00     0.127 S 
ATOM     78  O   UNL     1       0.873  -7.654   8.402  1.00  0.00    -0.237 OA
ATOM     79  O   UNL     1       1.564  -5.413   7.647  1.00  0.00    -0.237 OA
ATOM     80  O   UNL     1       1.584  -7.277   6.058  1.00  0.00    -0.744 OA
ENDBRANCH  74  77
ENDBRANCH  46  70
BRANCH  58  81
ATOM     81  C   UNL     1       8.723 -14.152   9.796  1.00  0.00     0.023 A 
ATOM     82  C   UNL     1       7.628 -14.916  10.244  1.00  0.00     0.012 A 
ATOM     83  C   UNL     1       9.905 -14.121  10.560  1.00  0.00     0.148 A 
ATOM     84  C   UNL     1       7.700 -15.620  11.446  1.00  0.00     0.002 A 
ATOM     85  C   UNL     1       9.982 -14.854  11.739  1.00  0.00     0.091 A 
ATOM     86  F   UNL     1      10.930 -13.369  10.132  1.00  0.00    -0.205 F 
ATOM     87  C   UNL     1       8.880 -15.598  12.187  1.00  0.00     0.022 A 
BRANCH  85  88
ATOM     88  S   UNL     1      11.505 -14.931  12.690  1.00  0.00     0.127 S 
ATOM     89  O   UNL     1      11.338 -13.816  13.620  1.00  0.00    -0.237 OA
ATOM     90  O   UNL     1      11.434 -16.255  13.310  1.00  0.00    -0.237 OA
ATOM     91  O   UNL     1      12.573 -14.791  11.709  1.00  0.00    -0.744 OA
ENDBRANCH  85  88
ENDBRANCH  58  81
ENDBRANCH  32  33
ENDBRANCH  24  27
ENDBRANCH  22  23
ENDBRANCH   1  22
TORSDOF 16
