REMARK SMILES C[C@H](CS[C@H]1CCOC2(CCCCC2)C1)C(=O)NCCCNC(=O)c1ccc(-c2c3nc(c(-c4cccc(S(=O)(=O)[O-])c4F)c4ccc([nH]4)c(-c4cccc(S(=O)(=O)[O-])c4F)c4nc(c(-c5cccc(S(=O)(=O)[O-])c5F)c5ccc2[nH]5)C=C4)C=C3)cc1
REMARK SMILES IDX 20 1 19 2 18 3 16 4 17 5 2 7 1 8 3 9 4 10 5 11 6 12 15 13
REMARK SMILES IDX 7 14 9 15 8 16 10 17 14 18 11 19 13 20 12 21 21 22 22 23
REMARK SMILES IDX 23 24 24 26 25 27 26 28 87 29 27 30 86 31 28 32 29 33 30 34
REMARK SMILES IDX 80 35 31 36 85 37 79 38 81 39 32 40 84 41 78 42 77 43 33 45
REMARK SMILES IDX 65 46 45 47 64 48 46 49 49 50 63 51 82 52 47 53 48 54 62 56
REMARK SMILES IDX 83 57 50 58 34 59 35 60 43 61 36 62 38 63 44 64 37 65 39 66
REMARK SMILES IDX 40 67 41 68 42 69 66 70 67 71 75 72 68 73 70 74 76 75 69 76
REMARK SMILES IDX 71 77 72 78 73 79 74 80 51 81 52 82 60 83 53 84 55 85 61 86
REMARK SMILES IDX 54 87 56 88 57 89 58 90 59 91
REMARK H PARENT 18 6 22 25 81 44 49 55
REMARK Flexibility Score: inf
ROOT
ATOM      1  C   UNL     1       2.980  -1.480   4.573  1.00  0.00     0.042 C 
ENDROOT
BRANCH   1   2
ATOM      2  C   UNL     1       3.095  -1.687   3.062  1.00  0.00     0.117 C 
BRANCH   2   3
ATOM      3  N   UNL     1       2.496  -0.608   2.299  1.00  0.00    -0.356 N 
ATOM      4  C   UNL     1       2.253  -0.728   0.948  1.00  0.00     0.223 C 
ATOM      5  O   UNL     1       2.478  -1.768   0.330  1.00  0.00    -0.275 OA
ATOM      6  H   UNL     1       2.258   0.230   2.757  1.00  0.00     0.163 HD
BRANCH   4   7
ATOM      7  C   UNL     1       1.825   0.534   0.208  1.00  0.00     0.085 C 
ATOM      8  C   UNL     1       3.124   1.278  -0.137  1.00  0.00     0.019 C 
BRANCH   7   9
ATOM      9  C   UNL     1       0.858   1.475   0.941  1.00  0.00     0.083 C 
BRANCH   9  10
ATOM     10  S   UNL     1      -0.936   1.093   0.875  1.00  0.00    -0.158 SA
BRANCH  10  11
ATOM     11  C   UNL     1      -1.018  -0.554   1.673  1.00  0.00     0.052 C 
ATOM     12  C   UNL     1      -2.184  -0.638   2.659  1.00  0.00     0.043 C 
ATOM     13  C   UNL     1      -1.198  -1.616   0.591  1.00  0.00     0.050 C 
ATOM     14  C   UNL     1      -2.304  -2.060   3.199  1.00  0.00     0.162 C 
ATOM     15  C   UNL     1      -1.335  -3.027   1.195  1.00  0.00     0.069 C 
ATOM     16  O   UNL     1      -2.402  -3.029   2.157  1.00  0.00    -0.375 OA
ATOM     17  C   UNL     1      -0.003  -3.500   1.811  1.00  0.00     0.035 C 
ATOM     18  C   UNL     1      -1.749  -4.003   0.072  1.00  0.00     0.035 C 
ATOM     19  C   UNL     1      -0.015  -4.957   2.256  1.00  0.00     0.003 C 
ATOM     20  C   UNL     1      -1.743  -5.467   0.517  1.00  0.00     0.003 C 
ATOM     21  C   UNL     1      -0.394  -5.869   1.099  1.00  0.00     0.000 C 
ENDBRANCH  10  11
ENDBRANCH   9  10
ENDBRANCH   7   9
ENDBRANCH   4   7
ENDBRANCH   2   3
ENDBRANCH   1   2
BRANCH   1  22
ATOM     22  C   UNL     1       1.600  -1.789   5.162  1.00  0.00     0.118 C 
BRANCH  22  23
ATOM     23  N   UNL     1       1.285  -3.207   5.114  1.00  0.00    -0.352 N 
ATOM     24  C   UNL     1       0.481  -3.986   5.906  1.00  0.00     0.251 C 
ATOM     25  H   UNL     1       1.728  -3.695   4.383  1.00  0.00     0.163 HD
ATOM     26  O   UNL     1       0.457  -5.199   5.691  1.00  0.00    -0.269 OA
BRANCH  24  27
ATOM     27  C   UNL     1      -0.311  -3.436   7.032  1.00  0.00     0.039 A 
ATOM     28  C   UNL     1      -0.399  -4.222   8.189  1.00  0.00     0.014 A 
ATOM     29  C   UNL     1      -0.989  -2.214   6.981  1.00  0.00     0.014 A 
ATOM     30  C   UNL     1      -1.090  -3.758   9.310  1.00  0.00     0.010 A 
ATOM     31  C   UNL     1      -1.671  -1.740   8.110  1.00  0.00     0.010 A 
ATOM     32  C   UNL     1      -1.700  -2.496   9.290  1.00  0.00    -0.014 A 
BRANCH  32  33
ATOM     33  C   UNL     1      -2.176  -1.906  10.564  1.00  0.00     0.031 A 
ATOM     34  C   UNL     1      -3.621  -1.893  10.956  1.00  0.00     0.074 A 
ATOM     35  C   UNL     1      -1.251  -1.356  11.373  1.00  0.00     0.049 A 
ATOM     36  N   UNL     1      -4.151  -1.559  12.104  1.00  0.00    -0.248 NA
ATOM     37  C   UNL     1      -4.597  -2.289   9.932  1.00  0.00     0.031 C 
ATOM     38  C   UNL     1       0.173  -1.233  11.051  1.00  0.00     0.029 A 
ATOM     39  N   UNL     1      -1.361  -0.797  12.619  1.00  0.00    -0.354 N 
ATOM     40  C   UNL     1      -5.524  -1.700  11.949  1.00  0.00     0.074 A 
ATOM     41  C   UNL     1      -5.745  -2.126  10.581  1.00  0.00     0.031 C 
ATOM     42  C   UNL     1       0.804  -0.638  12.074  1.00  0.00     0.029 A 
ATOM     43  C   UNL     1      -0.164  -0.352  13.128  1.00  0.00     0.049 A 
ATOM     44  H   UNL     1      -2.215  -0.722  13.104  1.00  0.00     0.167 HD
ATOM     45  C   UNL     1      -6.500  -1.515  12.872  1.00  0.00     0.034 A 
ATOM     46  C   UNL     1       0.131   0.193  14.323  1.00  0.00     0.034 A 
ATOM     47  C   UNL     1      -6.259  -1.103  14.233  1.00  0.00     0.049 A 
ATOM     48  C   UNL     1      -0.952   0.296  15.357  1.00  0.00     0.074 A 
ATOM     49  C   UNL     1      -7.170  -0.961  15.267  1.00  0.00     0.029 A 
ATOM     50  N   UNL     1      -5.019  -0.757  14.749  1.00  0.00    -0.354 N 
ATOM     51  N   UNL     1      -2.216  -0.040  15.261  1.00  0.00    -0.248 NA
ATOM     52  C   UNL     1      -0.561   0.795  16.682  1.00  0.00     0.031 C 
ATOM     53  C   UNL     1      -6.480  -0.522  16.404  1.00  0.00     0.029 A 
ATOM     54  C   UNL     1      -5.138  -0.398  16.082  1.00  0.00     0.049 A 
ATOM     55  H   UNL     1      -4.175  -0.766  14.241  1.00  0.00     0.167 HD
ATOM     56  C   UNL     1      -2.765   0.179  16.517  1.00  0.00     0.074 A 
ATOM     57  C   UNL     1      -1.688   0.651  17.365  1.00  0.00     0.031 C 
ATOM     58  C   UNL     1      -4.049   0.025  16.926  1.00  0.00     0.034 A 
BRANCH  45  59
ATOM     59  C   UNL     1      -7.918  -1.825  12.466  1.00  0.00     0.023 A 
ATOM     60  C   UNL     1      -8.312  -3.172  12.336  1.00  0.00     0.012 A 
ATOM     61  C   UNL     1      -8.877  -0.807  12.293  1.00  0.00     0.148 A 
ATOM     62  C   UNL     1      -9.629  -3.503  12.016  1.00  0.00     0.002 A 
ATOM     63  C   UNL     1     -10.197  -1.146  12.006  1.00  0.00     0.091 A 
ATOM     64  F   UNL     1      -8.484   0.469  12.402  1.00  0.00    -0.205 F 
ATOM     65  C   UNL     1     -10.572  -2.491  11.860  1.00  0.00     0.022 A 
BRANCH  63  66
ATOM     66  S   UNL     1     -11.499   0.085  11.854  1.00  0.00     0.127 S 
ATOM     67  O   UNL     1     -11.689   0.136  10.406  1.00  0.00    -0.237 OA
ATOM     68  O   UNL     1     -12.602  -0.535  12.591  1.00  0.00    -0.237 OA
ATOM     69  O   UNL     1     -10.972   1.297  12.465  1.00  0.00    -0.744 OA
ENDBRANCH  63  66
ENDBRANCH  45  59
BRANCH  46  70
ATOM     70  C   UNL     1       1.544   0.548  14.629  1.00  0.00     0.023 A 
ATOM     71  C   UNL     1       2.282  -0.262  15.513  1.00  0.00     0.012 A 
ATOM     72  C   UNL     1       2.185   1.623  13.984  1.00  0.00     0.148 A 
ATOM     73  C   UNL     1       3.627   0.005  15.766  1.00  0.00     0.002 A 
ATOM     74  C   UNL     1       3.540   1.849  14.197  1.00  0.00     0.091 A 
ATOM     75  F   UNL     1       1.464   2.391  13.155  1.00  0.00    -0.205 F 
ATOM     76  C   UNL     1       4.260   1.050  15.098  1.00  0.00     0.022 A 
BRANCH  74  77
ATOM     77  S   UNL     1       4.450   3.076  13.251  1.00  0.00     0.127 S 
ATOM     78  O   UNL     1       4.488   4.204  14.177  1.00  0.00    -0.237 OA
ATOM     79  O   UNL     1       5.737   2.413  13.034  1.00  0.00    -0.237 OA
ATOM     80  O   UNL     1       3.674   3.269  12.033  1.00  0.00    -0.744 OA
ENDBRANCH  74  77
ENDBRANCH  46  70
BRANCH  58  81
ATOM     81  C   UNL     1      -4.359   0.373  18.358  1.00  0.00     0.023 A 
ATOM     82  C   UNL     1      -4.410   1.728  18.743  1.00  0.00     0.012 A 
ATOM     83  C   UNL     1      -4.638  -0.627  19.308  1.00  0.00     0.148 A 
ATOM     84  C   UNL     1      -4.700   2.080  20.061  1.00  0.00     0.002 A 
ATOM     85  C   UNL     1      -4.965  -0.266  20.612  1.00  0.00     0.091 A 
ATOM     86  F   UNL     1      -4.559  -1.912  18.934  1.00  0.00    -0.205 F 
ATOM     87  C   UNL     1      -4.987   1.085  20.992  1.00  0.00     0.022 A 
BRANCH  85  88
ATOM     88  S   UNL     1      -5.422  -1.493  21.842  1.00  0.00     0.127 S 
ATOM     89  O   UNL     1      -4.148  -1.734  22.515  1.00  0.00    -0.237 OA
ATOM     90  O   UNL     1      -6.413  -0.782  22.651  1.00  0.00    -0.237 OA
ATOM     91  O   UNL     1      -5.965  -2.613  21.085  1.00  0.00    -0.744 OA
ENDBRANCH  85  88
ENDBRANCH  58  81
ENDBRANCH  32  33
ENDBRANCH  24  27
ENDBRANCH  22  23
ENDBRANCH   1  22
TORSDOF 16
