REMARK SMILES C[C@@H]1CN(C(=O)Nc2ccc(O)c(C(=O)NCCCNC(=O)c3ccc(-c4c5nc(c(-c6cccc(S(=O)(=O)[O-])c6F)c6ccc([nH]6)c(-c6cccc(S(=O)(=O)[O-])c6F)c6nc(c(-c7cccc(S(=O)(=O)[O-])c7F)c7ccc4[nH]7)C=C6)C=C5)cc3)c2)C[C@@H]1C
REMARK SMILES IDX 18 1 17 2 16 3 14 4 15 5 13 7 8 8 9 9 86 10 10 11 11 12 7 13
REMARK SMILES IDX 5 14 6 15 4 17 1 18 2 19 3 20 88 21 87 22 89 23 12 24 19 26
REMARK SMILES IDX 20 27 21 28 22 30 23 31 24 32 85 33 25 34 84 35 26 36 27 37
REMARK SMILES IDX 28 38 78 39 29 40 83 41 77 42 79 43 30 44 82 45 76 46 75 47
REMARK SMILES IDX 31 49 63 50 43 51 62 52 44 53 47 54 61 55 80 56 45 57 46 58
REMARK SMILES IDX 60 60 81 61 48 62 32 63 33 64 41 65 34 66 36 67 42 68 35 69
REMARK SMILES IDX 37 70 38 71 39 72 40 73 64 74 65 75 73 76 66 77 68 78 74 79
REMARK SMILES IDX 67 80 69 81 70 82 71 83 72 84 49 85 50 86 58 87 51 88 53 89
REMARK SMILES IDX 59 90 52 91 54 92 55 93 56 94 57 95
REMARK H PARENT 16 6 7 16 12 25 20 29 79 48 47 59
REMARK Flexibility Score: inf
ROOT
ATOM      1  C   UNL     1       5.335   5.814   2.231  1.00  0.00     0.042 C 
ENDROOT
BRANCH   1   2
ATOM      2  C   UNL     1       3.938   5.260   2.506  1.00  0.00     0.118 C 
BRANCH   2   3
ATOM      3  N   UNL     1       2.911   6.231   2.192  1.00  0.00    -0.352 N 
ATOM      4  C   UNL     1       2.115   6.409   1.093  1.00  0.00     0.255 C 
ATOM      5  O   UNL     1       1.284   7.321   1.166  1.00  0.00    -0.269 OA
ATOM      6  H   UNL     1       2.756   6.890   2.906  1.00  0.00     0.163 HD
BRANCH   4   7
ATOM      7  C   UNL     1       2.104   5.554  -0.132  1.00  0.00     0.083 A 
ATOM      8  C   UNL     1       0.643   4.632  -1.858  1.00  0.00     0.043 A 
ATOM      9  C   UNL     1       1.744   4.139  -2.546  1.00  0.00     0.030 A 
ATOM     10  C   UNL     1       0.829   5.407  -0.714  1.00  0.00     0.044 A 
ATOM     11  C   UNL     1       3.014   4.278  -1.999  1.00  0.00     0.049 A 
ATOM     12  C   UNL     1       3.188   4.949  -0.783  1.00  0.00     0.128 A 
BRANCH   8  13
ATOM     13  N   UNL     1      -0.662   4.365  -2.273  1.00  0.00    -0.308 N 
ATOM     14  C   UNL     1      -1.228   3.223  -2.757  1.00  0.00     0.321 C 
ATOM     15  O   UNL     1      -2.283   3.335  -3.388  1.00  0.00    -0.248 OA
ATOM     16  H   UNL     1      -1.278   5.130  -2.205  1.00  0.00     0.171 HD
BRANCH  14  17
ATOM     17  N   UNL     1      -0.727   1.990  -2.408  1.00  0.00    -0.324 N 
ATOM     18  C   UNL     1       0.851  -0.287   0.057  1.00  0.00     0.010 C 
ATOM     19  C   UNL     1       0.287   0.145  -1.286  1.00  0.00     0.010 C 
ATOM     20  C   UNL     1       0.349   1.660  -1.477  1.00  0.00     0.125 C 
ATOM     21  C   UNL     1      -1.183  -0.181  -1.572  1.00  0.00     0.010 C 
ATOM     22  C   UNL     1      -1.492   0.791  -2.721  1.00  0.00     0.125 C 
ATOM     23  C   UNL     1      -2.116   0.048  -0.382  1.00  0.00     0.010 C 
ENDBRANCH  14  17
ENDBRANCH   8  13
BRANCH  12  24
ATOM     24  O   UNL     1       4.455   4.994  -0.295  1.00  0.00    -0.507 OA
ATOM     25  H   UNL     1       5.152   4.575  -0.761  1.00  0.00     0.293 HD
ENDBRANCH  12  24
ENDBRANCH   4   7
ENDBRANCH   2   3
ENDBRANCH   1   2
BRANCH   1  26
ATOM     26  C   UNL     1       5.840   6.798   3.273  1.00  0.00     0.118 C 
BRANCH  26  27
ATOM     27  N   UNL     1       6.225   6.139   4.511  1.00  0.00    -0.352 N 
ATOM     28  C   UNL     1       7.455   6.066   5.119  1.00  0.00     0.251 C 
ATOM     29  H   UNL     1       5.496   5.678   4.985  1.00  0.00     0.163 HD
ATOM     30  O   UNL     1       7.620   5.276   6.045  1.00  0.00    -0.269 OA
BRANCH  28  31
ATOM     31  C   UNL     1       8.581   6.918   4.665  1.00  0.00     0.039 A 
ATOM     32  C   UNL     1       9.872   6.378   4.647  1.00  0.00     0.014 A 
ATOM     33  C   UNL     1       8.383   8.252   4.302  1.00  0.00     0.014 A 
ATOM     34  C   UNL     1      10.951   7.161   4.224  1.00  0.00     0.010 A 
ATOM     35  C   UNL     1       9.443   9.004   3.802  1.00  0.00     0.010 A 
ATOM     36  C   UNL     1      10.741   8.475   3.777  1.00  0.00    -0.014 A 
BRANCH  36  37
ATOM     37  C   UNL     1      11.861   9.327   3.303  1.00  0.00     0.031 A 
ATOM     38  C   UNL     1      12.206  10.595   4.040  1.00  0.00     0.074 A 
ATOM     39  C   UNL     1      12.501   9.017   2.158  1.00  0.00     0.049 A 
ATOM     40  N   UNL     1      13.089  11.511   3.740  1.00  0.00    -0.248 NA
ATOM     41  C   UNL     1      11.431  10.887   5.258  1.00  0.00     0.031 C 
ATOM     42  C   UNL     1      12.213   7.854   1.318  1.00  0.00     0.029 A 
ATOM     43  N   UNL     1      13.507   9.669   1.490  1.00  0.00    -0.354 N 
ATOM     44  C   UNL     1      12.940  12.509   4.696  1.00  0.00     0.074 A 
ATOM     45  C   UNL     1      11.864  12.099   5.570  1.00  0.00     0.031 C 
ATOM     46  C   UNL     1      13.029   7.869   0.252  1.00  0.00     0.029 A 
ATOM     47  C   UNL     1      13.876   9.056   0.315  1.00  0.00     0.049 A 
ATOM     48  H   UNL     1      13.925  10.497   1.820  1.00  0.00     0.167 HD
ATOM     49  C   UNL     1      13.652  13.651   4.851  1.00  0.00     0.034 A 
ATOM     50  C   UNL     1      14.791   9.412  -0.607  1.00  0.00     0.034 A 
ATOM     51  C   UNL     1      14.761  14.023   4.015  1.00  0.00     0.049 A 
ATOM     52  C   UNL     1      15.603  10.660  -0.387  1.00  0.00     0.074 A 
ATOM     53  C   UNL     1      15.620  15.099   4.152  1.00  0.00     0.029 A 
ATOM     54  N   UNL     1      15.161  13.332   2.881  1.00  0.00    -0.354 N 
ATOM     55  N   UNL     1      15.559  11.507   0.613  1.00  0.00    -0.248 NA
ATOM     56  C   UNL     1      16.614  10.984  -1.404  1.00  0.00     0.031 C 
ATOM     57  C   UNL     1      16.526  15.071   3.086  1.00  0.00     0.029 A 
ATOM     58  C   UNL     1      16.246  13.964   2.300  1.00  0.00     0.049 A 
ATOM     59  H   UNL     1      14.735  12.513   2.539  1.00  0.00     0.167 HD
ATOM     60  C   UNL     1      16.561  12.440   0.368  1.00  0.00     0.074 A 
ATOM     61  C   UNL     1      17.203  12.046  -0.870  1.00  0.00     0.031 C 
ATOM     62  C   UNL     1      16.912  13.528   1.098  1.00  0.00     0.034 A 
BRANCH  49  63
ATOM     63  C   UNL     1      13.280  14.556   5.997  1.00  0.00     0.023 A 
ATOM     64  C   UNL     1      13.548  14.153   7.322  1.00  0.00     0.012 A 
ATOM     65  C   UNL     1      12.694  15.816   5.767  1.00  0.00     0.148 A 
ATOM     66  C   UNL     1      13.198  14.967   8.399  1.00  0.00     0.002 A 
ATOM     67  C   UNL     1      12.389  16.642   6.843  1.00  0.00     0.091 A 
ATOM     68  F   UNL     1      12.422  16.176   4.504  1.00  0.00    -0.205 F 
ATOM     69  C   UNL     1      12.627  16.214   8.159  1.00  0.00     0.022 A 
BRANCH  67  70
ATOM     70  S   UNL     1      11.728  18.298   6.628  1.00  0.00     0.127 S 
ATOM     71  O   UNL     1      10.318  18.099   6.960  1.00  0.00    -0.237 OA
ATOM     72  O   UNL     1      12.483  19.067   7.618  1.00  0.00    -0.237 OA
ATOM     73  O   UNL     1      12.006  18.659   5.245  1.00  0.00    -0.744 OA
ENDBRANCH  67  70
ENDBRANCH  49  63
BRANCH  50  74
ATOM     74  C   UNL     1      15.054   8.519  -1.771  1.00  0.00     0.023 A 
ATOM     75  C   UNL     1      16.258   7.789  -1.812  1.00  0.00     0.012 A 
ATOM     76  C   UNL     1      14.110   8.346  -2.802  1.00  0.00     0.148 A 
ATOM     77  C   UNL     1      16.529   6.920  -2.868  1.00  0.00     0.002 A 
ATOM     78  C   UNL     1      14.364   7.439  -3.826  1.00  0.00     0.091 A 
ATOM     79  F   UNL     1      12.974   9.055  -2.748  1.00  0.00    -0.205 F 
ATOM     80  C   UNL     1      15.579   6.737  -3.869  1.00  0.00     0.022 A 
BRANCH  78  81
ATOM     81  S   UNL     1      13.151   7.038  -5.089  1.00  0.00     0.127 S 
ATOM     82  O   UNL     1      13.780   7.577  -6.292  1.00  0.00    -0.237 OA
ATOM     83  O   UNL     1      13.111   5.578  -5.014  1.00  0.00    -0.237 OA
ATOM     84  O   UNL     1      11.917   7.694  -4.676  1.00  0.00    -0.744 OA
ENDBRANCH  78  81
ENDBRANCH  50  74
BRANCH  62  85
ATOM     85  C   UNL     1      18.069  14.357   0.607  1.00  0.00     0.023 A 
ATOM     86  C   UNL     1      17.906  15.195  -0.513  1.00  0.00     0.012 A 
ATOM     87  C   UNL     1      19.288  14.373   1.313  1.00  0.00     0.148 A 
ATOM     88  C   UNL     1      18.949  16.016  -0.941  1.00  0.00     0.002 A 
ATOM     89  C   UNL     1      20.306  15.229   0.910  1.00  0.00     0.091 A 
ATOM     90  F   UNL     1      19.430  13.554   2.365  1.00  0.00    -0.205 F 
ATOM     91  C   UNL     1      20.142  16.043  -0.222  1.00  0.00     0.022 A 
BRANCH  89  92
ATOM     92  S   UNL     1      21.837  15.403   1.834  1.00  0.00     0.127 S 
ATOM     93  O   UNL     1      22.789  14.711   0.966  1.00  0.00    -0.237 OA
ATOM     94  O   UNL     1      22.006  16.855   1.888  1.00  0.00    -0.237 OA
ATOM     95  O   UNL     1      21.598  14.776   3.127  1.00  0.00    -0.744 OA
ENDBRANCH  89  92
ENDBRANCH  62  85
ENDBRANCH  36  37
ENDBRANCH  28  31
ENDBRANCH  26  27
ENDBRANCH   1  26
TORSDOF 16
