REMARK SMILES O=C(NCCCNC(=O)[C@H]1CC[C@H](CN2C(=O)c3cccnc3C2=O)O1)c1ccc(-c2c3nc(c(-c4cccc(S(=O)(=O)[O-])c4F)c4ccc([nH]4)c(-c4cccc(S(=O)(=O)[O-])c4F)c4nc(c(-c5cccc(S(=O)(=O)[O-])c5F)c5ccc2[nH]5)C=C4)C=C3)cc1
REMARK SMILES IDX 4 1 3 2 1 3 2 4 27 6 28 7 89 8 29 9 88 10 30 11 31 12 32 13
REMARK SMILES IDX 82 14 33 15 87 16 81 17 83 18 34 19 86 20 80 21 79 22 35 24
REMARK SMILES IDX 67 25 47 26 66 27 48 28 51 29 65 30 84 31 49 32 50 33 64 35
REMARK SMILES IDX 85 36 52 37 36 38 37 39 45 40 38 41 40 42 46 43 39 44 41 45
REMARK SMILES IDX 42 46 43 47 44 48 68 49 69 50 77 51 70 52 72 53 78 54 71 55
REMARK SMILES IDX 73 56 74 57 75 58 76 59 53 60 54 61 62 62 55 63 57 64 63 65
REMARK SMILES IDX 56 66 58 67 59 68 60 69 61 70 5 71 6 72 7 73 8 74 9 76 10 77
REMARK SMILES IDX 11 78 26 79 12 80 13 81 14 82 15 83 16 84 24 85 17 86 18 87
REMARK SMILES IDX 23 88 25 89 19 90 22 91 20 92 21 93
REMARK H PARENT 3 5 83 23 51 34 7 75
REMARK Flexibility Score: inf
ROOT
ATOM      1  C   UNL     1       9.618   7.686  -6.090  1.00  0.00     0.118 C 
ENDROOT
BRANCH   1   2
ATOM      2  N   UNL     1      10.107   7.199  -7.374  1.00  0.00    -0.352 N 
ATOM      3  O   UNL     1      10.665   7.311  -9.550  1.00  0.00    -0.269 OA
ATOM      4  C   UNL     1      10.508   7.902  -8.486  1.00  0.00     0.251 C 
ATOM      5  H   UNL     1      10.157   6.220  -7.458  1.00  0.00     0.163 HD
BRANCH   4   6
ATOM      6  C   UNL     1      10.732   9.360  -8.393  1.00  0.00     0.039 A 
ATOM      7  C   UNL     1      11.320   9.908  -7.253  1.00  0.00     0.014 A 
ATOM      8  C   UNL     1      10.369  10.188  -9.460  1.00  0.00     0.014 A 
ATOM      9  C   UNL     1      11.386  11.283  -7.103  1.00  0.00     0.010 A 
ATOM     10  C   UNL     1      10.559  11.570  -9.359  1.00  0.00     0.010 A 
ATOM     11  C   UNL     1      11.048  12.130  -8.170  1.00  0.00    -0.014 A 
BRANCH  11  12
ATOM     12  C   UNL     1      11.343  13.579  -8.038  1.00  0.00     0.031 A 
ATOM     13  C   UNL     1      10.260  14.616  -8.110  1.00  0.00     0.074 A 
ATOM     14  C   UNL     1      12.624  13.941  -7.825  1.00  0.00     0.049 A 
ATOM     15  N   UNL     1      10.362  15.913  -7.974  1.00  0.00    -0.248 NA
ATOM     16  C   UNL     1       8.889  14.149  -8.373  1.00  0.00     0.031 C 
ATOM     17  C   UNL     1      13.764  13.017  -7.780  1.00  0.00     0.029 A 
ATOM     18  N   UNL     1      13.190  15.168  -7.596  1.00  0.00    -0.354 N 
ATOM     19  C   UNL     1       9.085  16.423  -8.170  1.00  0.00     0.074 A 
ATOM     20  C   UNL     1       8.221  15.294  -8.442  1.00  0.00     0.031 C 
ATOM     21  C   UNL     1      14.880  13.700  -7.499  1.00  0.00     0.029 A 
ATOM     22  C   UNL     1      14.554  15.117  -7.424  1.00  0.00     0.049 A 
ATOM     23  H   UNL     1      12.671  16.003  -7.559  1.00  0.00     0.167 HD
ATOM     24  C   UNL     1       8.674  17.712  -8.116  1.00  0.00     0.034 A 
ATOM     25  C   UNL     1      15.453  16.103  -7.258  1.00  0.00     0.034 A 
ATOM     26  C   UNL     1       9.543  18.824  -7.829  1.00  0.00     0.049 A 
ATOM     27  C   UNL     1      14.962  17.519  -7.207  1.00  0.00     0.074 A 
ATOM     28  C   UNL     1       9.213  20.163  -7.704  1.00  0.00     0.029 A 
ATOM     29  N   UNL     1      10.914  18.734  -7.638  1.00  0.00    -0.354 N 
ATOM     30  N   UNL     1      13.732  17.967  -7.279  1.00  0.00    -0.248 NA
ATOM     31  C   UNL     1      15.977  18.563  -7.029  1.00  0.00     0.031 C 
ATOM     32  C   UNL     1      10.389  20.885  -7.475  1.00  0.00     0.029 A 
ATOM     33  C   UNL     1      11.447  19.992  -7.412  1.00  0.00     0.049 A 
ATOM     34  H   UNL     1      11.433  17.897  -7.660  1.00  0.00     0.167 HD
ATOM     35  C   UNL     1      13.823  19.343  -7.127  1.00  0.00     0.074 A 
ATOM     36  C   UNL     1      15.225  19.648  -6.923  1.00  0.00     0.031 C 
ATOM     37  C   UNL     1      12.839  20.274  -7.171  1.00  0.00     0.034 A 
BRANCH  24  38
ATOM     38  C   UNL     1       7.212  18.002  -8.351  1.00  0.00     0.023 A 
ATOM     39  C   UNL     1       6.263  17.656  -7.367  1.00  0.00     0.012 A 
ATOM     40  C   UNL     1       6.790  18.697  -9.502  1.00  0.00     0.148 A 
ATOM     41  C   UNL     1       4.916  17.975  -7.536  1.00  0.00     0.002 A 
ATOM     42  C   UNL     1       5.453  19.051  -9.643  1.00  0.00     0.091 A 
ATOM     43  F   UNL     1       7.705  19.004 -10.433  1.00  0.00    -0.205 F 
ATOM     44  C   UNL     1       4.513  18.682  -8.667  1.00  0.00     0.022 A 
BRANCH  42  45
ATOM     45  S   UNL     1       4.844  20.028 -11.022  1.00  0.00     0.127 S 
ATOM     46  O   UNL     1       3.985  19.063 -11.708  1.00  0.00    -0.237 OA
ATOM     47  O   UNL     1       4.127  21.105 -10.340  1.00  0.00    -0.237 OA
ATOM     48  O   UNL     1       6.020  20.452 -11.768  1.00  0.00    -0.744 OA
ENDBRANCH  42  45
ENDBRANCH  24  38
BRANCH  25  49
ATOM     49  C   UNL     1      16.901  15.781  -7.128  1.00  0.00     0.023 A 
ATOM     50  C   UNL     1      17.570  16.033  -5.916  1.00  0.00     0.012 A 
ATOM     51  C   UNL     1      17.615  15.211  -8.201  1.00  0.00     0.148 A 
ATOM     52  C   UNL     1      18.933  15.763  -5.788  1.00  0.00     0.002 A 
ATOM     53  C   UNL     1      18.955  14.883  -8.046  1.00  0.00     0.091 A 
ATOM     54  F   UNL     1      16.963  14.988  -9.352  1.00  0.00    -0.205 F 
ATOM     55  C   UNL     1      19.622  15.179  -6.849  1.00  0.00     0.022 A 
BRANCH  53  56
ATOM     56  S   UNL     1      19.877  14.001  -9.309  1.00  0.00     0.127 S 
ATOM     57  O   UNL     1      20.763  15.046  -9.816  1.00  0.00    -0.237 OA
ATOM     58  O   UNL     1      20.538  12.957  -8.526  1.00  0.00    -0.237 OA
ATOM     59  O   UNL     1      18.879  13.504 -10.247  1.00  0.00    -0.744 OA
ENDBRANCH  53  56
ENDBRANCH  25  49
BRANCH  37  60
ATOM     60  C   UNL     1      13.243  21.709  -6.955  1.00  0.00     0.023 A 
ATOM     61  C   UNL     1      13.994  22.386  -7.937  1.00  0.00     0.012 A 
ATOM     62  C   UNL     1      12.848  22.395  -5.791  1.00  0.00     0.148 A 
ATOM     63  C   UNL     1      14.386  23.710  -7.741  1.00  0.00     0.002 A 
ATOM     64  C   UNL     1      13.192  23.730  -5.628  1.00  0.00     0.091 A 
ATOM     65  F   UNL     1      12.150  21.727  -4.861  1.00  0.00    -0.205 F 
ATOM     66  C   UNL     1      13.976  24.384  -6.593  1.00  0.00     0.022 A 
BRANCH  64  67
ATOM     67  S   UNL     1      12.627  24.707  -4.232  1.00  0.00     0.127 S 
ATOM     68  O   UNL     1      13.866  24.896  -3.480  1.00  0.00    -0.237 OA
ATOM     69  O   UNL     1      12.120  25.914  -4.886  1.00  0.00    -0.237 OA
ATOM     70  O   UNL     1      11.609  23.906  -3.566  1.00  0.00    -0.744 OA
ENDBRANCH  64  67
ENDBRANCH  37  60
ENDBRANCH  11  12
ENDBRANCH   4   6
ENDBRANCH   1   2
BRANCH   1  71
ATOM     71  C   UNL     1       8.196   7.226  -5.815  1.00  0.00     0.042 C 
BRANCH  71  72
ATOM     72  C   UNL     1       8.106   5.730  -5.543  1.00  0.00     0.117 C 
BRANCH  72  73
ATOM     73  N   UNL     1       8.441   5.407  -4.174  1.00  0.00    -0.354 N 
ATOM     74  C   UNL     1       7.644   5.159  -3.098  1.00  0.00     0.249 C 
ATOM     75  H   UNL     1       9.406   5.359  -3.988  1.00  0.00     0.163 HD
ATOM     76  O   UNL     1       8.215   4.880  -2.038  1.00  0.00    -0.272 OA
BRANCH  74  77
ATOM     77  C   UNL     1       6.097   5.228  -3.156  1.00  0.00     0.207 C 
ATOM     78  C   UNL     1       5.522   6.588  -3.496  1.00  0.00     0.045 C 
ATOM     79  O   UNL     1       5.465   4.259  -3.991  1.00  0.00    -0.363 OA
ATOM     80  C   UNL     1       4.838   6.411  -4.826  1.00  0.00     0.037 C 
ATOM     81  C   UNL     1       4.688   4.905  -5.006  1.00  0.00     0.139 C 
BRANCH  81  82
ATOM     82  C   UNL     1       3.230   4.413  -4.992  1.00  0.00     0.161 C 
BRANCH  82  83
ATOM     83  N   UNL     1       2.508   4.934  -6.143  1.00  0.00    -0.270 N 
ATOM     84  C   UNL     1       1.714   6.045  -6.115  1.00  0.00     0.263 C 
ATOM     85  C   UNL     1       2.706   4.483  -7.426  1.00  0.00     0.280 C 
ATOM     86  O   UNL     1       1.344   6.702  -5.159  1.00  0.00    -0.269 OA
ATOM     87  C   UNL     1       1.417   6.384  -7.497  1.00  0.00     0.071 A 
ATOM     88  C   UNL     1       1.996   5.429  -8.298  1.00  0.00     0.141 A 
ATOM     89  O   UNL     1       3.381   3.537  -7.785  1.00  0.00    -0.267 OA
ATOM     90  C   UNL     1       0.793   7.475  -8.061  1.00  0.00     0.018 A 
ATOM     91  N   UNL     1       2.016   5.439  -9.642  1.00  0.00    -0.250 NA
ATOM     92  C   UNL     1       0.787   7.538  -9.456  1.00  0.00     0.021 A 
ATOM     93  C   UNL     1       1.399   6.513 -10.193  1.00  0.00     0.112 A 
ENDBRANCH  82  83
ENDBRANCH  81  82
ENDBRANCH  74  77
ENDBRANCH  72  73
ENDBRANCH  71  72
ENDBRANCH   1  71
TORSDOF 15
