REMARK SMILES Cn1ccc(C(=O)N[C@H]2CCCCC[C@H]2C(=O)NCCCNC(=O)c2ccc(-c3c4nc(c(-c5cccc(S(=O)(=O)[O-])c5F)c5ccc([nH]5)c(-c5cccc(S(=O)(=O)[O-])c5F)c5nc(c(-c6cccc(S(=O)(=O)[O-])c6F)c6ccc3[nH]6)C=C5)C=C4)cc2)cc1=O
REMARK SMILES IDX 20 1 19 2 18 3 16 4 17 5 15 7 9 8 8 9 6 10 7 11 5 13 1 14
REMARK SMILES IDX 2 15 3 16 89 17 4 18 88 19 90 20 10 21 11 22 14 24 13 25
REMARK SMILES IDX 12 26 21 28 22 29 23 30 24 32 25 33 26 34 87 35 27 36 86 37
REMARK SMILES IDX 28 38 29 39 30 40 80 41 31 42 85 43 79 44 81 45 32 46 84 47
REMARK SMILES IDX 78 48 77 49 33 51 65 52 45 53 64 54 46 55 49 56 63 57 82 58
REMARK SMILES IDX 47 59 48 60 62 62 83 63 50 64 34 65 35 66 43 67 36 68 38 69
REMARK SMILES IDX 44 70 37 71 39 72 40 73 41 74 42 75 66 76 67 77 75 78 68 79
REMARK SMILES IDX 70 80 76 81 69 82 71 83 72 84 73 85 74 86 51 87 52 88 60 89
REMARK SMILES IDX 53 90 55 91 61 92 54 93 56 94 57 95 58 96 59 97
REMARK H PARENT 18 6 8 12 22 31 81 50 49 61
REMARK Flexibility Score: 100.00
ROOT
ATOM      1  C   UNL     1      -1.527   6.072  -0.179  1.00  0.00     0.042 C 
ENDROOT
BRANCH   1   2
ATOM      2  C   UNL     1      -1.806   4.739   0.479  1.00  0.00     0.117 C 
BRANCH   2   3
ATOM      3  N   UNL     1      -1.668   3.612  -0.406  1.00  0.00    -0.356 N 
ATOM      4  C   UNL     1      -0.721   2.645  -0.461  1.00  0.00     0.225 C 
ATOM      5  O   UNL     1      -0.895   1.760  -1.307  1.00  0.00    -0.275 OA
ATOM      6  H   UNL     1      -2.379   3.530  -1.082  1.00  0.00     0.163 HD
BRANCH   4   7
ATOM      7  C   UNL     1       0.522   2.586   0.444  1.00  0.00     0.101 C 
BRANCH   7   8
ATOM      8  C   UNL     1       1.679   3.608   0.195  1.00  0.00     0.094 C 
BRANCH   8   9
ATOM      9  N   UNL     1       1.454   4.463  -0.991  1.00  0.00    -0.349 N 
ATOM     10  C   UNL     1       1.838   5.661  -1.512  1.00  0.00     0.251 C 
ATOM     11  O   UNL     1       1.525   5.876  -2.685  1.00  0.00    -0.269 OA
ATOM     12  H   UNL     1       0.820   4.023  -1.602  1.00  0.00     0.164 HD
BRANCH  10  13
ATOM     13  C   UNL     1       2.426   6.749  -0.698  1.00  0.00     0.046 A 
ATOM     14  C   UNL     1       3.491   9.726   2.080  1.00  0.00     0.153 C 
ATOM     15  N   UNL     1       3.187   8.741   1.060  1.00  0.00    -0.319 N 
ATOM     16  C   UNL     1       2.206   9.009   0.126  1.00  0.00     0.089 A 
ATOM     17  C   UNL     1       3.939   7.569   1.021  1.00  0.00     0.251 A 
ATOM     18  C   UNL     1       1.810   8.062  -0.732  1.00  0.00     0.032 A 
ATOM     19  C   UNL     1       3.578   6.587  -0.038  1.00  0.00     0.085 A 
ATOM     20  O   UNL     1       4.801   7.260   1.843  1.00  0.00    -0.269 OA
ENDBRANCH  10  13
ENDBRANCH   8   9
BRANCH   8  21
ATOM     21  C   UNL     1       2.233   4.188   1.499  1.00  0.00     0.026 C 
BRANCH  21  22
ATOM     22  C   UNL     1       1.293   5.112   2.239  1.00  0.00     0.002 CG0
ATOM     23  G   UNL     1       0.459   4.401   3.299  1.00  0.00     0.000 G0
ENDBRANCH  21  22
ENDBRANCH   8  21
ENDBRANCH   7   8
BRANCH   7  24
ATOM     24  C   UNL     1       0.239   2.144   1.899  1.00  0.00     0.015 C 
BRANCH  24  25
ATOM     25  C   UNL     1      -0.300   3.112   2.953  1.00  0.00     0.001 C 
BRANCH  25  26
ATOM     26  C   UNL     1       0.459   4.401   3.299  1.00  0.00     0.000 CG0
ATOM     27  G   UNL     1       1.293   5.112   2.239  1.00  0.00     0.000 G0
ENDBRANCH  25  26
ENDBRANCH  24  25
ENDBRANCH   7  24
ENDBRANCH   4   7
ENDBRANCH   2   3
ENDBRANCH   1   2
BRANCH   1  28
ATOM     28  C   UNL     1      -2.791   6.843  -0.486  1.00  0.00     0.118 C 
BRANCH  28  29
ATOM     29  N   UNL     1      -3.467   7.322   0.722  1.00  0.00    -0.352 N 
ATOM     30  C   UNL     1      -3.732   8.608   1.137  1.00  0.00     0.251 C 
ATOM     31  H   UNL     1      -3.780   6.615   1.331  1.00  0.00     0.163 HD
ATOM     32  O   UNL     1      -4.169   8.808   2.268  1.00  0.00    -0.269 OA
BRANCH  30  33
ATOM     33  C   UNL     1      -3.461   9.744   0.230  1.00  0.00     0.039 A 
ATOM     34  C   UNL     1      -2.911  10.926   0.735  1.00  0.00     0.014 A 
ATOM     35  C   UNL     1      -3.718   9.623  -1.133  1.00  0.00     0.014 A 
ATOM     36  C   UNL     1      -2.536  11.946  -0.146  1.00  0.00     0.010 A 
ATOM     37  C   UNL     1      -3.209  10.563  -2.011  1.00  0.00     0.010 A 
ATOM     38  C   UNL     1      -2.638  11.751  -1.531  1.00  0.00    -0.014 A 
BRANCH  38  39
ATOM     39  C   UNL     1      -2.218  12.763  -2.533  1.00  0.00     0.031 A 
ATOM     40  C   UNL     1      -3.223  13.227  -3.557  1.00  0.00     0.074 A 
ATOM     41  C   UNL     1      -0.927  13.139  -2.625  1.00  0.00     0.049 A 
ATOM     42  N   UNL     1      -3.031  13.896  -4.662  1.00  0.00    -0.248 NA
ATOM     43  C   UNL     1      -4.627  12.830  -3.335  1.00  0.00     0.031 C 
ATOM     44  C   UNL     1       0.153  12.710  -1.734  1.00  0.00     0.029 A 
ATOM     45  N   UNL     1      -0.295  13.936  -3.548  1.00  0.00    -0.354 N 
ATOM     46  C   UNL     1      -4.267  13.931  -5.299  1.00  0.00     0.074 A 
ATOM     47  C   UNL     1      -5.192  13.183  -4.478  1.00  0.00     0.031 C 
ATOM     48  C   UNL     1       1.311  13.245  -2.154  1.00  0.00     0.029 A 
ATOM     49  C   UNL     1       1.068  14.012  -3.371  1.00  0.00     0.049 A 
ATOM     50  H   UNL     1      -0.772  14.409  -4.268  1.00  0.00     0.167 HD
ATOM     51  C   UNL     1      -4.611  14.556  -6.448  1.00  0.00     0.034 A 
ATOM     52  C   UNL     1       2.015  14.611  -4.121  1.00  0.00     0.034 A 
ATOM     53  C   UNL     1      -3.703  15.363  -7.212  1.00  0.00     0.049 A 
ATOM     54  C   UNL     1       1.598  15.349  -5.366  1.00  0.00     0.074 A 
ATOM     55  C   UNL     1      -3.969  16.129  -8.331  1.00  0.00     0.029 A 
ATOM     56  N   UNL     1      -2.354  15.512  -6.930  1.00  0.00    -0.354 N 
ATOM     57  N   UNL     1       0.401  15.481  -5.884  1.00  0.00    -0.248 NA
ATOM     58  C   UNL     1       2.655  16.045  -6.115  1.00  0.00     0.031 C 
ATOM     59  C   UNL     1      -2.773  16.724  -8.741  1.00  0.00     0.029 A 
ATOM     60  C   UNL     1      -1.772  16.358  -7.854  1.00  0.00     0.049 A 
ATOM     61  H   UNL     1      -1.882  15.080  -6.182  1.00  0.00     0.167 HD
ATOM     62  C   UNL     1       0.551  16.314  -6.987  1.00  0.00     0.074 A 
ATOM     63  C   UNL     1       1.956  16.659  -7.061  1.00  0.00     0.031 C 
ATOM     64  C   UNL     1      -0.386  16.748  -7.863  1.00  0.00     0.034 A 
BRANCH  51  65
ATOM     65  C   UNL     1      -6.037  14.436  -6.918  1.00  0.00     0.023 A 
ATOM     66  C   UNL     1      -7.070  15.061  -6.189  1.00  0.00     0.012 A 
ATOM     67  C   UNL     1      -6.351  13.747  -8.106  1.00  0.00     0.148 A 
ATOM     68  C   UNL     1      -8.396  14.965  -6.609  1.00  0.00     0.002 A 
ATOM     69  C   UNL     1      -7.668  13.701  -8.547  1.00  0.00     0.091 A 
ATOM     70  F   UNL     1      -5.360  13.142  -8.775  1.00  0.00    -0.205 F 
ATOM     71  C   UNL     1      -8.693  14.296  -7.792  1.00  0.00     0.022 A 
BRANCH  69  72
ATOM     72  S   UNL     1      -8.144  12.940 -10.102  1.00  0.00     0.127 S 
ATOM     73  O   UNL     1      -8.884  11.766  -9.642  1.00  0.00    -0.237 OA
ATOM     74  O   UNL     1      -8.972  13.982 -10.712  1.00  0.00    -0.237 OA
ATOM     75  O   UNL     1      -6.903  12.659 -10.809  1.00  0.00    -0.744 OA
ENDBRANCH  69  72
ENDBRANCH  51  65
BRANCH  52  76
ATOM     76  C   UNL     1       3.440  14.588  -3.684  1.00  0.00     0.023 A 
ATOM     77  C   UNL     1       4.042  15.780  -3.235  1.00  0.00     0.012 A 
ATOM     78  C   UNL     1       4.193  13.398  -3.682  1.00  0.00     0.148 A 
ATOM     79  C   UNL     1       5.376  15.796  -2.826  1.00  0.00     0.002 A 
ATOM     80  C   UNL     1       5.504  13.409  -3.220  1.00  0.00     0.091 A 
ATOM     81  F   UNL     1       3.605  12.275  -4.117  1.00  0.00    -0.205 F 
ATOM     82  C   UNL     1       6.104  14.610  -2.810  1.00  0.00     0.022 A 
BRANCH  80  83
ATOM     83  S   UNL     1       6.473  11.909  -3.028  1.00  0.00     0.127 S 
ATOM     84  O   UNL     1       7.484  12.071  -4.069  1.00  0.00    -0.237 OA
ATOM     85  O   UNL     1       6.967  12.047  -1.658  1.00  0.00    -0.237 OA
ATOM     86  O   UNL     1       5.535  10.811  -3.220  1.00  0.00    -0.744 OA
ENDBRANCH  80  83
ENDBRANCH  52  76
BRANCH  64  87
ATOM     87  C   UNL     1       0.037  17.710  -8.939  1.00  0.00     0.023 A 
ATOM     88  C   UNL     1       0.761  17.249 -10.054  1.00  0.00     0.012 A 
ATOM     89  C   UNL     1      -0.410  19.046  -8.902  1.00  0.00     0.148 A 
ATOM     90  C   UNL     1       1.047  18.111 -11.113  1.00  0.00     0.002 A 
ATOM     91  C   UNL     1      -0.168  19.883  -9.982  1.00  0.00     0.091 A 
ATOM     92  F   UNL     1      -1.086  19.462  -7.821  1.00  0.00    -0.205 F 
ATOM     93  C   UNL     1       0.569  19.420 -11.084  1.00  0.00     0.022 A 
BRANCH  91  94
ATOM     94  S   UNL     1      -0.836  21.547 -10.082  1.00  0.00     0.127 S 
ATOM     95  O   UNL     1       0.378  22.359 -10.015  1.00  0.00    -0.237 OA
ATOM     96  O   UNL     1      -1.493  21.536 -11.389  1.00  0.00    -0.237 OA
ATOM     97  O   UNL     1      -1.740  21.690  -8.949  1.00  0.00    -0.744 OA
ENDBRANCH  91  94
ENDBRANCH  64  87
ENDBRANCH  38  39
ENDBRANCH  30  33
ENDBRANCH  28  29
ENDBRANCH   1  28
TORSDOF 15
