REMARK SMILES [NH3+]C1CC[NH+](CC(=O)Nc2cc(Cl)ccc2C(=O)NCCCNC(=O)c2ccc(-c3c4nc(c(-c5cccc(S(=O)(=O)[O-])c5F)c5ccc([nH]5)c(-c5cccc(S(=O)(=O)[O-])c5F)c5nc(c(-c6cccc(S(=O)(=O)[O-])c6F)c6ccc3[nH]6)C=C5)C=C4)cc2)CC1
REMARK SMILES IDX 20 1 19 2 17 3 18 4 16 6 10 7 11 8 12 9 15 10 13 11 14 12
REMARK SMILES IDX 9 13 7 14 8 15 6 17 5 18 2 19 3 20 90 21 4 22 89 23 1 25
REMARK SMILES IDX 21 29 22 30 23 31 24 32 25 34 26 35 27 36 88 37 28 38 87 39
REMARK SMILES IDX 29 40 30 41 31 42 81 43 32 44 86 45 80 46 82 47 33 48 85 49
REMARK SMILES IDX 79 50 78 51 34 53 66 54 46 55 65 56 47 57 50 58 64 59 83 60
REMARK SMILES IDX 48 61 49 62 63 64 84 65 51 66 35 67 36 68 44 69 37 70 39 71
REMARK SMILES IDX 45 72 38 73 40 74 41 75 42 76 43 77 67 78 68 79 76 80 69 81
REMARK SMILES IDX 71 82 77 83 70 84 72 85 73 86 74 87 75 88 52 89 53 90 61 91
REMARK SMILES IDX 54 92 56 93 62 94 55 95 57 96 58 97 59 98 60 99
REMARK H PARENT 19 5 9 16 5 24 1 26 1 27 1 28 23 33 82 52 50 63
REMARK Flexibility Score: inf
ROOT
ATOM      1  C   UNL     1      -0.523  -3.769   4.795  1.00  0.00     0.118 C 
ENDROOT
BRANCH   1   2
ATOM      2  N   UNL     1       0.743  -4.460   4.624  1.00  0.00    -0.352 N 
ATOM      3  C   UNL     1       1.501  -4.733   3.502  1.00  0.00     0.253 C 
ATOM      4  O   UNL     1       2.650  -5.136   3.710  1.00  0.00    -0.269 OA
ATOM      5  H   UNL     1       1.133  -4.795   5.463  1.00  0.00     0.163 HD
BRANCH   3   6
ATOM      6  C   UNL     1       1.015  -4.679   2.073  1.00  0.00     0.063 A 
ATOM      7  C   UNL     1      -0.024  -3.883   1.537  1.00  0.00     0.055 A 
ATOM      8  C   UNL     1      -0.531  -4.206   0.275  1.00  0.00     0.047 A 
ATOM      9  C   UNL     1       0.128  -5.116  -0.551  1.00  0.00     0.043 A 
ATOM     10  C   UNL     1       1.684  -5.574   1.207  1.00  0.00     0.017 A 
ATOM     11  Cl  UNL     1      -0.442  -5.380  -2.153  1.00  0.00    -0.084 Cl
ATOM     12  C   UNL     1       1.270  -5.762  -0.111  1.00  0.00     0.021 A 
BRANCH   7  13
ATOM     13  N   UNL     1      -0.412  -2.723   2.227  1.00  0.00    -0.320 N 
ATOM     14  C   UNL     1      -1.423  -1.815   2.206  1.00  0.00     0.279 C 
ATOM     15  O   UNL     1      -1.458  -1.069   3.196  1.00  0.00    -0.268 OA
ATOM     16  H   UNL     1       0.239  -2.504   2.933  1.00  0.00     0.170 HD
BRANCH  14  17
ATOM     17  C   UNL     1      -2.464  -1.669   1.113  1.00  0.00     0.363 C 
BRANCH  17  18
ATOM     18  N   UNL     1      -2.134  -0.669   0.079  1.00  0.00    -0.327 N 
ATOM     19  C   UNL     1       0.518   0.659   0.376  1.00  0.00     0.192 C 
ATOM     20  C   UNL     1      -0.720   1.139   1.146  1.00  0.00     0.126 C 
ATOM     21  C   UNL     1       0.350  -0.710  -0.286  1.00  0.00     0.126 C 
ATOM     22  C   UNL     1      -2.063   0.718   0.544  1.00  0.00     0.268 C 
ATOM     23  C   UNL     1      -1.048  -0.958  -0.845  1.00  0.00     0.268 C 
ATOM     24  H   UNL     1      -2.978  -0.772  -0.485  1.00  0.00     0.348 HD
BRANCH  19  25
ATOM     25  N   UNL     1       0.921   1.645  -0.632  1.00  0.00    -0.355 N 
ATOM     26  H   UNL     1       1.032   2.557  -0.190  1.00  0.00     0.344 HD
ATOM     27  H   UNL     1       0.205   1.703  -1.356  1.00  0.00     0.344 HD
ATOM     28  H   UNL     1       1.806   1.359  -1.052  1.00  0.00     0.344 HD
ENDBRANCH  19  25
ENDBRANCH  17  18
ENDBRANCH  14  17
ENDBRANCH   7  13
ENDBRANCH   3   6
ENDBRANCH   1   2
BRANCH   1  29
ATOM     29  C   UNL     1      -1.377  -4.096   5.997  1.00  0.00     0.042 C 
BRANCH  29  30
ATOM     30  C   UNL     1      -0.716  -3.886   7.343  1.00  0.00     0.118 C 
BRANCH  30  31
ATOM     31  N   UNL     1      -0.418  -2.496   7.684  1.00  0.00    -0.352 N 
ATOM     32  C   UNL     1      -1.071  -1.552   8.449  1.00  0.00     0.251 C 
ATOM     33  H   UNL     1       0.420  -2.167   7.286  1.00  0.00     0.163 HD
ATOM     34  O   UNL     1      -0.577  -0.428   8.548  1.00  0.00    -0.269 OA
BRANCH  32  35
ATOM     35  C   UNL     1      -2.367  -1.836   9.109  1.00  0.00     0.039 A 
ATOM     36  C   UNL     1      -3.330  -0.824   9.214  1.00  0.00     0.014 A 
ATOM     37  C   UNL     1      -2.659  -3.091   9.623  1.00  0.00     0.014 A 
ATOM     38  C   UNL     1      -4.600  -1.114   9.732  1.00  0.00     0.010 A 
ATOM     39  C   UNL     1      -3.963  -3.424   9.955  1.00  0.00     0.010 A 
ATOM     40  C   UNL     1      -4.949  -2.436  10.051  1.00  0.00    -0.014 A 
BRANCH  40  41
ATOM     41  C   UNL     1      -6.304  -2.827  10.526  1.00  0.00     0.031 A 
ATOM     42  C   UNL     1      -6.454  -3.611  11.811  1.00  0.00     0.074 A 
ATOM     43  C   UNL     1      -7.385  -2.598   9.754  1.00  0.00     0.049 A 
ATOM     44  N   UNL     1      -7.519  -4.175  12.319  1.00  0.00    -0.248 NA
ATOM     45  C   UNL     1      -5.229  -3.848  12.597  1.00  0.00     0.031 C 
ATOM     46  C   UNL     1      -7.373  -1.941   8.444  1.00  0.00     0.029 A 
ATOM     47  N   UNL     1      -8.707  -2.916   9.949  1.00  0.00    -0.354 N 
ATOM     48  C   UNL     1      -7.079  -4.882  13.433  1.00  0.00     0.074 A 
ATOM     49  C   UNL     1      -5.644  -4.734  13.488  1.00  0.00     0.031 C 
ATOM     50  C   UNL     1      -8.628  -1.875   7.971  1.00  0.00     0.029 A 
ATOM     51  C   UNL     1      -9.529  -2.519   8.919  1.00  0.00     0.049 A 
ATOM     52  H   UNL     1      -9.035  -3.384  10.750  1.00  0.00     0.167 HD
ATOM     53  C   UNL     1      -7.802  -5.552  14.362  1.00  0.00     0.034 A 
ATOM     54  C   UNL     1     -10.860  -2.655   8.761  1.00  0.00     0.034 A 
ATOM     55  C   UNL     1      -9.236  -5.615  14.357  1.00  0.00     0.049 A 
ATOM     56  C   UNL     1     -11.657  -3.330   9.844  1.00  0.00     0.074 A 
ATOM     57  C   UNL     1     -10.079  -6.162  15.307  1.00  0.00     0.029 A 
ATOM     58  N   UNL     1     -10.042  -5.103  13.352  1.00  0.00    -0.354 N 
ATOM     59  N   UNL     1     -11.239  -3.860  10.968  1.00  0.00    -0.248 NA
ATOM     60  C   UNL     1     -13.113  -3.394   9.654  1.00  0.00     0.031 C 
ATOM     61  C   UNL     1     -11.396  -5.995  14.867  1.00  0.00     0.029 A 
ATOM     62  C   UNL     1     -11.374  -5.322  13.655  1.00  0.00     0.049 A 
ATOM     63  H   UNL     1      -9.715  -4.649  12.542  1.00  0.00     0.167 HD
ATOM     64  C   UNL     1     -12.380  -4.285  11.638  1.00  0.00     0.074 A 
ATOM     65  C   UNL     1     -13.509  -3.935  10.799  1.00  0.00     0.031 C 
ATOM     66  C   UNL     1     -12.486  -4.918  12.832  1.00  0.00     0.034 A 
BRANCH  53  67
ATOM     67  C   UNL     1      -7.046  -6.204  15.495  1.00  0.00     0.023 A 
ATOM     68  C   UNL     1      -6.383  -5.399  16.446  1.00  0.00     0.012 A 
ATOM     69  C   UNL     1      -6.998  -7.605  15.628  1.00  0.00     0.148 A 
ATOM     70  C   UNL     1      -5.634  -5.976  17.471  1.00  0.00     0.002 A 
ATOM     71  C   UNL     1      -6.294  -8.172  16.686  1.00  0.00     0.091 A 
ATOM     72  F   UNL     1      -7.615  -8.359  14.707  1.00  0.00    -0.205 F 
ATOM     73  C   UNL     1      -5.597  -7.361  17.596  1.00  0.00     0.022 A 
BRANCH  71  74
ATOM     74  S   UNL     1      -6.260  -9.943  16.982  1.00  0.00     0.127 S 
ATOM     75  O   UNL     1      -4.910 -10.291  16.540  1.00  0.00    -0.237 OA
ATOM     76  O   UNL     1      -6.464 -10.019  18.429  1.00  0.00    -0.237 OA
ATOM     77  O   UNL     1      -7.346 -10.501  16.189  1.00  0.00    -0.744 OA
ENDBRANCH  71  74
ENDBRANCH  53  67
BRANCH  54  78
ATOM     78  C   UNL     1     -11.531  -2.045   7.577  1.00  0.00     0.023 A 
ATOM     79  C   UNL     1     -12.324  -0.895   7.761  1.00  0.00     0.012 A 
ATOM     80  C   UNL     1     -11.353  -2.555   6.277  1.00  0.00     0.148 A 
ATOM     81  C   UNL     1     -12.948  -0.278   6.676  1.00  0.00     0.002 A 
ATOM     82  C   UNL     1     -11.935  -1.906   5.194  1.00  0.00     0.091 A 
ATOM     83  F   UNL     1     -10.598  -3.653   6.125  1.00  0.00    -0.205 F 
ATOM     84  C   UNL     1     -12.746  -0.777   5.393  1.00  0.00     0.022 A 
BRANCH  82  85
ATOM     85  S   UNL     1     -11.634  -2.398   3.492  1.00  0.00     0.127 S 
ATOM     86  O   UNL     1     -12.951  -2.875   3.080  1.00  0.00    -0.237 OA
ATOM     87  O   UNL     1     -11.218  -1.133   2.884  1.00  0.00    -0.237 OA
ATOM     88  O   UNL     1     -10.588  -3.410   3.553  1.00  0.00    -0.744 OA
ENDBRANCH  82  85
ENDBRANCH  54  78
BRANCH  66  89
ATOM     89  C   UNL     1     -13.868  -5.244  13.331  1.00  0.00     0.023 A 
ATOM     90  C   UNL     1     -14.606  -6.281  12.729  1.00  0.00     0.012 A 
ATOM     91  C   UNL     1     -14.400  -4.575  14.452  1.00  0.00     0.148 A 
ATOM     92  C   UNL     1     -15.865  -6.628  13.215  1.00  0.00     0.002 A 
ATOM     93  C   UNL     1     -15.633  -4.960  14.961  1.00  0.00     0.091 A 
ATOM     94  F   UNL     1     -13.690  -3.578  14.999  1.00  0.00    -0.205 F 
ATOM     95  C   UNL     1     -16.373  -5.978  14.337  1.00  0.00     0.022 A 
BRANCH  93  96
ATOM     96  S   UNL     1     -16.317  -4.248  16.462  1.00  0.00     0.127 S 
ATOM     97  O   UNL     1     -17.394  -3.413  15.932  1.00  0.00    -0.237 OA
ATOM     98  O   UNL     1     -16.768  -5.435  17.191  1.00  0.00    -0.237 OA
ATOM     99  O   UNL     1     -15.223  -3.529  17.100  1.00  0.00    -0.744 OA
ENDBRANCH  93  96
ENDBRANCH  66  89
ENDBRANCH  40  41
ENDBRANCH  32  35
ENDBRANCH  30  31
ENDBRANCH  29  30
ENDBRANCH   1  29
TORSDOF 17
