REMARK SMILES O=C(NCCCNC(=O)[C@@H](Cc1c[nH]c2ccccc12)Nc1ncnc2ccccc12)c1ccc(-c2c3nc(c(-c4cccc(S(=O)(=O)[O-])c4F)c4ccc([nH]4)c(-c4cccc(S(=O)(=O)[O-])c4F)c4nc(c(-c5cccc(S(=O)(=O)[O-])c5F)c5ccc2[nH]5)C=C4)C=C3)cc1
REMARK SMILES IDX 4 1 3 2 1 3 2 4 32 6 33 7 94 8 34 9 93 10 35 11 36 12 37 13
REMARK SMILES IDX 87 14 38 15 92 16 86 17 88 18 39 19 91 20 85 21 84 22 40 24
REMARK SMILES IDX 72 25 52 26 71 27 53 28 56 29 70 30 89 31 54 32 55 33 69 35
REMARK SMILES IDX 90 36 57 37 41 38 42 39 50 40 43 41 45 42 51 43 44 44 46 45
REMARK SMILES IDX 47 46 48 47 49 48 73 49 74 50 82 51 75 52 77 53 83 54 76 55
REMARK SMILES IDX 78 56 79 57 80 58 81 59 58 60 59 61 67 62 60 63 62 64 68 65
REMARK SMILES IDX 61 66 63 67 64 68 65 69 66 70 5 71 6 72 7 73 8 74 9 76 10 77
REMARK SMILES IDX 11 78 12 79 13 80 20 81 14 82 15 83 19 84 16 86 18 87 17 88
REMARK SMILES IDX 21 89 22 91 23 92 31 93 24 94 26 95 30 96 25 97 27 98 29 99
REMARK SMILES IDX 28 100
REMARK H PARENT 3 5 88 23 56 34 7 75 14 85 21 90
REMARK Flexibility Score: inf
ROOT
ATOM      1  C   UNL     1       3.345  -0.355  -1.845  1.00  0.00     0.118 C 
ENDROOT
BRANCH   1   2
ATOM      2  N   UNL     1       2.068   0.013  -1.258  1.00  0.00    -0.352 N 
ATOM      3  O   UNL     1       0.511   0.483   0.258  1.00  0.00    -0.269 OA
ATOM      4  C   UNL     1       1.714   0.478  -0.013  1.00  0.00     0.251 C 
ATOM      5  H   UNL     1       1.307  -0.090  -1.873  1.00  0.00     0.163 HD
BRANCH   4   6
ATOM      6  C   UNL     1       2.685   0.947   1.019  1.00  0.00     0.039 A 
ATOM      7  C   UNL     1       3.864   1.627   0.724  1.00  0.00     0.014 A 
ATOM      8  C   UNL     1       2.320   0.820   2.370  1.00  0.00     0.014 A 
ATOM      9  C   UNL     1       4.709   2.075   1.753  1.00  0.00     0.010 A 
ATOM     10  C   UNL     1       3.128   1.337   3.397  1.00  0.00     0.010 A 
ATOM     11  C   UNL     1       4.355   1.950   3.108  1.00  0.00    -0.014 A 
BRANCH  11  12
ATOM     12  C   UNL     1       5.233   2.515   4.184  1.00  0.00     0.031 A 
ATOM     13  C   UNL     1       5.770   1.658   5.310  1.00  0.00     0.074 A 
ATOM     14  C   UNL     1       5.545   3.830   4.176  1.00  0.00     0.049 A 
ATOM     15  N   UNL     1       6.550   1.999   6.309  1.00  0.00    -0.248 NA
ATOM     16  C   UNL     1       5.372   0.242   5.330  1.00  0.00     0.031 C 
ATOM     17  C   UNL     1       5.055   4.808   3.202  1.00  0.00     0.029 A 
ATOM     18  N   UNL     1       6.345   4.576   5.012  1.00  0.00    -0.354 N 
ATOM     19  C   UNL     1       6.690   0.863   7.101  1.00  0.00     0.074 A 
ATOM     20  C   UNL     1       5.911  -0.180   6.467  1.00  0.00     0.031 C 
ATOM     21  C   UNL     1       5.597   6.006   3.465  1.00  0.00     0.029 A 
ATOM     22  C   UNL     1       6.428   5.905   4.660  1.00  0.00     0.049 A 
ATOM     23  H   UNL     1       6.815   4.195   5.788  1.00  0.00     0.167 HD
ATOM     24  C   UNL     1       7.410   0.691   8.238  1.00  0.00     0.034 A 
ATOM     25  C   UNL     1       7.086   6.936   5.229  1.00  0.00     0.034 A 
ATOM     26  C   UNL     1       8.237   1.700   8.849  1.00  0.00     0.049 A 
ATOM     27  C   UNL     1       7.915   6.704   6.462  1.00  0.00     0.074 A 
ATOM     28  C   UNL     1       9.070   1.576   9.950  1.00  0.00     0.029 A 
ATOM     29  N   UNL     1       8.336   3.014   8.425  1.00  0.00    -0.354 N 
ATOM     30  N   UNL     1       8.145   5.586   7.103  1.00  0.00    -0.248 NA
ATOM     31  C   UNL     1       8.597   7.875   7.034  1.00  0.00     0.031 C 
ATOM     32  C   UNL     1       9.656   2.821  10.204  1.00  0.00     0.029 A 
ATOM     33  C   UNL     1       9.207   3.715   9.246  1.00  0.00     0.049 A 
ATOM     34  H   UNL     1       7.857   3.396   7.654  1.00  0.00     0.167 HD
ATOM     35  C   UNL     1       9.022   5.911   8.132  1.00  0.00     0.074 A 
ATOM     36  C   UNL     1       9.302   7.327   8.013  1.00  0.00     0.031 C 
ATOM     37  C   UNL     1       9.534   5.109   9.098  1.00  0.00     0.034 A 
BRANCH  24  38
ATOM     38  C   UNL     1       7.378  -0.668   8.895  1.00  0.00     0.023 A 
ATOM     39  C   UNL     1       8.075  -1.744   8.309  1.00  0.00     0.012 A 
ATOM     40  C   UNL     1       6.734  -0.859  10.135  1.00  0.00     0.148 A 
ATOM     41  C   UNL     1       8.106  -2.993   8.928  1.00  0.00     0.002 A 
ATOM     42  C   UNL     1       6.805  -2.096  10.767  1.00  0.00     0.091 A 
ATOM     43  F   UNL     1       6.061   0.169  10.672  1.00  0.00    -0.205 F 
ATOM     44  C   UNL     1       7.481  -3.166  10.160  1.00  0.00     0.022 A 
BRANCH  42  45
ATOM     45  S   UNL     1       6.104  -2.391  12.395  1.00  0.00     0.127 S 
ATOM     46  O   UNL     1       4.915  -3.175  12.065  1.00  0.00    -0.237 OA
ATOM     47  O   UNL     1       7.166  -3.148  13.059  1.00  0.00    -0.237 OA
ATOM     48  O   UNL     1       5.852  -1.075  12.965  1.00  0.00    -0.744 OA
ENDBRANCH  42  45
ENDBRANCH  24  38
BRANCH  25  49
ATOM     49  C   UNL     1       7.037   8.286   4.596  1.00  0.00     0.023 A 
ATOM     50  C   UNL     1       8.198   8.808   3.994  1.00  0.00     0.012 A 
ATOM     51  C   UNL     1       5.848   9.040   4.562  1.00  0.00     0.148 A 
ATOM     52  C   UNL     1       8.183  10.066   3.391  1.00  0.00     0.002 A 
ATOM     53  C   UNL     1       5.824  10.264   3.906  1.00  0.00     0.091 A 
ATOM     54  F   UNL     1       4.759   8.536   5.161  1.00  0.00    -0.205 F 
ATOM     55  C   UNL     1       6.994  10.788   3.335  1.00  0.00     0.022 A 
BRANCH  53  56
ATOM     56  S   UNL     1       4.305  11.191   3.660  1.00  0.00     0.127 S 
ATOM     57  O   UNL     1       4.485  12.310   4.580  1.00  0.00    -0.237 OA
ATOM     58  O   UNL     1       4.389  11.539   2.241  1.00  0.00    -0.237 OA
ATOM     59  O   UNL     1       3.228  10.266   3.986  1.00  0.00    -0.744 OA
ENDBRANCH  53  56
ENDBRANCH  25  49
BRANCH  37  60
ATOM     60  C   UNL     1      10.487   5.726  10.090  1.00  0.00     0.023 A 
ATOM     61  C   UNL     1      10.002   6.612  11.073  1.00  0.00     0.012 A 
ATOM     62  C   UNL     1      11.855   5.389  10.081  1.00  0.00     0.148 A 
ATOM     63  C   UNL     1      10.869   7.180  12.007  1.00  0.00     0.002 A 
ATOM     64  C   UNL     1      12.705   5.923  11.044  1.00  0.00     0.091 A 
ATOM     65  F   UNL     1      12.306   4.563   9.126  1.00  0.00    -0.205 F 
ATOM     66  C   UNL     1      12.216   6.828  12.000  1.00  0.00     0.022 A 
BRANCH  64  67
ATOM     67  S   UNL     1      14.435   5.450  11.161  1.00  0.00     0.127 S 
ATOM     68  O   UNL     1      15.103   6.618  10.584  1.00  0.00    -0.237 OA
ATOM     69  O   UNL     1      14.621   5.298  12.607  1.00  0.00    -0.237 OA
ATOM     70  O   UNL     1      14.562   4.215  10.406  1.00  0.00    -0.744 OA
ENDBRANCH  64  67
ENDBRANCH  37  60
ENDBRANCH  11  12
ENDBRANCH   4   6
ENDBRANCH   1   2
BRANCH   1  71
ATOM     71  C   UNL     1       3.752  -1.782  -1.499  1.00  0.00     0.042 C 
BRANCH  71  72
ATOM     72  C   UNL     1       3.598  -2.825  -2.607  1.00  0.00     0.117 C 
BRANCH  72  73
ATOM     73  N   UNL     1       4.537  -2.625  -3.704  1.00  0.00    -0.354 N 
ATOM     74  C   UNL     1       5.618  -3.310  -4.168  1.00  0.00     0.242 C 
ATOM     75  H   UNL     1       4.348  -1.812  -4.225  1.00  0.00     0.163 HD
ATOM     76  O   UNL     1       6.249  -2.743  -5.074  1.00  0.00    -0.273 OA
BRANCH  74  77
ATOM     77  C   UNL     1       6.123  -4.681  -3.654  1.00  0.00     0.174 C 
BRANCH  77  78
ATOM     78  C   UNL     1       7.128  -4.549  -2.501  1.00  0.00     0.072 C 
BRANCH  78  79
ATOM     79  C   UNL     1       6.656  -4.017  -1.190  1.00  0.00    -0.020 A 
ATOM     80  C   UNL     1       5.900  -4.676  -0.240  1.00  0.00     0.087 A 
ATOM     81  C   UNL     1       6.977  -2.732  -0.648  1.00  0.00     0.003 A 
ATOM     82  N   UNL     1       5.741  -3.844   0.837  1.00  0.00    -0.361 N 
ATOM     83  C   UNL     1       6.369  -2.643   0.605  1.00  0.00     0.046 A 
ATOM     84  C   UNL     1       7.685  -1.614  -1.138  1.00  0.00     0.010 A 
ATOM     85  H   UNL     1       5.248  -4.074   1.658  1.00  0.00     0.166 HD
ATOM     86  C   UNL     1       6.419  -1.483   1.386  1.00  0.00     0.026 A 
ATOM     87  C   UNL     1       7.740  -0.446  -0.373  1.00  0.00     0.001 A 
ATOM     88  C   UNL     1       7.119  -0.387   0.871  1.00  0.00     0.002 A 
ENDBRANCH  78  79
ENDBRANCH  77  78
BRANCH  77  89
ATOM     89  N   UNL     1       5.061  -5.690  -3.442  1.00  0.00    -0.358 N 
ATOM     90  H   UNL     1       4.471  -5.643  -2.655  1.00  0.00     0.162 HD
BRANCH  89  91
ATOM     91  C   UNL     1       4.917  -6.710  -4.383  1.00  0.00     0.137 A 
ATOM     92  N   UNL     1       3.734  -6.676  -5.016  1.00  0.00    -0.219 NA
ATOM     93  C   UNL     1       5.896  -7.682  -4.673  1.00  0.00     0.043 A 
ATOM     94  C   UNL     1       3.555  -7.571  -5.994  1.00  0.00     0.224 A 
ATOM     95  C   UNL     1       5.593  -8.543  -5.739  1.00  0.00     0.076 A 
ATOM     96  C   UNL     1       7.112  -7.880  -3.972  1.00  0.00     0.014 A 
ATOM     97  N   UNL     1       4.436  -8.491  -6.404  1.00  0.00    -0.236 NA
ATOM     98  C   UNL     1       6.529  -9.502  -6.116  1.00  0.00     0.029 A 
ATOM     99  C   UNL     1       8.037  -8.844  -4.366  1.00  0.00     0.001 A 
ATOM    100  C   UNL     1       7.749  -9.652  -5.453  1.00  0.00     0.002 A 
ENDBRANCH  89  91
ENDBRANCH  77  89
ENDBRANCH  74  77
ENDBRANCH  72  73
ENDBRANCH  71  72
ENDBRANCH   1  71
TORSDOF 17
