REMARK SMILES Cn1cc(-c2cc(C(F)(F)F)c3c(C4CC4)nn(CC(=O)NCCCNC(=O)c4ccc(-c5c6nc(c(-c7cccc(S(=O)(=O)[O-])c7F)c7ccc([nH]7)c(-c7cccc(S(=O)(=O)[O-])c7F)c7nc(c(-c8cccc(S(=O)(=O)[O-])c8F)c8ccc5[nH]8)C=C7)C=C6)cc4)c3n2)cn1
REMARK SMILES IDX 24 1 23 2 22 3 20 4 21 5 19 7 18 8 5 9 6 10 93 11 7 12 92 13
REMARK SMILES IDX 12 14 13 15 17 16 4 17 1 18 2 19 3 20 95 21 94 22 8 23 9 24
REMARK SMILES IDX 10 25 11 26 14 27 15 28 16 29 25 30 26 31 27 32 28 34 29 35
REMARK SMILES IDX 30 36 91 37 31 38 90 39 32 40 33 41 34 42 84 43 35 44 89 45
REMARK SMILES IDX 83 46 85 47 36 48 88 49 82 50 81 51 37 53 69 54 49 55 68 56
REMARK SMILES IDX 50 57 53 58 67 59 86 60 51 61 52 62 66 64 87 65 54 66 38 67
REMARK SMILES IDX 39 68 47 69 40 70 42 71 48 72 41 73 43 74 44 75 45 76 46 77
REMARK SMILES IDX 70 78 71 79 79 80 72 81 74 82 80 83 73 84 75 85 76 86 77 87
REMARK SMILES IDX 78 88 55 89 56 90 64 91 57 92 59 93 65 94 58 95 60 96 61 97
REMARK SMILES IDX 62 98 63 99
REMARK H PARENT 22 6 26 33 85 52 53 63
REMARK Flexibility Score: inf
ROOT
ATOM      1  C   UNL     1      -2.175  -3.174  -3.572  1.00  0.00     0.042 C 
ENDROOT
BRANCH   1   2
ATOM      2  C   UNL     1      -2.346  -1.674  -3.816  1.00  0.00     0.117 C 
BRANCH   2   3
ATOM      3  N   UNL     1      -3.360  -1.063  -2.976  1.00  0.00    -0.354 N 
ATOM      4  C   UNL     1      -3.168  -0.440  -1.774  1.00  0.00     0.241 C 
ATOM      5  O   UNL     1      -4.102   0.156  -1.239  1.00  0.00    -0.273 OA
ATOM      6  H   UNL     1      -4.286  -1.103  -3.307  1.00  0.00     0.163 HD
BRANCH   4   7
ATOM      7  C   UNL     1      -1.786  -0.402  -1.204  1.00  0.00     0.246 C 
BRANCH   7   8
ATOM      8  N   UNL     1      -1.280  -1.705  -0.820  1.00  0.00    -0.237 N 
ATOM      9  C   UNL     1       2.012  -1.289  -0.280  1.00  0.00     0.077 A 
ATOM     10  C   UNL     1       2.430  -2.558   0.111  1.00  0.00     0.043 A 
ATOM     11  N   UNL     1       1.032  -1.185  -1.204  1.00  0.00    -0.228 NA
ATOM     12  C   UNL     1       1.547  -3.651  -0.077  1.00  0.00     0.071 A 
ATOM     13  C   UNL     1       0.040  -2.031  -0.867  1.00  0.00     0.159 A 
ATOM     14  C   UNL     1       0.207  -3.234  -0.198  1.00  0.00     0.055 A 
ATOM     15  C   UNL     1      -1.077  -3.455   0.372  1.00  0.00     0.076 A 
ATOM     16  N   UNL     1      -1.992  -2.575  -0.074  1.00  0.00    -0.175 NA
BRANCH   9  17
ATOM     17  C   UNL     1       1.766  -0.224   0.725  1.00  0.00     0.038 A 
ATOM     18  C   UNL     1      -1.280   0.882   2.219  1.00  0.00     0.173 C 
ATOM     19  N   UNL     1       0.110   0.765   1.815  1.00  0.00    -0.275 N 
ATOM     20  C   UNL     1       0.812  -0.411   1.724  1.00  0.00     0.118 A 
ATOM     21  N   UNL     1       0.720   1.780   1.174  1.00  0.00    -0.181 NA
ATOM     22  C   UNL     1       1.666   1.167   0.452  1.00  0.00     0.145 A 
ENDBRANCH   9  17
BRANCH  12  23
ATOM     23  C   UNL     1       2.049  -5.031  -0.396  1.00  0.00     0.417 C 
ATOM     24  F   UNL     1       1.672  -6.013   0.454  1.00  0.00    -0.166 F 
ATOM     25  F   UNL     1       1.641  -5.436  -1.634  1.00  0.00    -0.166 F 
ATOM     26  F   UNL     1       3.413  -5.093  -0.435  1.00  0.00    -0.166 F 
ENDBRANCH  12  23
BRANCH  15  27
ATOM     27  C   UNL     1      -1.466  -4.299   1.588  1.00  0.00     0.041 C 
ATOM     28  C   UNL     1      -0.598  -5.322   2.265  1.00  0.00     0.011 C 
ATOM     29  C   UNL     1      -0.769  -3.992   2.908  1.00  0.00     0.011 C 
ENDBRANCH  15  27
ENDBRANCH   7   8
ENDBRANCH   4   7
ENDBRANCH   2   3
ENDBRANCH   1   2
BRANCH   1  30
ATOM     30  C   UNL     1      -3.290  -3.961  -4.214  1.00  0.00     0.118 C 
BRANCH  30  31
ATOM     31  N   UNL     1      -3.262  -3.816  -5.669  1.00  0.00    -0.352 N 
ATOM     32  C   UNL     1      -4.087  -4.402  -6.594  1.00  0.00     0.251 C 
ATOM     33  H   UNL     1      -2.563  -3.224  -6.029  1.00  0.00     0.163 HD
ATOM     34  O   UNL     1      -3.786  -4.409  -7.786  1.00  0.00    -0.269 OA
BRANCH  32  35
ATOM     35  C   UNL     1      -5.327  -5.023  -6.122  1.00  0.00     0.039 A 
ATOM     36  C   UNL     1      -5.727  -6.267  -6.610  1.00  0.00     0.014 A 
ATOM     37  C   UNL     1      -6.059  -4.356  -5.139  1.00  0.00     0.014 A 
ATOM     38  C   UNL     1      -6.857  -6.855  -6.062  1.00  0.00     0.010 A 
ATOM     39  C   UNL     1      -7.059  -5.011  -4.480  1.00  0.00     0.010 A 
ATOM     40  C   UNL     1      -7.507  -6.219  -4.993  1.00  0.00    -0.014 A 
BRANCH  40  41
ATOM     41  C   UNL     1      -8.654  -6.830  -4.356  1.00  0.00     0.031 A 
ATOM     42  C   UNL     1      -8.374  -8.145  -3.739  1.00  0.00     0.074 A 
ATOM     43  C   UNL     1      -9.819  -6.171  -4.191  1.00  0.00     0.049 A 
ATOM     44  N   UNL     1      -8.644  -9.306  -4.234  1.00  0.00    -0.248 NA
ATOM     45  C   UNL     1      -7.552  -8.187  -2.519  1.00  0.00     0.031 C 
ATOM     46  C   UNL     1     -10.094  -4.748  -4.444  1.00  0.00     0.029 A 
ATOM     47  N   UNL     1     -10.980  -6.608  -3.641  1.00  0.00    -0.354 N 
ATOM     48  C   UNL     1      -8.287 -10.208  -3.240  1.00  0.00     0.074 A 
ATOM     49  C   UNL     1      -7.416  -9.504  -2.334  1.00  0.00     0.031 C 
ATOM     50  C   UNL     1     -11.238  -4.393  -3.819  1.00  0.00     0.029 A 
ATOM     51  C   UNL     1     -11.871  -5.593  -3.315  1.00  0.00     0.049 A 
ATOM     52  H   UNL     1     -11.174  -7.561  -3.486  1.00  0.00     0.167 HD
ATOM     53  C   UNL     1      -9.001 -11.350  -3.045  1.00  0.00     0.034 A 
ATOM     54  C   UNL     1     -13.043  -5.753  -2.660  1.00  0.00     0.034 A 
ATOM     55  C   UNL     1      -9.988 -11.541  -4.071  1.00  0.00     0.049 A 
ATOM     56  C   UNL     1     -13.470  -7.148  -2.911  1.00  0.00     0.074 A 
ATOM     57  C   UNL     1     -10.019 -11.989  -5.371  1.00  0.00     0.029 A 
ATOM     58  N   UNL     1     -11.134 -10.818  -3.854  1.00  0.00    -0.354 N 
ATOM     59  N   UNL     1     -13.756  -7.609  -4.098  1.00  0.00    -0.248 NA
ATOM     60  C   UNL     1     -13.286  -8.154  -1.871  1.00  0.00     0.031 C 
ATOM     61  C   UNL     1     -11.158 -11.378  -5.977  1.00  0.00     0.029 A 
ATOM     62  C   UNL     1     -11.810 -10.600  -5.024  1.00  0.00     0.049 A 
ATOM     63  H   UNL     1     -11.431 -10.497  -2.972  1.00  0.00     0.167 HD
ATOM     64  C   UNL     1     -13.350  -8.928  -4.043  1.00  0.00     0.074 A 
ATOM     65  C   UNL     1     -13.259  -9.253  -2.627  1.00  0.00     0.031 C 
ATOM     66  C   UNL     1     -12.793  -9.543  -5.122  1.00  0.00     0.034 A 
BRANCH  53  67
ATOM     67  C   UNL     1      -9.143 -12.035  -1.716  1.00  0.00     0.023 A 
ATOM     68  C   UNL     1      -9.489 -13.400  -1.695  1.00  0.00     0.012 A 
ATOM     69  C   UNL     1      -9.184 -11.333  -0.490  1.00  0.00     0.148 A 
ATOM     70  C   UNL     1      -9.822 -14.045  -0.498  1.00  0.00     0.002 A 
ATOM     71  C   UNL     1      -9.429 -11.995   0.705  1.00  0.00     0.091 A 
ATOM     72  F   UNL     1      -9.116  -9.996  -0.498  1.00  0.00    -0.205 F 
ATOM     73  C   UNL     1      -9.766 -13.349   0.707  1.00  0.00     0.022 A 
BRANCH  71  74
ATOM     74  S   UNL     1      -9.303 -11.153   2.286  1.00  0.00     0.127 S 
ATOM     75  O   UNL     1     -10.706 -11.037   2.670  1.00  0.00    -0.237 OA
ATOM     76  O   UNL     1      -8.520 -12.109   3.071  1.00  0.00    -0.237 OA
ATOM     77  O   UNL     1      -8.605  -9.907   1.999  1.00  0.00    -0.744 OA
ENDBRANCH  71  74
ENDBRANCH  53  67
BRANCH  54  78
ATOM     78  C   UNL     1     -13.714  -4.904  -1.651  1.00  0.00     0.023 A 
ATOM     79  C   UNL     1     -15.051  -5.205  -1.315  1.00  0.00     0.012 A 
ATOM     80  C   UNL     1     -12.978  -4.068  -0.784  1.00  0.00     0.148 A 
ATOM     81  C   UNL     1     -15.603  -4.783  -0.103  1.00  0.00     0.002 A 
ATOM     82  C   UNL     1     -13.537  -3.642   0.419  1.00  0.00     0.091 A 
ATOM     83  F   UNL     1     -11.705  -3.778  -1.086  1.00  0.00    -0.205 F 
ATOM     84  C   UNL     1     -14.839  -4.022   0.774  1.00  0.00     0.022 A 
BRANCH  82  85
ATOM     85  S   UNL     1     -12.617  -2.660   1.612  1.00  0.00     0.127 S 
ATOM     86  O   UNL     1     -13.612  -1.668   2.023  1.00  0.00    -0.237 OA
ATOM     87  O   UNL     1     -12.286  -3.652   2.630  1.00  0.00    -0.237 OA
ATOM     88  O   UNL     1     -11.491  -2.103   0.873  1.00  0.00    -0.744 OA
ENDBRANCH  82  85
ENDBRANCH  54  78
BRANCH  66  89
ATOM     89  C   UNL     1     -13.095  -8.988  -6.479  1.00  0.00     0.023 A 
ATOM     90  C   UNL     1     -12.500  -7.816  -6.984  1.00  0.00     0.012 A 
ATOM     91  C   UNL     1     -13.921  -9.758  -7.314  1.00  0.00     0.148 A 
ATOM     92  C   UNL     1     -12.725  -7.425  -8.309  1.00  0.00     0.002 A 
ATOM     93  C   UNL     1     -14.114  -9.386  -8.636  1.00  0.00     0.091 A 
ATOM     94  F   UNL     1     -14.475 -10.866  -6.801  1.00  0.00    -0.205 F 
ATOM     95  C   UNL     1     -13.521  -8.217  -9.138  1.00  0.00     0.022 A 
BRANCH  93  96
ATOM     96  S   UNL     1     -15.045 -10.410  -9.775  1.00  0.00     0.127 S 
ATOM     97  O   UNL     1     -16.198  -9.564 -10.076  1.00  0.00    -0.237 OA
ATOM     98  O   UNL     1     -14.101 -10.576 -10.881  1.00  0.00    -0.237 OA
ATOM     99  O   UNL     1     -15.351 -11.642  -9.059  1.00  0.00    -0.744 OA
ENDBRANCH  93  96
ENDBRANCH  66  89
ENDBRANCH  40  41
ENDBRANCH  32  35
ENDBRANCH  30  31
ENDBRANCH   1  30
TORSDOF 17
