REMARK SMILES Cc1c(C[NH2+]C[C@@H]2CCCO2)c(C(=O)NCCCNC(=O)c2ccc(-c3c4nc(c(-c5cccc(S(=O)(=O)[O-])c5F)c5ccc([nH]5)c(-c5cccc(S(=O)(=O)[O-])c5F)c5nc(c(-c6cccc(S(=O)(=O)[O-])c6F)c6ccc3[nH]6)C=C5)C=C4)cc2)c(C)n1Cc1ccc(F)cc1
REMARK SMILES IDX 16 1 15 2 13 3 14 4 12 6 1 7 2 8 3 9 87 10 85 11 86 12 4 13
REMARK SMILES IDX 5 14 6 17 7 18 8 19 11 20 9 21 10 22 88 23 89 24 90 25 95 26
REMARK SMILES IDX 91 27 94 28 92 29 93 30 17 31 18 32 19 33 20 34 21 36 22 37
REMARK SMILES IDX 23 38 84 39 24 40 83 41 25 42 26 43 27 44 77 45 28 46 82 47
REMARK SMILES IDX 76 48 78 49 29 50 81 51 75 52 74 53 30 55 62 56 42 57 61 58
REMARK SMILES IDX 43 59 46 60 60 61 79 62 44 63 45 64 59 66 80 67 47 68 31 69
REMARK SMILES IDX 32 70 40 71 33 72 35 73 41 74 34 75 36 76 37 77 38 78 39 79
REMARK SMILES IDX 63 80 64 81 72 82 65 83 67 84 73 85 66 86 68 87 69 88 70 89
REMARK SMILES IDX 71 90 48 91 49 92 57 93 50 94 52 95 58 96 51 97 53 98 54 99
REMARK SMILES IDX 55 100 56 101
REMARK H PARENT 15 5 5 15 5 16 19 35 78 54 46 65
REMARK Flexibility Score: inf
ROOT
ATOM      1  C   UNL     1      -0.336   6.574   2.985  1.00  0.00     0.118 C 
ENDROOT
BRANCH   1   2
ATOM      2  N   UNL     1      -0.899   5.365   3.554  1.00  0.00    -0.352 N 
ATOM      3  C   UNL     1      -0.841   4.009   3.361  1.00  0.00     0.253 C 
ATOM      4  O   UNL     1      -1.585   3.402   4.140  1.00  0.00    -0.269 OA
ATOM      5  H   UNL     1      -1.504   5.583   4.299  1.00  0.00     0.163 HD
BRANCH   3   6
ATOM      6  C   UNL     1      -0.091   3.278   2.309  1.00  0.00     0.069 A 
ATOM      7  C   UNL     1       0.752   0.168   0.327  1.00  0.00     0.065 C 
ATOM      8  C   UNL     1       0.504   1.501   0.951  1.00  0.00     0.025 A 
ATOM      9  C   UNL     1      -0.264   1.838   2.063  1.00  0.00     0.040 A 
ATOM     10  N   UNL     1       1.028   2.680   0.456  1.00  0.00    -0.343 N 
ATOM     11  C   UNL     1       0.982   3.625   1.478  1.00  0.00     0.028 A 
ATOM     12  C   UNL     1       2.015   4.691   1.576  1.00  0.00     0.065 C 
BRANCH   9  13
ATOM     13  C   UNL     1      -1.123   0.877   2.856  1.00  0.00     0.300 C 
BRANCH  13  14
ATOM     14  N   UNL     1      -0.469   0.549   4.126  1.00  0.00    -0.340 N 
ATOM     15  H   UNL     1      -0.295   1.413   4.641  1.00  0.00     0.346 HD
ATOM     16  H   UNL     1       0.404   0.065   3.919  1.00  0.00     0.346 HD
BRANCH  14  17
ATOM     17  C   UNL     1      -1.304  -0.340   4.953  1.00  0.00     0.293 C 
BRANCH  17  18
ATOM     18  C   UNL     1      -1.158  -1.835   4.602  1.00  0.00     0.173 C 
ATOM     19  C   UNL     1      -2.462  -2.614   4.697  1.00  0.00     0.040 C 
ATOM     20  O   UNL     1      -0.243  -2.498   5.505  1.00  0.00    -0.372 OA
ATOM     21  C   UNL     1      -1.960  -4.019   4.917  1.00  0.00     0.031 C 
ATOM     22  C   UNL     1      -0.796  -3.779   5.852  1.00  0.00     0.161 C 
ENDBRANCH  17  18
ENDBRANCH  14  17
ENDBRANCH  13  14
ENDBRANCH   9  13
BRANCH  10  23
ATOM     23  C   UNL     1       1.723   2.817  -0.834  1.00  0.00     0.157 C 
BRANCH  23  24
ATOM     24  C   UNL     1       0.980   3.634  -1.879  1.00  0.00    -0.028 A 
ATOM     25  C   UNL     1       0.637   3.058  -3.117  1.00  0.00     0.008 A 
ATOM     26  C   UNL     1       0.699   4.998  -1.696  1.00  0.00     0.008 A 
ATOM     27  C   UNL     1       0.030   3.822  -4.122  1.00  0.00     0.039 A 
ATOM     28  C   UNL     1       0.088   5.761  -2.695  1.00  0.00     0.039 A 
ATOM     29  C   UNL     1      -0.240   5.165  -3.901  1.00  0.00     0.123 A 
ATOM     30  F   UNL     1      -0.809   5.897  -4.868  1.00  0.00    -0.207 F 
ENDBRANCH  23  24
ENDBRANCH  10  23
ENDBRANCH   3   6
ENDBRANCH   1   2
BRANCH   1  31
ATOM     31  C   UNL     1      -1.191   7.208   1.883  1.00  0.00     0.042 C 
BRANCH  31  32
ATOM     32  C   UNL     1      -2.455   7.937   2.390  1.00  0.00     0.118 C 
BRANCH  32  33
ATOM     33  N   UNL     1      -2.281   9.367   2.562  1.00  0.00    -0.352 N 
ATOM     34  C   UNL     1      -3.239  10.367   2.477  1.00  0.00     0.251 C 
ATOM     35  H   UNL     1      -1.365   9.667   2.764  1.00  0.00     0.163 HD
ATOM     36  O   UNL     1      -2.833  11.529   2.524  1.00  0.00    -0.269 OA
BRANCH  34  37
ATOM     37  C   UNL     1      -4.686  10.061   2.159  1.00  0.00     0.039 A 
ATOM     38  C   UNL     1      -5.116  10.349   0.877  1.00  0.00     0.014 A 
ATOM     39  C   UNL     1      -5.684   9.651   3.063  1.00  0.00     0.014 A 
ATOM     40  C   UNL     1      -6.477  10.146   0.503  1.00  0.00     0.010 A 
ATOM     41  C   UNL     1      -7.107   9.560   2.697  1.00  0.00     0.010 A 
ATOM     42  C   UNL     1      -7.574   9.810   1.392  1.00  0.00    -0.014 A 
BRANCH  42  43
ATOM     43  C   UNL     1      -9.079  10.273   0.874  1.00  0.00     0.031 A 
ATOM     44  C   UNL     1      -8.759  11.601   0.278  1.00  0.00     0.074 A 
ATOM     45  C   UNL     1     -10.464  10.024   0.920  1.00  0.00     0.049 A 
ATOM     46  N   UNL     1      -8.124  12.460   1.026  1.00  0.00    -0.248 NA
ATOM     47  C   UNL     1      -8.657  11.877  -1.157  1.00  0.00     0.031 C 
ATOM     48  C   UNL     1     -11.191   9.039   1.742  1.00  0.00     0.029 A 
ATOM     49  N   UNL     1     -11.601  10.611   0.235  1.00  0.00    -0.354 N 
ATOM     50  C   UNL     1      -7.884  13.553   0.255  1.00  0.00     0.074 A 
ATOM     51  C   UNL     1      -7.969  13.028  -1.104  1.00  0.00     0.031 C 
ATOM     52  C   UNL     1     -12.520   8.962   1.416  1.00  0.00     0.029 A 
ATOM     53  C   UNL     1     -12.880   9.922   0.368  1.00  0.00     0.049 A 
ATOM     54  H   UNL     1     -11.513  11.437  -0.294  1.00  0.00     0.167 HD
ATOM     55  C   UNL     1      -8.401  14.701   0.780  1.00  0.00     0.034 A 
ATOM     56  C   UNL     1     -14.140  10.149  -0.216  1.00  0.00     0.034 A 
ATOM     57  C   UNL     1      -9.617  15.079   0.116  1.00  0.00     0.049 A 
ATOM     58  C   UNL     1     -14.171  11.592  -0.475  1.00  0.00     0.074 A 
ATOM     59  C   UNL     1     -10.005  15.052  -1.212  1.00  0.00     0.029 A 
ATOM     60  N   UNL     1     -10.770  15.057   0.867  1.00  0.00    -0.354 N 
ATOM     61  N   UNL     1     -14.453  12.434   0.475  1.00  0.00    -0.248 NA
ATOM     62  C   UNL     1     -14.061  12.165  -1.810  1.00  0.00     0.031 C 
ATOM     63  C   UNL     1     -11.292  14.480  -1.194  1.00  0.00     0.029 A 
ATOM     64  C   UNL     1     -11.817  14.615   0.081  1.00  0.00     0.049 A 
ATOM     65  H   UNL     1     -10.838  15.316   1.815  1.00  0.00     0.167 HD
ATOM     66  C   UNL     1     -13.977  13.604  -0.026  1.00  0.00     0.074 A 
ATOM     67  C   UNL     1     -14.034  13.455  -1.469  1.00  0.00     0.031 C 
ATOM     68  C   UNL     1     -13.040  14.224   0.731  1.00  0.00     0.034 A 
BRANCH  55  69
ATOM     69  C   UNL     1      -8.100  14.861   2.264  1.00  0.00     0.023 A 
ATOM     70  C   UNL     1      -7.106  15.792   2.608  1.00  0.00     0.012 A 
ATOM     71  C   UNL     1      -8.564  13.964   3.269  1.00  0.00     0.148 A 
ATOM     72  C   UNL     1      -6.543  15.792   3.887  1.00  0.00     0.002 A 
ATOM     73  C   UNL     1      -7.917  13.891   4.499  1.00  0.00     0.091 A 
ATOM     74  F   UNL     1      -9.617  13.174   3.003  1.00  0.00    -0.205 F 
ATOM     75  C   UNL     1      -6.915  14.819   4.815  1.00  0.00     0.022 A 
BRANCH  73  76
ATOM     76  S   UNL     1      -8.140  12.508   5.640  1.00  0.00     0.127 S 
ATOM     77  O   UNL     1      -6.761  12.155   5.989  1.00  0.00    -0.237 OA
ATOM     78  O   UNL     1      -8.902  13.098   6.727  1.00  0.00    -0.237 OA
ATOM     79  O   UNL     1      -8.830  11.455   4.884  1.00  0.00    -0.744 OA
ENDBRANCH  73  76
ENDBRANCH  55  69
BRANCH  56  80
ATOM     80  C   UNL     1     -15.620   9.626  -0.487  1.00  0.00     0.023 A 
ATOM     81  C   UNL     1     -16.706  10.586  -0.467  1.00  0.00     0.012 A 
ATOM     82  C   UNL     1     -15.933   8.435  -1.180  1.00  0.00     0.148 A 
ATOM     83  C   UNL     1     -17.918  10.450  -1.177  1.00  0.00     0.002 A 
ATOM     84  C   UNL     1     -17.175   8.286  -1.870  1.00  0.00     0.091 A 
ATOM     85  F   UNL     1     -14.995   7.484  -1.256  1.00  0.00    -0.205 F 
ATOM     86  C   UNL     1     -18.146   9.300  -1.896  1.00  0.00     0.022 A 
BRANCH  84  87
ATOM     87  S   UNL     1     -17.604   6.837  -2.866  1.00  0.00     0.127 S 
ATOM     88  O   UNL     1     -19.019   6.631  -2.547  1.00  0.00    -0.237 OA
ATOM     89  O   UNL     1     -17.360   7.324  -4.224  1.00  0.00    -0.237 OA
ATOM     90  O   UNL     1     -16.722   5.777  -2.402  1.00  0.00    -0.744 OA
ENDBRANCH  84  87
ENDBRANCH  56  80
BRANCH  68  91
ATOM     91  C   UNL     1     -13.260  14.274   2.228  1.00  0.00     0.023 A 
ATOM     92  C   UNL     1     -13.565  13.167   3.052  1.00  0.00     0.012 A 
ATOM     93  C   UNL     1     -13.161  15.533   2.839  1.00  0.00     0.148 A 
ATOM     94  C   UNL     1     -13.792  13.321   4.425  1.00  0.00     0.002 A 
ATOM     95  C   UNL     1     -13.324  15.677   4.211  1.00  0.00     0.091 A 
ATOM     96  F   UNL     1     -12.914  16.594   2.054  1.00  0.00    -0.205 F 
ATOM     97  C   UNL     1     -13.653  14.576   5.010  1.00  0.00     0.022 A 
BRANCH  95  98
ATOM     98  S   UNL     1     -13.075  17.277   4.975  1.00  0.00     0.127 S 
ATOM     99  O   UNL     1     -14.438  17.802   5.026  1.00  0.00    -0.237 OA
ATOM    100  O   UNL     1     -12.500  16.945   6.275  1.00  0.00    -0.237 OA
ATOM    101  O   UNL     1     -12.164  17.987   4.080  1.00  0.00    -0.744 OA
ENDBRANCH  95  98
ENDBRANCH  68  91
ENDBRANCH  42  43
ENDBRANCH  34  37
ENDBRANCH  32  33
ENDBRANCH  31  32
ENDBRANCH   1  31
TORSDOF 19
