REMARK SMILES CS(=O)(=O)Nc1ccc(-c2cc(Cl)cc3c2O[C@H](C(F)(F)F)C(C(=O)NCCCNC(=O)c2ccc(-c4c5nc(c(-c6cccc(S(=O)(=O)[O-])c6F)c6ccc([nH]6)c(-c6cccc(S(=O)(=O)[O-])c6F)c6nc(c(-c7cccc(S(=O)(=O)[O-])c7F)c7ccc4[nH]7)C=C6)C=C5)cc2)=C3)cc1
REMARK SMILES IDX 28 1 27 2 26 3 24 4 25 5 23 7 10 8 11 9 16 10 12 11 15 12
REMARK SMILES IDX 17 13 13 14 14 15 96 16 18 17 9 18 6 19 7 20 98 21 8 22
REMARK SMILES IDX 97 23 5 24 2 26 1 27 3 28 4 29 19 30 20 31 21 32 22 33 29 34
REMARK SMILES IDX 30 35 31 36 32 38 33 39 34 40 95 41 35 42 94 43 36 44 37 45
REMARK SMILES IDX 38 46 88 47 39 48 93 49 87 50 89 51 40 52 92 53 86 54 85 55
REMARK SMILES IDX 41 57 73 58 53 59 72 60 54 61 57 62 71 63 90 64 55 65 56 66
REMARK SMILES IDX 70 68 91 69 58 70 42 71 43 72 51 73 44 74 46 75 52 76 45 77
REMARK SMILES IDX 47 78 48 79 49 80 50 81 74 82 75 83 83 84 76 85 78 86 84 87
REMARK SMILES IDX 77 88 79 89 80 90 81 91 82 92 59 93 60 94 68 95 61 96 63 97
REMARK SMILES IDX 69 98 62 99 64 100 65 101 66 102 67 103
REMARK H PARENT 26 6 5 25 30 37 89 56 57 67
REMARK Flexibility Score: inf
ROOT
ATOM      1  C   UNL     1      10.954  -2.989 -10.082  1.00  0.00     0.042 C 
ENDROOT
BRANCH   1   2
ATOM      2  C   UNL     1      10.459  -1.897  -9.130  1.00  0.00     0.118 C 
BRANCH   2   3
ATOM      3  N   UNL     1       9.016  -1.773  -9.217  1.00  0.00    -0.352 N 
ATOM      4  C   UNL     1       8.107  -1.933  -8.225  1.00  0.00     0.251 C 
ATOM      5  O   UNL     1       7.021  -2.442  -8.482  1.00  0.00    -0.270 OA
ATOM      6  H   UNL     1       8.654  -1.545 -10.104  1.00  0.00     0.163 HD
BRANCH   4   7
ATOM      7  C   UNL     1       8.415  -1.324  -6.897  1.00  0.00     0.067 C 
ATOM      8  C   UNL     1       4.896  -2.052  -4.977  1.00  0.00     0.026 A 
ATOM      9  C   UNL     1       3.858  -1.724  -5.892  1.00  0.00     0.033 A 
ATOM     10  C   UNL     1       6.184  -1.612  -5.322  1.00  0.00     0.135 A 
ATOM     11  C   UNL     1       4.050  -0.867  -6.973  1.00  0.00     0.042 A 
ATOM     12  C   UNL     1       6.334  -0.645  -6.349  1.00  0.00     0.019 A 
ATOM     13  O   UNL     1       7.341  -2.118  -4.747  1.00  0.00    -0.475 OA
ATOM     14  Cl  UNL     1       2.745  -0.537  -8.042  1.00  0.00    -0.084 Cl
ATOM     15  C   UNL     1       5.274  -0.260  -7.163  1.00  0.00     0.032 A 
ATOM     16  C   UNL     1       7.706  -0.198  -6.680  1.00  0.00     0.025 C 
ATOM     17  C   UNL     1       8.460  -2.302  -5.727  1.00  0.00     0.314 C 
BRANCH   8  18
ATOM     18  C   UNL     1       4.420  -2.606  -3.677  1.00  0.00    -0.014 A 
ATOM     19  C   UNL     1       2.511  -2.752  -1.571  1.00  0.00     0.048 A 
ATOM     20  C   UNL     1       2.472  -3.656  -2.636  1.00  0.00     0.027 A 
ATOM     21  C   UNL     1       3.611  -1.905  -1.467  1.00  0.00     0.027 A 
ATOM     22  C   UNL     1       3.431  -3.607  -3.659  1.00  0.00     0.011 A 
ATOM     23  C   UNL     1       4.561  -1.836  -2.508  1.00  0.00     0.011 A 
BRANCH  19  24
ATOM     24  N   UNL     1       1.331  -2.657  -0.778  1.00  0.00    -0.284 N 
ATOM     25  H   UNL     1       0.600  -3.274  -1.013  1.00  0.00     0.180 HD
BRANCH  24  26
ATOM     26  S   UNL     1       1.039  -1.633   0.495  1.00  0.00     0.229 S 
ATOM     27  C   UNL     1       0.970  -0.011  -0.249  1.00  0.00     0.183 C 
ATOM     28  O   UNL     1       2.148  -1.675   1.424  1.00  0.00    -0.207 OA
ATOM     29  O   UNL     1      -0.305  -1.950   0.931  1.00  0.00    -0.207 OA
ENDBRANCH  24  26
ENDBRANCH  19  24
ENDBRANCH   8  18
BRANCH  17  30
ATOM     30  C   UNL     1       9.839  -2.167  -5.042  1.00  0.00     0.429 C 
ATOM     31  F   UNL     1       9.749  -1.660  -3.790  1.00  0.00    -0.167 F 
ATOM     32  F   UNL     1      10.469  -3.362  -4.955  1.00  0.00    -0.167 F 
ATOM     33  F   UNL     1      10.680  -1.342  -5.723  1.00  0.00    -0.167 F 
ENDBRANCH  17  30
ENDBRANCH   4   7
ENDBRANCH   2   3
ENDBRANCH   1   2
BRANCH   1  34
ATOM     34  C   UNL     1      10.645  -2.748 -11.561  1.00  0.00     0.118 C 
BRANCH  34  35
ATOM     35  N   UNL     1      11.258  -1.537 -12.088  1.00  0.00    -0.352 N 
ATOM     36  C   UNL     1      12.067  -1.382 -13.189  1.00  0.00     0.251 C 
ATOM     37  H   UNL     1      11.067  -0.713 -11.585  1.00  0.00     0.163 HD
ATOM     38  O   UNL     1      12.608  -0.302 -13.406  1.00  0.00    -0.269 OA
BRANCH  36  39
ATOM     39  C   UNL     1      12.308  -2.530 -14.089  1.00  0.00     0.039 A 
ATOM     40  C   UNL     1      13.622  -2.850 -14.438  1.00  0.00     0.014 A 
ATOM     41  C   UNL     1      11.246  -3.310 -14.554  1.00  0.00     0.014 A 
ATOM     42  C   UNL     1      13.878  -4.008 -15.178  1.00  0.00     0.010 A 
ATOM     43  C   UNL     1      11.508  -4.500 -15.227  1.00  0.00     0.010 A 
ATOM     44  C   UNL     1      12.827  -4.871 -15.533  1.00  0.00    -0.014 A 
BRANCH  44  45
ATOM     45  C   UNL     1      13.086  -6.188 -16.173  1.00  0.00     0.031 A 
ATOM     46  C   UNL     1      12.527  -6.497 -17.536  1.00  0.00     0.074 A 
ATOM     47  C   UNL     1      13.734  -7.146 -15.478  1.00  0.00     0.049 A 
ATOM     48  N   UNL     1      12.556  -7.621 -18.202  1.00  0.00    -0.248 NA
ATOM     49  C   UNL     1      11.823  -5.406 -18.230  1.00  0.00     0.031 C 
ATOM     50  C   UNL     1      14.264  -6.996 -14.120  1.00  0.00     0.029 A 
ATOM     51  N   UNL     1      14.027  -8.448 -15.802  1.00  0.00    -0.354 N 
ATOM     52  C   UNL     1      11.850  -7.387 -19.376  1.00  0.00     0.074 A 
ATOM     53  C   UNL     1      11.378  -6.021 -19.317  1.00  0.00     0.031 C 
ATOM     54  C   UNL     1      14.812  -8.157 -13.728  1.00  0.00     0.029 A 
ATOM     55  C   UNL     1      14.638  -9.147 -14.785  1.00  0.00     0.049 A 
ATOM     56  H   UNL     1      13.820  -8.845 -16.679  1.00  0.00     0.167 HD
ATOM     57  C   UNL     1      11.635  -8.224 -20.419  1.00  0.00     0.034 A 
ATOM     58  C   UNL     1      14.998 -10.443 -14.702  1.00  0.00     0.034 A 
ATOM     59  C   UNL     1      12.135  -9.571 -20.490  1.00  0.00     0.049 A 
ATOM     60  C   UNL     1      14.751 -11.347 -15.880  1.00  0.00     0.074 A 
ATOM     61  C   UNL     1      12.038 -10.469 -21.539  1.00  0.00     0.029 A 
ATOM     62  N   UNL     1      12.813 -10.220 -19.471  1.00  0.00    -0.354 N 
ATOM     63  N   UNL     1      14.217 -11.061 -17.043  1.00  0.00    -0.248 NA
ATOM     64  C   UNL     1      15.182 -12.746 -15.746  1.00  0.00     0.031 C 
ATOM     65  C   UNL     1      12.634 -11.670 -21.143  1.00  0.00     0.029 A 
ATOM     66  C   UNL     1      13.128 -11.511 -19.859  1.00  0.00     0.049 A 
ATOM     67  H   UNL     1      13.039  -9.822 -18.599  1.00  0.00     0.167 HD
ATOM     68  C   UNL     1      14.277 -12.233 -17.788  1.00  0.00     0.074 A 
ATOM     69  C   UNL     1      14.926 -13.225 -16.956  1.00  0.00     0.031 C 
ATOM     70  C   UNL     1      13.818 -12.474 -19.040  1.00  0.00     0.034 A 
BRANCH  57  71
ATOM     71  C   UNL     1      10.867  -7.692 -21.601  1.00  0.00     0.023 A 
ATOM     72  C   UNL     1      11.474  -6.748 -22.455  1.00  0.00     0.012 A 
ATOM     73  C   UNL     1       9.583  -8.181 -21.914  1.00  0.00     0.148 A 
ATOM     74  C   UNL     1      10.806  -6.277 -23.584  1.00  0.00     0.002 A 
ATOM     75  C   UNL     1       8.941  -7.741 -23.066  1.00  0.00     0.091 A 
ATOM     76  F   UNL     1       9.017  -9.066 -21.081  1.00  0.00    -0.205 F 
ATOM     77  C   UNL     1       9.546  -6.782 -23.895  1.00  0.00     0.022 A 
BRANCH  75  78
ATOM     78  S   UNL     1       7.352  -8.384 -23.600  1.00  0.00     0.127 S 
ATOM     79  O   UNL     1       6.491  -7.213 -23.438  1.00  0.00    -0.237 OA
ATOM     80  O   UNL     1       7.623  -8.754 -24.989  1.00  0.00    -0.237 OA
ATOM     81  O   UNL     1       7.051  -9.502 -22.718  1.00  0.00    -0.744 OA
ENDBRANCH  75  78
ENDBRANCH  57  71
BRANCH  58  82
ATOM     82  C   UNL     1      15.662 -10.963 -13.472  1.00  0.00     0.023 A 
ATOM     83  C   UNL     1      17.011 -11.367 -13.532  1.00  0.00     0.012 A 
ATOM     84  C   UNL     1      14.972 -11.060 -12.249  1.00  0.00     0.148 A 
ATOM     85  C   UNL     1      17.647 -11.895 -12.408  1.00  0.00     0.002 A 
ATOM     86  C   UNL     1      15.629 -11.531 -11.118  1.00  0.00     0.091 A 
ATOM     87  F   UNL     1      13.685 -10.685 -12.213  1.00  0.00    -0.205 F 
ATOM     88  C   UNL     1      16.960 -11.969 -11.200  1.00  0.00     0.022 A 
BRANCH  86  89
ATOM     89  S   UNL     1      14.862 -11.533  -9.493  1.00  0.00     0.127 S 
ATOM     90  O   UNL     1      14.624 -12.958  -9.276  1.00  0.00    -0.237 OA
ATOM     91  O   UNL     1      15.915 -10.949  -8.661  1.00  0.00    -0.237 OA
ATOM     92  O   UNL     1      13.673 -10.702  -9.621  1.00  0.00    -0.744 OA
ENDBRANCH  86  89
ENDBRANCH  58  82
BRANCH  70  93
ATOM     93  C   UNL     1      14.024 -13.856 -19.606  1.00  0.00     0.023 A 
ATOM     94  C   UNL     1      13.266 -14.935 -19.109  1.00  0.00     0.012 A 
ATOM     95  C   UNL     1      14.916 -14.071 -20.675  1.00  0.00     0.148 A 
ATOM     96  C   UNL     1      13.418 -16.213 -19.645  1.00  0.00     0.002 A 
ATOM     97  C   UNL     1      15.024 -15.337 -21.238  1.00  0.00     0.091 A 
ATOM     98  F   UNL     1      15.639 -13.034 -21.123  1.00  0.00    -0.205 F 
ATOM     99  C   UNL     1      14.287 -16.412 -20.715  1.00  0.00     0.022 A 
BRANCH  97 100
ATOM    100  S   UNL     1      16.044 -15.670 -22.678  1.00  0.00     0.127 S 
ATOM    101  O   UNL     1      17.112 -16.487 -22.104  1.00  0.00    -0.237 OA
ATOM    102  O   UNL     1      15.121 -16.398 -23.549  1.00  0.00    -0.237 OA
ATOM    103  O   UNL     1      16.461 -14.370 -23.187  1.00  0.00    -0.744 OA
ENDBRANCH  97 100
ENDBRANCH  70  93
ENDBRANCH  44  45
ENDBRANCH  36  39
ENDBRANCH  34  35
ENDBRANCH   1  34
TORSDOF 17
