REMARK SMILES CC(C)C[C@H](NC(=O)CNC(=O)[C@@H](NC(=O)OCc1ccccc1)C(C)C)C(=O)NCCCNC(=O)c1ccc(-c2c3nc(c(-c4cccc(S(=O)(=O)[O-])c4F)c4ccc([nH]4)c(-c4cccc(S(=O)(=O)[O-])c4F)c4nc(c(-c5cccc(S(=O)(=O)[O-])c5F)c5ccc2[nH]5)C=C4)C=C3)cc1
REMARK SMILES IDX 28 1 29 2 30 3 5 5 4 6 2 7 1 8 3 9 6 10 7 11 8 13 9 14 10 15
REMARK SMILES IDX 11 16 12 18 13 19 14 20 15 21 16 23 17 24 18 25 19 26 20 27
REMARK SMILES IDX 24 28 21 29 23 30 22 31 25 32 26 33 27 34 31 35 32 36 33 37
REMARK SMILES IDX 34 38 35 39 36 41 37 42 38 43 99 44 39 45 98 46 40 47 41 48
REMARK SMILES IDX 42 49 92 50 43 51 97 52 91 53 93 54 44 55 96 56 90 57 89 58
REMARK SMILES IDX 45 60 77 61 57 62 76 63 58 64 61 65 75 66 94 67 59 68 60 69
REMARK SMILES IDX 74 71 95 72 62 73 46 74 47 75 55 76 48 77 50 78 56 79 49 80
REMARK SMILES IDX 51 81 52 82 53 83 54 84 78 85 79 86 87 87 80 88 82 89 88 90
REMARK SMILES IDX 81 91 83 92 84 93 85 94 86 95 63 96 64 97 72 98 65 99 67 100
REMARK SMILES IDX 73 101 66 102 68 103 69 104 70 105 71 106
REMARK H PARENT 30 4 6 12 10 17 14 22 34 40 93 59 61 70
REMARK Flexibility Score: inf
ROOT
ATOM      1  C   UNL     1      -3.380  -1.075   0.749  1.00  0.00     0.242 C 
ATOM      2  O   UNL     1      -4.058  -0.803  -0.241  1.00  0.00    -0.273 OA
ATOM      3  N   UNL     1      -3.941  -0.967   1.992  1.00  0.00    -0.354 N 
ATOM      4  H   UNL     1      -4.848  -0.586   2.028  1.00  0.00     0.163 HD
ENDROOT
BRANCH   1   5
ATOM      5  C   UNL     1      -1.927  -1.570   0.639  1.00  0.00     0.171 C 
BRANCH   5   6
ATOM      6  C   UNL     1      -1.825  -3.017   1.130  1.00  0.00     0.038 C 
BRANCH   6   7
ATOM      7  C   UNL     1      -2.961  -4.008   0.811  1.00  0.00    -0.015 C 
ATOM      8  C   UNL     1      -3.195  -4.171  -0.690  1.00  0.00     0.007 C 
ATOM      9  C   UNL     1      -2.600  -5.367   1.426  1.00  0.00     0.007 C 
ENDBRANCH   6   7
ENDBRANCH   5   6
BRANCH   5  10
ATOM     10  N   UNL     1      -1.133  -0.524   1.332  1.00  0.00    -0.343 N 
ATOM     11  C   UNL     1       0.058  -0.314   1.922  1.00  0.00     0.240 C 
ATOM     12  H   UNL     1      -1.662   0.305   1.374  1.00  0.00     0.164 HD
ATOM     13  O   UNL     1       0.292   0.874   2.193  1.00  0.00    -0.273 OA
BRANCH  11  14
ATOM     14  C   UNL     1       1.169  -1.331   2.194  1.00  0.00     0.216 C 
BRANCH  14  15
ATOM     15  N   UNL     1       0.860  -2.706   2.491  1.00  0.00    -0.345 N 
ATOM     16  C   UNL     1       1.091  -3.853   1.810  1.00  0.00     0.243 C 
ATOM     17  H   UNL     1       0.393  -2.836   3.348  1.00  0.00     0.164 HD
ATOM     18  O   UNL     1       0.844  -4.902   2.420  1.00  0.00    -0.273 OA
BRANCH  16  19
ATOM     19  C   UNL     1       1.675  -3.919   0.368  1.00  0.00     0.177 C 
BRANCH  19  20
ATOM     20  N   UNL     1       1.137  -2.897  -0.542  1.00  0.00    -0.309 N 
ATOM     21  C   UNL     1       1.586  -1.693  -0.967  1.00  0.00     0.408 C 
ATOM     22  H   UNL     1       0.262  -3.141  -0.924  1.00  0.00     0.167 HD
ATOM     23  O   UNL     1       0.810  -0.902  -1.486  1.00  0.00    -0.225 OA
BRANCH  21  24
ATOM     24  O   UNL     1       2.914  -1.517  -0.820  1.00  0.00    -0.445 OA
BRANCH  24  25
ATOM     25  C   UNL     1       3.439  -0.318  -1.409  1.00  0.00     0.270 C 
BRANCH  25  26
ATOM     26  C   UNL     1       3.488  -0.312  -2.927  1.00  0.00    -0.011 A 
ATOM     27  C   UNL     1       3.986   0.827  -3.575  1.00  0.00     0.007 A 
ATOM     28  C   UNL     1       3.015  -1.371  -3.718  1.00  0.00     0.007 A 
ATOM     29  C   UNL     1       3.982   0.914  -4.970  1.00  0.00     0.000 A 
ATOM     30  C   UNL     1       2.995  -1.279  -5.110  1.00  0.00     0.000 A 
ATOM     31  C   UNL     1       3.477  -0.135  -5.736  1.00  0.00     0.000 A 
ENDBRANCH  25  26
ENDBRANCH  24  25
ENDBRANCH  21  24
ENDBRANCH  19  20
BRANCH  19  32
ATOM     32  C   UNL     1       3.199  -4.165   0.351  1.00  0.00     0.015 C 
ATOM     33  C   UNL     1       3.598  -5.317   1.288  1.00  0.00     0.010 C 
ATOM     34  C   UNL     1       3.680  -4.535  -1.057  1.00  0.00     0.010 C 
ENDBRANCH  19  32
ENDBRANCH  16  19
ENDBRANCH  14  15
ENDBRANCH  11  14
ENDBRANCH   5  10
ENDBRANCH   1   5
BRANCH   3  35
ATOM     35  C   UNL     1      -3.355  -1.351   3.265  1.00  0.00     0.117 C 
BRANCH  35  36
ATOM     36  C   UNL     1      -3.694  -0.393   4.379  1.00  0.00     0.042 C 
BRANCH  36  37
ATOM     37  C   UNL     1      -5.170  -0.377   4.701  1.00  0.00     0.118 C 
BRANCH  37  38
ATOM     38  N   UNL     1      -5.680  -1.685   5.102  1.00  0.00    -0.352 N 
ATOM     39  C   UNL     1      -6.396  -2.015   6.227  1.00  0.00     0.251 C 
ATOM     40  H   UNL     1      -5.485  -2.428   4.485  1.00  0.00     0.163 HD
ATOM     41  O   UNL     1      -6.608  -3.189   6.509  1.00  0.00    -0.269 OA
BRANCH  39  42
ATOM     42  C   UNL     1      -6.875  -0.924   7.095  1.00  0.00     0.039 A 
ATOM     43  C   UNL     1      -6.682  -1.010   8.472  1.00  0.00     0.014 A 
ATOM     44  C   UNL     1      -7.432   0.222   6.520  1.00  0.00     0.014 A 
ATOM     45  C   UNL     1      -6.991   0.093   9.268  1.00  0.00     0.010 A 
ATOM     46  C   UNL     1      -7.604   1.357   7.293  1.00  0.00     0.010 A 
ATOM     47  C   UNL     1      -7.417   1.297   8.679  1.00  0.00    -0.014 A 
BRANCH  47  48
ATOM     48  C   UNL     1      -7.690   2.498   9.502  1.00  0.00     0.031 A 
ATOM     49  C   UNL     1      -9.060   3.122   9.492  1.00  0.00     0.074 A 
ATOM     50  C   UNL     1      -6.686   3.065  10.200  1.00  0.00     0.049 A 
ATOM     51  N   UNL     1      -9.496   4.157  10.162  1.00  0.00    -0.248 NA
ATOM     52  C   UNL     1     -10.064   2.536   8.585  1.00  0.00     0.031 C 
ATOM     53  C   UNL     1      -5.287   2.627  10.185  1.00  0.00     0.029 A 
ATOM     54  N   UNL     1      -6.686   4.139  11.051  1.00  0.00    -0.354 N 
ATOM     55  C   UNL     1     -10.801   4.364   9.730  1.00  0.00     0.074 A 
ATOM     56  C   UNL     1     -11.069   3.390   8.699  1.00  0.00     0.031 C 
ATOM     57  C   UNL     1      -4.573   3.402  11.016  1.00  0.00     0.029 A 
ATOM     58  C   UNL     1      -5.456   4.401  11.608  1.00  0.00     0.049 A 
ATOM     59  H   UNL     1      -7.490   4.673  11.245  1.00  0.00     0.167 HD
ATOM     60  C   UNL     1     -11.714   5.253  10.186  1.00  0.00     0.034 A 
ATOM     61  C   UNL     1      -5.090   5.330  12.512  1.00  0.00     0.034 A 
ATOM     62  C   UNL     1     -11.458   6.175  11.257  1.00  0.00     0.049 A 
ATOM     63  C   UNL     1      -6.148   6.237  13.079  1.00  0.00     0.074 A 
ATOM     64  C   UNL     1     -12.335   7.052  11.867  1.00  0.00     0.029 A 
ATOM     65  N   UNL     1     -10.230   6.335  11.880  1.00  0.00    -0.354 N 
ATOM     66  N   UNL     1      -7.426   6.297  12.790  1.00  0.00    -0.248 NA
ATOM     67  C   UNL     1      -5.726   7.168  14.134  1.00  0.00     0.031 C 
ATOM     68  C   UNL     1     -11.632   7.753  12.853  1.00  0.00     0.029 A 
ATOM     69  C   UNL     1     -10.324   7.295  12.871  1.00  0.00     0.049 A 
ATOM     70  H   UNL     1      -9.412   5.838  11.651  1.00  0.00     0.167 HD
ATOM     71  C   UNL     1      -7.967   7.246  13.649  1.00  0.00     0.074 A 
ATOM     72  C   UNL     1      -6.882   7.712  14.489  1.00  0.00     0.031 C 
ATOM     73  C   UNL     1      -9.241   7.706  13.727  1.00  0.00     0.034 A 
BRANCH  60  74
ATOM     74  C   UNL     1     -13.090   5.214   9.574  1.00  0.00     0.023 A 
ATOM     75  C   UNL     1     -13.935   4.114   9.835  1.00  0.00     0.012 A 
ATOM     76  C   UNL     1     -13.564   6.273   8.777  1.00  0.00     0.148 A 
ATOM     77  C   UNL     1     -15.213   4.050   9.281  1.00  0.00     0.002 A 
ATOM     78  C   UNL     1     -14.857   6.225   8.268  1.00  0.00     0.091 A 
ATOM     79  F   UNL     1     -12.739   7.297   8.517  1.00  0.00    -0.205 F 
ATOM     80  C   UNL     1     -15.677   5.110   8.508  1.00  0.00     0.022 A 
BRANCH  78  81
ATOM     81  S   UNL     1     -15.579   7.575   7.329  1.00  0.00     0.127 S 
ATOM     82  O   UNL     1     -15.637   7.002   5.985  1.00  0.00    -0.237 OA
ATOM     83  O   UNL     1     -16.880   7.740   7.978  1.00  0.00    -0.237 OA
ATOM     84  O   UNL     1     -14.674   8.704   7.489  1.00  0.00    -0.744 OA
ENDBRANCH  78  81
ENDBRANCH  60  74
BRANCH  61  85
ATOM     85  C   UNL     1      -3.688   5.371  13.014  1.00  0.00     0.023 A 
ATOM     86  C   UNL     1      -3.414   4.959  14.333  1.00  0.00     0.012 A 
ATOM     87  C   UNL     1      -2.623   5.778  12.188  1.00  0.00     0.148 A 
ATOM     88  C   UNL     1      -2.111   4.986  14.833  1.00  0.00     0.002 A 
ATOM     89  C   UNL     1      -1.320   5.749  12.674  1.00  0.00     0.091 A 
ATOM     90  F   UNL     1      -2.904   6.174  10.938  1.00  0.00    -0.205 F 
ATOM     91  C   UNL     1      -1.064   5.371  14.001  1.00  0.00     0.022 A 
BRANCH  89  92
ATOM     92  S   UNL     1       0.101   6.097  11.632  1.00  0.00     0.127 S 
ATOM     93  O   UNL     1       0.520   7.406  12.124  1.00  0.00    -0.237 OA
ATOM     94  O   UNL     1       1.002   4.994  11.970  1.00  0.00    -0.237 OA
ATOM     95  O   UNL     1      -0.400   6.061  10.265  1.00  0.00    -0.744 OA
ENDBRANCH  89  92
ENDBRANCH  61  85
BRANCH  73  96
ATOM     96  C   UNL     1      -9.535   8.745  14.775  1.00  0.00     0.023 A 
ATOM     97  C   UNL     1      -9.043  10.056  14.619  1.00  0.00     0.012 A 
ATOM     98  C   UNL     1     -10.340   8.435  15.888  1.00  0.00     0.148 A 
ATOM     99  C   UNL     1      -9.308  11.031  15.580  1.00  0.00     0.002 A 
ATOM    100  C   UNL     1     -10.642   9.425  16.815  1.00  0.00     0.091 A 
ATOM    101  F   UNL     1     -10.783   7.177  16.031  1.00  0.00    -0.205 F 
ATOM    102  C   UNL     1     -10.116  10.719  16.671  1.00  0.00     0.022 A 
BRANCH 100 103
ATOM    103  S   UNL     1     -11.756   9.128  18.193  1.00  0.00     0.127 S 
ATOM    104  O   UNL     1     -10.819   8.931  19.297  1.00  0.00    -0.237 OA
ATOM    105  O   UNL     1     -12.519  10.375  18.255  1.00  0.00    -0.237 OA
ATOM    106  O   UNL     1     -12.544   7.962  17.817  1.00  0.00    -0.744 OA
ENDBRANCH 100 103
ENDBRANCH  73  96
ENDBRANCH  47  48
ENDBRANCH  39  42
ENDBRANCH  37  38
ENDBRANCH  36  37
ENDBRANCH  35  36
ENDBRANCH   3  35
TORSDOF 24
