REMARK SMILES O=C(NCCCNC(=O)[C@@]12CN(CC3CC3)C(=O)[C@@H]1CN(c1nc3ccccc3o1)C2)c1ccc(-c2c3nc(c(-c4cccc(S(=O)(=O)[O-])c4F)c4ccc([nH]4)c(-c4cccc(S(=O)(=O)[O-])c4F)c4nc(c(-c5cccc(S(=O)(=O)[O-])c5F)c5ccc2[nH]5)C=C4)C=C3)cc1
REMARK SMILES IDX 4 1 3 2 1 3 2 4 32 6 33 7 94 8 34 9 93 10 35 11 36 12 37 13
REMARK SMILES IDX 87 14 38 15 92 16 86 17 88 18 39 19 91 20 85 21 84 22 40 24
REMARK SMILES IDX 72 25 52 26 71 27 53 28 56 29 70 30 89 31 54 32 55 33 69 35
REMARK SMILES IDX 90 36 57 37 41 38 42 39 50 40 43 41 45 42 51 43 44 44 46 45
REMARK SMILES IDX 47 46 48 47 49 48 73 49 74 50 82 51 75 52 77 53 83 54 76 55
REMARK SMILES IDX 78 56 79 57 80 58 81 59 58 60 59 61 67 62 60 63 62 64 68 65
REMARK SMILES IDX 61 66 63 67 64 68 65 69 66 70 5 71 6 72 7 73 8 74 9 76 10 77
REMARK SMILES IDX 11 78 19 79 31 80 12 81 17 82 20 83 21 84 18 85 13 86 14 87
REMARK SMILES IDX 15 88 16 89 22 90 23 91 30 92 24 93 29 94 25 95 28 96 26 97
REMARK SMILES IDX 27 98
REMARK H PARENT 3 5 88 23 56 34 7 75
REMARK Flexibility Score: inf
ROOT
ATOM      1  C   UNL     1       4.203  -1.498   0.343  1.00  0.00     0.118 C 
ENDROOT
BRANCH   1   2
ATOM      2  N   UNL     1       2.795  -1.341   0.026  1.00  0.00    -0.352 N 
ATOM      3  O   UNL     1       0.921  -0.146  -0.251  1.00  0.00    -0.269 OA
ATOM      4  C   UNL     1       2.133  -0.228  -0.432  1.00  0.00     0.251 C 
ATOM      5  H   UNL     1       2.239  -2.142   0.157  1.00  0.00     0.163 HD
BRANCH   4   6
ATOM      6  C   UNL     1       2.864   0.854  -1.134  1.00  0.00     0.039 A 
ATOM      7  C   UNL     1       3.959   0.569  -1.956  1.00  0.00     0.014 A 
ATOM      8  C   UNL     1       2.394   2.167  -1.038  1.00  0.00     0.014 A 
ATOM      9  C   UNL     1       4.658   1.596  -2.577  1.00  0.00     0.010 A 
ATOM     10  C   UNL     1       3.030   3.185  -1.751  1.00  0.00     0.010 A 
ATOM     11  C   UNL     1       4.175   2.909  -2.516  1.00  0.00    -0.014 A 
BRANCH  11  12
ATOM     12  C   UNL     1       4.811   3.968  -3.335  1.00  0.00     0.031 A 
ATOM     13  C   UNL     1       5.418   5.176  -2.687  1.00  0.00     0.074 A 
ATOM     14  C   UNL     1       4.778   3.855  -4.677  1.00  0.00     0.049 A 
ATOM     15  N   UNL     1       5.911   6.248  -3.246  1.00  0.00    -0.248 NA
ATOM     16  C   UNL     1       5.461   5.188  -1.216  1.00  0.00     0.031 C 
ATOM     17  C   UNL     1       4.188   2.733  -5.413  1.00  0.00     0.029 A 
ATOM     18  N   UNL     1       5.217   4.702  -5.663  1.00  0.00    -0.354 N 
ATOM     19  C   UNL     1       6.273   7.088  -2.202  1.00  0.00     0.074 A 
ATOM     20  C   UNL     1       5.941   6.400  -0.973  1.00  0.00     0.031 C 
ATOM     21  C   UNL     1       4.295   2.962  -6.728  1.00  0.00     0.029 A 
ATOM     22  C   UNL     1       4.892   4.276  -6.929  1.00  0.00     0.049 A 
ATOM     23  H   UNL     1       5.716   5.531  -5.482  1.00  0.00     0.167 HD
ATOM     24  C   UNL     1       6.834   8.320  -2.267  1.00  0.00     0.034 A 
ATOM     25  C   UNL     1       5.010   4.891  -8.120  1.00  0.00     0.034 A 
ATOM     26  C   UNL     1       7.168   8.982  -3.500  1.00  0.00     0.049 A 
ATOM     27  C   UNL     1       5.627   6.257  -8.169  1.00  0.00     0.074 A 
ATOM     28  C   UNL     1       7.798  10.200  -3.679  1.00  0.00     0.029 A 
ATOM     29  N   UNL     1       6.878   8.492  -4.766  1.00  0.00    -0.354 N 
ATOM     30  N   UNL     1       6.060   6.996  -7.177  1.00  0.00    -0.248 NA
ATOM     31  C   UNL     1       5.798   6.865  -9.494  1.00  0.00     0.031 C 
ATOM     32  C   UNL     1       7.845  10.468  -5.051  1.00  0.00     0.029 A 
ATOM     33  C   UNL     1       7.297   9.391  -5.731  1.00  0.00     0.049 A 
ATOM     34  H   UNL     1       6.438   7.630  -4.951  1.00  0.00     0.167 HD
ATOM     35  C   UNL     1       6.593   8.139  -7.757  1.00  0.00     0.074 A 
ATOM     36  C   UNL     1       6.428   7.993  -9.190  1.00  0.00     0.031 C 
ATOM     37  C   UNL     1       7.168   9.208  -7.156  1.00  0.00     0.034 A 
BRANCH  24  38
ATOM     38  C   UNL     1       7.107   9.031  -0.967  1.00  0.00     0.023 A 
ATOM     39  C   UNL     1       8.106   8.554  -0.093  1.00  0.00     0.012 A 
ATOM     40  C   UNL     1       6.384  10.189  -0.618  1.00  0.00     0.148 A 
ATOM     41  C   UNL     1       8.342   9.183   1.129  1.00  0.00     0.002 A 
ATOM     42  C   UNL     1       6.660  10.841   0.579  1.00  0.00     0.091 A 
ATOM     43  F   UNL     1       5.424  10.620  -1.448  1.00  0.00    -0.205 F 
ATOM     44  C   UNL     1       7.626  10.330   1.461  1.00  0.00     0.022 A 
BRANCH  42  45
ATOM     45  S   UNL     1       5.846  12.369   1.053  1.00  0.00     0.127 S 
ATOM     46  O   UNL     1       4.941  11.906   2.104  1.00  0.00    -0.237 OA
ATOM     47  O   UNL     1       6.966  13.182   1.528  1.00  0.00    -0.237 OA
ATOM     48  O   UNL     1       5.203  12.872  -0.153  1.00  0.00    -0.744 OA
ENDBRANCH  42  45
ENDBRANCH  24  38
BRANCH  25  49
ATOM     49  C   UNL     1       4.539   4.195  -9.349  1.00  0.00     0.023 A 
ATOM     50  C   UNL     1       5.478   3.689 -10.266  1.00  0.00     0.012 A 
ATOM     51  C   UNL     1       3.167   3.952  -9.561  1.00  0.00     0.148 A 
ATOM     52  C   UNL     1       5.058   2.966 -11.383  1.00  0.00     0.002 A 
ATOM     53  C   UNL     1       2.759   3.183 -10.643  1.00  0.00     0.091 A 
ATOM     54  F   UNL     1       2.293   4.443  -8.671  1.00  0.00    -0.205 F 
ATOM     55  C   UNL     1       3.702   2.703 -11.565  1.00  0.00     0.022 A 
BRANCH  53  56
ATOM     56  S   UNL     1       1.054   2.673 -10.880  1.00  0.00     0.127 S 
ATOM     57  O   UNL     1       0.713   3.345 -12.132  1.00  0.00    -0.237 OA
ATOM     58  O   UNL     1       1.189   1.219 -10.977  1.00  0.00    -0.237 OA
ATOM     59  O   UNL     1       0.332   3.136  -9.703  1.00  0.00    -0.744 OA
ENDBRANCH  53  56
ENDBRANCH  25  49
BRANCH  37  60
ATOM     60  C   UNL     1       7.731  10.291  -8.036  1.00  0.00     0.023 A 
ATOM     61  C   UNL     1       6.874  11.188  -8.700  1.00  0.00     0.012 A 
ATOM     62  C   UNL     1       9.126  10.481  -8.105  1.00  0.00     0.148 A 
ATOM     63  C   UNL     1       7.399  12.252  -9.433  1.00  0.00     0.002 A 
ATOM     64  C   UNL     1       9.639  11.573  -8.790  1.00  0.00     0.091 A 
ATOM     65  F   UNL     1       9.921   9.600  -7.481  1.00  0.00    -0.205 F 
ATOM     66  C   UNL     1       8.778  12.454  -9.464  1.00  0.00     0.022 A 
BRANCH  64  67
ATOM     67  S   UNL     1      11.390  11.973  -8.793  1.00  0.00     0.127 S 
ATOM     68  O   UNL     1      11.741  11.758 -10.196  1.00  0.00    -0.237 OA
ATOM     69  O   UNL     1      11.386  13.374  -8.372  1.00  0.00    -0.237 OA
ATOM     70  O   UNL     1      12.017  11.056  -7.851  1.00  0.00    -0.744 OA
ENDBRANCH  64  67
ENDBRANCH  37  60
ENDBRANCH  11  12
ENDBRANCH   4   6
ENDBRANCH   1   2
BRANCH   1  71
ATOM     71  C   UNL     1       4.422  -1.420   1.841  1.00  0.00     0.042 C 
BRANCH  71  72
ATOM     72  C   UNL     1       4.056  -2.727   2.567  1.00  0.00     0.117 C 
BRANCH  72  73
ATOM     73  N   UNL     1       5.229  -3.640   2.663  1.00  0.00    -0.355 N 
ATOM     74  C   UNL     1       6.381  -3.739   3.466  1.00  0.00     0.230 C 
ATOM     75  H   UNL     1       5.189  -4.359   1.992  1.00  0.00     0.163 HD
ATOM     76  O   UNL     1       7.302  -4.370   2.944  1.00  0.00    -0.274 OA
BRANCH  74  77
ATOM     77  C   UNL     1       6.392  -3.293   4.982  1.00  0.00     0.097 C 
ATOM     78  C   UNL     1       5.989  -4.808   5.298  1.00  0.00     0.139 C 
ATOM     79  C   UNL     1       6.668  -3.014   6.506  1.00  0.00     0.117 C 
ATOM     80  C   UNL     1       5.709  -1.976   4.761  1.00  0.00     0.141 C 
ATOM     81  N   UNL     1       5.334  -4.893   6.554  1.00  0.00    -0.341 N 
ATOM     82  C   UNL     1       5.544  -3.743   7.271  1.00  0.00     0.228 C 
ATOM     83  C   UNL     1       6.563  -1.512   6.863  1.00  0.00     0.136 C 
ATOM     84  N   UNL     1       6.284  -0.944   5.585  1.00  0.00    -0.324 N 
ATOM     85  O   UNL     1       5.041  -3.448   8.324  1.00  0.00    -0.274 OA
BRANCH  81  86
ATOM     86  C   UNL     1       4.663  -6.096   7.012  1.00  0.00     0.123 C 
BRANCH  86  87
ATOM     87  C   UNL     1       5.467  -6.936   7.973  1.00  0.00     0.008 C 
ATOM     88  C   UNL     1       6.798  -6.558   8.589  1.00  0.00     0.006 C 
ATOM     89  C   UNL     1       5.551  -6.511   9.422  1.00  0.00     0.006 C 
ENDBRANCH  86  87
ENDBRANCH  81  86
BRANCH  84  90
ATOM     90  C   UNL     1       5.822   0.310   5.388  1.00  0.00     0.298 A 
ATOM     91  N   UNL     1       6.424   1.475   5.497  1.00  0.00    -0.193 NA
ATOM     92  O   UNL     1       4.588   0.370   4.787  1.00  0.00    -0.423 OA
ATOM     93  C   UNL     1       5.571   2.345   4.841  1.00  0.00     0.111 A 
ATOM     94  C   UNL     1       4.439   1.667   4.429  1.00  0.00     0.156 A 
ATOM     95  C   UNL     1       5.673   3.706   4.519  1.00  0.00     0.032 A 
ATOM     96  C   UNL     1       3.366   2.213   3.738  1.00  0.00     0.049 A 
ATOM     97  C   UNL     1       4.614   4.303   3.807  1.00  0.00     0.003 A 
ATOM     98  C   UNL     1       3.481   3.570   3.430  1.00  0.00     0.004 A 
ENDBRANCH  84  90
ENDBRANCH  74  77
ENDBRANCH  72  73
ENDBRANCH  71  72
ENDBRANCH   1  71
TORSDOF 16
