REMARK SMILES C[C@H]([C@@H](C)C(=O)NCCCNC(=O)c1ccc(-c2c3nc(c(-c4cccc(S(=O)(=O)[O-])c4F)c4ccc([nH]4)c(-c4cccc(S(=O)(=O)[O-])c4F)c4nc(c(-c5cccc(S(=O)(=O)[O-])c5F)c5ccc2[nH]5)C=C4)C=C3)cc1)[S@@](=O)c1ccc2ccccc2c1
REMARK SMILES IDX 9 1 8 2 7 3 5 4 6 5 3 7 4 8 2 9 1 10 77 11 78 12 79 13 80 14
REMARK SMILES IDX 88 15 81 16 87 17 82 18 86 19 83 20 85 21 84 22 10 23 11 24
REMARK SMILES IDX 12 25 13 27 14 28 15 29 76 30 16 31 75 32 17 33 18 34 19 35
REMARK SMILES IDX 69 36 20 37 74 38 68 39 70 40 21 41 73 42 67 43 66 44 22 46
REMARK SMILES IDX 54 47 34 48 53 49 35 50 38 51 52 52 71 53 36 54 37 55 51 57
REMARK SMILES IDX 72 58 39 59 23 60 24 61 32 62 25 63 27 64 33 65 26 66 28 67
REMARK SMILES IDX 29 68 30 69 31 70 55 71 56 72 64 73 57 74 59 75 65 76 58 77
REMARK SMILES IDX 60 78 61 79 62 80 63 81 40 82 41 83 49 84 42 85 44 86 50 87
REMARK SMILES IDX 43 88 45 89 46 90 47 91 48 92
REMARK H PARENT 7 6 11 26 70 45 38 56
REMARK Flexibility Score: inf
ROOT
ATOM      1  C   UNL     1       3.796   2.585   1.260  1.00  0.00     0.042 C 
ENDROOT
BRANCH   1   2
ATOM      2  C   UNL     1       3.774   1.477   0.213  1.00  0.00     0.117 C 
BRANCH   2   3
ATOM      3  N   UNL     1       3.303   0.219   0.756  1.00  0.00    -0.356 N 
ATOM      4  C   UNL     1       2.134  -0.454   0.612  1.00  0.00     0.224 C 
ATOM      5  O   UNL     1       2.033  -1.528   1.214  1.00  0.00    -0.275 OA
ATOM      6  H   UNL     1       3.954  -0.233   1.339  1.00  0.00     0.163 HD
BRANCH   4   7
ATOM      7  C   UNL     1       0.969   0.043  -0.244  1.00  0.00     0.091 C 
ATOM      8  C   UNL     1       1.326   0.096  -1.728  1.00  0.00     0.019 C 
BRANCH   7   9
ATOM      9  C   UNL     1       0.272   1.274   0.381  1.00  0.00     0.093 C 
ATOM     10  C   UNL     1       0.580   2.644  -0.217  1.00  0.00     0.023 C 
BRANCH   9  11
ATOM     11  S   UNL     1      -1.572   0.986   0.501  1.00  0.00     0.057 S 
ATOM     12  O   UNL     1      -2.144   2.140   1.269  1.00  0.00    -0.254 OA
BRANCH  11  13
ATOM     13  C   UNL     1      -2.088   1.259  -1.208  1.00  0.00     0.040 A 
ATOM     14  C   UNL     1      -2.091   2.538  -1.768  1.00  0.00     0.018 A 
ATOM     15  C   UNL     1      -2.556   0.183  -1.969  1.00  0.00     0.026 A 
ATOM     16  C   UNL     1      -2.408   2.728  -3.111  1.00  0.00     0.010 A 
ATOM     17  C   UNL     1      -2.975   0.374  -3.299  1.00  0.00    -0.017 A 
ATOM     18  C   UNL     1      -2.851   1.654  -3.888  1.00  0.00    -0.018 A 
ATOM     19  C   UNL     1      -3.533  -0.667  -4.057  1.00  0.00     0.009 A 
ATOM     20  C   UNL     1      -3.212   1.843  -5.229  1.00  0.00     0.009 A 
ATOM     21  C   UNL     1      -3.940  -0.451  -5.376  1.00  0.00     0.001 A 
ATOM     22  C   UNL     1      -3.760   0.796  -5.967  1.00  0.00     0.001 A 
ENDBRANCH  11  13
ENDBRANCH   9  11
ENDBRANCH   7   9
ENDBRANCH   4   7
ENDBRANCH   2   3
ENDBRANCH   1   2
BRANCH   1  23
ATOM     23  C   UNL     1       4.932   2.465   2.264  1.00  0.00     0.118 C 
BRANCH  23  24
ATOM     24  N   UNL     1       6.235   2.599   1.630  1.00  0.00    -0.352 N 
ATOM     25  C   UNL     1       7.221   3.535   1.817  1.00  0.00     0.251 C 
ATOM     26  H   UNL     1       6.443   1.908   0.960  1.00  0.00     0.163 HD
ATOM     27  O   UNL     1       8.141   3.598   1.004  1.00  0.00    -0.269 OA
BRANCH  25  28
ATOM     28  C   UNL     1       7.188   4.457   2.974  1.00  0.00     0.039 A 
ATOM     29  C   UNL     1       7.670   5.759   2.812  1.00  0.00     0.014 A 
ATOM     30  C   UNL     1       6.743   4.033   4.229  1.00  0.00     0.014 A 
ATOM     31  C   UNL     1       7.675   6.639   3.897  1.00  0.00     0.010 A 
ATOM     32  C   UNL     1       6.657   4.938   5.282  1.00  0.00     0.010 A 
ATOM     33  C   UNL     1       7.151   6.241   5.137  1.00  0.00    -0.014 A 
BRANCH  33  34
ATOM     34  C   UNL     1       7.140   7.163   6.301  1.00  0.00     0.031 A 
ATOM     35  C   UNL     1       7.911   6.816   7.548  1.00  0.00     0.074 A 
ATOM     36  C   UNL     1       6.379   8.274   6.264  1.00  0.00     0.049 A 
ATOM     37  N   UNL     1       7.995   7.473   8.676  1.00  0.00    -0.248 NA
ATOM     38  C   UNL     1       8.663   5.549   7.541  1.00  0.00     0.031 C 
ATOM     39  C   UNL     1       5.521   8.675   5.146  1.00  0.00     0.029 A 
ATOM     40  N   UNL     1       6.186   9.259   7.199  1.00  0.00    -0.354 N 
ATOM     41  C   UNL     1       8.768   6.685   9.521  1.00  0.00     0.074 A 
ATOM     42  C   UNL     1       9.098   5.482   8.790  1.00  0.00     0.031 C 
ATOM     43  C   UNL     1       4.904   9.826   5.457  1.00  0.00     0.029 A 
ATOM     44  C   UNL     1       5.298  10.231   6.802  1.00  0.00     0.049 A 
ATOM     45  H   UNL     1       6.641   9.269   8.072  1.00  0.00     0.167 HD
ATOM     46  C   UNL     1       9.193   6.950  10.778  1.00  0.00     0.034 A 
ATOM     47  C   UNL     1       4.853  11.325   7.449  1.00  0.00     0.034 A 
ATOM     48  C   UNL     1       8.906   8.172  11.480  1.00  0.00     0.049 A 
ATOM     49  C   UNL     1       5.389  11.627   8.823  1.00  0.00     0.074 A 
ATOM     50  C   UNL     1       9.368   8.583  12.717  1.00  0.00     0.029 A 
ATOM     51  N   UNL     1       8.079   9.179  11.006  1.00  0.00    -0.354 N 
ATOM     52  N   UNL     1       6.251  10.948   9.540  1.00  0.00    -0.248 NA
ATOM     53  C   UNL     1       4.923  12.867   9.459  1.00  0.00     0.031 C 
ATOM     54  C   UNL     1       8.801   9.829  13.003  1.00  0.00     0.029 A 
ATOM     55  C   UNL     1       8.011  10.208  11.929  1.00  0.00     0.049 A 
ATOM     56  H   UNL     1       7.610   9.164  10.141  1.00  0.00     0.167 HD
ATOM     57  C   UNL     1       6.462  11.697  10.692  1.00  0.00     0.074 A 
ATOM     58  C   UNL     1       5.652  12.892  10.566  1.00  0.00     0.031 C 
ATOM     59  C   UNL     1       7.243  11.416  11.764  1.00  0.00     0.034 A 
BRANCH  46  60
ATOM     60  C   UNL     1      10.061   5.922  11.458  1.00  0.00     0.023 A 
ATOM     61  C   UNL     1      11.381   5.715  11.006  1.00  0.00     0.012 A 
ATOM     62  C   UNL     1       9.594   5.202  12.575  1.00  0.00     0.148 A 
ATOM     63  C   UNL     1      12.209   4.782  11.629  1.00  0.00     0.002 A 
ATOM     64  C   UNL     1      10.441   4.307  13.220  1.00  0.00     0.091 A 
ATOM     65  F   UNL     1       8.331   5.395  12.979  1.00  0.00    -0.205 F 
ATOM     66  C   UNL     1      11.743   4.086  12.741  1.00  0.00     0.022 A 
BRANCH  64  67
ATOM     67  S   UNL     1       9.965   3.423  14.710  1.00  0.00     0.127 S 
ATOM     68  O   UNL     1       9.837   2.054  14.212  1.00  0.00    -0.237 OA
ATOM     69  O   UNL     1      11.118   3.649  15.582  1.00  0.00    -0.237 OA
ATOM     70  O   UNL     1       8.729   4.042  15.166  1.00  0.00    -0.744 OA
ENDBRANCH  64  67
ENDBRANCH  46  60
BRANCH  47  71
ATOM     71  C   UNL     1       3.906  12.257   6.774  1.00  0.00     0.023 A 
ATOM     72  C   UNL     1       4.357  13.530   6.375  1.00  0.00     0.012 A 
ATOM     73  C   UNL     1       2.577  11.883   6.500  1.00  0.00     0.148 A 
ATOM     74  C   UNL     1       3.493  14.428   5.747  1.00  0.00     0.002 A 
ATOM     75  C   UNL     1       1.736  12.760   5.824  1.00  0.00     0.091 A 
ATOM     76  F   UNL     1       2.164  10.670   6.895  1.00  0.00    -0.205 F 
ATOM     77  C   UNL     1       2.186  14.040   5.463  1.00  0.00     0.022 A 
BRANCH  75  78
ATOM     78  S   UNL     1       0.082  12.299   5.299  1.00  0.00     0.127 S 
ATOM     79  O   UNL     1      -0.750  13.102   6.190  1.00  0.00    -0.237 OA
ATOM     80  O   UNL     1       0.080  12.726   3.900  1.00  0.00    -0.237 OA
ATOM     81  O   UNL     1       0.001  10.855   5.485  1.00  0.00    -0.744 OA
ENDBRANCH  75  78
ENDBRANCH  47  71
BRANCH  59  82
ATOM     82  C   UNL     1       7.301  12.435  12.871  1.00  0.00     0.023 A 
ATOM     83  C   UNL     1       6.190  12.618  13.719  1.00  0.00     0.012 A 
ATOM     84  C   UNL     1       8.483  13.164  13.113  1.00  0.00     0.148 A 
ATOM     85  C   UNL     1       6.242  13.537  14.766  1.00  0.00     0.002 A 
ATOM     86  C   UNL     1       8.544  14.040  14.189  1.00  0.00     0.091 A 
ATOM     87  F   UNL     1       9.523  12.990  12.284  1.00  0.00    -0.205 F 
ATOM     88  C   UNL     1       7.421  14.238  15.008  1.00  0.00     0.022 A 
BRANCH  86  89
ATOM     89  S   UNL     1      10.053  14.907  14.635  1.00  0.00     0.127 S 
ATOM     90  O   UNL     1       9.756  16.268  14.193  1.00  0.00    -0.237 OA
ATOM     91  O   UNL     1      10.095  14.733  16.087  1.00  0.00    -0.237 OA
ATOM     92  O   UNL     1      11.127  14.235  13.917  1.00  0.00    -0.744 OA
ENDBRANCH  86  89
ENDBRANCH  59  82
ENDBRANCH  33  34
ENDBRANCH  25  28
ENDBRANCH  23  24
ENDBRANCH   1  23
TORSDOF 16
