REMARK SMILES CCC([NH3+])(CC)C(=O)N1Cc2nc[nH]c2C[C@H]1C(=O)NCCCNC(=O)c1ccc(-c2c3nc(c(-c4cccc(S(=O)(=O)[O-])c4F)c4ccc([nH]4)c(-c4cccc(S(=O)(=O)[O-])c4F)c4nc(c(-c5cccc(S(=O)(=O)[O-])c5F)c5ccc2[nH]5)C=C4)C=C3)cc1
REMARK SMILES IDX 22 1 21 2 20 3 18 4 19 5 17 7 9 8 10 9 11 10 16 11 12 12
REMARK SMILES IDX 15 13 13 14 14 15 7 17 8 18 3 19 2 20 1 21 4 22 5 26 6 27
REMARK SMILES IDX 23 28 24 29 25 30 26 32 27 33 28 34 89 35 29 36 88 37 30 38
REMARK SMILES IDX 31 39 32 40 82 41 33 42 87 43 81 44 83 45 34 46 86 47 80 48
REMARK SMILES IDX 79 49 35 51 67 52 47 53 66 54 48 55 51 56 65 57 84 58 49 59
REMARK SMILES IDX 50 60 64 62 85 63 52 64 36 65 37 66 45 67 38 68 40 69 46 70
REMARK SMILES IDX 39 71 41 72 42 73 43 74 44 75 68 76 69 77 77 78 70 79 72 80
REMARK SMILES IDX 78 81 71 82 73 83 74 84 75 85 76 86 53 87 54 88 62 89 55 90
REMARK SMILES IDX 57 91 63 92 56 93 58 94 59 95 60 96 61 97
REMARK H PARENT 20 6 14 16 4 23 4 24 4 25 24 31 83 50 51 61
REMARK Flexibility Score: inf
ROOT
ATOM      1  C   UNL     1       5.661   1.577  -5.310  1.00  0.00     0.042 C 
ENDROOT
BRANCH   1   2
ATOM      2  C   UNL     1       5.098   2.925  -5.768  1.00  0.00     0.117 C 
BRANCH   2   3
ATOM      3  N   UNL     1       3.649   2.989  -5.678  1.00  0.00    -0.354 N 
ATOM      4  C   UNL     1       2.780   3.309  -4.688  1.00  0.00     0.243 C 
ATOM      5  O   UNL     1       1.579   3.201  -4.969  1.00  0.00    -0.273 OA
ATOM      6  H   UNL     1       3.200   2.748  -6.521  1.00  0.00     0.163 HD
BRANCH   4   7
ATOM      7  C   UNL     1       3.151   3.738  -3.252  1.00  0.00     0.181 C 
ATOM      8  N   UNL     1       3.413   2.663  -2.246  1.00  0.00    -0.319 N 
ATOM      9  C   UNL     1       4.791   2.142  -2.125  1.00  0.00     0.178 C 
ATOM     10  C   UNL     1       5.792   3.210  -2.404  1.00  0.00     0.081 A 
ATOM     11  C   UNL     1       4.117   4.951  -3.144  1.00  0.00     0.091 C 
ATOM     12  N   UNL     1       7.151   3.023  -2.436  1.00  0.00    -0.240 NA
ATOM     13  C   UNL     1       5.481   4.469  -2.854  1.00  0.00     0.042 A 
ATOM     14  C   UNL     1       7.647   4.157  -2.881  1.00  0.00     0.197 A 
ATOM     15  N   UNL     1       6.669   5.090  -3.103  1.00  0.00    -0.348 N 
ATOM     16  H   UNL     1       6.798   6.024  -3.386  1.00  0.00     0.167 HD
BRANCH   8  17
ATOM     17  C   UNL     1       2.534   2.244  -1.254  1.00  0.00     0.284 C 
ATOM     18  O   UNL     1       3.008   1.910  -0.158  1.00  0.00    -0.268 OA
BRANCH  17  19
ATOM     19  C   UNL     1       0.971   2.156  -1.465  1.00  0.00     0.173 C 
BRANCH  19  20
ATOM     20  C   UNL     1       0.354   1.369  -0.256  1.00  0.00     0.075 C 
ATOM     21  C   UNL     1       0.761  -0.100  -0.114  1.00  0.00     0.011 C 
ENDBRANCH  19  20
BRANCH  19  22
ATOM     22  N   UNL     1       0.649   1.401  -2.688  1.00  0.00    -0.345 N 
ATOM     23  H   UNL     1      -0.364   1.357  -2.803  1.00  0.00     0.345 HD
ATOM     24  H   UNL     1       1.024   0.455  -2.612  1.00  0.00     0.345 HD
ATOM     25  H   UNL     1       1.063   1.867  -3.494  1.00  0.00     0.345 HD
ENDBRANCH  19  22
BRANCH  19  26
ATOM     26  C   UNL     1       0.249   3.524  -1.543  1.00  0.00     0.075 C 
ATOM     27  C   UNL     1       0.733   4.555  -0.530  1.00  0.00     0.011 C 
ENDBRANCH  19  26
ENDBRANCH  17  19
ENDBRANCH   8  17
ENDBRANCH   4   7
ENDBRANCH   2   3
ENDBRANCH   1   2
BRANCH   1  28
ATOM     28  C   UNL     1       6.359   0.812  -6.412  1.00  0.00     0.118 C 
BRANCH  28  29
ATOM     29  N   UNL     1       7.642   1.410  -6.816  1.00  0.00    -0.352 N 
ATOM     30  C   UNL     1       8.425   1.055  -7.910  1.00  0.00     0.251 C 
ATOM     31  H   UNL     1       7.982   2.141  -6.251  1.00  0.00     0.163 HD
ATOM     32  O   UNL     1       9.599   1.362  -7.996  1.00  0.00    -0.269 OA
BRANCH  30  33
ATOM     33  C   UNL     1       7.753   0.292  -8.977  1.00  0.00     0.039 A 
ATOM     34  C   UNL     1       8.225  -0.943  -9.430  1.00  0.00     0.014 A 
ATOM     35  C   UNL     1       6.494   0.758  -9.319  1.00  0.00     0.014 A 
ATOM     36  C   UNL     1       7.348  -1.765 -10.138  1.00  0.00     0.010 A 
ATOM     37  C   UNL     1       5.581  -0.160  -9.750  1.00  0.00     0.010 A 
ATOM     38  C   UNL     1       6.004  -1.382 -10.257  1.00  0.00    -0.014 A 
BRANCH  38  39
ATOM     39  C   UNL     1       4.982  -2.251 -10.829  1.00  0.00     0.031 A 
ATOM     40  C   UNL     1       4.941  -3.643 -10.299  1.00  0.00     0.074 A 
ATOM     41  C   UNL     1       3.995  -1.764 -11.617  1.00  0.00     0.049 A 
ATOM     42  N   UNL     1       5.280  -4.726 -10.918  1.00  0.00    -0.248 NA
ATOM     43  C   UNL     1       4.614  -3.852  -8.881  1.00  0.00     0.031 C 
ATOM     44  C   UNL     1       3.704  -0.361 -11.968  1.00  0.00     0.029 A 
ATOM     45  N   UNL     1       2.933  -2.417 -12.153  1.00  0.00    -0.354 N 
ATOM     46  C   UNL     1       4.971  -5.774 -10.052  1.00  0.00     0.074 A 
ATOM     47  C   UNL     1       4.776  -5.172  -8.759  1.00  0.00     0.031 C 
ATOM     48  C   UNL     1       2.425  -0.252 -12.384  1.00  0.00     0.029 A 
ATOM     49  C   UNL     1       1.895  -1.585 -12.555  1.00  0.00     0.049 A 
ATOM     50  H   UNL     1       2.902  -3.397 -12.249  1.00  0.00     0.167 HD
ATOM     51  C   UNL     1       4.649  -7.012 -10.525  1.00  0.00     0.034 A 
ATOM     52  C   UNL     1       0.670  -1.966 -12.984  1.00  0.00     0.034 A 
ATOM     53  C   UNL     1       4.960  -7.127 -11.929  1.00  0.00     0.049 A 
ATOM     54  C   UNL     1       0.800  -3.367 -13.440  1.00  0.00     0.074 A 
ATOM     55  C   UNL     1       6.102  -7.011 -12.695  1.00  0.00     0.029 A 
ATOM     56  N   UNL     1       3.905  -7.007 -12.802  1.00  0.00    -0.354 N 
ATOM     57  N   UNL     1       1.539  -3.723 -14.454  1.00  0.00    -0.248 NA
ATOM     58  C   UNL     1       0.477  -4.422 -12.496  1.00  0.00     0.031 C 
ATOM     59  C   UNL     1       5.676  -6.342 -13.881  1.00  0.00     0.029 A 
ATOM     60  C   UNL     1       4.292  -6.157 -13.803  1.00  0.00     0.049 A 
ATOM     61  H   UNL     1       3.030  -7.451 -12.722  1.00  0.00     0.167 HD
ATOM     62  C   UNL     1       2.149  -4.900 -14.039  1.00  0.00     0.074 A 
ATOM     63  C   UNL     1       1.367  -5.340 -12.883  1.00  0.00     0.031 C 
ATOM     64  C   UNL     1       3.394  -5.247 -14.482  1.00  0.00     0.034 A 
BRANCH  51  65
ATOM     65  C   UNL     1       3.718  -8.008  -9.863  1.00  0.00     0.023 A 
ATOM     66  C   UNL     1       3.617  -9.289 -10.457  1.00  0.00     0.012 A 
ATOM     67  C   UNL     1       2.748  -7.685  -8.888  1.00  0.00     0.148 A 
ATOM     68  C   UNL     1       2.572 -10.168 -10.151  1.00  0.00     0.002 A 
ATOM     69  C   UNL     1       1.756  -8.593  -8.529  1.00  0.00     0.091 A 
ATOM     70  F   UNL     1       2.686  -6.449  -8.388  1.00  0.00    -0.205 F 
ATOM     71  C   UNL     1       1.642  -9.821  -9.182  1.00  0.00     0.022 A 
BRANCH  69  72
ATOM     72  S   UNL     1       0.554  -8.215  -7.247  1.00  0.00     0.127 S 
ATOM     73  O   UNL     1      -0.644  -7.954  -8.040  1.00  0.00    -0.237 OA
ATOM     74  O   UNL     1       0.532  -9.461  -6.481  1.00  0.00    -0.237 OA
ATOM     75  O   UNL     1       1.107  -7.079  -6.520  1.00  0.00    -0.744 OA
ENDBRANCH  69  72
ENDBRANCH  51  65
BRANCH  52  76
ATOM     76  C   UNL     1      -0.635  -1.300 -12.793  1.00  0.00     0.023 A 
ATOM     77  C   UNL     1      -1.704  -1.599 -13.657  1.00  0.00     0.012 A 
ATOM     78  C   UNL     1      -0.912  -0.594 -11.601  1.00  0.00     0.148 A 
ATOM     79  C   UNL     1      -3.016  -1.243 -13.325  1.00  0.00     0.002 A 
ATOM     80  C   UNL     1      -2.217  -0.240 -11.277  1.00  0.00     0.091 A 
ATOM     81  F   UNL     1       0.093  -0.351 -10.748  1.00  0.00    -0.205 F 
ATOM     82  C   UNL     1      -3.275  -0.576 -12.131  1.00  0.00     0.022 A 
BRANCH  80  83
ATOM     83  S   UNL     1      -2.633   0.595  -9.739  1.00  0.00     0.127 S 
ATOM     84  O   UNL     1      -3.467   1.700 -10.214  1.00  0.00    -0.237 OA
ATOM     85  O   UNL     1      -3.352  -0.449  -9.016  1.00  0.00    -0.237 OA
ATOM     86  O   UNL     1      -1.361   1.009  -9.160  1.00  0.00    -0.744 OA
ENDBRANCH  80  83
ENDBRANCH  52  76
BRANCH  64  87
ATOM     87  C   UNL     1       3.999  -4.449 -15.614  1.00  0.00     0.023 A 
ATOM     88  C   UNL     1       4.348  -3.089 -15.480  1.00  0.00     0.012 A 
ATOM     89  C   UNL     1       4.409  -5.142 -16.764  1.00  0.00     0.148 A 
ATOM     90  C   UNL     1       5.078  -2.432 -16.476  1.00  0.00     0.002 A 
ATOM     91  C   UNL     1       5.175  -4.500 -17.730  1.00  0.00     0.091 A 
ATOM     92  F   UNL     1       4.074  -6.437 -16.875  1.00  0.00    -0.205 F 
ATOM     93  C   UNL     1       5.505  -3.143 -17.594  1.00  0.00     0.022 A 
BRANCH  91  94
ATOM     94  S   UNL     1       5.867  -5.393 -19.124  1.00  0.00     0.127 S 
ATOM     95  O   UNL     1       5.042  -4.916 -20.232  1.00  0.00    -0.237 OA
ATOM     96  O   UNL     1       7.252  -4.919 -19.143  1.00  0.00    -0.237 OA
ATOM     97  O   UNL     1       5.728  -6.809 -18.803  1.00  0.00    -0.744 OA
ENDBRANCH  91  94
ENDBRANCH  64  87
ENDBRANCH  38  39
ENDBRANCH  30  33
ENDBRANCH  28  29
ENDBRANCH   1  28
TORSDOF 18
