REMARK SMILES COc1ccc(/C=C(\Sc2nc(C)n[nH]2)C(=O)NCCCNC(=O)c2ccc(-c3c4nc(c(-c5cccc(S(=O)(=O)[O-])c5F)c5ccc([nH]5)c(-c5cccc(S(=O)(=O)[O-])c5F)c5nc(c(-c6cccc(S(=O)(=O)[O-])c6F)c6ccc3[nH]6)C=C5)C=C4)cc2)c(OC)c1
REMARK SMILES IDX 20 1 19 2 18 3 16 4 17 5 8 7 7 8 6 9 3 10 4 11 91 12 5 13
REMARK SMILES IDX 88 14 2 15 1 16 89 17 90 18 9 19 10 20 11 21 15 22 12 23
REMARK SMILES IDX 14 24 13 26 21 27 22 28 23 29 24 31 25 32 26 33 87 34 27 35
REMARK SMILES IDX 86 36 28 37 29 38 30 39 80 40 31 41 85 42 79 43 81 44 32 45
REMARK SMILES IDX 84 46 78 47 77 48 33 50 65 51 45 52 64 53 46 54 49 55 63 56
REMARK SMILES IDX 82 57 47 58 48 59 62 61 83 62 50 63 34 64 35 65 43 66 36 67
REMARK SMILES IDX 38 68 44 69 37 70 39 71 40 72 41 73 42 74 66 75 67 76 75 77
REMARK SMILES IDX 68 78 70 79 76 80 69 81 71 82 72 83 73 84 74 85 51 86 52 87
REMARK SMILES IDX 60 88 53 89 55 90 61 91 54 92 56 93 57 94 58 95 59 96
REMARK H PARENT 18 6 15 25 22 30 81 49 49 60
REMARK Flexibility Score: inf
ROOT
ATOM      1  C   UNL     1      -2.052   9.691  -0.888  1.00  0.00     0.042 C 
ENDROOT
BRANCH   1   2
ATOM      2  C   UNL     1      -1.001   9.539  -1.996  1.00  0.00     0.118 C 
BRANCH   2   3
ATOM      3  N   UNL     1       0.366   9.405  -1.501  1.00  0.00    -0.352 N 
ATOM      4  C   UNL     1       1.206   8.364  -1.226  1.00  0.00     0.258 C 
ATOM      5  O   UNL     1       2.382   8.687  -1.023  1.00  0.00    -0.269 OA
ATOM      6  H   UNL     1       0.784  10.278  -1.323  1.00  0.00     0.163 HD
BRANCH   4   7
ATOM      7  C   UNL     1       0.793   6.894  -1.134  1.00  0.00     0.081 C 
ATOM      8  C   UNL     1       1.722   6.106  -0.534  1.00  0.00     0.033 C 
BRANCH   8   9
ATOM      9  C   UNL     1       1.621   4.684  -0.152  1.00  0.00     0.018 A 
ATOM     10  C   UNL     1       1.013   1.979  -0.138  1.00  0.00     0.122 A 
ATOM     11  C   UNL     1       0.116   2.882   0.414  1.00  0.00     0.047 A 
ATOM     12  C   UNL     1       2.292   2.387  -0.511  1.00  0.00     0.093 A 
ATOM     13  C   UNL     1       0.444   4.231   0.455  1.00  0.00     0.016 A 
ATOM     14  C   UNL     1       2.622   3.745  -0.468  1.00  0.00     0.129 A 
BRANCH  10  15
ATOM     15  O   UNL     1       0.535   0.747  -0.483  1.00  0.00    -0.497 OA
ATOM     16  C   UNL     1       1.071  -0.277   0.337  1.00  0.00     0.278 C 
ENDBRANCH  10  15
BRANCH  14  17
ATOM     17  O   UNL     1       3.870   4.195  -0.827  1.00  0.00    -0.496 OA
ATOM     18  C   UNL     1       4.937   3.377  -0.328  1.00  0.00     0.278 C 
ENDBRANCH  14  17
ENDBRANCH   8   9
BRANCH   7  19
ATOM     19  S   UNL     1      -0.824   6.518  -1.599  1.00  0.00    -0.045 SA
BRANCH  19  20
ATOM     20  C   UNL     1      -1.002   4.908  -2.128  1.00  0.00     0.188 A 
ATOM     21  N   UNL     1      -2.106   4.227  -1.929  1.00  0.00    -0.206 NA
ATOM     22  N   UNL     1      -0.126   4.157  -2.847  1.00  0.00    -0.254 N 
ATOM     23  C   UNL     1      -1.836   3.017  -2.495  1.00  0.00     0.148 A 
ATOM     24  N   UNL     1      -0.658   2.942  -3.131  1.00  0.00    -0.158 NA
ATOM     25  H   UNL     1       0.770   4.455  -3.124  1.00  0.00     0.192 HD
ATOM     26  C   UNL     1      -2.776   1.888  -2.338  1.00  0.00     0.092 C 
ENDBRANCH  19  20
ENDBRANCH   7  19
ENDBRANCH   4   7
ENDBRANCH   2   3
ENDBRANCH   1   2
BRANCH   1  27
ATOM     27  C   UNL     1      -2.274  11.161  -0.572  1.00  0.00     0.118 C 
BRANCH  27  28
ATOM     28  N   UNL     1      -2.893  11.890  -1.700  1.00  0.00    -0.352 N 
ATOM     29  C   UNL     1      -3.370  13.184  -1.745  1.00  0.00     0.251 C 
ATOM     30  H   UNL     1      -2.976  11.380  -2.538  1.00  0.00     0.163 HD
ATOM     31  O   UNL     1      -4.136  13.540  -2.655  1.00  0.00    -0.269 OA
BRANCH  29  32
ATOM     32  C   UNL     1      -2.917  14.151  -0.738  1.00  0.00     0.039 A 
ATOM     33  C   UNL     1      -3.712  15.167  -0.199  1.00  0.00     0.014 A 
ATOM     34  C   UNL     1      -1.628  13.966  -0.276  1.00  0.00     0.014 A 
ATOM     35  C   UNL     1      -3.156  15.985   0.790  1.00  0.00     0.010 A 
ATOM     36  C   UNL     1      -1.332  14.448   0.955  1.00  0.00     0.010 A 
ATOM     37  C   UNL     1      -1.920  15.625   1.344  1.00  0.00    -0.014 A 
BRANCH  37  38
ATOM     38  C   UNL     1      -1.319  16.234   2.521  1.00  0.00     0.031 A 
ATOM     39  C   UNL     1      -2.235  16.087   3.680  1.00  0.00     0.074 A 
ATOM     40  C   UNL     1      -0.022  16.642   2.572  1.00  0.00     0.049 A 
ATOM     41  N   UNL     1      -3.065  16.986   4.094  1.00  0.00    -0.248 NA
ATOM     42  C   UNL     1      -2.512  14.744   4.229  1.00  0.00     0.031 C 
ATOM     43  C   UNL     1       1.030  16.550   1.546  1.00  0.00     0.029 A 
ATOM     44  N   UNL     1       0.673  17.194   3.607  1.00  0.00    -0.354 N 
ATOM     45  C   UNL     1      -3.685  16.415   5.197  1.00  0.00     0.074 A 
ATOM     46  C   UNL     1      -3.554  14.996   5.029  1.00  0.00     0.031 C 
ATOM     47  C   UNL     1       2.247  16.799   2.096  1.00  0.00     0.029 A 
ATOM     48  C   UNL     1       2.067  17.215   3.475  1.00  0.00     0.049 A 
ATOM     49  H   UNL     1       0.221  17.557   4.402  1.00  0.00     0.167 HD
ATOM     50  C   UNL     1      -3.896  17.166   6.312  1.00  0.00     0.034 A 
ATOM     51  C   UNL     1       2.988  17.550   4.430  1.00  0.00     0.034 A 
ATOM     52  C   UNL     1      -3.675  18.564   6.013  1.00  0.00     0.049 A 
ATOM     53  C   UNL     1       2.267  18.342   5.454  1.00  0.00     0.074 A 
ATOM     54  C   UNL     1      -4.222  19.479   5.136  1.00  0.00     0.029 A 
ATOM     55  N   UNL     1      -2.431  19.040   6.348  1.00  0.00    -0.354 N 
ATOM     56  N   UNL     1       1.757  19.514   5.199  1.00  0.00    -0.248 NA
ATOM     57  C   UNL     1       1.654  17.599   6.543  1.00  0.00     0.031 C 
ATOM     58  C   UNL     1      -3.110  20.227   4.644  1.00  0.00     0.029 A 
ATOM     59  C   UNL     1      -1.964  19.832   5.336  1.00  0.00     0.049 A 
ATOM     60  H   UNL     1      -1.951  18.842   7.184  1.00  0.00     0.167 HD
ATOM     61  C   UNL     1       0.473  19.432   5.719  1.00  0.00     0.074 A 
ATOM     62  C   UNL     1       0.487  18.250   6.589  1.00  0.00     0.031 C 
ATOM     63  C   UNL     1      -0.559  20.104   5.129  1.00  0.00     0.034 A 
BRANCH  50  64
ATOM     64  C   UNL     1      -3.827  16.661   7.739  1.00  0.00     0.023 A 
ATOM     65  C   UNL     1      -4.184  17.585   8.747  1.00  0.00     0.012 A 
ATOM     66  C   UNL     1      -3.188  15.472   8.163  1.00  0.00     0.148 A 
ATOM     67  C   UNL     1      -3.874  17.366  10.092  1.00  0.00     0.002 A 
ATOM     68  C   UNL     1      -2.940  15.226   9.509  1.00  0.00     0.091 A 
ATOM     69  F   UNL     1      -2.703  14.611   7.267  1.00  0.00    -0.205 F 
ATOM     70  C   UNL     1      -3.255  16.183  10.475  1.00  0.00     0.022 A 
BRANCH  68  71
ATOM     71  S   UNL     1      -2.165  13.705  10.080  1.00  0.00     0.127 S 
ATOM     72  O   UNL     1      -0.916  14.206  10.647  1.00  0.00    -0.237 OA
ATOM     73  O   UNL     1      -3.143  13.230  11.058  1.00  0.00    -0.237 OA
ATOM     74  O   UNL     1      -2.030  12.858   8.903  1.00  0.00    -0.744 OA
ENDBRANCH  68  71
ENDBRANCH  50  64
BRANCH  51  75
ATOM     75  C   UNL     1       4.324  16.958   4.753  1.00  0.00     0.023 A 
ATOM     76  C   UNL     1       5.218  17.612   5.637  1.00  0.00     0.012 A 
ATOM     77  C   UNL     1       4.578  15.601   4.464  1.00  0.00     0.148 A 
ATOM     78  C   UNL     1       6.301  16.933   6.224  1.00  0.00     0.002 A 
ATOM     79  C   UNL     1       5.649  14.928   5.055  1.00  0.00     0.091 A 
ATOM     80  F   UNL     1       3.711  14.944   3.685  1.00  0.00    -0.205 F 
ATOM     81  C   UNL     1       6.509  15.587   5.942  1.00  0.00     0.022 A 
BRANCH  79  82
ATOM     82  S   UNL     1       5.941  13.175   4.776  1.00  0.00     0.127 S 
ATOM     83  O   UNL     1       7.343  13.169   4.357  1.00  0.00    -0.237 OA
ATOM     84  O   UNL     1       5.695  12.612   6.101  1.00  0.00    -0.237 OA
ATOM     85  O   UNL     1       5.000  12.776   3.739  1.00  0.00    -0.744 OA
ENDBRANCH  79  82
ENDBRANCH  51  75
BRANCH  63  86
ATOM     86  C   UNL     1      -0.225  21.134   4.078  1.00  0.00     0.023 A 
ATOM     87  C   UNL     1       0.313  20.834   2.806  1.00  0.00     0.012 A 
ATOM     88  C   UNL     1      -0.627  22.449   4.351  1.00  0.00     0.148 A 
ATOM     89  C   UNL     1       0.457  21.839   1.839  1.00  0.00     0.002 A 
ATOM     90  C   UNL     1      -0.524  23.430   3.378  1.00  0.00     0.091 A 
ATOM     91  F   UNL     1      -1.142  22.706   5.562  1.00  0.00    -0.205 F 
ATOM     92  C   UNL     1       0.028  23.135   2.122  1.00  0.00     0.022 A 
BRANCH  90  93
ATOM     93  S   UNL     1      -1.168  25.077   3.660  1.00  0.00     0.127 S 
ATOM     94  O   UNL     1       0.057  25.864   3.779  1.00  0.00    -0.237 OA
ATOM     95  O   UNL     1      -1.940  25.322   2.441  1.00  0.00    -0.237 OA
ATOM     96  O   UNL     1      -1.977  24.994   4.871  1.00  0.00    -0.744 OA
ENDBRANCH  90  93
ENDBRANCH  63  86
ENDBRANCH  37  38
ENDBRANCH  29  32
ENDBRANCH  27  28
ENDBRANCH   1  27
TORSDOF 18
