REMARK SMILES Cc1nc(C)n(CC[C@H]2CCC[C@@]2([NH2+]C(C)C)C(=O)NCCCNC(=O)c2ccc(-c3c4nc(c(-c5cccc(S(=O)(=O)[O-])c5F)c5ccc([nH]5)c(-c5cccc(S(=O)(=O)[O-])c5F)c5nc(c(-c6cccc(S(=O)(=O)[O-])c6F)c6ccc3[nH]6)C=C5)C=C4)cc2)n1
REMARK SMILES IDX 22 1 21 2 20 3 18 4 19 5 13 7 9 8 10 9 11 10 12 11 8 12 7 13
REMARK SMILES IDX 6 14 1 15 2 16 3 17 90 18 4 19 5 20 14 21 15 24 16 25 17 26
REMARK SMILES IDX 23 27 24 28 25 29 26 31 27 32 28 33 89 34 29 35 88 36 30 37
REMARK SMILES IDX 31 38 32 39 82 40 33 41 87 42 81 43 83 44 34 45 86 46 80 47
REMARK SMILES IDX 79 48 35 50 67 51 47 52 66 53 48 54 51 55 65 56 84 57 49 58
REMARK SMILES IDX 50 59 64 61 85 62 52 63 36 64 37 65 45 66 38 67 40 68 46 69
REMARK SMILES IDX 39 70 41 71 42 72 43 73 44 74 68 75 69 76 77 77 70 78 72 79
REMARK SMILES IDX 78 80 71 81 73 82 74 83 75 84 76 85 53 86 54 87 62 88 55 89
REMARK SMILES IDX 57 90 63 91 56 92 58 93 59 94 60 95 61 96
REMARK H PARENT 20 6 14 22 14 23 24 30 83 49 51 60
REMARK Flexibility Score: inf
ROOT
ATOM      1  C   UNL     1      -3.569  10.131   2.372  1.00  0.00     0.042 C 
ENDROOT
BRANCH   1   2
ATOM      2  C   UNL     1      -3.172  10.365   0.909  1.00  0.00     0.118 C 
BRANCH   2   3
ATOM      3  N   UNL     1      -1.792  10.017   0.627  1.00  0.00    -0.351 N 
ATOM      4  C   UNL     1      -1.200   8.920   0.085  1.00  0.00     0.281 C 
ATOM      5  O   UNL     1       0.022   9.009  -0.088  1.00  0.00    -0.268 OA
ATOM      6  H   UNL     1      -1.153  10.721   0.881  1.00  0.00     0.163 HD
BRANCH   4   7
ATOM      7  C   UNL     1      -1.974   7.672  -0.436  1.00  0.00     0.178 C 
ATOM      8  C   UNL     1      -1.127   6.366  -0.103  1.00  0.00     0.062 C 
ATOM      9  C   UNL     1      -2.075   5.344  -0.631  1.00  0.00     0.011 C 
ATOM     10  C   UNL     1      -3.426   5.797  -0.045  1.00  0.00     0.008 C 
ATOM     11  C   UNL     1      -3.308   7.299   0.188  1.00  0.00     0.079 C 
BRANCH   8  12
ATOM     12  C   UNL     1      -0.775   5.914   1.368  1.00  0.00     0.034 C 
BRANCH  12  13
ATOM     13  C   UNL     1      -1.603   4.821   2.188  1.00  0.00     0.147 C 
BRANCH  13  14
ATOM     14  N   UNL     1      -1.710   3.369   1.921  1.00  0.00    -0.250 N 
ATOM     15  C   UNL     1      -1.558   0.190   3.524  1.00  0.00     0.092 C 
ATOM     16  C   UNL     1      -1.799   1.403   2.728  1.00  0.00     0.147 A 
ATOM     17  N   UNL     1      -2.659   1.362   1.697  1.00  0.00    -0.217 NA
ATOM     18  N   UNL     1      -1.197   2.575   2.913  1.00  0.00    -0.156 NA
ATOM     19  C   UNL     1      -2.555   2.547   1.137  1.00  0.00     0.124 A 
ATOM     20  C   UNL     1      -3.193   2.691  -0.200  1.00  0.00     0.089 C 
ENDBRANCH  13  14
ENDBRANCH  12  13
ENDBRANCH   8  12
BRANCH   7  21
ATOM     21  N   UNL     1      -2.028   7.810  -1.929  1.00  0.00    -0.331 N 
ATOM     22  H   UNL     1      -1.457   7.040  -2.277  1.00  0.00     0.347 HD
ATOM     23  H   UNL     1      -1.787   8.799  -1.994  1.00  0.00     0.347 HD
BRANCH  21  24
ATOM     24  C   UNL     1      -3.197   7.822  -2.804  1.00  0.00     0.176 C 
ATOM     25  C   UNL     1      -2.708   8.276  -4.190  1.00  0.00     0.075 C 
ATOM     26  C   UNL     1      -3.966   6.516  -3.077  1.00  0.00     0.075 C 
ENDBRANCH  21  24
ENDBRANCH   7  21
ENDBRANCH   4   7
ENDBRANCH   2   3
ENDBRANCH   1   2
BRANCH   1  27
ATOM     27  C   UNL     1      -2.877  11.085   3.332  1.00  0.00     0.118 C 
BRANCH  27  28
ATOM     28  N   UNL     1      -3.275  12.491   3.160  1.00  0.00    -0.352 N 
ATOM     29  C   UNL     1      -2.824  13.597   3.862  1.00  0.00     0.251 C 
ATOM     30  H   UNL     1      -3.945  12.667   2.461  1.00  0.00     0.163 HD
ATOM     31  O   UNL     1      -3.443  14.660   3.830  1.00  0.00    -0.269 OA
BRANCH  29  32
ATOM     32  C   UNL     1      -1.587  13.470   4.649  1.00  0.00     0.039 A 
ATOM     33  C   UNL     1      -1.450  13.999   5.936  1.00  0.00     0.014 A 
ATOM     34  C   UNL     1      -0.577  12.704   4.089  1.00  0.00     0.014 A 
ATOM     35  C   UNL     1      -0.315  13.665   6.675  1.00  0.00     0.010 A 
ATOM     36  C   UNL     1       0.376  12.167   4.903  1.00  0.00     0.010 A 
ATOM     37  C   UNL     1       0.587  12.725   6.154  1.00  0.00    -0.014 A 
BRANCH  37  38
ATOM     38  C   UNL     1       1.754  12.268   6.900  1.00  0.00     0.031 A 
ATOM     39  C   UNL     1       1.483  11.791   8.282  1.00  0.00     0.074 A 
ATOM     40  C   UNL     1       2.960  12.098   6.310  1.00  0.00     0.049 A 
ATOM     41  N   UNL     1       1.842  12.355   9.387  1.00  0.00    -0.248 NA
ATOM     42  C   UNL     1       0.601  10.630   8.467  1.00  0.00     0.031 C 
ATOM     43  C   UNL     1       3.316  12.226   4.885  1.00  0.00     0.029 A 
ATOM     44  N   UNL     1       4.107  11.610   6.849  1.00  0.00    -0.354 N 
ATOM     45  C   UNL     1       1.435  11.495  10.405  1.00  0.00     0.074 A 
ATOM     46  C   UNL     1       0.519  10.564   9.799  1.00  0.00     0.031 C 
ATOM     47  C   UNL     1       4.460  11.553   4.642  1.00  0.00     0.029 A 
ATOM     48  C   UNL     1       5.023  11.149   5.911  1.00  0.00     0.049 A 
ATOM     49  H   UNL     1       4.275  11.585   7.819  1.00  0.00     0.167 HD
ATOM     50  C   UNL     1       2.069  11.472  11.611  1.00  0.00     0.034 A 
ATOM     51  C   UNL     1       6.151  10.445   6.160  1.00  0.00     0.034 A 
ATOM     52  C   UNL     1       2.958  12.596  11.758  1.00  0.00     0.049 A 
ATOM     53  C   UNL     1       6.511  10.701   7.572  1.00  0.00     0.074 A 
ATOM     54  C   UNL     1       2.813  13.968  11.762  1.00  0.00     0.029 A 
ATOM     55  N   UNL     1       4.293  12.355  11.536  1.00  0.00    -0.354 N 
ATOM     56  N   UNL     1       6.852  11.879   8.019  1.00  0.00    -0.248 NA
ATOM     57  C   UNL     1       6.049   9.758   8.576  1.00  0.00     0.031 C 
ATOM     58  C   UNL     1       3.956  14.454  11.062  1.00  0.00     0.029 A 
ATOM     59  C   UNL     1       4.762  13.361  10.734  1.00  0.00     0.049 A 
ATOM     60  H   UNL     1       4.816  11.599  11.888  1.00  0.00     0.167 HD
ATOM     61  C   UNL     1       6.216  11.976   9.250  1.00  0.00     0.074 A 
ATOM     62  C   UNL     1       5.838  10.604   9.589  1.00  0.00     0.031 C 
ATOM     63  C   UNL     1       5.796  13.182   9.737  1.00  0.00     0.034 A 
BRANCH  50  64
ATOM     64  C   UNL     1       2.192  10.274  12.521  1.00  0.00     0.023 A 
ATOM     65  C   UNL     1       2.710  10.497  13.818  1.00  0.00     0.012 A 
ATOM     66  C   UNL     1       2.101   8.933  12.088  1.00  0.00     0.148 A 
ATOM     67  C   UNL     1       3.168   9.445  14.618  1.00  0.00     0.002 A 
ATOM     68  C   UNL     1       2.489   7.885  12.917  1.00  0.00     0.091 A 
ATOM     69  F   UNL     1       1.770   8.660  10.823  1.00  0.00    -0.205 F 
ATOM     70  C   UNL     1       3.053   8.136  14.170  1.00  0.00     0.022 A 
BRANCH  68  71
ATOM     71  S   UNL     1       2.323   6.171  12.405  1.00  0.00     0.127 S 
ATOM     72  O   UNL     1       3.708   5.822  12.105  1.00  0.00    -0.237 OA
ATOM     73  O   UNL     1       1.772   5.550  13.610  1.00  0.00    -0.237 OA
ATOM     74  O   UNL     1       1.403   6.194  11.274  1.00  0.00    -0.744 OA
ENDBRANCH  68  71
ENDBRANCH  50  64
BRANCH  51  75
ATOM     75  C   UNL     1       6.755   9.360   5.359  1.00  0.00     0.023 A 
ATOM     76  C   UNL     1       8.121   9.058   5.500  1.00  0.00     0.012 A 
ATOM     77  C   UNL     1       5.932   8.443   4.664  1.00  0.00     0.148 A 
ATOM     78  C   UNL     1       8.649   7.865   4.991  1.00  0.00     0.002 A 
ATOM     79  C   UNL     1       6.460   7.260   4.159  1.00  0.00     0.091 A 
ATOM     80  F   UNL     1       4.619   8.695   4.578  1.00  0.00    -0.205 F 
ATOM     81  C   UNL     1       7.818   6.962   4.332  1.00  0.00     0.022 A 
BRANCH  79  82
ATOM     82  S   UNL     1       5.447   6.026   3.330  1.00  0.00     0.127 S 
ATOM     83  O   UNL     1       6.177   5.834   2.076  1.00  0.00    -0.237 OA
ATOM     84  O   UNL     1       5.522   4.902   4.260  1.00  0.00    -0.237 OA
ATOM     85  O   UNL     1       4.129   6.628   3.175  1.00  0.00    -0.744 OA
ENDBRANCH  79  82
ENDBRANCH  51  75
BRANCH  63  86
ATOM     86  C   UNL     1       6.242  14.434   9.021  1.00  0.00     0.023 A 
ATOM     87  C   UNL     1       5.826  14.744   7.708  1.00  0.00     0.012 A 
ATOM     88  C   UNL     1       6.925  15.412   9.763  1.00  0.00     0.148 A 
ATOM     89  C   UNL     1       6.099  15.994   7.144  1.00  0.00     0.002 A 
ATOM     90  C   UNL     1       7.153  16.669   9.217  1.00  0.00     0.091 A 
ATOM     91  F   UNL     1       7.304  15.104  11.012  1.00  0.00    -0.205 F 
ATOM     92  C   UNL     1       6.750  16.962   7.905  1.00  0.00     0.022 A 
BRANCH  90  93
ATOM     93  S   UNL     1       7.864  17.998  10.190  1.00  0.00     0.127 S 
ATOM     94  O   UNL     1       9.207  18.105   9.624  1.00  0.00    -0.237 OA
ATOM     95  O   UNL     1       6.978  19.121   9.881  1.00  0.00    -0.237 OA
ATOM     96  O   UNL     1       7.803  17.558  11.579  1.00  0.00    -0.744 OA
ENDBRANCH  90  93
ENDBRANCH  63  86
ENDBRANCH  37  38
ENDBRANCH  29  32
ENDBRANCH  27  28
ENDBRANCH   1  27
TORSDOF 18
