REMARK SMILES O=C(/C=C/c1cccs1)NCC(=O)NCCCNC(=O)c1ccc(-c2c3nc(c(-c4cccc(S(=O)(=O)[O-])c4F)c4ccc([nH]4)c(-c4cccc(S(=O)(=O)[O-])c4F)c4nc(c(-c5cccc(S(=O)(=O)[O-])c5F)c5ccc2[nH]5)C=C4)C=C3)cc1
REMARK SMILES IDX 16 1 15 2 14 3 12 4 13 5 11 7 10 8 1 9 2 10 3 12 4 13 5 14
REMARK SMILES IDX 6 15 9 16 7 17 8 18 17 19 18 20 19 21 20 23 21 24 22 25
REMARK SMILES IDX 83 26 23 27 82 28 24 29 25 30 26 31 76 32 27 33 81 34 75 35
REMARK SMILES IDX 77 36 28 37 80 38 74 39 73 40 29 42 61 43 41 44 60 45 42 46
REMARK SMILES IDX 45 47 59 48 78 49 43 50 44 51 58 53 79 54 46 55 30 56 31 57
REMARK SMILES IDX 39 58 32 59 34 60 40 61 33 62 35 63 36 64 37 65 38 66 62 67
REMARK SMILES IDX 63 68 71 69 64 70 66 71 72 72 65 73 67 74 68 75 69 76 70 77
REMARK SMILES IDX 47 78 48 79 56 80 49 81 51 82 57 83 50 84 52 85 53 86 54 87
REMARK SMILES IDX 55 88
REMARK H PARENT 14 6 10 11 18 22 77 41 45 52
REMARK Flexibility Score: inf
ROOT
ATOM      1  C   UNL     1       2.442   3.481   0.316  1.00  0.00     0.042 C 
ENDROOT
BRANCH   1   2
ATOM      2  C   UNL     1       1.543   3.134  -0.867  1.00  0.00     0.117 C 
BRANCH   2   3
ATOM      3  N   UNL     1       2.265   3.142  -2.127  1.00  0.00    -0.355 N 
ATOM      4  C   UNL     1       2.664   2.081  -2.887  1.00  0.00     0.239 C 
ATOM      5  O   UNL     1       3.235   2.304  -3.957  1.00  0.00    -0.273 OA
ATOM      6  H   UNL     1       2.499   4.031  -2.479  1.00  0.00     0.163 HD
BRANCH   4   7
ATOM      7  C   UNL     1       2.358   0.654  -2.433  1.00  0.00     0.216 C 
BRANCH   7   8
ATOM      8  N   UNL     1       3.065   0.302  -1.213  1.00  0.00    -0.343 N 
ATOM      9  O   UNL     1       1.204  -0.431  -0.109  1.00  0.00    -0.270 OA
ATOM     10  C   UNL     1       2.415  -0.229  -0.135  1.00  0.00     0.244 C 
ATOM     11  H   UNL     1       4.037   0.449  -1.162  1.00  0.00     0.164 HD
BRANCH  10  12
ATOM     12  C   UNL     1       3.227  -0.574   1.058  1.00  0.00     0.072 C 
ATOM     13  C   UNL     1       4.543  -0.375   1.230  1.00  0.00     0.024 C 
BRANCH  13  14
ATOM     14  C   UNL     1       5.188  -0.743   2.448  1.00  0.00     0.027 A 
ATOM     15  C   UNL     1       4.879  -1.727   3.374  1.00  0.00     0.020 A 
ATOM     16  S   UNL     1       6.603   0.114   2.938  1.00  0.00    -0.144 S 
ATOM     17  C   UNL     1       5.759  -1.736   4.494  1.00  0.00     0.012 A 
ATOM     18  C   UNL     1       6.725  -0.762   4.398  1.00  0.00     0.065 A 
ENDBRANCH  13  14
ENDBRANCH  10  12
ENDBRANCH   7   8
ENDBRANCH   4   7
ENDBRANCH   2   3
ENDBRANCH   1   2
BRANCH   1  19
ATOM     19  C   UNL     1       2.942   4.924   0.316  1.00  0.00     0.118 C 
BRANCH  19  20
ATOM     20  N   UNL     1       1.861   5.895   0.429  1.00  0.00    -0.352 N 
ATOM     21  C   UNL     1       1.666   6.903   1.337  1.00  0.00     0.251 C 
ATOM     22  H   UNL     1       1.158   5.813  -0.256  1.00  0.00     0.163 HD
ATOM     23  O   UNL     1       0.584   7.496   1.351  1.00  0.00    -0.269 OA
BRANCH  21  24
ATOM     24  C   UNL     1       2.722   7.282   2.300  1.00  0.00     0.039 A 
ATOM     25  C   UNL     1       2.355   7.588   3.615  1.00  0.00     0.014 A 
ATOM     26  C   UNL     1       4.061   7.378   1.912  1.00  0.00     0.014 A 
ATOM     27  C   UNL     1       3.334   7.936   4.550  1.00  0.00     0.010 A 
ATOM     28  C   UNL     1       5.043   7.654   2.863  1.00  0.00     0.010 A 
ATOM     29  C   UNL     1       4.691   7.942   4.190  1.00  0.00    -0.014 A 
BRANCH  29  30
ATOM     30  C   UNL     1       5.753   8.232   5.191  1.00  0.00     0.031 A 
ATOM     31  C   UNL     1       6.653   9.428   5.026  1.00  0.00     0.074 A 
ATOM     32  C   UNL     1       5.965   7.364   6.201  1.00  0.00     0.049 A 
ATOM     33  N   UNL     1       7.663   9.806   5.766  1.00  0.00    -0.248 NA
ATOM     34  C   UNL     1       6.406  10.301   3.865  1.00  0.00     0.031 C 
ATOM     35  C   UNL     1       5.217   6.124   6.423  1.00  0.00     0.029 A 
ATOM     36  N   UNL     1       6.895   7.373   7.212  1.00  0.00    -0.354 N 
ATOM     37  C   UNL     1       8.201  10.924   5.139  1.00  0.00     0.074 A 
ATOM     38  C   UNL     1       7.415  11.158   3.948  1.00  0.00     0.031 C 
ATOM     39  C   UNL     1       5.720   5.491   7.496  1.00  0.00     0.029 A 
ATOM     40  C   UNL     1       6.843   6.260   8.021  1.00  0.00     0.049 A 
ATOM     41  H   UNL     1       7.538   8.106   7.346  1.00  0.00     0.167 HD
ATOM     42  C   UNL     1       9.242  11.697   5.529  1.00  0.00     0.034 A 
ATOM     43  C   UNL     1       7.620   5.893   9.060  1.00  0.00     0.034 A 
ATOM     44  C   UNL     1       9.983  11.498   6.745  1.00  0.00     0.049 A 
ATOM     45  C   UNL     1       8.728   6.811   9.505  1.00  0.00     0.074 A 
ATOM     46  C   UNL     1      10.973  12.300   7.287  1.00  0.00     0.029 A 
ATOM     47  N   UNL     1       9.831  10.418   7.599  1.00  0.00    -0.354 N 
ATOM     48  N   UNL     1       9.093   7.966   9.007  1.00  0.00    -0.248 NA
ATOM     49  C   UNL     1       9.505   6.394  10.682  1.00  0.00     0.031 C 
ATOM     50  C   UNL     1      11.442  11.687   8.453  1.00  0.00     0.029 A 
ATOM     51  C   UNL     1      10.720  10.523   8.655  1.00  0.00     0.049 A 
ATOM     52  H   UNL     1       9.185   9.686   7.474  1.00  0.00     0.167 HD
ATOM     53  C   UNL     1      10.111   8.432   9.831  1.00  0.00     0.074 A 
ATOM     54  C   UNL     1      10.289   7.446  10.875  1.00  0.00     0.031 C 
ATOM     55  C   UNL     1      10.845   9.567   9.724  1.00  0.00     0.034 A 
BRANCH  42  56
ATOM     56  C   UNL     1       9.628  12.867   4.662  1.00  0.00     0.023 A 
ATOM     57  C   UNL     1       8.810  14.014   4.628  1.00  0.00     0.012 A 
ATOM     58  C   UNL     1      10.855  12.870   3.969  1.00  0.00     0.148 A 
ATOM     59  C   UNL     1       9.197  15.139   3.901  1.00  0.00     0.002 A 
ATOM     60  C   UNL     1      11.255  14.011   3.284  1.00  0.00     0.091 A 
ATOM     61  F   UNL     1      11.609  11.762   4.001  1.00  0.00    -0.205 F 
ATOM     62  C   UNL     1      10.424  15.142   3.241  1.00  0.00     0.022 A 
BRANCH  60  63
ATOM     63  S   UNL     1      12.853  14.148   2.475  1.00  0.00     0.127 S 
ATOM     64  O   UNL     1      12.464  14.220   1.066  1.00  0.00    -0.237 OA
ATOM     65  O   UNL     1      13.370  15.400   3.028  1.00  0.00    -0.237 OA
ATOM     66  O   UNL     1      13.601  12.958   2.852  1.00  0.00    -0.744 OA
ENDBRANCH  60  63
ENDBRANCH  42  56
BRANCH  43  67
ATOM     67  C   UNL     1       7.351   4.619   9.789  1.00  0.00     0.023 A 
ATOM     68  C   UNL     1       6.883   4.668  11.117  1.00  0.00     0.012 A 
ATOM     69  C   UNL     1       7.563   3.366   9.182  1.00  0.00     0.148 A 
ATOM     70  C   UNL     1       6.680   3.494  11.844  1.00  0.00     0.002 A 
ATOM     71  C   UNL     1       7.303   2.199   9.892  1.00  0.00     0.091 A 
ATOM     72  F   UNL     1       8.018   3.337   7.922  1.00  0.00    -0.205 F 
ATOM     73  C   UNL     1       6.882   2.261  11.230  1.00  0.00     0.022 A 
BRANCH  71  74
ATOM     74  S   UNL     1       7.418   0.571   9.139  1.00  0.00     0.127 S 
ATOM     75  O   UNL     1       8.648   0.052   9.732  1.00  0.00    -0.237 OA
ATOM     76  O   UNL     1       6.190  -0.071   9.609  1.00  0.00    -0.237 OA
ATOM     77  O   UNL     1       7.457   0.802   7.702  1.00  0.00    -0.744 OA
ENDBRANCH  71  74
ENDBRANCH  43  67
BRANCH  55  78
ATOM     78  C   UNL     1      11.877   9.840  10.787  1.00  0.00     0.023 A 
ATOM     79  C   UNL     1      13.056   9.072  10.838  1.00  0.00     0.012 A 
ATOM     80  C   UNL     1      11.708  10.908  11.691  1.00  0.00     0.148 A 
ATOM     81  C   UNL     1      14.035   9.339  11.795  1.00  0.00     0.002 A 
ATOM     82  C   UNL     1      12.710  11.202  12.606  1.00  0.00     0.091 A 
ATOM     83  F   UNL     1      10.570  11.617  11.639  1.00  0.00    -0.205 F 
ATOM     84  C   UNL     1      13.868  10.410  12.669  1.00  0.00     0.022 A 
BRANCH  82  85
ATOM     85  S   UNL     1      12.626  12.624  13.701  1.00  0.00     0.127 S 
ATOM     86  O   UNL     1      12.364  11.990  14.992  1.00  0.00    -0.237 OA
ATOM     87  O   UNL     1      13.963  13.201  13.565  1.00  0.00    -0.237 OA
ATOM     88  O   UNL     1      11.552  13.463  13.187  1.00  0.00    -0.744 OA
ENDBRANCH  82  85
ENDBRANCH  55  78
ENDBRANCH  29  30
ENDBRANCH  21  24
ENDBRANCH  19  20
ENDBRANCH   1  19
TORSDOF 16
