REMARK SMILES C=C[C@@H]1[C@@H](O)C[C@H]2[C@]3(CC[C@]4(C)[C@@H]([C@H](C)CCC=C(C)C)CC[C@]24C)C[C@]13CCC(=O)NCCCNC(=O)c1ccc(-c2c3nc(c(-c4cccc(S(=O)(=O)[O-])c4F)c4ccc([nH]4)c(-c4cccc(S(=O)(=O)[O-])c4F)c4nc(c(-c5cccc(S(=O)(=O)[O-])c5F)c5ccc2[nH]5)C=C4)C=C3)cc1
REMARK SMILES IDX 30 1 31 2 32 3 29 5 28 6 27 7 3 8 4 9 6 10 8 11 26 12 7 13
REMARK SMILES IDX 9 14 24 15 10 16 11 17 23 18 25 19 13 20 12 21 22 22 2 23
REMARK SMILES IDX 1 24 5 25 14 27 15 28 16 29 17 30 18 31 19 32 20 33 21 34
REMARK SMILES IDX 33 35 34 36 35 37 36 38 37 39 38 41 39 42 40 43 101 44 41 45
REMARK SMILES IDX 100 46 42 47 43 48 44 49 94 50 45 51 99 52 93 53 95 54 46 55
REMARK SMILES IDX 98 56 92 57 91 58 47 60 79 61 59 62 78 63 60 64 63 65 77 66
REMARK SMILES IDX 96 67 61 68 62 69 76 71 97 72 64 73 48 74 49 75 57 76 50 77
REMARK SMILES IDX 52 78 58 79 51 80 53 81 54 82 55 83 56 84 80 85 81 86 89 87
REMARK SMILES IDX 82 88 84 89 90 90 83 91 85 92 86 93 87 94 88 95 65 96 66 97
REMARK SMILES IDX 74 98 67 99 69 100 75 101 68 102 70 103 71 104 72 105 73 106
REMARK H PARENT 32 4 5 26 36 40 95 59 63 70
REMARK Flexibility Score: inf
ROOT
ATOM      1  C   UNL     1      -0.157   1.428   3.176  1.00  0.00     0.220 C 
ATOM      2  O   UNL     1      -0.546   1.557   4.340  1.00  0.00    -0.275 OA
ATOM      3  N   UNL     1       0.877   2.216   2.760  1.00  0.00    -0.356 N 
ATOM      4  H   UNL     1       1.206   2.865   3.423  1.00  0.00     0.163 HD
ENDROOT
BRANCH   1   5
ATOM      5  C   UNL     1      -0.774   0.375   2.265  1.00  0.00     0.100 C 
BRANCH   5   6
ATOM      6  C   UNL     1      -2.028   0.812   1.501  1.00  0.00     0.018 C 
BRANCH   6   7
ATOM      7  C   UNL     1      -1.854   1.504   0.127  1.00  0.00    -0.014 C 
ATOM      8  C   UNL     1      -1.271   0.574  -0.994  1.00  0.00     0.047 C 
ATOM      9  C   UNL     1      -1.646   0.918  -2.463  1.00  0.00     0.122 C 
ATOM     10  C   UNL     1      -2.149   2.327  -2.700  1.00  0.00     0.037 C 
ATOM     11  C   UNL     1      -2.935   2.571  -0.292  1.00  0.00    -0.019 C 
ATOM     12  C   UNL     1      -1.575   2.990   0.150  1.00  0.00     0.016 C 
ATOM     13  C   UNL     1      -3.324   2.689  -1.776  1.00  0.00     0.005 C 
ATOM     14  C   UNL     1      -4.047   2.991   0.655  1.00  0.00     0.008 C 
ATOM     15  C   UNL     1      -3.971   4.105  -2.141  1.00  0.00    -0.023 C 
ATOM     16  C   UNL     1      -4.574   4.389   0.335  1.00  0.00     0.008 C 
ATOM     17  C   UNL     1      -5.088   4.547  -1.101  1.00  0.00    -0.024 C 
ATOM     18  C   UNL     1      -4.829   3.974  -3.434  1.00  0.00     0.008 C 
ATOM     19  C   UNL     1      -2.836   5.141  -2.345  1.00  0.00     0.012 C 
ATOM     20  C   UNL     1      -6.229   3.533  -1.457  1.00  0.00    -0.002 C 
ATOM     21  C   UNL     1      -5.544   6.020  -1.327  1.00  0.00     0.012 C 
ATOM     22  C   UNL     1      -6.260   3.599  -2.994  1.00  0.00     0.005 C 
BRANCH   8  23
ATOM     23  C   UNL     1       0.234   0.377  -1.010  1.00  0.00    -0.028 C 
ATOM     24  C   UNL     1       0.874  -0.765  -0.713  1.00  0.00     0.004 C 
ENDBRANCH   8  23
BRANCH   9  25
ATOM     25  O   UNL     1      -2.590  -0.022  -2.983  1.00  0.00    -0.392 OA
ATOM     26  H   UNL     1      -3.424   0.052  -2.494  1.00  0.00     0.210 HD
ENDBRANCH   9  25
BRANCH  20  27
ATOM     27  C   UNL     1      -7.635   3.493  -0.777  1.00  0.00    -0.010 C 
ATOM     28  C   UNL     1      -8.202   4.848  -0.342  1.00  0.00     0.008 C 
BRANCH  27  29
ATOM     29  C   UNL     1      -7.697   2.533   0.452  1.00  0.00     0.008 C 
BRANCH  29  30
ATOM     30  C   UNL     1      -7.838   1.023   0.165  1.00  0.00     0.027 C 
BRANCH  30  31
ATOM     31  C   UNL     1      -6.747   0.355  -0.620  1.00  0.00    -0.028 C 
ATOM     32  C   UNL     1      -5.828  -0.524  -0.177  1.00  0.00    -0.080 C 
ATOM     33  C   UNL     1      -4.809  -1.093  -1.120  1.00  0.00     0.039 C 
ATOM     34  C   UNL     1      -5.707  -0.977   1.249  1.00  0.00     0.039 C 
ENDBRANCH  30  31
ENDBRANCH  29  30
ENDBRANCH  27  29
ENDBRANCH  20  27
ENDBRANCH   6   7
ENDBRANCH   5   6
ENDBRANCH   1   5
BRANCH   3  35
ATOM     35  C   UNL     1       1.559   2.232   1.483  1.00  0.00     0.117 C 
BRANCH  35  36
ATOM     36  C   UNL     1       1.331   3.525   0.719  1.00  0.00     0.042 C 
BRANCH  36  37
ATOM     37  C   UNL     1       2.446   4.536   0.833  1.00  0.00     0.118 C 
BRANCH  37  38
ATOM     38  N   UNL     1       3.321   4.508  -0.331  1.00  0.00    -0.352 N 
ATOM     39  C   UNL     1       3.408   5.339  -1.426  1.00  0.00     0.251 C 
ATOM     40  H   UNL     1       3.964   3.763  -0.336  1.00  0.00     0.163 HD
ATOM     41  O   UNL     1       4.084   4.964  -2.385  1.00  0.00    -0.269 OA
BRANCH  39  42
ATOM     42  C   UNL     1       2.709   6.651  -1.491  1.00  0.00     0.039 A 
ATOM     43  C   UNL     1       2.363   7.181  -2.742  1.00  0.00     0.014 A 
ATOM     44  C   UNL     1       2.443   7.408  -0.352  1.00  0.00     0.014 A 
ATOM     45  C   UNL     1       1.735   8.431  -2.833  1.00  0.00     0.010 A 
ATOM     46  C   UNL     1       1.678   8.566  -0.431  1.00  0.00     0.010 A 
ATOM     47  C   UNL     1       1.367   9.128  -1.673  1.00  0.00    -0.014 A 
BRANCH  47  48
ATOM     48  C   UNL     1       0.739  10.476  -1.710  1.00  0.00     0.031 A 
ATOM     49  C   UNL     1       1.399  11.632  -0.993  1.00  0.00     0.074 A 
ATOM     50  C   UNL     1      -0.466  10.649  -2.288  1.00  0.00     0.049 A 
ATOM     51  N   UNL     1       0.962  12.851  -0.805  1.00  0.00    -0.248 NA
ATOM     52  C   UNL     1       2.703  11.368  -0.357  1.00  0.00     0.031 C 
ATOM     53  C   UNL     1      -1.257   9.597  -2.929  1.00  0.00     0.029 A 
ATOM     54  N   UNL     1      -1.252  11.769  -2.396  1.00  0.00    -0.354 N 
ATOM     55  C   UNL     1       1.895  13.467   0.023  1.00  0.00     0.074 A 
ATOM     56  C   UNL     1       2.898  12.476   0.339  1.00  0.00     0.031 C 
ATOM     57  C   UNL     1      -2.412  10.122  -3.367  1.00  0.00     0.029 A 
ATOM     58  C   UNL     1      -2.461  11.536  -3.008  1.00  0.00     0.049 A 
ATOM     59  H   UNL     1      -0.976  12.655  -2.067  1.00  0.00     0.167 HD
ATOM     60  C   UNL     1       1.940  14.750   0.455  1.00  0.00     0.034 A 
ATOM     61  C   UNL     1      -3.499  12.363  -3.242  1.00  0.00     0.034 A 
ATOM     62  C   UNL     1       0.984  15.751   0.073  1.00  0.00     0.049 A 
ATOM     63  C   UNL     1      -3.393  13.807  -2.832  1.00  0.00     0.074 A 
ATOM     64  C   UNL     1       1.006  17.108   0.338  1.00  0.00     0.029 A 
ATOM     65  N   UNL     1      -0.171  15.502  -0.653  1.00  0.00    -0.354 N 
ATOM     66  N   UNL     1      -2.418  14.414  -2.199  1.00  0.00    -0.248 NA
ATOM     67  C   UNL     1      -4.510  14.688  -3.201  1.00  0.00     0.031 C 
ATOM     68  C   UNL     1      -0.155  17.674  -0.200  1.00  0.00     0.029 A 
ATOM     69  C   UNL     1      -0.880  16.676  -0.832  1.00  0.00     0.049 A 
ATOM     70  H   UNL     1      -0.445  14.619  -0.992  1.00  0.00     0.167 HD
ATOM     71  C   UNL     1      -2.789  15.751  -2.118  1.00  0.00     0.074 A 
ATOM     72  C   UNL     1      -4.071  15.869  -2.784  1.00  0.00     0.031 C 
ATOM     73  C   UNL     1      -2.133  16.786  -1.536  1.00  0.00     0.034 A 
BRANCH  60  74
ATOM     74  C   UNL     1       3.086  15.148   1.352  1.00  0.00     0.023 A 
ATOM     75  C   UNL     1       4.402  15.185   0.842  1.00  0.00     0.012 A 
ATOM     76  C   UNL     1       2.861  15.507   2.696  1.00  0.00     0.148 A 
ATOM     77  C   UNL     1       5.478  15.513   1.665  1.00  0.00     0.002 A 
ATOM     78  C   UNL     1       3.933  15.885   3.497  1.00  0.00     0.091 A 
ATOM     79  F   UNL     1       1.611  15.448   3.174  1.00  0.00    -0.205 F 
ATOM     80  C   UNL     1       5.243  15.871   2.989  1.00  0.00     0.022 A 
BRANCH  78  81
ATOM     81  S   UNL     1       3.721  16.448   5.189  1.00  0.00     0.127 S 
ATOM     82  O   UNL     1       4.202  15.293   5.947  1.00  0.00    -0.237 OA
ATOM     83  O   UNL     1       4.599  17.617   5.239  1.00  0.00    -0.237 OA
ATOM     84  O   UNL     1       2.304  16.750   5.334  1.00  0.00    -0.744 OA
ENDBRANCH  78  81
ENDBRANCH  60  74
BRANCH  61  85
ATOM     85  C   UNL     1      -4.699  11.844  -3.956  1.00  0.00     0.023 A 
ATOM     86  C   UNL     1      -4.929  12.221  -5.293  1.00  0.00     0.012 A 
ATOM     87  C   UNL     1      -5.568  10.922  -3.340  1.00  0.00     0.148 A 
ATOM     88  C   UNL     1      -6.016  11.704  -5.999  1.00  0.00     0.002 A 
ATOM     89  C   UNL     1      -6.619  10.372  -4.065  1.00  0.00     0.091 A 
ATOM     90  F   UNL     1      -5.318  10.567  -2.072  1.00  0.00    -0.205 F 
ATOM     91  C   UNL     1      -6.854  10.774  -5.389  1.00  0.00     0.022 A 
BRANCH  89  92
ATOM     92  S   UNL     1      -7.679   9.083  -3.401  1.00  0.00     0.127 S 
ATOM     93  O   UNL     1      -9.010   9.667  -3.585  1.00  0.00    -0.237 OA
ATOM     94  O   UNL     1      -7.373   7.964  -4.297  1.00  0.00    -0.237 OA
ATOM     95  O   UNL     1      -7.272   8.899  -2.023  1.00  0.00    -0.744 OA
ENDBRANCH  89  92
ENDBRANCH  61  85
BRANCH  73  96
ATOM     96  C   UNL     1      -2.761  18.152  -1.614  1.00  0.00     0.023 A 
ATOM     97  C   UNL     1      -3.891  18.452  -0.828  1.00  0.00     0.012 A 
ATOM     98  C   UNL     1      -2.170  19.166  -2.393  1.00  0.00     0.148 A 
ATOM     99  C   UNL     1      -4.438  19.735  -0.837  1.00  0.00     0.002 A 
ATOM    100  C   UNL     1      -2.689  20.454  -2.357  1.00  0.00     0.091 A 
ATOM    101  F   UNL     1      -1.105  18.854  -3.146  1.00  0.00    -0.205 F 
ATOM    102  C   UNL     1      -3.830  20.737  -1.589  1.00  0.00     0.022 A 
BRANCH 100 103
ATOM    103  S   UNL     1      -1.911  21.830  -3.211  1.00  0.00     0.127 S 
ATOM    104  O   UNL     1      -2.869  22.094  -4.283  1.00  0.00    -0.237 OA
ATOM    105  O   UNL     1      -1.865  22.855  -2.168  1.00  0.00    -0.237 OA
ATOM    106  O   UNL     1      -0.607  21.349  -3.645  1.00  0.00    -0.744 OA
ENDBRANCH 100 103
ENDBRANCH  73  96
ENDBRANCH  47  48
ENDBRANCH  39  42
ENDBRANCH  37  38
ENDBRANCH  36  37
ENDBRANCH  35  36
ENDBRANCH   3  35
TORSDOF 21
