REMARK SMILES O=C(NCCCNC(=O)c1[nH]ncc1C[NH+]1CCC([N@H+]2CCC[C@@H](C(=O)N3CCCC3)C2)CC1)c1ccc(-c2c3nc(c(-c4cccc(S(=O)(=O)[O-])c4F)c4ccc([nH]4)c(-c4cccc(S(=O)(=O)[O-])c4F)c4nc(c(-c5cccc(S(=O)(=O)[O-])c5F)c5ccc2[nH]5)C=C4)C=C3)cc1
REMARK SMILES IDX 5 1 4 2 3 3 1 4 2 5 35 7 36 8 97 9 37 10 96 11 38 12 39 13
REMARK SMILES IDX 40 14 90 15 41 16 95 17 89 18 91 19 42 20 94 21 88 22 87 23
REMARK SMILES IDX 43 25 75 26 55 27 74 28 56 29 59 30 73 31 92 32 57 33 58 34
REMARK SMILES IDX 72 36 93 37 60 38 44 39 45 40 53 41 46 42 48 43 54 44 47 45
REMARK SMILES IDX 49 46 50 47 51 48 52 49 76 50 77 51 85 52 78 53 80 54 86 55
REMARK SMILES IDX 79 56 81 57 82 58 83 59 84 60 61 61 62 62 70 63 63 64 65 65
REMARK SMILES IDX 71 66 64 67 66 68 67 69 68 70 69 71 6 72 7 73 8 74 9 76
REMARK SMILES IDX 10 77 11 78 14 79 12 80 13 82 15 83 16 84 17 85 34 86 18 88
REMARK SMILES IDX 33 89 19 90 20 91 21 92 32 93 22 95 24 96 23 97 25 98 26 99
REMARK SMILES IDX 27 100 28 101 31 102 29 103 30 104
REMARK H PARENT 3 6 91 24 59 35 7 75 11 81 16 87 20 94
REMARK Flexibility Score: inf
ROOT
ATOM      1  C   UNL     1       5.035   1.251  -1.750  1.00  0.00     0.042 C 
ENDROOT
BRANCH   1   2
ATOM      2  C   UNL     1       4.516   1.375  -0.326  1.00  0.00     0.118 C 
BRANCH   2   3
ATOM      3  N   UNL     1       3.088   1.106  -0.217  1.00  0.00    -0.352 N 
ATOM      4  O   UNL     1       1.189  -0.077  -0.067  1.00  0.00    -0.269 OA
ATOM      5  C   UNL     1       2.403  -0.040   0.116  1.00  0.00     0.251 C 
ATOM      6  H   UNL     1       2.512   1.880  -0.418  1.00  0.00     0.163 HD
BRANCH   5   7
ATOM      7  C   UNL     1       3.110  -1.225   0.656  1.00  0.00     0.039 A 
ATOM      8  C   UNL     1       4.170  -1.084   1.547  1.00  0.00     0.014 A 
ATOM      9  C   UNL     1       2.675  -2.509   0.306  1.00  0.00     0.014 A 
ATOM     10  C   UNL     1       4.916  -2.193   1.922  1.00  0.00     0.010 A 
ATOM     11  C   UNL     1       3.349  -3.638   0.792  1.00  0.00     0.010 A 
ATOM     12  C   UNL     1       4.502  -3.490   1.573  1.00  0.00    -0.014 A 
BRANCH  12  13
ATOM     13  C   UNL     1       5.265  -4.643   2.122  1.00  0.00     0.031 A 
ATOM     14  C   UNL     1       5.971  -5.625   1.230  1.00  0.00     0.074 A 
ATOM     15  C   UNL     1       5.376  -4.751   3.463  1.00  0.00     0.049 A 
ATOM     16  N   UNL     1       6.780  -6.598   1.567  1.00  0.00    -0.248 NA
ATOM     17  C   UNL     1       5.739  -5.520  -0.219  1.00  0.00     0.031 C 
ATOM     18  C   UNL     1       4.683  -3.895   4.431  1.00  0.00     0.029 A 
ATOM     19  N   UNL     1       6.137  -5.581   4.245  1.00  0.00    -0.354 N 
ATOM     20  C   UNL     1       7.117  -7.245   0.385  1.00  0.00     0.074 A 
ATOM     21  C   UNL     1       6.425  -6.557  -0.683  1.00  0.00     0.031 C 
ATOM     22  C   UNL     1       5.117  -4.183   5.665  1.00  0.00     0.029 A 
ATOM     23  C   UNL     1       6.075  -5.279   5.587  1.00  0.00     0.049 A 
ATOM     24  H   UNL     1       6.675  -6.322   3.882  1.00  0.00     0.167 HD
ATOM     25  C   UNL     1       7.943  -8.304   0.205  1.00  0.00     0.034 A 
ATOM     26  C   UNL     1       6.727  -5.810   6.639  1.00  0.00     0.034 A 
ATOM     27  C   UNL     1       8.676  -8.949   1.262  1.00  0.00     0.049 A 
ATOM     28  C   UNL     1       7.708  -6.918   6.396  1.00  0.00     0.074 A 
ATOM     29  C   UNL     1       9.562 -10.009   1.172  1.00  0.00     0.029 A 
ATOM     30  N   UNL     1       8.619  -8.588   2.599  1.00  0.00    -0.354 N 
ATOM     31  N   UNL     1       8.087  -7.444   5.256  1.00  0.00    -0.248 NA
ATOM     32  C   UNL     1       8.361  -7.498   7.577  1.00  0.00     0.031 C 
ATOM     33  C   UNL     1      10.049 -10.283   2.456  1.00  0.00     0.029 A 
ATOM     34  C   UNL     1       9.460  -9.398   3.345  1.00  0.00     0.049 A 
ATOM     35  H   UNL     1       8.063  -7.863   2.965  1.00  0.00     0.167 HD
ATOM     36  C   UNL     1       9.014  -8.425   5.582  1.00  0.00     0.074 A 
ATOM     37  C   UNL     1       9.180  -8.382   7.022  1.00  0.00     0.031 C 
ATOM     38  C   UNL     1       9.640  -9.310   4.770  1.00  0.00     0.034 A 
BRANCH  25  39
ATOM     39  C   UNL     1       8.152  -8.800  -1.200  1.00  0.00     0.023 A 
ATOM     40  C   UNL     1       9.042  -8.109  -2.046  1.00  0.00     0.012 A 
ATOM     41  C   UNL     1       7.539  -9.983  -1.657  1.00  0.00     0.148 A 
ATOM     42  C   UNL     1       9.310  -8.580  -3.331  1.00  0.00     0.002 A 
ATOM     43  C   UNL     1       7.832 -10.462  -2.930  1.00  0.00     0.091 A 
ATOM     44  F   UNL     1       6.675 -10.611  -0.847  1.00  0.00    -0.205 F 
ATOM     45  C   UNL     1       8.714  -9.760  -3.768  1.00  0.00     0.022 A 
BRANCH  43  46
ATOM     46  S   UNL     1       7.158 -12.004  -3.561  1.00  0.00     0.127 S 
ATOM     47  O   UNL     1       6.139 -11.521  -4.492  1.00  0.00    -0.237 OA
ATOM     48  O   UNL     1       8.324 -12.618  -4.198  1.00  0.00    -0.237 OA
ATOM     49  O   UNL     1       6.657 -12.723  -2.398  1.00  0.00    -0.744 OA
ENDBRANCH  43  46
ENDBRANCH  25  39
BRANCH  26  50
ATOM     50  C   UNL     1       6.518  -5.237   7.998  1.00  0.00     0.023 A 
ATOM     51  C   UNL     1       7.558  -4.512   8.611  1.00  0.00     0.012 A 
ATOM     52  C   UNL     1       5.275  -5.329   8.650  1.00  0.00     0.148 A 
ATOM     53  C   UNL     1       7.364  -3.898   9.850  1.00  0.00     0.002 A 
ATOM     54  C   UNL     1       5.069  -4.661   9.852  1.00  0.00     0.091 A 
ATOM     55  F   UNL     1       4.296  -6.041   8.072  1.00  0.00    -0.205 F 
ATOM     56  C   UNL     1       6.114  -3.957  10.463  1.00  0.00     0.022 A 
BRANCH  54  57
ATOM     57  S   UNL     1       3.421  -4.572  10.562  1.00  0.00     0.127 S 
ATOM     58  O   UNL     1       3.332  -5.831  11.294  1.00  0.00    -0.237 OA
ATOM     59  O   UNL     1       3.493  -3.376  11.403  1.00  0.00    -0.237 OA
ATOM     60  O   UNL     1       2.547  -4.425   9.404  1.00  0.00    -0.744 OA
ENDBRANCH  54  57
ENDBRANCH  26  50
BRANCH  38  61
ATOM     61  C   UNL     1      10.534 -10.323   5.427  1.00  0.00     0.023 A 
ATOM     62  C   UNL     1       9.947 -11.428   6.075  1.00  0.00     0.012 A 
ATOM     63  C   UNL     1      11.934 -10.217   5.368  1.00  0.00     0.148 A 
ATOM     64  C   UNL     1      10.742 -12.402   6.676  1.00  0.00     0.002 A 
ATOM     65  C   UNL     1      12.722 -11.209   5.943  1.00  0.00     0.091 A 
ATOM     66  F   UNL     1      12.476  -9.144   4.772  1.00  0.00    -0.205 F 
ATOM     67  C   UNL     1      12.129 -12.298   6.602  1.00  0.00     0.022 A 
BRANCH  65  68
ATOM     68  S   UNL     1      14.514 -11.162   5.820  1.00  0.00     0.127 S 
ATOM     69  O   UNL     1      14.881 -10.429   7.029  1.00  0.00    -0.237 OA
ATOM     70  O   UNL     1      14.877 -12.580   5.834  1.00  0.00    -0.237 OA
ATOM     71  O   UNL     1      14.789 -10.490   4.556  1.00  0.00    -0.744 OA
ENDBRANCH  65  68
ENDBRANCH  38  61
ENDBRANCH  12  13
ENDBRANCH   5   7
ENDBRANCH   2   3
ENDBRANCH   1   2
BRANCH   1  72
ATOM     72  C   UNL     1       4.505   2.329  -2.682  1.00  0.00     0.118 C 
BRANCH  72  73
ATOM     73  N   UNL     1       4.897   3.669  -2.264  1.00  0.00    -0.351 N 
ATOM     74  C   UNL     1       5.756   4.556  -2.850  1.00  0.00     0.269 C 
ATOM     75  H   UNL     1       4.478   3.984  -1.430  1.00  0.00     0.163 HD
ATOM     76  O   UNL     1       6.160   5.504  -2.175  1.00  0.00    -0.268 OA
BRANCH  74  77
ATOM     77  C   UNL     1       6.189   4.350  -4.200  1.00  0.00     0.131 A 
ATOM     78  N   UNL     1       7.491   4.554  -4.566  1.00  0.00    -0.272 N 
ATOM     79  C   UNL     1       5.515   4.043  -5.377  1.00  0.00     0.057 A 
ATOM     80  N   UNL     1       7.746   4.274  -5.854  1.00  0.00    -0.183 NA
ATOM     81  H   UNL     1       8.180   4.877  -3.942  1.00  0.00     0.190 HD
ATOM     82  C   UNL     1       6.546   3.960  -6.343  1.00  0.00     0.145 A 
BRANCH  79  83
ATOM     83  C   UNL     1       4.055   3.820  -5.594  1.00  0.00     0.303 C 
BRANCH  83  84
ATOM     84  N   UNL     1       3.357   4.934  -6.231  1.00  0.00    -0.331 N 
ATOM     85  C   UNL     1       3.437   6.197  -5.498  1.00  0.00     0.268 C 
ATOM     86  C   UNL     1       3.655   5.091  -7.651  1.00  0.00     0.268 C 
ATOM     87  H   UNL     1       2.377   4.658  -6.185  1.00  0.00     0.348 HD
ATOM     88  C   UNL     1       2.420   7.198  -6.054  1.00  0.00     0.126 C 
ATOM     89  C   UNL     1       2.628   6.025  -8.282  1.00  0.00     0.126 C 
ATOM     90  C   UNL     1       2.611   7.392  -7.568  1.00  0.00     0.195 C 
BRANCH  90  91
ATOM     91  N   UNL     1       1.662   8.318  -8.219  1.00  0.00    -0.331 N 
ATOM     92  C   UNL     1       0.249   7.934  -8.128  1.00  0.00     0.262 C 
ATOM     93  C   UNL     1       1.854   9.724  -7.813  1.00  0.00     0.275 C 
ATOM     94  H   UNL     1       1.905   8.237  -9.207  1.00  0.00     0.348 HD
ATOM     95  C   UNL     1      -0.576   8.759  -9.116  1.00  0.00     0.062 C 
ATOM     96  C   UNL     1       1.052  10.645  -8.735  1.00  0.00     0.134 C 
ATOM     97  C   UNL     1      -0.426  10.252  -8.861  1.00  0.00     0.025 C 
BRANCH  96  98
ATOM     98  C   UNL     1       1.218  12.132  -8.440  1.00  0.00     0.231 C 
ATOM     99  O   UNL     1       1.792  12.845  -9.273  1.00  0.00    -0.274 OA
ATOM    100  N   UNL     1       0.657  12.697  -7.320  1.00  0.00    -0.342 N 
ATOM    101  C   UNL     1       0.145  12.088  -6.105  1.00  0.00     0.119 C 
ATOM    102  C   UNL     1       0.451  14.136  -7.280  1.00  0.00     0.119 C 
ATOM    103  C   UNL     1      -1.014  12.996  -5.736  1.00  0.00     0.023 C 
ATOM    104  C   UNL     1      -0.494  14.382  -6.106  1.00  0.00     0.023 C 
ENDBRANCH  96  98
ENDBRANCH  90  91
ENDBRANCH  83  84
ENDBRANCH  79  83
ENDBRANCH  74  77
ENDBRANCH  72  73
ENDBRANCH   1  72
TORSDOF 17
