REMARK SMILES C[C@H](NC(=O)c1c(C(=O)NCCCNC(=O)c2ccc(-c3c4nc(c(-c5cccc(S(=O)(=O)[O-])c5F)c5ccc([nH]5)c(-c5cccc(S(=O)(=O)[O-])c5F)c5nc(c(-c6cccc(S(=O)(=O)[O-])c6F)c6ccc3[nH]6)C=C5)C=C4)cc2)cnn1C)[C@]12C[C@H]3C[C@H](C[C@H](C3)C1)C2
REMARK SMILES IDX 12 1 11 2 10 3 8 4 9 5 7 7 6 8 82 9 80 10 81 11 83 12 4 13
REMARK SMILES IDX 3 14 5 16 2 17 1 18 84 19 85 20 92 21 93 22 86 23 90 24
REMARK SMILES IDX 88 25 87 26 91 27 89 28 13 29 14 30 15 31 16 33 17 34 18 35
REMARK SMILES IDX 79 36 19 37 78 38 20 39 21 40 22 41 72 42 23 43 77 44 71 45
REMARK SMILES IDX 73 46 24 47 76 48 70 49 69 50 25 52 57 53 37 54 56 55 38 56
REMARK SMILES IDX 41 57 55 58 74 59 39 60 40 61 54 63 75 64 42 65 26 66 27 67
REMARK SMILES IDX 35 68 28 69 30 70 36 71 29 72 31 73 32 74 33 75 34 76 58 77
REMARK SMILES IDX 59 78 67 79 60 80 62 81 68 82 61 83 63 84 64 85 65 86 66 87
REMARK SMILES IDX 43 88 44 89 52 90 45 91 47 92 53 93 46 94 48 95 49 96 50 97
REMARK SMILES IDX 51 98
REMARK H PARENT 10 6 3 15 14 32 73 51 41 62
REMARK Flexibility Score: inf
ROOT
ATOM      1  C   UNL     1       0.009  -2.693   1.937  1.00  0.00     0.042 C 
ENDROOT
BRANCH   1   2
ATOM      2  C   UNL     1       1.497  -2.666   1.622  1.00  0.00     0.118 C 
BRANCH   2   3
ATOM      3  N   UNL     1       1.878  -3.750   0.751  1.00  0.00    -0.352 N 
ATOM      4  C   UNL     1       2.540  -3.846  -0.437  1.00  0.00     0.255 C 
ATOM      5  O   UNL     1       2.719  -5.013  -0.809  1.00  0.00    -0.269 OA
ATOM      6  H   UNL     1       1.594  -4.628   1.095  1.00  0.00     0.163 HD
BRANCH   4   7
ATOM      7  C   UNL     1       3.065  -2.754  -1.253  1.00  0.00     0.090 A 
ATOM      8  C   UNL     1       2.985  -1.358  -1.300  1.00  0.00     0.138 A 
ATOM      9  N   UNL     1       3.816  -0.971  -2.329  1.00  0.00    -0.262 N 
ATOM     10  C   UNL     1       3.883  -3.058  -2.385  1.00  0.00     0.149 A 
ATOM     11  N   UNL     1       4.332  -1.989  -3.033  1.00  0.00    -0.180 NA
ATOM     12  C   UNL     1       4.085   0.372  -2.792  1.00  0.00     0.174 C 
BRANCH   8  13
ATOM     13  C   UNL     1       2.321  -0.373  -0.500  1.00  0.00     0.270 C 
ATOM     14  N   UNL     1       1.052   0.053  -0.808  1.00  0.00    -0.348 N 
ATOM     15  H   UNL     1       0.596   0.477  -0.045  1.00  0.00     0.164 HD
ATOM     16  O   UNL     1       2.875   0.142   0.470  1.00  0.00    -0.267 OA
BRANCH  14  17
ATOM     17  C   UNL     1       0.217   0.016  -2.030  1.00  0.00     0.085 C 
ATOM     18  C   UNL     1       0.505  -1.161  -2.964  1.00  0.00     0.031 C 
BRANCH  17  19
ATOM     19  C   UNL     1      -1.321   0.190  -1.692  1.00  0.00    -0.009 C 
ATOM     20  C   UNL     1      -1.782  -0.681  -0.492  1.00  0.00     0.012 C 
ATOM     21  C   UNL     1      -2.210  -0.192  -2.913  1.00  0.00     0.012 C 
ATOM     22  C   UNL     1      -1.633   1.673  -1.326  1.00  0.00     0.012 C 
ATOM     23  C   UNL     1      -3.286  -0.487  -0.202  1.00  0.00    -0.010 C 
ATOM     24  C   UNL     1      -3.701   0.011  -2.630  1.00  0.00    -0.010 C 
ATOM     25  C   UNL     1      -3.137   1.878  -1.049  1.00  0.00    -0.010 C 
ATOM     26  C   UNL     1      -3.565   0.989   0.129  1.00  0.00     0.007 C 
ATOM     27  C   UNL     1      -4.102  -0.877  -1.443  1.00  0.00     0.007 C 
ATOM     28  C   UNL     1      -3.944   1.486  -2.296  1.00  0.00     0.007 C 
ENDBRANCH  17  19
ENDBRANCH  14  17
ENDBRANCH   8  13
ENDBRANCH   4   7
ENDBRANCH   2   3
ENDBRANCH   1   2
BRANCH   1  29
ATOM     29  C   UNL     1      -0.356  -3.683   3.033  1.00  0.00     0.118 C 
BRANCH  29  30
ATOM     30  N   UNL     1       0.176  -3.289   4.332  1.00  0.00    -0.352 N 
ATOM     31  C   UNL     1      -0.413  -2.670   5.408  1.00  0.00     0.251 C 
ATOM     32  H   UNL     1       1.127  -3.506   4.462  1.00  0.00     0.163 HD
ATOM     33  O   UNL     1       0.306  -2.231   6.304  1.00  0.00    -0.269 OA
BRANCH  31  34
ATOM     34  C   UNL     1      -1.883  -2.511   5.504  1.00  0.00     0.039 A 
ATOM     35  C   UNL     1      -2.403  -1.365   6.116  1.00  0.00     0.014 A 
ATOM     36  C   UNL     1      -2.755  -3.500   5.051  1.00  0.00     0.014 A 
ATOM     37  C   UNL     1      -3.787  -1.190   6.214  1.00  0.00     0.010 A 
ATOM     38  C   UNL     1      -4.128  -3.272   5.042  1.00  0.00     0.010 A 
ATOM     39  C   UNL     1      -4.664  -2.126   5.643  1.00  0.00    -0.014 A 
BRANCH  39  40
ATOM     40  C   UNL     1      -6.139  -1.943   5.676  1.00  0.00     0.031 A 
ATOM     41  C   UNL     1      -7.019  -2.981   6.326  1.00  0.00     0.074 A 
ATOM     42  C   UNL     1      -6.696  -0.895   5.035  1.00  0.00     0.049 A 
ATOM     43  N   UNL     1      -8.325  -3.043   6.374  1.00  0.00    -0.248 NA
ATOM     44  C   UNL     1      -6.346  -4.120   6.973  1.00  0.00     0.031 C 
ATOM     45  C   UNL     1      -5.963   0.130   4.289  1.00  0.00     0.029 A 
ATOM     46  N   UNL     1      -8.012  -0.534   4.886  1.00  0.00    -0.354 N 
ATOM     47  C   UNL     1      -8.626  -4.244   7.007  1.00  0.00     0.074 A 
ATOM     48  C   UNL     1      -7.369  -4.899   7.289  1.00  0.00     0.031 C 
ATOM     49  C   UNL     1      -6.836   1.009   3.774  1.00  0.00     0.029 A 
ATOM     50  C   UNL     1      -8.191   0.596   4.122  1.00  0.00     0.049 A 
ATOM     51  H   UNL     1      -8.758  -1.036   5.287  1.00  0.00     0.167 HD
ATOM     52  C   UNL     1      -9.836  -4.743   7.358  1.00  0.00     0.034 A 
ATOM     53  C   UNL     1      -9.320   1.227   3.741  1.00  0.00     0.034 A 
ATOM     54  C   UNL     1     -11.080  -4.056   7.141  1.00  0.00     0.049 A 
ATOM     55  C   UNL     1     -10.647   0.693   4.208  1.00  0.00     0.074 A 
ATOM     56  C   UNL     1     -12.349  -4.425   7.548  1.00  0.00     0.029 A 
ATOM     57  N   UNL     1     -11.211  -2.856   6.460  1.00  0.00    -0.354 N 
ATOM     58  N   UNL     1     -10.899  -0.363   4.944  1.00  0.00    -0.248 NA
ATOM     59  C   UNL     1     -11.843   1.457   3.825  1.00  0.00     0.031 C 
ATOM     60  C   UNL     1     -13.251  -3.454   7.100  1.00  0.00     0.029 A 
ATOM     61  C   UNL     1     -12.539  -2.470   6.432  1.00  0.00     0.049 A 
ATOM     62  H   UNL     1     -10.468  -2.352   6.055  1.00  0.00     0.167 HD
ATOM     63  C   UNL     1     -12.275  -0.371   5.141  1.00  0.00     0.074 A 
ATOM     64  C   UNL     1     -12.800   0.799   4.465  1.00  0.00     0.031 C 
ATOM     65  C   UNL     1     -13.039  -1.274   5.805  1.00  0.00     0.034 A 
BRANCH  52  66
ATOM     66  C   UNL     1      -9.866  -6.067   8.077  1.00  0.00     0.023 A 
ATOM     67  C   UNL     1      -9.399  -6.147   9.406  1.00  0.00     0.012 A 
ATOM     68  C   UNL     1     -10.401  -7.217   7.465  1.00  0.00     0.148 A 
ATOM     69  C   UNL     1      -9.426  -7.356  10.099  1.00  0.00     0.002 A 
ATOM     70  C   UNL     1     -10.468  -8.409   8.179  1.00  0.00     0.091 A 
ATOM     71  F   UNL     1     -10.822  -7.130   6.195  1.00  0.00    -0.205 F 
ATOM     72  C   UNL     1      -9.969  -8.483   9.490  1.00  0.00     0.022 A 
BRANCH  70  73
ATOM     73  S   UNL     1     -11.223  -9.897   7.513  1.00  0.00     0.127 S 
ATOM     74  O   UNL     1     -10.053 -10.743   7.280  1.00  0.00    -0.237 OA
ATOM     75  O   UNL     1     -12.077 -10.331   8.620  1.00  0.00    -0.237 OA
ATOM     76  O   UNL     1     -11.943  -9.481   6.318  1.00  0.00    -0.744 OA
ENDBRANCH  70  73
ENDBRANCH  52  66
BRANCH  53  77
ATOM     77  C   UNL     1      -9.234   2.480   2.939  1.00  0.00     0.023 A 
ATOM     78  C   UNL     1      -9.566   3.709   3.542  1.00  0.00     0.012 A 
ATOM     79  C   UNL     1      -8.789   2.469   1.603  1.00  0.00     0.148 A 
ATOM     80  C   UNL     1      -9.488   4.900   2.820  1.00  0.00     0.002 A 
ATOM     81  C   UNL     1      -8.658   3.666   0.907  1.00  0.00     0.091 A 
ATOM     82  F   UNL     1      -8.486   1.289   1.045  1.00  0.00    -0.205 F 
ATOM     83  C   UNL     1      -9.024   4.880   1.508  1.00  0.00     0.022 A 
BRANCH  81  84
ATOM     84  S   UNL     1      -7.939   3.749  -0.736  1.00  0.00     0.127 S 
ATOM     85  O   UNL     1      -9.098   4.087  -1.555  1.00  0.00    -0.237 OA
ATOM     86  O   UNL     1      -6.955   4.821  -0.583  1.00  0.00    -0.237 OA
ATOM     87  O   UNL     1      -7.356   2.434  -0.975  1.00  0.00    -0.744 OA
ENDBRANCH  81  84
ENDBRANCH  53  77
BRANCH  65  88
ATOM     88  C   UNL     1     -14.522  -1.022   5.869  1.00  0.00     0.023 A 
ATOM     89  C   UNL     1     -15.314  -1.213   4.719  1.00  0.00     0.012 A 
ATOM     90  C   UNL     1     -15.140  -0.673   7.085  1.00  0.00     0.148 A 
ATOM     91  C   UNL     1     -16.695  -1.029   4.772  1.00  0.00     0.002 A 
ATOM     92  C   UNL     1     -16.522  -0.538   7.142  1.00  0.00     0.091 A 
ATOM     93  F   UNL     1     -14.367  -0.476   8.163  1.00  0.00    -0.205 F 
ATOM     94  C   UNL     1     -17.299  -0.704   5.984  1.00  0.00     0.022 A 
BRANCH  92  95
ATOM     95  S   UNL     1     -17.393  -0.217   8.680  1.00  0.00     0.127 S 
ATOM     96  O   UNL     1     -17.766   1.188   8.523  1.00  0.00    -0.237 OA
ATOM     97  O   UNL     1     -18.512  -1.157   8.606  1.00  0.00    -0.237 OA
ATOM     98  O   UNL     1     -16.440  -0.498   9.745  1.00  0.00    -0.744 OA
ENDBRANCH  92  95
ENDBRANCH  65  88
ENDBRANCH  39  40
ENDBRANCH  31  34
ENDBRANCH  29  30
ENDBRANCH   1  29
TORSDOF 16
