REMARK SMILES CC[N@@H+]1CCC[C@@H]1C[N@@H+](C)C[C@H]([NH3+])C(=O)NCCCNC(=O)c1ccc(-c2c3nc(c(-c4cccc(S(=O)(=O)[O-])c4F)c4ccc([nH]4)c(-c4cccc(S(=O)(=O)[O-])c4F)c4nc(c(-c5cccc(S(=O)(=O)[O-])c5F)c5ccc2[nH]5)C=C4)C=C3)cc1
REMARK SMILES IDX 17 1 16 2 14 3 15 4 12 6 11 7 9 8 10 9 8 11 7 12 3 13 4 14
REMARK SMILES IDX 5 16 6 17 2 18 1 19 13 20 18 24 19 25 20 26 21 27 22 29
REMARK SMILES IDX 23 30 24 31 85 32 25 33 84 34 26 35 27 36 28 37 78 38 29 39
REMARK SMILES IDX 83 40 77 41 79 42 30 43 82 44 76 45 75 46 31 48 63 49 43 50
REMARK SMILES IDX 62 51 44 52 47 53 61 54 80 55 45 56 46 57 60 59 81 60 48 61
REMARK SMILES IDX 32 62 33 63 41 64 34 65 36 66 42 67 35 68 37 69 38 70 39 71
REMARK SMILES IDX 40 72 64 73 65 74 73 75 66 76 68 77 74 78 67 79 69 80 70 81
REMARK SMILES IDX 71 82 72 83 49 84 50 85 58 86 51 87 53 88 59 89 52 90 54 91
REMARK SMILES IDX 55 92 56 93 57 94
REMARK H PARENT 16 5 9 10 3 15 13 21 13 22 13 23 20 28 79 47 47 58
REMARK Flexibility Score: inf
ROOT
ATOM      1  C   UNL     1      -0.530   6.056   0.160  1.00  0.00     0.118 C 
ENDROOT
BRANCH   1   2
ATOM      2  N   UNL     1      -1.456   6.020  -0.951  1.00  0.00    -0.351 N 
ATOM      3  C   UNL     1      -1.897   4.939  -1.669  1.00  0.00     0.284 C 
ATOM      4  O   UNL     1      -3.002   5.064  -2.214  1.00  0.00    -0.268 OA
ATOM      5  H   UNL     1      -1.820   6.891  -1.230  1.00  0.00     0.163 HD
BRANCH   3   6
ATOM      6  C   UNL     1      -1.059   3.652  -1.905  1.00  0.00     0.326 C 
BRANCH   6   7
ATOM      7  C   UNL     1      -1.298   2.329  -1.096  1.00  0.00     0.338 C 
BRANCH   7   8
ATOM      8  N   UNL     1      -2.092   2.166   0.133  1.00  0.00    -0.327 N 
ATOM      9  C   UNL     1      -3.525   2.337  -0.162  1.00  0.00     0.333 C 
ATOM     10  H   UNL     1      -1.872   1.218   0.437  1.00  0.00     0.348 HD
BRANCH   8  11
ATOM     11  C   UNL     1      -1.729   3.019   1.274  1.00  0.00     0.327 C 
BRANCH  11  12
ATOM     12  C   UNL     1      -0.473   2.827   2.179  1.00  0.00     0.239 C 
ATOM     13  N   UNL     1      -0.216   3.831   3.231  1.00  0.00    -0.328 N 
ATOM     14  C   UNL     1       1.202   4.201   3.274  1.00  0.00     0.262 C 
ATOM     15  H   UNL     1      -0.586   3.228   3.967  1.00  0.00     0.348 HD
ATOM     16  C   UNL     1       1.782   3.762   1.953  1.00  0.00     0.068 C 
ATOM     17  C   UNL     1       0.888   2.627   1.502  1.00  0.00     0.077 C 
BRANCH  13  18
ATOM     18  C   UNL     1      -1.083   4.922   3.654  1.00  0.00     0.259 C 
ATOM     19  C   UNL     1      -2.599   4.824   3.547  1.00  0.00     0.071 C 
ENDBRANCH  13  18
ENDBRANCH  11  12
ENDBRANCH   8  11
ENDBRANCH   7   8
ENDBRANCH   6   7
BRANCH   6  20
ATOM     20  N   UNL     1       0.380   3.944  -2.127  1.00  0.00    -0.343 N 
ATOM     21  H   UNL     1       0.805   4.240  -1.248  1.00  0.00     0.345 HD
ATOM     22  H   UNL     1       0.473   4.688  -2.818  1.00  0.00     0.345 HD
ATOM     23  H   UNL     1       0.849   3.103  -2.465  1.00  0.00     0.345 HD
ENDBRANCH   6  20
ENDBRANCH   3   6
ENDBRANCH   1   2
BRANCH   1  24
ATOM     24  C   UNL     1       0.077   7.406   0.503  1.00  0.00     0.042 C 
BRANCH  24  25
ATOM     25  C   UNL     1      -0.922   8.443   1.018  1.00  0.00     0.118 C 
BRANCH  25  26
ATOM     26  N   UNL     1      -1.607   8.102   2.270  1.00  0.00    -0.352 N 
ATOM     27  C   UNL     1      -1.383   8.434   3.590  1.00  0.00     0.251 C 
ATOM     28  H   UNL     1      -2.386   7.515   2.141  1.00  0.00     0.163 HD
ATOM     29  O   UNL     1      -2.087   7.932   4.465  1.00  0.00    -0.269 OA
BRANCH  27  30
ATOM     30  C   UNL     1      -0.305   9.357   3.991  1.00  0.00     0.039 A 
ATOM     31  C   UNL     1       0.414   9.133   5.175  1.00  0.00     0.014 A 
ATOM     32  C   UNL     1      -0.041  10.487   3.231  1.00  0.00     0.014 A 
ATOM     33  C   UNL     1       1.444  10.007   5.543  1.00  0.00     0.010 A 
ATOM     34  C   UNL     1       1.065  11.266   3.515  1.00  0.00     0.010 A 
ATOM     35  C   UNL     1       1.801  11.061   4.691  1.00  0.00    -0.014 A 
BRANCH  35  36
ATOM     36  C   UNL     1       2.892  12.026   4.978  1.00  0.00     0.031 A 
ATOM     37  C   UNL     1       2.573  13.501   4.970  1.00  0.00     0.074 A 
ATOM     38  C   UNL     1       4.168  11.600   5.044  1.00  0.00     0.049 A 
ATOM     39  N   UNL     1       3.380  14.524   4.888  1.00  0.00    -0.248 NA
ATOM     40  C   UNL     1       1.143  13.867   4.977  1.00  0.00     0.031 C 
ATOM     41  C   UNL     1       4.604  10.203   4.984  1.00  0.00     0.029 A 
ATOM     42  N   UNL     1       5.340  12.310   5.117  1.00  0.00    -0.354 N 
ATOM     43  C   UNL     1       2.560  15.640   4.747  1.00  0.00     0.074 A 
ATOM     44  C   UNL     1       1.196  15.164   4.713  1.00  0.00     0.031 C 
ATOM     45  C   UNL     1       5.945  10.158   5.013  1.00  0.00     0.029 A 
ATOM     46  C   UNL     1       6.465  11.520   5.045  1.00  0.00     0.049 A 
ATOM     47  H   UNL     1       5.374  13.289   5.212  1.00  0.00     0.167 HD
ATOM     48  C   UNL     1       2.910  16.946   4.681  1.00  0.00     0.034 A 
ATOM     49  C   UNL     1       7.767  11.860   4.986  1.00  0.00     0.034 A 
ATOM     50  C   UNL     1       4.266  17.404   4.804  1.00  0.00     0.049 A 
ATOM     51  C   UNL     1       8.132  13.320   5.010  1.00  0.00     0.074 A 
ATOM     52  C   UNL     1       4.734  18.702   4.880  1.00  0.00     0.029 A 
ATOM     53  N   UNL     1       5.373  16.571   4.881  1.00  0.00    -0.354 N 
ATOM     54  N   UNL     1       7.342  14.367   5.014  1.00  0.00    -0.248 NA
ATOM     55  C   UNL     1       9.564  13.646   5.056  1.00  0.00     0.031 C 
ATOM     56  C   UNL     1       6.129  18.655   4.979  1.00  0.00     0.029 A 
ATOM     57  C   UNL     1       6.525  17.326   5.001  1.00  0.00     0.049 A 
ATOM     58  H   UNL     1       5.343  15.587   4.854  1.00  0.00     0.167 HD
ATOM     59  C   UNL     1       8.177  15.474   5.104  1.00  0.00     0.074 A 
ATOM     60  C   UNL     1       9.533  14.967   5.171  1.00  0.00     0.031 C 
ATOM     61  C   UNL     1       7.857  16.792   5.118  1.00  0.00     0.034 A 
BRANCH  48  62
ATOM     62  C   UNL     1       1.811  17.968   4.526  1.00  0.00     0.023 A 
ATOM     63  C   UNL     1       0.891  18.175   5.575  1.00  0.00     0.012 A 
ATOM     64  C   UNL     1       1.712  18.756   3.361  1.00  0.00     0.148 A 
ATOM     65  C   UNL     1      -0.136  19.110   5.450  1.00  0.00     0.002 A 
ATOM     66  C   UNL     1       0.719  19.724   3.266  1.00  0.00     0.091 A 
ATOM     67  F   UNL     1       2.581  18.536   2.364  1.00  0.00    -0.205 F 
ATOM     68  C   UNL     1      -0.215  19.891   4.302  1.00  0.00     0.022 A 
BRANCH  66  69
ATOM     69  S   UNL     1       0.580  20.844   1.868  1.00  0.00     0.127 S 
ATOM     70  O   UNL     1      -0.663  20.391   1.249  1.00  0.00    -0.237 OA
ATOM     71  O   UNL     1       0.496  22.147   2.526  1.00  0.00    -0.237 OA
ATOM     72  O   UNL     1       1.784  20.642   1.069  1.00  0.00    -0.744 OA
ENDBRANCH  66  69
ENDBRANCH  48  62
BRANCH  49  73
ATOM     73  C   UNL     1       8.815  10.800   4.972  1.00  0.00     0.023 A 
ATOM     74  C   UNL     1       9.614  10.611   6.117  1.00  0.00     0.012 A 
ATOM     75  C   UNL     1       8.998   9.953   3.862  1.00  0.00     0.148 A 
ATOM     76  C   UNL     1      10.598   9.622   6.146  1.00  0.00     0.002 A 
ATOM     77  C   UNL     1       9.941   8.932   3.918  1.00  0.00     0.091 A 
ATOM     78  F   UNL     1       8.232  10.150   2.780  1.00  0.00    -0.205 F 
ATOM     79  C   UNL     1      10.754   8.777   5.051  1.00  0.00     0.022 A 
BRANCH  77  80
ATOM     80  S   UNL     1      10.119   7.710   2.613  1.00  0.00     0.127 S 
ATOM     81  O   UNL     1      11.418   8.064   2.046  1.00  0.00    -0.237 OA
ATOM     82  O   UNL     1      10.097   6.457   3.369  1.00  0.00    -0.237 OA
ATOM     83  O   UNL     1       8.972   7.901   1.737  1.00  0.00    -0.744 OA
ENDBRANCH  77  80
ENDBRANCH  49  73
BRANCH  61  84
ATOM     84  C   UNL     1       8.984  17.779   5.259  1.00  0.00     0.023 A 
ATOM     85  C   UNL     1       9.860  18.008   4.180  1.00  0.00     0.012 A 
ATOM     86  C   UNL     1       9.121  18.537   6.439  1.00  0.00     0.148 A 
ATOM     87  C   UNL     1      10.878  18.954   4.287  1.00  0.00     0.002 A 
ATOM     88  C   UNL     1      10.103  19.515   6.517  1.00  0.00     0.091 A 
ATOM     89  F   UNL     1       8.286  18.289   7.458  1.00  0.00    -0.205 F 
ATOM     90  C   UNL     1      10.992  19.715   5.448  1.00  0.00     0.022 A 
BRANCH  88  91
ATOM     91  S   UNL     1      10.256  20.612   7.930  1.00  0.00     0.127 S 
ATOM     92  O   UNL     1      11.489  20.130   8.549  1.00  0.00    -0.237 OA
ATOM     93  O   UNL     1      10.365  21.924   7.292  1.00  0.00    -0.237 OA
ATOM     94  O   UNL     1       9.046  20.423   8.720  1.00  0.00    -0.744 OA
ENDBRANCH  88  91
ENDBRANCH  61  84
ENDBRANCH  35  36
ENDBRANCH  27  30
ENDBRANCH  25  26
ENDBRANCH  24  25
ENDBRANCH   1  24
TORSDOF 19
