REMARK SMILES NS(=O)(=O)c1ccc(-n2nc(C(=O)NCCCNC(=O)c3ccc(-c4c5nc(c(-c6cccc(S(=O)(=O)[O-])c6F)c6ccc([nH]6)c(-c6cccc(S(=O)(=O)[O-])c6F)c6nc(c(-c7cccc(S(=O)(=O)[O-])c7F)c7ccc4[nH]7)C=C6)C=C5)cc3)cc2-c2ccc(Cl)s2)cc1
REMARK SMILES IDX 16 1 15 2 14 3 12 4 13 5 11 7 9 8 10 9 85 10 84 11 8 12 5 13
REMARK SMILES IDX 6 14 93 15 7 16 92 17 2 18 3 19 4 20 1 21 86 24 87 25 91 26
REMARK SMILES IDX 88 27 89 28 90 29 17 30 18 31 19 32 20 34 21 35 22 36 83 37
REMARK SMILES IDX 23 38 82 39 24 40 25 41 26 42 76 43 27 44 81 45 75 46 77 47
REMARK SMILES IDX 28 48 80 49 74 50 73 51 29 53 61 54 41 55 60 56 42 57 45 58
REMARK SMILES IDX 59 59 78 60 43 61 44 62 58 64 79 65 46 66 30 67 31 68 39 69
REMARK SMILES IDX 32 70 34 71 40 72 33 73 35 74 36 75 37 76 38 77 62 78 63 79
REMARK SMILES IDX 71 80 64 81 66 82 72 83 65 84 67 85 68 86 69 87 70 88 47 89
REMARK SMILES IDX 48 90 56 91 49 92 51 93 57 94 50 95 52 96 53 97 54 98 55 99
REMARK H PARENT 14 6 1 22 1 23 18 33 77 52 45 63
REMARK Flexibility Score: inf
ROOT
ATOM      1  C   UNL     1       4.031   5.463  10.198  1.00  0.00     0.042 C 
ENDROOT
BRANCH   1   2
ATOM      2  C   UNL     1       2.693   4.712  10.240  1.00  0.00     0.118 C 
BRANCH   2   3
ATOM      3  N   UNL     1       1.605   5.468   9.647  1.00  0.00    -0.351 N 
ATOM      4  C   UNL     1       1.072   5.470   8.374  1.00  0.00     0.271 C 
ATOM      5  O   UNL     1       0.023   6.097   8.222  1.00  0.00    -0.267 OA
ATOM      6  H   UNL     1       1.166   6.095  10.267  1.00  0.00     0.163 HD
BRANCH   4   7
ATOM      7  C   UNL     1       1.706   4.711   7.275  1.00  0.00     0.151 A 
ATOM      8  N   UNL     1       1.836   3.683   5.388  1.00  0.00    -0.231 N 
ATOM      9  N   UNL     1       1.065   4.530   6.102  1.00  0.00    -0.162 NA
ATOM     10  C   UNL     1       3.020   3.394   6.033  1.00  0.00     0.085 A 
ATOM     11  C   UNL     1       2.981   4.101   7.210  1.00  0.00     0.066 A 
BRANCH   8  12
ATOM     12  C   UNL     1       1.385   3.182   4.147  1.00  0.00     0.065 A 
ATOM     13  C   UNL     1       0.721   2.243   1.623  1.00  0.00     0.082 A 
ATOM     14  C   UNL     1       1.141   1.340   2.604  1.00  0.00     0.024 A 
ATOM     15  C   UNL     1       0.592   3.608   1.910  1.00  0.00     0.024 A 
ATOM     16  C   UNL     1       1.492   1.814   3.866  1.00  0.00     0.030 A 
ATOM     17  C   UNL     1       0.891   4.076   3.191  1.00  0.00     0.030 A 
BRANCH  13  18
ATOM     18  S   UNL     1       0.416   1.693  -0.027  1.00  0.00     0.238 S 
ATOM     19  O   UNL     1       1.158   2.536  -0.945  1.00  0.00    -0.207 OA
ATOM     20  O   UNL     1      -0.985   1.413  -0.179  1.00  0.00    -0.207 OA
BRANCH  18  21
ATOM     21  N   UNL     1       1.190   0.197  -0.114  1.00  0.00    -0.225 NA
ATOM     22  H   UNL     1       1.062  -0.197  -1.046  1.00  0.00     0.137 HD
ATOM     23  H   UNL     1       0.789  -0.434   0.580  1.00  0.00     0.137 HD
ENDBRANCH  18  21
ENDBRANCH  13  18
ENDBRANCH   8  12
BRANCH  10  24
ATOM     24  C   UNL     1       4.108   2.606   5.545  1.00  0.00     0.054 A 
ATOM     25  C   UNL     1       4.620   1.467   6.136  1.00  0.00     0.024 A 
ATOM     26  S   UNL     1       5.006   3.064   4.161  1.00  0.00    -0.122 S 
ATOM     27  C   UNL     1       5.756   0.965   5.436  1.00  0.00     0.033 A 
ATOM     28  C   UNL     1       6.058   1.755   4.357  1.00  0.00     0.094 A 
ATOM     29  Cl  UNL     1       7.358   1.533   3.258  1.00  0.00    -0.072 Cl
ENDBRANCH  10  24
ENDBRANCH   4   7
ENDBRANCH   2   3
ENDBRANCH   1   2
BRANCH   1  30
ATOM     30  C   UNL     1       4.189   6.393  11.388  1.00  0.00     0.118 C 
BRANCH  30  31
ATOM     31  N   UNL     1       4.344   5.652  12.650  1.00  0.00    -0.352 N 
ATOM     32  C   UNL     1       4.431   6.139  13.941  1.00  0.00     0.251 C 
ATOM     33  H   UNL     1       4.394   4.672  12.563  1.00  0.00     0.163 HD
ATOM     34  O   UNL     1       4.891   5.442  14.839  1.00  0.00    -0.269 OA
BRANCH  32  35
ATOM     35  C   UNL     1       3.954   7.504  14.215  1.00  0.00     0.039 A 
ATOM     36  C   UNL     1       4.593   8.353  15.123  1.00  0.00     0.014 A 
ATOM     37  C   UNL     1       2.849   7.939  13.495  1.00  0.00     0.014 A 
ATOM     38  C   UNL     1       4.137   9.664  15.236  1.00  0.00     0.010 A 
ATOM     39  C   UNL     1       2.574   9.271  13.419  1.00  0.00     0.010 A 
ATOM     40  C   UNL     1       3.134  10.113  14.362  1.00  0.00    -0.014 A 
BRANCH  40  41
ATOM     41  C   UNL     1       2.703  11.498  14.322  1.00  0.00     0.031 A 
ATOM     42  C   UNL     1       3.808  12.442  14.040  1.00  0.00     0.074 A 
ATOM     43  C   UNL     1       1.399  11.856  14.306  1.00  0.00     0.049 A 
ATOM     44  N   UNL     1       4.421  13.189  14.895  1.00  0.00    -0.248 NA
ATOM     45  C   UNL     1       4.455  12.392  12.720  1.00  0.00     0.031 C 
ATOM     46  C   UNL     1       0.211  10.992  14.227  1.00  0.00     0.029 A 
ATOM     47  N   UNL     1       0.860  13.098  14.215  1.00  0.00    -0.354 N 
ATOM     48  C   UNL     1       5.329  13.928  14.145  1.00  0.00     0.074 A 
ATOM     49  C   UNL     1       5.497  13.205  12.914  1.00  0.00     0.031 C 
ATOM     50  C   UNL     1      -0.860  11.726  13.851  1.00  0.00     0.029 A 
ATOM     51  C   UNL     1      -0.481  13.125  13.837  1.00  0.00     0.049 A 
ATOM     52  H   UNL     1       1.375  13.916  14.403  1.00  0.00     0.167 HD
ATOM     53  C   UNL     1       5.600  15.223  14.472  1.00  0.00     0.034 A 
ATOM     54  C   UNL     1      -1.200  14.225  13.499  1.00  0.00     0.034 A 
ATOM     55  C   UNL     1       5.090  15.533  15.791  1.00  0.00     0.049 A 
ATOM     56  C   UNL     1      -0.491  15.391  14.076  1.00  0.00     0.074 A 
ATOM     57  C   UNL     1       5.260  15.002  17.055  1.00  0.00     0.029 A 
ATOM     58  N   UNL     1       3.923  16.259  15.842  1.00  0.00    -0.354 N 
ATOM     59  N   UNL     1      -0.371  15.589  15.359  1.00  0.00    -0.248 NA
ATOM     60  C   UNL     1       0.483  16.072  13.240  1.00  0.00     0.031 C 
ATOM     61  C   UNL     1       3.958  15.030  17.640  1.00  0.00     0.029 A 
ATOM     62  C   UNL     1       3.090  15.659  16.747  1.00  0.00     0.049 A 
ATOM     63  H   UNL     1       3.722  17.069  15.319  1.00  0.00     0.167 HD
ATOM     64  C   UNL     1       0.947  15.996  15.516  1.00  0.00     0.074 A 
ATOM     65  C   UNL     1       1.387  16.381  14.174  1.00  0.00     0.031 C 
ATOM     66  C   UNL     1       1.646  15.691  16.649  1.00  0.00     0.034 A 
BRANCH  53  67
ATOM     67  C   UNL     1       5.924  16.330  13.486  1.00  0.00     0.023 A 
ATOM     68  C   UNL     1       6.230  17.596  14.038  1.00  0.00     0.012 A 
ATOM     69  C   UNL     1       5.678  16.289  12.094  1.00  0.00     0.148 A 
ATOM     70  C   UNL     1       6.202  18.763  13.269  1.00  0.00     0.002 A 
ATOM     71  C   UNL     1       5.725  17.442  11.318  1.00  0.00     0.091 A 
ATOM     72  F   UNL     1       5.274  15.162  11.509  1.00  0.00    -0.205 F 
ATOM     73  C   UNL     1       5.949  18.687  11.907  1.00  0.00     0.022 A 
BRANCH  71  74
ATOM     74  S   UNL     1       5.448  17.398   9.541  1.00  0.00     0.127 S 
ATOM     75  O   UNL     1       4.147  18.050   9.435  1.00  0.00    -0.237 OA
ATOM     76  O   UNL     1       6.580  18.182   9.047  1.00  0.00    -0.237 OA
ATOM     77  O   UNL     1       5.489  15.989   9.169  1.00  0.00    -0.744 OA
ENDBRANCH  71  74
ENDBRANCH  53  67
BRANCH  54  78
ATOM     78  C   UNL     1      -2.291  14.400  12.510  1.00  0.00     0.023 A 
ATOM     79  C   UNL     1      -3.113  15.545  12.575  1.00  0.00     0.012 A 
ATOM     80  C   UNL     1      -2.322  13.626  11.329  1.00  0.00     0.148 A 
ATOM     81  C   UNL     1      -3.901  15.934  11.484  1.00  0.00     0.002 A 
ATOM     82  C   UNL     1      -3.105  14.019  10.247  1.00  0.00     0.091 A 
ATOM     83  F   UNL     1      -1.512  12.564  11.235  1.00  0.00    -0.205 F 
ATOM     84  C   UNL     1      -3.886  15.180  10.315  1.00  0.00     0.022 A 
BRANCH  82  85
ATOM     85  S   UNL     1      -3.103  13.126   8.686  1.00  0.00     0.127 S 
ATOM     86  O   UNL     1      -4.534  12.963   8.430  1.00  0.00    -0.237 OA
ATOM     87  O   UNL     1      -2.426  14.070   7.801  1.00  0.00    -0.237 OA
ATOM     88  O   UNL     1      -2.392  11.881   8.946  1.00  0.00    -0.744 OA
ENDBRANCH  82  85
ENDBRANCH  54  78
BRANCH  66  89
ATOM     89  C   UNL     1       0.884  15.134  17.827  1.00  0.00     0.023 A 
ATOM     90  C   UNL     1       0.204  13.898  17.790  1.00  0.00     0.012 A 
ATOM     91  C   UNL     1       0.998  15.806  19.055  1.00  0.00     0.148 A 
ATOM     92  C   UNL     1      -0.366  13.357  18.948  1.00  0.00     0.002 A 
ATOM     93  C   UNL     1       0.472  15.245  20.211  1.00  0.00     0.091 A 
ATOM     94  F   UNL     1       1.648  16.980  19.075  1.00  0.00    -0.205 F 
ATOM     95  C   UNL     1      -0.220  14.025  20.162  1.00  0.00     0.022 A 
BRANCH  93  96
ATOM     96  S   UNL     1       0.738  16.001  21.815  1.00  0.00     0.127 S 
ATOM     97  O   UNL     1      -0.565  16.603  22.088  1.00  0.00    -0.237 OA
ATOM     98  O   UNL     1       1.070  14.849  22.655  1.00  0.00    -0.237 OA
ATOM     99  O   UNL     1       1.839  16.940  21.636  1.00  0.00    -0.744 OA
ENDBRANCH  93  96
ENDBRANCH  66  89
ENDBRANCH  40  41
ENDBRANCH  32  35
ENDBRANCH  30  31
ENDBRANCH   1  30
TORSDOF 17
