REMARK SMILES CCc1ncc(C[N@H+]2CCC[C@@H](c3cccc(C(=O)NCCCNC(=O)c4ccc(-c5c6nc(c(-c7cccc(S(=O)(=O)[O-])c7F)c7ccc([nH]7)c(-c7cccc(S(=O)(=O)[O-])c7F)c7nc(c(-c8cccc(S(=O)(=O)[O-])c8F)c8ccc5[nH]8)C=C7)C=C6)cc4)c3)C2)cn1
REMARK SMILES IDX 21 1 20 2 18 3 19 4 17 6 13 7 14 8 90 9 15 10 16 11 12 12
REMARK SMILES IDX 8 13 9 14 91 15 10 17 11 18 7 19 6 20 3 21 4 22 93 23 5 24
REMARK SMILES IDX 92 25 2 26 1 27 22 28 23 29 24 30 25 31 26 33 27 34 28 35
REMARK SMILES IDX 89 36 29 37 88 38 30 39 31 40 32 41 82 42 33 43 87 44 81 45
REMARK SMILES IDX 83 46 34 47 86 48 80 49 79 50 35 52 67 53 47 54 66 55 48 56
REMARK SMILES IDX 51 57 65 58 84 59 49 60 50 61 64 63 85 64 52 65 36 66 37 67
REMARK SMILES IDX 45 68 38 69 40 70 46 71 39 72 41 73 42 74 43 75 44 76 68 77
REMARK SMILES IDX 69 78 77 79 70 80 72 81 78 82 71 83 73 84 74 85 75 86 76 87
REMARK SMILES IDX 53 88 54 89 62 90 55 91 57 92 63 93 56 94 58 95 59 96 60 97
REMARK SMILES IDX 61 98
REMARK H PARENT 20 5 8 16 24 32 83 51 51 62
REMARK Flexibility Score: inf
ROOT
ATOM      1  C   UNL     1      -2.683 -11.786  -0.180  1.00  0.00     0.118 C 
ENDROOT
BRANCH   1   2
ATOM      2  N   UNL     1      -3.556 -11.565  -1.329  1.00  0.00    -0.352 N 
ATOM      3  C   UNL     1      -4.003 -10.448  -2.000  1.00  0.00     0.251 C 
ATOM      4  O   UNL     1      -4.720 -10.625  -2.987  1.00  0.00    -0.269 OA
ATOM      5  H   UNL     1      -3.903 -12.403  -1.711  1.00  0.00     0.163 HD
BRANCH   3   6
ATOM      6  C   UNL     1      -3.731  -9.053  -1.556  1.00  0.00     0.040 A 
ATOM      7  C   UNL     1      -2.635  -7.511  -0.035  1.00  0.00    -0.039 A 
ATOM      8  C   UNL     1      -3.514  -6.498  -0.423  1.00  0.00     0.004 A 
ATOM      9  C   UNL     1      -2.661  -8.715  -0.742  1.00  0.00     0.018 A 
ATOM     10  C   UNL     1      -4.471  -6.747  -1.408  1.00  0.00     0.001 A 
ATOM     11  C   UNL     1      -4.615  -8.035  -1.931  1.00  0.00     0.014 A 
BRANCH   7  12
ATOM     12  C   UNL     1      -1.662  -7.411   1.125  1.00  0.00     0.074 C 
ATOM     13  N   UNL     1       0.626  -6.601   1.733  1.00  0.00    -0.331 N 
ATOM     14  C   UNL     1       0.074  -5.893   2.897  1.00  0.00     0.262 C 
ATOM     15  C   UNL     1      -0.371  -6.740   0.662  1.00  0.00     0.270 C 
ATOM     16  H   UNL     1       0.862  -7.539   2.056  1.00  0.00     0.348 HD
ATOM     17  C   UNL     1      -1.174  -6.591   3.443  1.00  0.00     0.062 C 
ATOM     18  C   UNL     1      -2.245  -6.718   2.364  1.00  0.00     0.020 C 
BRANCH  13  19
ATOM     19  C   UNL     1       1.893  -6.022   1.243  1.00  0.00     0.302 C 
BRANCH  19  20
ATOM     20  C   UNL     1       1.776  -4.663   0.617  1.00  0.00     0.043 A 
ATOM     21  C   UNL     1       1.159  -2.220  -0.393  1.00  0.00     0.127 A 
ATOM     22  N   UNL     1       1.638  -2.279   0.864  1.00  0.00    -0.241 NA
ATOM     23  N   UNL     1       1.042  -3.281  -1.213  1.00  0.00    -0.241 NA
ATOM     24  C   UNL     1       1.942  -3.502   1.338  1.00  0.00     0.124 A 
ATOM     25  C   UNL     1       1.366  -4.477  -0.688  1.00  0.00     0.124 A 
BRANCH  21  26
ATOM     26  C   UNL     1       0.583  -0.922  -0.893  1.00  0.00     0.074 C 
ATOM     27  C   UNL     1       0.958   0.291  -0.058  1.00  0.00     0.012 C 
ENDBRANCH  21  26
ENDBRANCH  19  20
ENDBRANCH  13  19
ENDBRANCH   7  12
ENDBRANCH   3   6
ENDBRANCH   1   2
BRANCH   1  28
ATOM     28  C   UNL     1      -3.360 -12.430   1.016  1.00  0.00     0.042 C 
BRANCH  28  29
ATOM     29  C   UNL     1      -3.712 -13.889   0.810  1.00  0.00     0.118 C 
BRANCH  29  30
ATOM     30  N   UNL     1      -2.543 -14.711   0.507  1.00  0.00    -0.352 N 
ATOM     31  C   UNL     1      -1.873 -15.643   1.264  1.00  0.00     0.251 C 
ATOM     32  H   UNL     1      -2.171 -14.575  -0.394  1.00  0.00     0.163 HD
ATOM     33  O   UNL     1      -0.778 -16.047   0.887  1.00  0.00    -0.269 OA
BRANCH  31  34
ATOM     34  C   UNL     1      -2.456 -16.150   2.525  1.00  0.00     0.039 A 
ATOM     35  C   UNL     1      -1.614 -16.427   3.606  1.00  0.00     0.014 A 
ATOM     36  C   UNL     1      -3.827 -16.378   2.639  1.00  0.00     0.014 A 
ATOM     37  C   UNL     1      -2.160 -16.862   4.817  1.00  0.00     0.010 A 
ATOM     38  C   UNL     1      -4.379 -16.691   3.873  1.00  0.00     0.010 A 
ATOM     39  C   UNL     1      -3.553 -16.958   4.972  1.00  0.00    -0.014 A 
BRANCH  39  40
ATOM     40  C   UNL     1      -4.172 -17.341   6.266  1.00  0.00     0.031 A 
ATOM     41  C   UNL     1      -5.062 -18.553   6.349  1.00  0.00     0.074 A 
ATOM     42  C   UNL     1      -4.021 -16.538   7.338  1.00  0.00     0.049 A 
ATOM     43  N   UNL     1      -5.755 -18.998   7.364  1.00  0.00    -0.248 NA
ATOM     44  C   UNL     1      -5.227 -19.348   5.119  1.00  0.00     0.031 C 
ATOM     45  C   UNL     1      -3.264 -15.284   7.357  1.00  0.00     0.029 A 
ATOM     46  N   UNL     1      -4.527 -16.638   8.610  1.00  0.00    -0.354 N 
ATOM     47  C   UNL     1      -6.473 -20.088   6.885  1.00  0.00     0.074 A 
ATOM     48  C   UNL     1      -6.161 -20.215   5.479  1.00  0.00     0.031 C 
ATOM     49  C   UNL     1      -3.351 -14.735   8.578  1.00  0.00     0.029 A 
ATOM     50  C   UNL     1      -4.200 -15.574   9.418  1.00  0.00     0.049 A 
ATOM     51  H   UNL     1      -5.073 -17.399   8.915  1.00  0.00     0.167 HD
ATOM     52  C   UNL     1      -7.296 -20.925   7.559  1.00  0.00     0.034 A 
ATOM     53  C   UNL     1      -4.557 -15.295  10.687  1.00  0.00     0.034 A 
ATOM     54  C   UNL     1      -7.563 -20.822   8.967  1.00  0.00     0.049 A 
ATOM     55  C   UNL     1      -5.423 -16.273  11.432  1.00  0.00     0.074 A 
ATOM     56  C   UNL     1      -8.288 -21.685   9.770  1.00  0.00     0.029 A 
ATOM     57  N   UNL     1      -7.130 -19.786   9.780  1.00  0.00    -0.354 N 
ATOM     58  N   UNL     1      -5.950 -17.396  11.008  1.00  0.00    -0.248 NA
ATOM     59  C   UNL     1      -5.712 -15.966  12.840  1.00  0.00     0.031 C 
ATOM     60  C   UNL     1      -8.326 -21.149  11.061  1.00  0.00     0.029 A 
ATOM     61  C   UNL     1      -7.588 -19.976  11.072  1.00  0.00     0.049 A 
ATOM     62  H   UNL     1      -6.578 -19.027   9.482  1.00  0.00     0.167 HD
ATOM     63  C   UNL     1      -6.606 -17.947  12.103  1.00  0.00     0.074 A 
ATOM     64  C   UNL     1      -6.389 -17.043  13.215  1.00  0.00     0.031 C 
ATOM     65  C   UNL     1      -7.330 -19.090  12.179  1.00  0.00     0.034 A 
BRANCH  52  66
ATOM     66  C   UNL     1      -7.939 -22.050   6.788  1.00  0.00     0.023 A 
ATOM     67  C   UNL     1      -7.149 -23.115   6.306  1.00  0.00     0.012 A 
ATOM     68  C   UNL     1      -9.332 -22.078   6.581  1.00  0.00     0.148 A 
ATOM     69  C   UNL     1      -7.727 -24.165   5.595  1.00  0.00     0.002 A 
ATOM     70  C   UNL     1      -9.908 -23.154   5.917  1.00  0.00     0.091 A 
ATOM     71  F   UNL     1     -10.065 -21.048   7.026  1.00  0.00    -0.205 F 
ATOM     72  C   UNL     1      -9.107 -24.190   5.410  1.00  0.00     0.022 A 
BRANCH  70  73
ATOM     73  S   UNL     1     -11.683 -23.322   5.704  1.00  0.00     0.127 S 
ATOM     74  O   UNL     1     -11.830 -23.100   4.266  1.00  0.00    -0.237 OA
ATOM     75  O   UNL     1     -11.915 -24.701   6.134  1.00  0.00    -0.237 OA
ATOM     76  O   UNL     1     -12.289 -22.310   6.558  1.00  0.00    -0.744 OA
ENDBRANCH  70  73
ENDBRANCH  52  66
BRANCH  53  77
ATOM     77  C   UNL     1      -4.047 -14.059  11.344  1.00  0.00     0.023 A 
ATOM     78  C   UNL     1      -3.087 -14.160  12.369  1.00  0.00     0.012 A 
ATOM     79  C   UNL     1      -4.475 -12.783  10.927  1.00  0.00     0.148 A 
ATOM     80  C   UNL     1      -2.586 -13.015  12.989  1.00  0.00     0.002 A 
ATOM     81  C   UNL     1      -3.929 -11.645  11.508  1.00  0.00     0.091 A 
ATOM     82  F   UNL     1      -5.394 -12.710   9.954  1.00  0.00    -0.205 F 
ATOM     83  C   UNL     1      -2.999 -11.759  12.553  1.00  0.00     0.022 A 
BRANCH  81  84
ATOM     84  S   UNL     1      -4.296  -9.989  10.917  1.00  0.00     0.127 S 
ATOM     85  O   UNL     1      -5.046  -9.430  12.038  1.00  0.00    -0.237 OA
ATOM     86  O   UNL     1      -2.955  -9.433  10.732  1.00  0.00    -0.237 OA
ATOM     87  O   UNL     1      -5.047 -10.168   9.681  1.00  0.00    -0.744 OA
ENDBRANCH  81  84
ENDBRANCH  53  77
BRANCH  65  88
ATOM     88  C   UNL     1      -7.916 -19.460  13.516  1.00  0.00     0.023 A 
ATOM     89  C   UNL     1      -8.999 -18.728  14.039  1.00  0.00     0.012 A 
ATOM     90  C   UNL     1      -7.438 -20.585  14.218  1.00  0.00     0.148 A 
ATOM     91  C   UNL     1      -9.576 -19.088  15.257  1.00  0.00     0.002 A 
ATOM     92  C   UNL     1      -8.052 -20.970  15.403  1.00  0.00     0.091 A 
ATOM     93  F   UNL     1      -6.394 -21.258  13.712  1.00  0.00    -0.205 F 
ATOM     94  C   UNL     1      -9.111 -20.215  15.931  1.00  0.00     0.022 A 
BRANCH  92  95
ATOM     95  S   UNL     1      -7.588 -22.464  16.286  1.00  0.00     0.127 S 
ATOM     96  O   UNL     1      -6.934 -21.916  17.474  1.00  0.00    -0.237 OA
ATOM     97  O   UNL     1      -8.886 -23.090  16.538  1.00  0.00    -0.237 OA
ATOM     98  O   UNL     1      -6.720 -23.212  15.386  1.00  0.00    -0.744 OA
ENDBRANCH  92  95
ENDBRANCH  65  88
ENDBRANCH  39  40
ENDBRANCH  31  34
ENDBRANCH  29  30
ENDBRANCH  28  29
ENDBRANCH   1  28
TORSDOF 17
