REMARK SMILES CC(C)[NH2+][C@@]1(C(=O)NCCCNC(=O)c2ccc(-c3c4nc(c(-c5cccc(S(=O)(=O)[O-])c5F)c5ccc([nH]5)c(-c5cccc(S(=O)(=O)[O-])c5F)c5nc(c(-c6cccc(S(=O)(=O)[O-])c6F)c6ccc3[nH]6)C=C5)C=C4)cc2)CCC[C@@H]1CCOC1CCOCC1
REMARK SMILES IDX 9 1 8 2 6 3 7 4 5 6 78 7 81 8 79 9 80 10 4 11 2 14 1 15 3 16
REMARK SMILES IDX 82 17 83 18 84 19 85 20 86 21 90 22 87 23 89 24 88 25 10 26
REMARK SMILES IDX 11 27 12 28 13 29 14 31 15 32 16 33 77 34 17 35 76 36 18 37
REMARK SMILES IDX 19 38 20 39 70 40 21 41 75 42 69 43 71 44 22 45 74 46 68 47
REMARK SMILES IDX 67 48 23 50 55 51 35 52 54 53 36 54 39 55 53 56 72 57 37 58
REMARK SMILES IDX 38 59 52 61 73 62 40 63 24 64 25 65 33 66 26 67 28 68 34 69
REMARK SMILES IDX 27 70 29 71 30 72 31 73 32 74 56 75 57 76 65 77 58 78 60 79
REMARK SMILES IDX 66 80 59 81 61 82 62 83 63 84 64 85 41 86 42 87 50 88 43 89
REMARK SMILES IDX 45 90 51 91 44 92 46 93 47 94 48 95 49 96
REMARK H PARENT 8 5 4 12 4 13 12 30 71 49 39 60
REMARK Flexibility Score: inf
ROOT
ATOM      1  C   UNL     1      -2.235   6.197   2.819  1.00  0.00     0.118 C 
ENDROOT
BRANCH   1   2
ATOM      2  N   UNL     1      -1.512   4.928   2.900  1.00  0.00    -0.351 N 
ATOM      3  C   UNL     1      -1.984   3.773   2.313  1.00  0.00     0.281 C 
ATOM      4  O   UNL     1      -2.864   3.234   2.987  1.00  0.00    -0.268 OA
ATOM      5  H   UNL     1      -0.658   4.897   3.390  1.00  0.00     0.163 HD
BRANCH   3   6
ATOM      6  C   UNL     1      -1.346   3.159   0.802  1.00  0.00     0.178 C 
ATOM      7  C   UNL     1      -1.054   4.768   0.048  1.00  0.00     0.079 C 
ATOM      8  C   UNL     1      -2.966   3.075   0.061  1.00  0.00     0.063 C 
ATOM      9  C   UNL     1      -2.305   5.330  -0.605  1.00  0.00     0.008 C 
ATOM     10  C   UNL     1      -3.464   4.529  -0.126  1.00  0.00     0.011 C 
BRANCH   6  11
ATOM     11  N   UNL     1       0.017   1.677   0.769  1.00  0.00    -0.331 N 
ATOM     12  H   UNL     1      -0.064   1.340   1.728  1.00  0.00     0.347 HD
ATOM     13  H   UNL     1      -0.232   1.457  -0.195  1.00  0.00     0.347 HD
BRANCH  11  14
ATOM     14  C   UNL     1       1.572   1.307   0.470  1.00  0.00     0.176 C 
ATOM     15  C   UNL     1       1.587  -0.194   0.054  1.00  0.00     0.075 C 
ATOM     16  C   UNL     1       2.614   2.001  -0.458  1.00  0.00     0.075 C 
ENDBRANCH  11  14
ENDBRANCH   6  11
BRANCH   8  17
ATOM     17  C   UNL     1      -4.204   2.355   0.678  1.00  0.00     0.039 C 
BRANCH  17  18
ATOM     18  C   UNL     1      -4.098   0.952   1.228  1.00  0.00     0.161 C 
BRANCH  18  19
ATOM     19  O   UNL     1      -3.078   0.873   2.189  1.00  0.00    -0.378 OA
BRANCH  19  20
ATOM     20  C   UNL     1      -1.784   0.939   1.645  1.00  0.00     0.122 C 
ATOM     21  C   UNL     1      -0.493   1.912   2.732  1.00  0.00     0.060 C 
ATOM     22  C   UNL     1      -1.583   0.998  -0.283  1.00  0.00     0.060 C 
ATOM     23  C   UNL     1       0.639   3.245   1.873  1.00  0.00     0.163 C 
ATOM     24  C   UNL     1      -0.409   2.336  -1.062  1.00  0.00     0.163 C 
ATOM     25  O   UNL     1       0.665   3.388   0.034  1.00  0.00    -0.381 OA
ENDBRANCH  19  20
ENDBRANCH  18  19
ENDBRANCH  17  18
ENDBRANCH   8  17
ENDBRANCH   3   6
ENDBRANCH   1   2
BRANCH   1  26
ATOM     26  C   UNL     1      -3.684   6.149   3.300  1.00  0.00     0.042 C 
BRANCH  26  27
ATOM     27  C   UNL     1      -3.830   5.765   4.763  1.00  0.00     0.118 C 
BRANCH  27  28
ATOM     28  N   UNL     1      -3.227   6.765   5.634  1.00  0.00    -0.352 N 
ATOM     29  C   UNL     1      -3.789   7.901   6.162  1.00  0.00     0.251 C 
ATOM     30  H   UNL     1      -2.287   6.603   5.878  1.00  0.00     0.163 HD
ATOM     31  O   UNL     1      -3.066   8.803   6.576  1.00  0.00    -0.269 OA
BRANCH  29  32
ATOM     32  C   UNL     1      -5.259   8.030   6.228  1.00  0.00     0.039 A 
ATOM     33  C   UNL     1      -5.862   9.257   5.938  1.00  0.00     0.014 A 
ATOM     34  C   UNL     1      -6.040   6.941   6.619  1.00  0.00     0.014 A 
ATOM     35  C   UNL     1      -7.253   9.375   6.003  1.00  0.00     0.010 A 
ATOM     36  C   UNL     1      -7.424   7.030   6.580  1.00  0.00     0.010 A 
ATOM     37  C   UNL     1      -8.045   8.256   6.308  1.00  0.00    -0.014 A 
BRANCH  37  38
ATOM     38  C   UNL     1      -9.524   8.340   6.403  1.00  0.00     0.031 A 
ATOM     39  C   UNL     1     -10.204   8.014   7.708  1.00  0.00     0.074 A 
ATOM     40  C   UNL     1     -10.253   8.597   5.300  1.00  0.00     0.049 A 
ATOM     41  N   UNL     1     -11.481   7.931   7.977  1.00  0.00    -0.248 NA
ATOM     42  C   UNL     1      -9.333   7.691   8.852  1.00  0.00     0.031 C 
ATOM     43  C   UNL     1      -9.709   8.833   3.961  1.00  0.00     0.029 A 
ATOM     44  N   UNL     1     -11.611   8.675   5.125  1.00  0.00    -0.354 N 
ATOM     45  C   UNL     1     -11.563   7.491   9.293  1.00  0.00     0.074 A 
ATOM     46  C   UNL     1     -10.210   7.285   9.757  1.00  0.00     0.031 C 
ATOM     47  C   UNL     1     -10.722   9.041   3.105  1.00  0.00     0.029 A 
ATOM     48  C   UNL     1     -11.986   8.930   3.827  1.00  0.00     0.049 A 
ATOM     49  H   UNL     1     -12.256   8.558   5.859  1.00  0.00     0.167 HD
ATOM     50  C   UNL     1     -12.663   7.313  10.062  1.00  0.00     0.034 A 
ATOM     51  C   UNL     1     -13.212   9.064   3.284  1.00  0.00     0.034 A 
ATOM     52  C   UNL     1     -13.997   7.603   9.617  1.00  0.00     0.049 A 
ATOM     53  C   UNL     1     -14.415   8.955   4.181  1.00  0.00     0.074 A 
ATOM     54  C   UNL     1     -15.173   7.580  10.344  1.00  0.00     0.029 A 
ATOM     55  N   UNL     1     -14.330   7.977   8.324  1.00  0.00    -0.354 N 
ATOM     56  N   UNL     1     -14.465   8.707   5.468  1.00  0.00    -0.248 NA
ATOM     57  C   UNL     1     -15.729   9.184   3.562  1.00  0.00     0.031 C 
ATOM     58  C   UNL     1     -16.221   7.931   9.485  1.00  0.00     0.029 A 
ATOM     59  C   UNL     1     -15.694   8.186   8.228  1.00  0.00     0.049 A 
ATOM     60  H   UNL     1     -13.690   8.079   7.583  1.00  0.00     0.167 HD
ATOM     61  C   UNL     1     -15.807   8.784   5.821  1.00  0.00     0.074 A 
ATOM     62  C   UNL     1     -16.535   9.121   4.614  1.00  0.00     0.031 C 
ATOM     63  C   UNL     1     -16.389   8.578   7.028  1.00  0.00     0.034 A 
BRANCH  50  64
ATOM     64  C   UNL     1     -12.456   6.848  11.481  1.00  0.00     0.023 A 
ATOM     65  C   UNL     1     -11.867   7.721  12.420  1.00  0.00     0.012 A 
ATOM     66  C   UNL     1     -12.867   5.566  11.896  1.00  0.00     0.148 A 
ATOM     67  C   UNL     1     -11.646   7.310  13.734  1.00  0.00     0.002 A 
ATOM     68  C   UNL     1     -12.686   5.181  13.221  1.00  0.00     0.091 A 
ATOM     69  F   UNL     1     -13.405   4.739  10.988  1.00  0.00    -0.205 F 
ATOM     70  C   UNL     1     -12.063   6.045  14.136  1.00  0.00     0.022 A 
BRANCH  68  71
ATOM     71  S   UNL     1     -13.264   3.602  13.855  1.00  0.00     0.127 S 
ATOM     72  O   UNL     1     -12.011   2.860  13.988  1.00  0.00    -0.237 OA
ATOM     73  O   UNL     1     -13.881   3.986  15.126  1.00  0.00    -0.237 OA
ATOM     74  O   UNL     1     -14.197   3.091  12.861  1.00  0.00    -0.744 OA
ENDBRANCH  68  71
ENDBRANCH  50  64
BRANCH  51  75
ATOM     75  C   UNL     1     -13.349   9.423   1.844  1.00  0.00     0.023 A 
ATOM     76  C   UNL     1     -13.765  10.725   1.503  1.00  0.00     0.012 A 
ATOM     77  C   UNL     1     -13.025   8.515   0.818  1.00  0.00     0.148 A 
ATOM     78  C   UNL     1     -13.881  11.109   0.167  1.00  0.00     0.002 A 
ATOM     79  C   UNL     1     -13.093   8.920  -0.511  1.00  0.00     0.091 A 
ATOM     80  F   UNL     1     -12.639   7.279   1.162  1.00  0.00    -0.205 F 
ATOM     81  C   UNL     1     -13.536  10.211  -0.839  1.00  0.00     0.022 A 
BRANCH  79  82
ATOM     82  S   UNL     1     -12.545   7.878  -1.869  1.00  0.00     0.127 S 
ATOM     83  O   UNL     1     -13.810   7.534  -2.512  1.00  0.00    -0.237 OA
ATOM     84  O   UNL     1     -11.695   8.794  -2.630  1.00  0.00    -0.237 OA
ATOM     85  O   UNL     1     -11.828   6.771  -1.249  1.00  0.00    -0.744 OA
ENDBRANCH  79  82
ENDBRANCH  51  75
BRANCH  63  86
ATOM     86  C   UNL     1     -17.882   8.740   7.120  1.00  0.00     0.023 A 
ATOM     87  C   UNL     1     -18.724   7.751   6.577  1.00  0.00     0.012 A 
ATOM     88  C   UNL     1     -18.446   9.824   7.821  1.00  0.00     0.148 A 
ATOM     89  C   UNL     1     -20.109   7.851   6.707  1.00  0.00     0.002 A 
ATOM     90  C   UNL     1     -19.823   9.893   7.988  1.00  0.00     0.091 A 
ATOM     91  F   UNL     1     -17.626  10.765   8.313  1.00  0.00    -0.205 F 
ATOM     92  C   UNL     1     -20.657   8.914   7.423  1.00  0.00     0.022 A 
BRANCH  90  93
ATOM     93  S   UNL     1     -20.606  11.171   8.978  1.00  0.00     0.127 S 
ATOM     94  O   UNL     1     -21.181  12.035   7.949  1.00  0.00    -0.237 OA
ATOM     95  O   UNL     1     -21.586  10.409   9.753  1.00  0.00    -0.237 OA
ATOM     96  O   UNL     1     -19.541  11.766   9.775  1.00  0.00    -0.744 OA
ENDBRANCH  90  93
ENDBRANCH  63  86
ENDBRANCH  37  38
ENDBRANCH  29  32
ENDBRANCH  27  28
ENDBRANCH  26  27
ENDBRANCH   1  26
TORSDOF 19
