REMARK SMILES CCc1ccsc1C(=O)N(CC(=O)NCCCNC(=O)c1ccc(-c2c3nc(c(-c4cccc(S(=O)(=O)[O-])c4F)c4ccc([nH]4)c(-c4cccc(S(=O)(=O)[O-])c4F)c4nc(c(-c5cccc(S(=O)(=O)[O-])c5F)c5ccc2[nH]5)C=C4)C=C3)cc1)c1ccccc1N
REMARK SMILES IDX 15 1 14 2 12 3 13 4 11 6 10 7 8 8 9 9 7 10 3 11 4 12 5 13
REMARK SMILES IDX 6 14 2 15 1 16 84 17 85 18 89 19 86 20 88 21 87 22 90 23
REMARK SMILES IDX 16 26 17 27 18 28 19 29 20 31 21 32 22 33 83 34 23 35 82 36
REMARK SMILES IDX 24 37 25 38 26 39 76 40 27 41 81 42 75 43 77 44 28 45 80 46
REMARK SMILES IDX 74 47 73 48 29 50 61 51 41 52 60 53 42 54 45 55 59 56 78 57
REMARK SMILES IDX 43 58 44 59 58 61 79 62 46 63 30 64 31 65 39 66 32 67 34 68
REMARK SMILES IDX 40 69 33 70 35 71 36 72 37 73 38 74 62 75 63 76 71 77 64 78
REMARK SMILES IDX 66 79 72 80 65 81 67 82 68 83 69 84 70 85 47 86 48 87 56 88
REMARK SMILES IDX 49 89 51 90 57 91 50 92 52 93 53 94 54 95 55 96
REMARK H PARENT 14 5 90 24 90 25 18 30 77 49 45 60
REMARK Flexibility Score: inf
ROOT
ATOM      1  C   UNL     1       3.919   1.002  -1.017  1.00  0.00     0.117 C 
ENDROOT
BRANCH   1   2
ATOM      2  N   UNL     1       3.504   1.970  -0.029  1.00  0.00    -0.354 N 
ATOM      3  C   UNL     1       2.411   2.777  -0.022  1.00  0.00     0.240 C 
ATOM      4  O   UNL     1       2.192   3.425   1.006  1.00  0.00    -0.273 OA
ATOM      5  H   UNL     1       4.098   2.058   0.752  1.00  0.00     0.163 HD
BRANCH   3   6
ATOM      6  C   UNL     1       1.377   2.738  -1.153  1.00  0.00     0.226 C 
BRANCH   6   7
ATOM      7  N   UNL     1       1.681   2.907  -2.574  1.00  0.00    -0.296 N 
BRANCH   7   8
ATOM      8  C   UNL     1       1.625   1.863  -3.544  1.00  0.00     0.269 C 
ATOM      9  O   UNL     1       2.007   2.136  -4.691  1.00  0.00    -0.268 OA
BRANCH   8  10
ATOM     10  C   UNL     1       1.240   0.426  -3.291  1.00  0.00     0.096 A 
ATOM     11  C   UNL     1       0.462  -0.368  -2.425  1.00  0.00    -0.025 A 
ATOM     12  C   UNL     1       0.541  -1.777  -2.768  1.00  0.00     0.016 A 
ATOM     13  C   UNL     1       1.313  -2.046  -3.860  1.00  0.00     0.066 A 
ATOM     14  S   UNL     1       1.993  -0.641  -4.492  1.00  0.00    -0.138 S 
BRANCH  11  15
ATOM     15  C   UNL     1      -0.418  -0.024  -1.246  1.00  0.00     0.034 C 
ATOM     16  C   UNL     1       0.269  -0.357   0.084  1.00  0.00     0.009 C 
ENDBRANCH  11  15
ENDBRANCH   8  10
ENDBRANCH   7   8
BRANCH   7  17
ATOM     17  C   UNL     1       1.967   4.304  -2.965  1.00  0.00     0.068 A 
ATOM     18  C   UNL     1       2.663   5.135  -2.056  1.00  0.00     0.028 A 
ATOM     19  C   UNL     1       1.545   4.914  -4.180  1.00  0.00     0.056 A 
ATOM     20  C   UNL     1       2.890   6.496  -2.289  1.00  0.00     0.002 A 
ATOM     21  C   UNL     1       1.742   6.300  -4.374  1.00  0.00     0.028 A 
ATOM     22  C   UNL     1       2.417   7.084  -3.446  1.00  0.00     0.002 A 
BRANCH  19  23
ATOM     23  N   UNL     1       0.747   4.274  -5.147  1.00  0.00    -0.397 N 
ATOM     24  H   UNL     1       0.567   3.308  -5.075  1.00  0.00     0.156 HD
ATOM     25  H   UNL     1       0.369   4.791  -5.894  1.00  0.00     0.156 HD
ENDBRANCH  19  23
ENDBRANCH   7  17
ENDBRANCH   6   7
ENDBRANCH   3   6
ENDBRANCH   1   2
BRANCH   1  26
ATOM     26  C   UNL     1       5.019   1.533  -1.917  1.00  0.00     0.042 C 
BRANCH  26  27
ATOM     27  C   UNL     1       6.303   1.829  -1.157  1.00  0.00     0.118 C 
BRANCH  27  28
ATOM     28  N   UNL     1       6.855   0.644  -0.508  1.00  0.00    -0.352 N 
ATOM     29  C   UNL     1       8.125   0.122  -0.585  1.00  0.00     0.251 C 
ATOM     30  H   UNL     1       6.229   0.148   0.068  1.00  0.00     0.163 HD
ATOM     31  O   UNL     1       8.368  -0.978  -0.120  1.00  0.00    -0.269 OA
BRANCH  29  32
ATOM     32  C   UNL     1       9.181   0.913  -1.249  1.00  0.00     0.039 A 
ATOM     33  C   UNL     1      10.023   0.289  -2.171  1.00  0.00     0.014 A 
ATOM     34  C   UNL     1       9.314   2.275  -0.970  1.00  0.00     0.014 A 
ATOM     35  C   UNL     1      10.969   1.050  -2.860  1.00  0.00     0.010 A 
ATOM     36  C   UNL     1      10.192   3.044  -1.719  1.00  0.00     0.010 A 
ATOM     37  C   UNL     1      11.039   2.437  -2.660  1.00  0.00    -0.014 A 
BRANCH  37  38
ATOM     38  C   UNL     1      12.001   3.291  -3.396  1.00  0.00     0.031 A 
ATOM     39  C   UNL     1      13.040   4.061  -2.629  1.00  0.00     0.074 A 
ATOM     40  C   UNL     1      11.859   3.469  -4.724  1.00  0.00     0.049 A 
ATOM     41  N   UNL     1      13.875   4.972  -3.055  1.00  0.00    -0.248 NA
ATOM     42  C   UNL     1      13.124   3.802  -1.181  1.00  0.00     0.031 C 
ATOM     43  C   UNL     1      10.838   2.836  -5.561  1.00  0.00     0.029 A 
ATOM     44  N   UNL     1      12.552   4.270  -5.595  1.00  0.00    -0.354 N 
ATOM     45  C   UNL     1      14.539   5.432  -1.925  1.00  0.00     0.074 A 
ATOM     46  C   UNL     1      13.990   4.724  -0.790  1.00  0.00     0.031 C 
ATOM     47  C   UNL     1      10.968   3.276  -6.822  1.00  0.00     0.029 A 
ATOM     48  C   UNL     1      12.057   4.245  -6.878  1.00  0.00     0.049 A 
ATOM     49  H   UNL     1      13.330   4.811  -5.328  1.00  0.00     0.167 HD
ATOM     50  C   UNL     1      15.538   6.342  -1.842  1.00  0.00     0.034 A 
ATOM     51  C   UNL     1      12.432   4.938  -7.972  1.00  0.00     0.034 A 
ATOM     52  C   UNL     1      16.120   6.993  -2.982  1.00  0.00     0.049 A 
ATOM     53  C   UNL     1      13.588   5.895  -7.866  1.00  0.00     0.074 A 
ATOM     54  C   UNL     1      17.201   7.854  -3.022  1.00  0.00     0.029 A 
ATOM     55  N   UNL     1      15.670   6.851  -4.286  1.00  0.00    -0.354 N 
ATOM     56  N   UNL     1      14.306   6.208  -6.814  1.00  0.00    -0.248 NA
ATOM     57  C   UNL     1      14.011   6.569  -9.102  1.00  0.00     0.031 C 
ATOM     58  C   UNL     1      17.395   8.246  -4.351  1.00  0.00     0.029 A 
ATOM     59  C   UNL     1      16.450   7.610  -5.140  1.00  0.00     0.049 A 
ATOM     60  H   UNL     1      14.908   6.293  -4.563  1.00  0.00     0.167 HD
ATOM     61  C   UNL     1      15.290   7.079  -7.268  1.00  0.00     0.074 A 
ATOM     62  C   UNL     1      15.082   7.236  -8.693  1.00  0.00     0.031 C 
ATOM     63  C   UNL     1      16.269   7.700  -6.566  1.00  0.00     0.034 A 
BRANCH  50  64
ATOM     64  C   UNL     1      16.099   6.641  -0.477  1.00  0.00     0.023 A 
ATOM     65  C   UNL     1      16.869   5.665   0.189  1.00  0.00     0.012 A 
ATOM     66  C   UNL     1      15.903   7.897   0.130  1.00  0.00     0.148 A 
ATOM     67  C   UNL     1      17.400   5.918   1.453  1.00  0.00     0.002 A 
ATOM     68  C   UNL     1      16.475   8.158   1.370  1.00  0.00     0.091 A 
ATOM     69  F   UNL     1      15.149   8.805  -0.505  1.00  0.00    -0.205 F 
ATOM     70  C   UNL     1      17.211   7.166   2.038  1.00  0.00     0.022 A 
BRANCH  68  71
ATOM     71  S   UNL     1      16.358   9.763   2.169  1.00  0.00     0.127 S 
ATOM     72  O   UNL     1      15.405   9.489   3.243  1.00  0.00    -0.237 OA
ATOM     73  O   UNL     1      17.733   9.987   2.616  1.00  0.00    -0.237 OA
ATOM     74  O   UNL     1      15.898  10.688   1.142  1.00  0.00    -0.744 OA
ENDBRANCH  68  71
ENDBRANCH  50  64
BRANCH  51  75
ATOM     75  C   UNL     1      11.754   4.689  -9.275  1.00  0.00     0.023 A 
ATOM     76  C   UNL     1      12.446   3.998 -10.288  1.00  0.00     0.012 A 
ATOM     77  C   UNL     1      10.424   5.092  -9.504  1.00  0.00     0.148 A 
ATOM     78  C   UNL     1      11.837   3.736 -11.516  1.00  0.00     0.002 A 
ATOM     79  C   UNL     1       9.806   4.784 -10.711  1.00  0.00     0.091 A 
ATOM     80  F   UNL     1       9.785   5.755  -8.529  1.00  0.00    -0.205 F 
ATOM     81  C   UNL     1      10.515   4.120 -11.723  1.00  0.00     0.022 A 
BRANCH  79  82
ATOM     82  S   UNL     1       8.071   5.128 -11.025  1.00  0.00     0.127 S 
ATOM     83  O   UNL     1       8.154   6.184 -12.032  1.00  0.00    -0.237 OA
ATOM     84  O   UNL     1       7.593   3.838 -11.523  1.00  0.00    -0.237 OA
ATOM     85  O   UNL     1       7.509   5.524  -9.741  1.00  0.00    -0.744 OA
ENDBRANCH  79  82
ENDBRANCH  51  75
BRANCH  63  86
ATOM     86  C   UNL     1      17.234   8.570  -7.325  1.00  0.00     0.023 A 
ATOM     87  C   UNL     1      16.825   9.836  -7.786  1.00  0.00     0.012 A 
ATOM     88  C   UNL     1      18.577   8.173  -7.484  1.00  0.00     0.148 A 
ATOM     89  C   UNL     1      17.735  10.686  -8.415  1.00  0.00     0.002 A 
ATOM     90  C   UNL     1      19.488   9.045  -8.067  1.00  0.00     0.091 A 
ATOM     91  F   UNL     1      18.939   6.956  -7.052  1.00  0.00    -0.205 F 
ATOM     92  C   UNL     1      19.067  10.297  -8.542  1.00  0.00     0.022 A 
BRANCH  90  93
ATOM     93  S   UNL     1      21.241   8.670  -8.180  1.00  0.00     0.127 S 
ATOM     94  O   UNL     1      21.402   8.430  -9.613  1.00  0.00    -0.237 OA
ATOM     95  O   UNL     1      21.855   9.907  -7.695  1.00  0.00    -0.237 OA
ATOM     96  O   UNL     1      21.461   7.511  -7.325  1.00  0.00    -0.744 OA
ENDBRANCH  90  93
ENDBRANCH  63  86
ENDBRANCH  37  38
ENDBRANCH  29  32
ENDBRANCH  27  28
ENDBRANCH  26  27
ENDBRANCH   1  26
TORSDOF 19
