REMARK SMILES COC(=O)c1ccccc1N1C(=O)/C(=C\c2ccc(-c3ccc(Cl)c(C(=O)NCCCNC(=O)c4ccc(-c5c6nc(c(-c7cccc(S(=O)(=O)[O-])c7F)c7ccc([nH]7)c(-c7cccc(S(=O)(=O)[O-])c7F)c7nc(c(-c8cccc(S(=O)(=O)[O-])c8F)c8ccc5[nH]8)C=C7)C=C6)cc4)c3)o2)SC1=S
REMARK SMILES IDX 29 1 28 2 26 3 27 4 25 6 20 7 21 8 98 9 22 10 23 11 24 12
REMARK SMILES IDX 19 13 16 14 17 15 99 16 18 17 15 18 11 19 12 20 101 21 13 22
REMARK SMILES IDX 14 23 100 24 102 25 10 26 5 27 6 28 7 29 9 30 8 31 3 32 4 33
REMARK SMILES IDX 2 34 1 35 30 36 31 37 32 38 33 39 34 41 35 42 36 43 97 44
REMARK SMILES IDX 37 45 96 46 38 47 39 48 40 49 90 50 41 51 95 52 89 53 91 54
REMARK SMILES IDX 42 55 94 56 88 57 87 58 43 60 75 61 55 62 74 63 56 64 59 65
REMARK SMILES IDX 73 66 92 67 57 68 58 69 72 71 93 72 60 73 44 74 45 75 53 76
REMARK SMILES IDX 46 77 48 78 54 79 47 80 49 81 50 82 51 83 52 84 76 85 77 86
REMARK SMILES IDX 85 87 78 88 80 89 86 90 79 91 81 92 82 93 83 94 84 95 61 96
REMARK SMILES IDX 62 97 70 98 63 99 65 100 71 101 64 102 66 103 67 104 68 105
REMARK SMILES IDX 69 106
REMARK H PARENT 28 5 32 40 91 59 59 70
REMARK Flexibility Score: inf
ROOT
ATOM      1  C   UNL     1      -4.835   9.540   2.624  1.00  0.00     0.118 C 
ENDROOT
BRANCH   1   2
ATOM      2  N   UNL     1      -5.553  10.120   3.758  1.00  0.00    -0.352 N 
ATOM      3  C   UNL     1      -6.064   9.609   4.938  1.00  0.00     0.252 C 
ATOM      4  O   UNL     1      -6.513  10.417   5.748  1.00  0.00    -0.269 OA
ATOM      5  H   UNL     1      -5.707  11.088   3.661  1.00  0.00     0.163 HD
BRANCH   3   6
ATOM      6  C   UNL     1      -6.090   8.149   5.239  1.00  0.00     0.059 A 
ATOM      7  C   UNL     1      -5.154   5.955   4.732  1.00  0.00     0.018 A 
ATOM      8  C   UNL     1      -6.217   5.343   5.392  1.00  0.00     0.013 A 
ATOM      9  C   UNL     1      -5.039   7.348   4.795  1.00  0.00     0.027 A 
ATOM     10  C   UNL     1      -7.177   6.128   6.037  1.00  0.00     0.022 A 
ATOM     11  C   UNL     1      -7.144   7.528   5.927  1.00  0.00     0.053 A 
ATOM     12  Cl  UNL     1      -8.463   8.379   6.648  1.00  0.00    -0.083 Cl
BRANCH   7  13
ATOM     13  C   UNL     1      -4.244   5.234   3.853  1.00  0.00     0.134 A 
ATOM     14  C   UNL     1      -3.818   3.686   2.320  1.00  0.00     0.128 A 
ATOM     15  C   UNL     1      -2.736   4.557   2.356  1.00  0.00     0.051 A 
ATOM     16  O   UNL     1      -4.747   4.129   3.232  1.00  0.00    -0.457 OA
ATOM     17  C   UNL     1      -2.990   5.516   3.358  1.00  0.00     0.051 A 
BRANCH  14  18
ATOM     18  C   UNL     1      -3.977   2.511   1.541  1.00  0.00     0.068 C 
ATOM     19  N   UNL     1      -1.815  -0.075   2.942  1.00  0.00    -0.260 N 
ATOM     20  C   UNL     1      -2.349   1.206   2.963  1.00  0.00     0.270 C 
ATOM     21  C   UNL     1      -2.260  -0.922   1.943  1.00  0.00     0.152 C 
ATOM     22  O   UNL     1      -2.092   2.062   3.800  1.00  0.00    -0.268 OA
ATOM     23  C   UNL     1      -3.285   1.397   1.819  1.00  0.00     0.084 C 
ATOM     24  S   UNL     1      -3.371  -0.048   0.885  1.00  0.00    -0.054 SA
ATOM     25  S   UNL     1      -1.955  -2.554   1.741  1.00  0.00    -0.051 S 
BRANCH  19  26
ATOM     26  C   UNL     1      -0.887  -0.422   3.966  1.00  0.00     0.065 A 
ATOM     27  C   UNL     1       0.450  -0.793   3.729  1.00  0.00     0.084 A 
ATOM     28  C   UNL     1       1.294  -1.060   4.825  1.00  0.00     0.018 A 
ATOM     29  C   UNL     1       0.833  -0.936   6.137  1.00  0.00     0.001 A 
ATOM     30  C   UNL     1      -1.330  -0.297   5.300  1.00  0.00     0.028 A 
ATOM     31  C   UNL     1      -0.480  -0.551   6.374  1.00  0.00     0.002 A 
BRANCH  27  32
ATOM     32  C   UNL     1       1.105  -0.854   2.393  1.00  0.00     0.339 C 
ATOM     33  O   UNL     1       2.056  -1.572   2.153  1.00  0.00    -0.246 OA
BRANCH  32  34
ATOM     34  O   UNL     1       0.545   0.040   1.538  1.00  0.00    -0.465 OA
ATOM     35  C   UNL     1       1.109   0.015   0.224  1.00  0.00     0.282 C 
ENDBRANCH  32  34
ENDBRANCH  27  32
ENDBRANCH  19  26
ENDBRANCH  14  18
ENDBRANCH   7  13
ENDBRANCH   3   6
ENDBRANCH   1   2
BRANCH   1  36
ATOM     36  C   UNL     1      -5.473   9.777   1.265  1.00  0.00     0.042 C 
BRANCH  36  37
ATOM     37  C   UNL     1      -5.521  11.227   0.814  1.00  0.00     0.118 C 
BRANCH  37  38
ATOM     38  N   UNL     1      -4.200  11.826   0.664  1.00  0.00    -0.352 N 
ATOM     39  C   UNL     1      -3.475  12.168  -0.453  1.00  0.00     0.251 C 
ATOM     40  H   UNL     1      -3.746  12.021   1.515  1.00  0.00     0.163 HD
ATOM     41  O   UNL     1      -2.297  12.493  -0.315  1.00  0.00    -0.269 OA
BRANCH  39  42
ATOM     42  C   UNL     1      -4.072  12.138  -1.811  1.00  0.00     0.039 A 
ATOM     43  C   UNL     1      -3.271  11.754  -2.893  1.00  0.00     0.014 A 
ATOM     44  C   UNL     1      -5.390  12.531  -2.042  1.00  0.00     0.014 A 
ATOM     45  C   UNL     1      -3.812  11.700  -4.183  1.00  0.00     0.010 A 
ATOM     46  C   UNL     1      -5.956  12.377  -3.305  1.00  0.00     0.010 A 
ATOM     47  C   UNL     1      -5.172  11.974  -4.394  1.00  0.00    -0.014 A 
BRANCH  47  48
ATOM     48  C   UNL     1      -5.793  11.859  -5.741  1.00  0.00     0.031 A 
ATOM     49  C   UNL     1      -6.432  13.061  -6.390  1.00  0.00     0.074 A 
ATOM     50  C   UNL     1      -5.864  10.653  -6.342  1.00  0.00     0.049 A 
ATOM     51  N   UNL     1      -7.084  13.140  -7.521  1.00  0.00    -0.248 NA
ATOM     52  C   UNL     1      -6.355  14.337  -5.658  1.00  0.00     0.031 C 
ATOM     53  C   UNL     1      -5.358   9.397  -5.783  1.00  0.00     0.029 A 
ATOM     54  N   UNL     1      -6.413  10.281  -7.545  1.00  0.00    -0.354 N 
ATOM     55  C   UNL     1      -7.525  14.455  -7.617  1.00  0.00     0.074 A 
ATOM     56  C   UNL     1      -7.104  15.130  -6.410  1.00  0.00     0.031 C 
ATOM     57  C   UNL     1      -5.609   8.398  -6.644  1.00  0.00     0.029 A 
ATOM     58  C   UNL     1      -6.321   8.932  -7.800  1.00  0.00     0.049 A 
ATOM     59  H   UNL     1      -6.833  10.919  -8.165  1.00  0.00     0.167 HD
ATOM     60  C   UNL     1      -8.189  15.059  -8.632  1.00  0.00     0.034 A 
ATOM     61  C   UNL     1      -6.763   8.206  -8.846  1.00  0.00     0.034 A 
ATOM     62  C   UNL     1      -8.559  14.399  -9.854  1.00  0.00     0.049 A 
ATOM     63  C   UNL     1      -7.458   8.911  -9.981  1.00  0.00     0.074 A 
ATOM     64  C   UNL     1      -9.158  14.941 -10.977  1.00  0.00     0.029 A 
ATOM     65  N   UNL     1      -8.365  13.052 -10.115  1.00  0.00    -0.354 N 
ATOM     66  N   UNL     1      -7.727  10.187 -10.119  1.00  0.00    -0.248 NA
ATOM     67  C   UNL     1      -7.877   8.083 -11.121  1.00  0.00     0.031 C 
ATOM     68  C   UNL     1      -9.341  13.917 -11.912  1.00  0.00     0.029 A 
ATOM     69  C   UNL     1      -8.835  12.742 -11.380  1.00  0.00     0.049 A 
ATOM     70  H   UNL     1      -7.954  12.409  -9.492  1.00  0.00     0.167 HD
ATOM     71  C   UNL     1      -8.310  10.320 -11.374  1.00  0.00     0.074 A 
ATOM     72  C   UNL     1      -8.334   8.998 -11.965  1.00  0.00     0.031 C 
ATOM     73  C   UNL     1      -8.796  11.432 -11.977  1.00  0.00     0.034 A 
BRANCH  60  74
ATOM     74  C   UNL     1      -8.499  16.528  -8.492  1.00  0.00     0.023 A 
ATOM     75  C   UNL     1      -7.449  17.466  -8.568  1.00  0.00     0.012 A 
ATOM     76  C   UNL     1      -9.823  16.985  -8.348  1.00  0.00     0.148 A 
ATOM     77  C   UNL     1      -7.706  18.833  -8.466  1.00  0.00     0.002 A 
ATOM     78  C   UNL     1     -10.077  18.352  -8.294  1.00  0.00     0.091 A 
ATOM     79  F   UNL     1     -10.807  16.079  -8.260  1.00  0.00    -0.205 F 
ATOM     80  C   UNL     1      -9.019  19.275  -8.340  1.00  0.00     0.022 A 
BRANCH  78  81
ATOM     81  S   UNL     1     -11.739  19.029  -8.211  1.00  0.00     0.127 S 
ATOM     82  O   UNL     1     -11.773  19.561  -6.850  1.00  0.00    -0.237 OA
ATOM     83  O   UNL     1     -11.708  20.047  -9.262  1.00  0.00    -0.237 OA
ATOM     84  O   UNL     1     -12.640  17.915  -8.470  1.00  0.00    -0.744 OA
ENDBRANCH  78  81
ENDBRANCH  60  74
BRANCH  61  85
ATOM     85  C   UNL     1      -6.493   6.741  -8.909  1.00  0.00     0.023 A 
ATOM     86  C   UNL     1      -5.579   6.250  -9.862  1.00  0.00     0.012 A 
ATOM     87  C   UNL     1      -7.113   5.837  -8.025  1.00  0.00     0.148 A 
ATOM     88  C   UNL     1      -5.316   4.883  -9.960  1.00  0.00     0.002 A 
ATOM     89  C   UNL     1      -6.803   4.483  -8.089  1.00  0.00     0.091 A 
ATOM     90  F   UNL     1      -7.989   6.319  -7.132  1.00  0.00    -0.205 F 
ATOM     91  C   UNL     1      -5.920   4.001  -9.068  1.00  0.00     0.022 A 
BRANCH  89  92
ATOM     92  S   UNL     1      -7.427   3.297  -6.892  1.00  0.00     0.127 S 
ATOM     93  O   UNL     1      -8.411   2.562  -7.683  1.00  0.00    -0.237 OA
ATOM     94  O   UNL     1      -6.219   2.542  -6.554  1.00  0.00    -0.237 OA
ATOM     95  O   UNL     1      -7.958   4.093  -5.794  1.00  0.00    -0.744 OA
ENDBRANCH  89  92
ENDBRANCH  61  85
BRANCH  73  96
ATOM     96  C   UNL     1      -9.361  11.284 -13.365  1.00  0.00     0.023 A 
ATOM     97  C   UNL     1     -10.604  10.648 -13.551  1.00  0.00     0.012 A 
ATOM     98  C   UNL     1      -8.695  11.842 -14.474  1.00  0.00     0.148 A 
ATOM     99  C   UNL     1     -11.161  10.540 -14.825  1.00  0.00     0.002 A 
ATOM    100  C   UNL     1      -9.280  11.774 -15.733  1.00  0.00     0.091 A 
ATOM    101  F   UNL     1      -7.505  12.427 -14.278  1.00  0.00    -0.205 F 
ATOM    102  C   UNL     1     -10.506  11.113 -15.912  1.00  0.00     0.022 A 
BRANCH 100 103
ATOM    103  S   UNL     1      -8.556  12.568 -17.173  1.00  0.00     0.127 S 
ATOM    104  O   UNL     1      -8.058  11.419 -17.927  1.00  0.00    -0.237 OA
ATOM    105  O   UNL     1      -9.711  13.237 -17.773  1.00  0.00    -0.237 OA
ATOM    106  O   UNL     1      -7.534  13.471 -16.662  1.00  0.00    -0.744 OA
ENDBRANCH 100 103
ENDBRANCH  73  96
ENDBRANCH  47  48
ENDBRANCH  39  42
ENDBRANCH  37  38
ENDBRANCH  36  37
ENDBRANCH   1  36
TORSDOF 18
