REMARK SMILES O=C(NCCCNC(=O)c1cccc(Nc2ccc([N+](=O)[O-])cc2)c1)c1ccc(-c2c3nc(c(-c4cccc(S(=O)(=O)[O-])c4F)c4ccc([nH]4)c(-c4cccc(S(=O)(=O)[O-])c4F)c4nc(c(-c5cccc(S(=O)(=O)[O-])c5F)c5ccc2[nH]5)C=C4)C=C3)cc1
REMARK SMILES IDX 5 1 4 2 3 3 1 4 2 5 26 7 27 8 88 9 28 10 87 11 29 12 30 13
REMARK SMILES IDX 31 14 81 15 32 16 86 17 80 18 82 19 33 20 85 21 79 22 78 23
REMARK SMILES IDX 34 25 66 26 46 27 65 28 47 29 50 30 64 31 83 32 48 33 49 34
REMARK SMILES IDX 63 36 84 37 51 38 35 39 36 40 44 41 37 42 39 43 45 44 38 45
REMARK SMILES IDX 40 46 41 47 42 48 43 49 67 50 68 51 76 52 69 53 71 54 77 55
REMARK SMILES IDX 70 56 72 57 73 58 74 59 75 60 52 61 53 62 61 63 54 64 56 65
REMARK SMILES IDX 62 66 55 67 57 68 58 69 59 70 60 71 6 72 7 73 8 74 9 76
REMARK SMILES IDX 10 77 11 78 25 79 12 80 14 81 13 82 15 83 16 85 17 86 24 87
REMARK SMILES IDX 18 88 23 89 19 90 20 91 21 92 22 93
REMARK H PARENT 3 6 82 24 50 35 7 75 15 84
REMARK Flexibility Score: inf
ROOT
ATOM      1  C   UNL     1       5.063  -0.313   2.260  1.00  0.00     0.042 C 
ENDROOT
BRANCH   1   2
ATOM      2  C   UNL     1       4.652  -0.838   0.892  1.00  0.00     0.118 C 
BRANCH   2   3
ATOM      3  N   UNL     1       3.208  -0.848   0.706  1.00  0.00    -0.352 N 
ATOM      4  O   UNL     1       1.198  -0.111   0.029  1.00  0.00    -0.269 OA
ATOM      5  C   UNL     1       2.420  -0.088  -0.120  1.00  0.00     0.251 C 
ATOM      6  H   UNL     1       2.722  -1.502   1.258  1.00  0.00     0.163 HD
BRANCH   5   7
ATOM      7  C   UNL     1       3.030   0.769  -1.159  1.00  0.00     0.039 A 
ATOM      8  C   UNL     1       4.093   0.306  -1.940  1.00  0.00     0.014 A 
ATOM      9  C   UNL     1       2.512   2.048  -1.374  1.00  0.00     0.014 A 
ATOM     10  C   UNL     1       4.735   1.168  -2.823  1.00  0.00     0.010 A 
ATOM     11  C   UNL     1       3.099   2.881  -2.328  1.00  0.00     0.010 A 
ATOM     12  C   UNL     1       4.236   2.459  -3.038  1.00  0.00    -0.014 A 
BRANCH  12  13
ATOM     13  C   UNL     1       4.860   3.343  -4.053  1.00  0.00     0.031 A 
ATOM     14  C   UNL     1       5.473   4.656  -3.659  1.00  0.00     0.074 A 
ATOM     15  C   UNL     1       4.814   2.979  -5.349  1.00  0.00     0.049 A 
ATOM     16  N   UNL     1       5.971   5.594  -4.421  1.00  0.00    -0.248 NA
ATOM     17  C   UNL     1       5.521   4.962  -2.220  1.00  0.00     0.031 C 
ATOM     18  C   UNL     1       4.215   1.742  -5.854  1.00  0.00     0.029 A 
ATOM     19  N   UNL     1       5.243   3.628  -6.479  1.00  0.00    -0.354 N 
ATOM     20  C   UNL     1       6.343   6.623  -3.566  1.00  0.00     0.074 A 
ATOM     21  C   UNL     1       6.012   6.194  -2.224  1.00  0.00     0.031 C 
ATOM     22  C   UNL     1       4.296   1.728  -7.191  1.00  0.00     0.029 A 
ATOM     23  C   UNL     1       4.895   2.980  -7.641  1.00  0.00     0.049 A 
ATOM     24  H   UNL     1       5.748   4.473  -6.460  1.00  0.00     0.167 HD
ATOM     25  C   UNL     1       6.913   7.814  -3.872  1.00  0.00     0.034 A 
ATOM     26  C   UNL     1       4.997   3.365  -8.927  1.00  0.00     0.034 A 
ATOM     27  C   UNL     1       7.252   8.222  -5.210  1.00  0.00     0.049 A 
ATOM     28  C   UNL     1       5.628   4.689  -9.245  1.00  0.00     0.074 A 
ATOM     29  C   UNL     1       7.901   9.373  -5.618  1.00  0.00     0.029 A 
ATOM     30  N   UNL     1       6.945   7.508  -6.358  1.00  0.00    -0.354 N 
ATOM     31  N   UNL     1       6.091   5.596  -8.420  1.00  0.00    -0.248 NA
ATOM     32  C   UNL     1       5.780   5.031 -10.665  1.00  0.00     0.031 C 
ATOM     33  C   UNL     1       7.947   9.376  -7.016  1.00  0.00     0.029 A 
ATOM     34  C   UNL     1       7.371   8.202  -7.477  1.00  0.00     0.049 A 
ATOM     35  H   UNL     1       6.490   6.635  -6.375  1.00  0.00     0.167 HD
ATOM     36  C   UNL     1       6.622   6.601  -9.218  1.00  0.00     0.074 A 
ATOM     37  C   UNL     1       6.427   6.188 -10.594  1.00  0.00     0.031 C 
ATOM     38  C   UNL     1       7.216   7.760  -8.841  1.00  0.00     0.034 A 
BRANCH  25  39
ATOM     39  C   UNL     1       7.206   8.762  -2.736  1.00  0.00     0.023 A 
ATOM     40  C   UNL     1       8.223   8.459  -1.808  1.00  0.00     0.012 A 
ATOM     41  C   UNL     1       6.495   9.972  -2.607  1.00  0.00     0.148 A 
ATOM     42  C   UNL     1       8.491   9.317  -0.741  1.00  0.00     0.002 A 
ATOM     43  C   UNL     1       6.801  10.845  -1.570  1.00  0.00     0.091 A 
ATOM     44  F   UNL     1       5.518  10.238  -3.487  1.00  0.00    -0.205 F 
ATOM     45  C   UNL     1       7.786  10.512  -0.627  1.00  0.00     0.022 A 
BRANCH  43  46
ATOM     46  S   UNL     1       6.003  12.444  -1.392  1.00  0.00     0.127 S 
ATOM     47  O   UNL     1       5.091  12.196  -0.277  1.00  0.00    -0.237 OA
ATOM     48  O   UNL     1       7.132  13.320  -1.071  1.00  0.00    -0.237 OA
ATOM     49  O   UNL     1       5.371  12.720  -2.674  1.00  0.00    -0.744 OA
ENDBRANCH  43  46
ENDBRANCH  25  39
BRANCH  26  50
ATOM     50  C   UNL     1       4.493   2.458  -9.993  1.00  0.00     0.023 A 
ATOM     51  C   UNL     1       5.406   1.766 -10.810  1.00  0.00     0.012 A 
ATOM     52  C   UNL     1       3.113   2.208 -10.133  1.00  0.00     0.148 A 
ATOM     53  C   UNL     1       4.952   0.849 -11.758  1.00  0.00     0.002 A 
ATOM     54  C   UNL     1       2.672   1.251 -11.037  1.00  0.00     0.091 A 
ATOM     55  F   UNL     1       2.264   2.881  -9.342  1.00  0.00    -0.205 F 
ATOM     56  C   UNL     1       3.589   0.581 -11.862  1.00  0.00     0.022 A 
BRANCH  54  57
ATOM     57  S   UNL     1       0.955   0.736 -11.140  1.00  0.00     0.127 S 
ATOM     58  O   UNL     1       0.596   1.164 -12.490  1.00  0.00    -0.237 OA
ATOM     59  O   UNL     1       1.068  -0.712 -10.961  1.00  0.00    -0.237 OA
ATOM     60  O   UNL     1       0.266   1.427 -10.059  1.00  0.00    -0.744 OA
ENDBRANCH  54  57
ENDBRANCH  26  50
BRANCH  38  61
ATOM     61  C   UNL     1       7.760   8.658  -9.919  1.00  0.00     0.023 A 
ATOM     62  C   UNL     1       6.886   9.427 -10.711  1.00  0.00     0.012 A 
ATOM     63  C   UNL     1       9.153   8.824 -10.061  1.00  0.00     0.148 A 
ATOM     64  C   UNL     1       7.391  10.340 -11.637  1.00  0.00     0.002 A 
ATOM     65  C   UNL     1       9.647   9.771 -10.947  1.00  0.00     0.091 A 
ATOM     66  F   UNL     1       9.964   8.066  -9.310  1.00  0.00    -0.205 F 
ATOM     67  C   UNL     1       8.768  10.523 -11.744  1.00  0.00     0.022 A 
BRANCH  65  68
ATOM     68  S   UNL     1      11.398  10.150 -11.077  1.00  0.00     0.127 S 
ATOM     69  O   UNL     1      11.704   9.687 -12.430  1.00  0.00    -0.237 OA
ATOM     70  O   UNL     1      11.411  11.604 -10.912  1.00  0.00    -0.237 OA
ATOM     71  O   UNL     1      12.054   9.411 -10.007  1.00  0.00    -0.744 OA
ENDBRANCH  65  68
ENDBRANCH  38  61
ENDBRANCH  12  13
ENDBRANCH   5   7
ENDBRANCH   2   3
ENDBRANCH   1   2
BRANCH   1  72
ATOM     72  C   UNL     1       4.558  -1.149   3.427  1.00  0.00     0.118 C 
BRANCH  72  73
ATOM     73  N   UNL     1       5.037  -2.524   3.374  1.00  0.00    -0.352 N 
ATOM     74  C   UNL     1       5.849  -3.210   4.237  1.00  0.00     0.251 C 
ATOM     75  H   UNL     1       4.727  -3.041   2.595  1.00  0.00     0.163 HD
ATOM     76  O   UNL     1       6.301  -4.306   3.909  1.00  0.00    -0.269 OA
BRANCH  74  77
ATOM     77  C   UNL     1       6.183  -2.654   5.563  1.00  0.00     0.041 A 
ATOM     78  C   UNL     1       7.492  -2.774   6.032  1.00  0.00     0.014 A 
ATOM     79  C   UNL     1       5.194  -2.083   6.373  1.00  0.00     0.039 A 
ATOM     80  C   UNL     1       7.816  -2.276   7.290  1.00  0.00     0.003 A 
ATOM     81  C   UNL     1       5.509  -1.558   7.630  1.00  0.00     0.039 A 
ATOM     82  C   UNL     1       6.833  -1.663   8.074  1.00  0.00     0.026 A 
BRANCH  81  83
ATOM     83  N   UNL     1       4.486  -0.943   8.374  1.00  0.00    -0.356 N 
ATOM     84  H   UNL     1       3.586  -1.040   7.987  1.00  0.00     0.167 HD
BRANCH  83  85
ATOM     85  C   UNL     1       4.528  -0.217   9.572  1.00  0.00     0.039 A 
ATOM     86  C   UNL     1       3.592  -0.521  10.571  1.00  0.00     0.033 A 
ATOM     87  C   UNL     1       5.523   0.730   9.847  1.00  0.00     0.033 A 
ATOM     88  C   UNL     1       3.666   0.075  11.831  1.00  0.00     0.088 A 
ATOM     89  C   UNL     1       5.604   1.344  11.100  1.00  0.00     0.088 A 
ATOM     90  C   UNL     1       4.683   0.999  12.095  1.00  0.00     0.269 A 
BRANCH  90  91
ATOM     91  N   UNL     1       4.798   1.587  13.434  1.00  0.00     0.062 N 
ATOM     92  O   UNL     1       3.965   1.246  14.287  1.00  0.00    -0.258 OA
ATOM     93  O   UNL     1       5.729   2.377  13.641  1.00  0.00    -0.258 OA
ENDBRANCH  90  91
ENDBRANCH  83  85
ENDBRANCH  81  83
ENDBRANCH  74  77
ENDBRANCH  72  73
ENDBRANCH   1  72
TORSDOF 16
