REMARK SMILES Cn1cncc1COc1c(F)cc(C(=O)NCCCNC(=O)c2ccc(-c3c4nc(c(-c5cccc(S(=O)(=O)[O-])c5F)c5ccc([nH]5)c(-c5cccc(S(=O)(=O)[O-])c5F)c5nc(c(-c6cccc(S(=O)(=O)[O-])c6F)c6ccc3[nH]6)C=C5)C=C4)cc2)cc1F
REMARK SMILES IDX 18 1 17 2 16 3 14 4 15 5 13 7 9 8 10 9 87 10 11 11 12 12
REMARK SMILES IDX 86 13 88 14 8 15 7 16 6 17 1 18 2 19 3 20 4 21 5 22 19 23
REMARK SMILES IDX 20 24 21 25 22 27 23 28 24 29 85 30 25 31 84 32 26 33 27 34
REMARK SMILES IDX 28 35 78 36 29 37 83 38 77 39 79 40 30 41 82 42 76 43 75 44
REMARK SMILES IDX 31 46 63 47 43 48 62 49 44 50 47 51 61 52 80 53 45 54 46 55
REMARK SMILES IDX 60 57 81 58 48 59 32 60 33 61 41 62 34 63 36 64 42 65 35 66
REMARK SMILES IDX 37 67 38 68 39 69 40 70 64 71 65 72 73 73 66 74 68 75 74 76
REMARK SMILES IDX 67 77 69 78 70 79 71 80 72 81 49 82 50 83 58 84 51 85 53 86
REMARK SMILES IDX 59 87 52 88 54 89 55 90 56 91 57 92
REMARK H PARENT 16 6 20 26 79 45 47 56
REMARK Flexibility Score: inf
ROOT
ATOM      1  C   UNL     1      -0.309   1.900   6.022  1.00  0.00     0.042 C 
ENDROOT
BRANCH   1   2
ATOM      2  C   UNL     1       1.011   1.129   6.002  1.00  0.00     0.118 C 
BRANCH   2   3
ATOM      3  N   UNL     1       0.956  -0.097   6.783  1.00  0.00    -0.352 N 
ATOM      4  C   UNL     1       0.839  -1.413   6.404  1.00  0.00     0.251 C 
ATOM      5  O   UNL     1       1.027  -2.283   7.253  1.00  0.00    -0.269 OA
ATOM      6  H   UNL     1       1.012   0.041   7.756  1.00  0.00     0.163 HD
BRANCH   4   7
ATOM      7  C   UNL     1       0.527  -1.830   5.011  1.00  0.00     0.045 A 
ATOM      8  C   UNL     1      -0.040  -2.723   2.395  1.00  0.00     0.191 A 
ATOM      9  C   UNL     1      -0.527  -1.509   2.862  1.00  0.00     0.168 A 
ATOM     10  C   UNL     1       0.670  -3.529   3.279  1.00  0.00     0.168 A 
ATOM     11  F   UNL     1      -1.304  -0.734   2.099  1.00  0.00    -0.203 F 
ATOM     12  C   UNL     1      -0.248  -1.063   4.146  1.00  0.00     0.057 A 
ATOM     13  C   UNL     1       0.957  -3.094   4.577  1.00  0.00     0.057 A 
ATOM     14  F   UNL     1       1.092  -4.742   2.895  1.00  0.00    -0.203 F 
BRANCH   8  15
ATOM     15  O   UNL     1      -0.358  -3.171   1.141  1.00  0.00    -0.481 OA
BRANCH  15  16
ATOM     16  C   UNL     1       0.521  -2.657   0.126  1.00  0.00     0.285 C 
BRANCH  16  17
ATOM     17  C   UNL     1       0.030  -1.331  -0.339  1.00  0.00     0.075 A 
ATOM     18  C   UNL     1       2.180  -0.028  -0.093  1.00  0.00     0.151 C 
ATOM     19  N   UNL     1       0.777  -0.176  -0.385  1.00  0.00    -0.335 N 
ATOM     20  C   UNL     1      -0.048   0.843  -0.769  1.00  0.00     0.199 A 
ATOM     21  N   UNL     1      -1.252   0.405  -1.047  1.00  0.00    -0.245 NA
ATOM     22  C   UNL     1      -1.223  -0.935  -0.769  1.00  0.00     0.138 A 
ENDBRANCH  16  17
ENDBRANCH  15  16
ENDBRANCH   8  15
ENDBRANCH   4   7
ENDBRANCH   2   3
ENDBRANCH   1   2
BRANCH   1  23
ATOM     23  C   UNL     1      -0.544   2.712   7.289  1.00  0.00     0.118 C 
BRANCH  23  24
ATOM     24  N   UNL     1       0.383   3.826   7.409  1.00  0.00    -0.352 N 
ATOM     25  C   UNL     1       0.139   5.173   7.519  1.00  0.00     0.251 C 
ATOM     26  H   UNL     1       1.335   3.576   7.410  1.00  0.00     0.163 HD
ATOM     27  O   UNL     1       1.075   5.958   7.390  1.00  0.00    -0.269 OA
BRANCH  25  28
ATOM     28  C   UNL     1      -1.226   5.685   7.786  1.00  0.00     0.039 A 
ATOM     29  C   UNL     1      -1.630   6.873   7.167  1.00  0.00     0.014 A 
ATOM     30  C   UNL     1      -2.087   5.040   8.676  1.00  0.00     0.014 A 
ATOM     31  C   UNL     1      -2.908   7.385   7.405  1.00  0.00     0.010 A 
ATOM     32  C   UNL     1      -3.388   5.507   8.852  1.00  0.00     0.010 A 
ATOM     33  C   UNL     1      -3.808   6.692   8.230  1.00  0.00    -0.014 A 
BRANCH  33  34
ATOM     34  C   UNL     1      -5.192   7.186   8.450  1.00  0.00     0.031 A 
ATOM     35  C   UNL     1      -5.652   7.575   9.830  1.00  0.00     0.074 A 
ATOM     36  C   UNL     1      -6.062   7.199   7.421  1.00  0.00     0.049 A 
ATOM     37  N   UNL     1      -6.835   7.970  10.225  1.00  0.00    -0.248 NA
ATOM     38  C   UNL     1      -4.661   7.481  10.915  1.00  0.00     0.031 C 
ATOM     39  C   UNL     1      -5.760   6.768   6.055  1.00  0.00     0.029 A 
ATOM     40  N   UNL     1      -7.385   7.561   7.370  1.00  0.00    -0.354 N 
ATOM     41  C   UNL     1      -6.744   8.132  11.602  1.00  0.00     0.074 A 
ATOM     42  C   UNL     1      -5.398   7.761  11.981  1.00  0.00     0.031 C 
ATOM     43  C   UNL     1      -6.863   6.892   5.301  1.00  0.00     0.029 A 
ATOM     44  C   UNL     1      -7.957   7.382   6.133  1.00  0.00     0.049 A 
ATOM     45  H   UNL     1      -7.877   7.916   8.146  1.00  0.00     0.167 HD
ATOM     46  C   UNL     1      -7.684   8.575  12.470  1.00  0.00     0.034 A 
ATOM     47  C   UNL     1      -9.223   7.580   5.716  1.00  0.00     0.034 A 
ATOM     48  C   UNL     1      -9.008   8.983  12.082  1.00  0.00     0.049 A 
ATOM     49  C   UNL     1     -10.237   8.116   6.689  1.00  0.00     0.074 A 
ATOM     50  C   UNL     1     -10.003   9.538  12.867  1.00  0.00     0.029 A 
ATOM     51  N   UNL     1      -9.526   8.873  10.800  1.00  0.00    -0.354 N 
ATOM     52  N   UNL     1     -10.085   8.418   7.956  1.00  0.00    -0.248 NA
ATOM     53  C   UNL     1     -11.587   8.373   6.168  1.00  0.00     0.031 C 
ATOM     54  C   UNL     1     -11.132   9.738  12.065  1.00  0.00     0.029 A 
ATOM     55  C   UNL     1     -10.830   9.337  10.774  1.00  0.00     0.049 A 
ATOM     56  H   UNL     1      -9.037   8.517  10.023  1.00  0.00     0.167 HD
ATOM     57  C   UNL     1     -11.307   8.932   8.374  1.00  0.00     0.074 A 
ATOM     58  C   UNL     1     -12.182   8.920   7.220  1.00  0.00     0.031 C 
ATOM     59  C   UNL     1     -11.675   9.363   9.606  1.00  0.00     0.034 A 
BRANCH  46  60
ATOM     60  C   UNL     1      -7.298   8.689  13.924  1.00  0.00     0.023 A 
ATOM     61  C   UNL     1      -6.385   9.686  14.326  1.00  0.00     0.012 A 
ATOM     62  C   UNL     1      -7.871   7.846  14.897  1.00  0.00     0.148 A 
ATOM     63  C   UNL     1      -6.016   9.816  15.664  1.00  0.00     0.002 A 
ATOM     64  C   UNL     1      -7.533   8.012  16.236  1.00  0.00     0.091 A 
ATOM     65  F   UNL     1      -8.721   6.891  14.496  1.00  0.00    -0.205 F 
ATOM     66  C   UNL     1      -6.596   8.986  16.619  1.00  0.00     0.022 A 
BRANCH  64  67
ATOM     67  S   UNL     1      -8.286   7.048  17.551  1.00  0.00     0.127 S 
ATOM     68  O   UNL     1      -7.184   6.170  17.941  1.00  0.00    -0.237 OA
ATOM     69  O   UNL     1      -8.621   8.078  18.536  1.00  0.00    -0.237 OA
ATOM     70  O   UNL     1      -9.436   6.384  16.954  1.00  0.00    -0.744 OA
ENDBRANCH  64  67
ENDBRANCH  46  60
BRANCH  47  71
ATOM     71  C   UNL     1      -9.581   7.332   4.292  1.00  0.00     0.023 A 
ATOM     72  C   UNL     1      -9.852   8.426   3.447  1.00  0.00     0.012 A 
ATOM     73  C   UNL     1      -9.613   6.028   3.760  1.00  0.00     0.148 A 
ATOM     74  C   UNL     1     -10.175   8.225   2.105  1.00  0.00     0.002 A 
ATOM     75  C   UNL     1      -9.882   5.838   2.410  1.00  0.00     0.091 A 
ATOM     76  F   UNL     1      -9.360   5.001   4.584  1.00  0.00    -0.205 F 
ATOM     77  C   UNL     1     -10.180   6.934   1.584  1.00  0.00     0.022 A 
BRANCH  75  78
ATOM     78  S   UNL     1      -9.784   4.227   1.624  1.00  0.00     0.127 S 
ATOM     79  O   UNL     1     -11.187   3.955   1.324  1.00  0.00    -0.237 OA
ATOM     80  O   UNL     1      -8.947   4.512   0.459  1.00  0.00    -0.237 OA
ATOM     81  O   UNL     1      -9.166   3.348   2.608  1.00  0.00    -0.744 OA
ENDBRANCH  75  78
ENDBRANCH  47  71
BRANCH  59  82
ATOM     82  C   UNL     1     -13.076   9.891   9.771  1.00  0.00     0.023 A 
ATOM     83  C   UNL     1     -14.168   9.001   9.755  1.00  0.00     0.012 A 
ATOM     84  C   UNL     1     -13.303  11.260  10.015  1.00  0.00     0.148 A 
ATOM     85  C   UNL     1     -15.467   9.470   9.947  1.00  0.00     0.002 A 
ATOM     86  C   UNL     1     -14.594  11.712  10.256  1.00  0.00     0.091 A 
ATOM     87  F   UNL     1     -12.253  12.094  10.008  1.00  0.00    -0.205 F 
ATOM     88  C   UNL     1     -15.679  10.822  10.209  1.00  0.00     0.022 A 
BRANCH  86  89
ATOM     89  S   UNL     1     -14.950  13.417  10.699  1.00  0.00     0.127 S 
ATOM     90  O   UNL     1     -15.585  13.915   9.480  1.00  0.00    -0.237 OA
ATOM     91  O   UNL     1     -15.856  13.259  11.838  1.00  0.00    -0.237 OA
ATOM     92  O   UNL     1     -13.667  14.022  11.028  1.00  0.00    -0.744 OA
ENDBRANCH  86  89
ENDBRANCH  59  82
ENDBRANCH  33  34
ENDBRANCH  25  28
ENDBRANCH  23  24
ENDBRANCH   1  23
TORSDOF 16
