REMARK SMILES COc1cc2c[nH]nc2cc1C(=O)NCCCNC(=O)c1ccc(-c2c3nc(c(-c4cccc(S(=O)(=O)[O-])c4F)c4ccc([nH]4)c(-c4cccc(S(=O)(=O)[O-])c4F)c4nc(c(-c5cccc(S(=O)(=O)[O-])c5F)c5ccc2[nH]5)C=C4)C=C3)cc1
REMARK SMILES IDX 17 1 16 2 15 3 14 4 12 5 13 6 11 8 3 9 4 10 5 11 10 12 6 13
REMARK SMILES IDX 9 14 7 15 8 16 2 18 1 19 18 20 19 21 20 23 21 24 22 25 83 26
REMARK SMILES IDX 23 27 82 28 24 29 25 30 26 31 76 32 27 33 81 34 75 35 77 36
REMARK SMILES IDX 28 37 80 38 74 39 73 40 29 42 61 43 41 44 60 45 42 46 45 47
REMARK SMILES IDX 59 48 78 49 43 50 44 51 58 53 79 54 46 55 30 56 31 57 39 58
REMARK SMILES IDX 32 59 34 60 40 61 33 62 35 63 36 64 37 65 38 66 62 67 63 68
REMARK SMILES IDX 71 69 64 70 66 71 72 72 65 73 67 74 68 75 69 76 70 77 47 78
REMARK SMILES IDX 48 79 56 80 49 81 51 82 57 83 50 84 52 85 53 86 54 87 55 88
REMARK H PARENT 14 7 7 17 18 22 77 41 45 52
REMARK Flexibility Score: inf
ROOT
ATOM      1  C   UNL     1       2.814   2.391   2.197  1.00  0.00     0.118 C 
ENDROOT
BRANCH   1   2
ATOM      2  C   UNL     1       2.030   1.195   2.719  1.00  0.00     0.042 C 
BRANCH   2   3
ATOM      3  C   UNL     1       1.686   0.145   1.679  1.00  0.00     0.118 C 
BRANCH   3   4
ATOM      4  N   UNL     1       2.830  -0.408   0.974  1.00  0.00    -0.352 N 
ATOM      5  C   UNL     1       2.993  -1.634   0.379  1.00  0.00     0.255 C 
ATOM      6  O   UNL     1       4.031  -1.842  -0.250  1.00  0.00    -0.269 OA
ATOM      7  H   UNL     1       3.610   0.190   0.914  1.00  0.00     0.163 HD
BRANCH   5   8
ATOM      8  C   UNL     1       2.005  -2.739   0.514  1.00  0.00     0.084 A 
ATOM      9  C   UNL     1       0.579  -2.576   0.391  1.00  0.00     0.132 A 
ATOM     10  C   UNL     1      -0.359  -3.600   0.660  1.00  0.00     0.059 A 
ATOM     11  C   UNL     1       0.276  -4.801   0.935  1.00  0.00     0.023 A 
ATOM     12  C   UNL     1       2.605  -4.005   0.764  1.00  0.00     0.048 A 
ATOM     13  C   UNL     1      -0.347  -5.980   1.228  1.00  0.00     0.114 A 
ATOM     14  C   UNL     1       1.692  -5.048   0.976  1.00  0.00     0.093 A 
ATOM     15  N   UNL     1       0.672  -6.871   1.401  1.00  0.00    -0.285 N 
ATOM     16  N   UNL     1       1.903  -6.348   1.241  1.00  0.00    -0.176 NA
ATOM     17  H   UNL     1       0.520  -7.817   1.625  1.00  0.00     0.189 HD
BRANCH   9  18
ATOM     18  O   UNL     1      -0.012  -1.377   0.058  1.00  0.00    -0.496 OA
ATOM     19  C   UNL     1       0.214  -1.020  -1.304  1.00  0.00     0.278 C 
ENDBRANCH   9  18
ENDBRANCH   5   8
ENDBRANCH   3   4
ENDBRANCH   2   3
ENDBRANCH   1   2
BRANCH   1  20
ATOM     20  N   UNL     1       2.136   3.154   1.154  1.00  0.00    -0.352 N 
ATOM     21  C   UNL     1       1.555   4.405   1.156  1.00  0.00     0.251 C 
ATOM     22  H   UNL     1       2.083   2.688   0.288  1.00  0.00     0.163 HD
ATOM     23  O   UNL     1       0.970   4.793   0.154  1.00  0.00    -0.269 OA
BRANCH  21  24
ATOM     24  C   UNL     1       1.591   5.261   2.366  1.00  0.00     0.039 A 
ATOM     25  C   UNL     1       0.454   6.002   2.707  1.00  0.00     0.014 A 
ATOM     26  C   UNL     1       2.722   5.338   3.173  1.00  0.00     0.014 A 
ATOM     27  C   UNL     1       0.422   6.721   3.907  1.00  0.00     0.010 A 
ATOM     28  C   UNL     1       2.643   5.937   4.425  1.00  0.00     0.010 A 
ATOM     29  C   UNL     1       1.495   6.644   4.809  1.00  0.00    -0.014 A 
BRANCH  29  30
ATOM     30  C   UNL     1       1.449   7.282   6.154  1.00  0.00     0.031 A 
ATOM     31  C   UNL     1       2.520   8.261   6.567  1.00  0.00     0.074 A 
ATOM     32  C   UNL     1       0.518   6.891   7.049  1.00  0.00     0.049 A 
ATOM     33  N   UNL     1       2.715   8.829   7.730  1.00  0.00    -0.248 NA
ATOM     34  C   UNL     1       3.532   8.614   5.557  1.00  0.00     0.031 C 
ATOM     35  C   UNL     1      -0.511   5.874   6.817  1.00  0.00     0.029 A 
ATOM     36  N   UNL     1       0.304   7.281   8.349  1.00  0.00    -0.354 N 
ATOM     37  C   UNL     1       3.897   9.551   7.607  1.00  0.00     0.074 A 
ATOM     38  C   UNL     1       4.398   9.317   6.271  1.00  0.00     0.031 C 
ATOM     39  C   UNL     1      -1.252   5.731   7.927  1.00  0.00     0.029 A 
ATOM     40  C   UNL     1      -0.735   6.619   8.963  1.00  0.00     0.049 A 
ATOM     41  H   UNL     1       0.845   7.969   8.800  1.00  0.00     0.167 HD
ATOM     42  C   UNL     1       4.495  10.368   8.507  1.00  0.00     0.034 A 
ATOM     43  C   UNL     1      -1.218   6.713  10.218  1.00  0.00     0.034 A 
ATOM     44  C   UNL     1       3.950  10.668   9.802  1.00  0.00     0.049 A 
ATOM     45  C   UNL     1      -0.593   7.700  11.167  1.00  0.00     0.074 A 
ATOM     46  C   UNL     1       4.409  11.575  10.739  1.00  0.00     0.029 A 
ATOM     47  N   UNL     1       2.820  10.072  10.340  1.00  0.00    -0.354 N 
ATOM     48  N   UNL     1       0.424   8.504  10.969  1.00  0.00    -0.248 NA
ATOM     49  C   UNL     1      -1.204   7.822  12.498  1.00  0.00     0.031 C 
ATOM     50  C   UNL     1       3.563  11.519  11.851  1.00  0.00     0.029 A 
ATOM     51  C   UNL     1       2.567  10.590  11.598  1.00  0.00     0.049 A 
ATOM     52  H   UNL     1       2.278   9.383   9.893  1.00  0.00     0.167 HD
ATOM     53  C   UNL     1       0.552   9.250  12.135  1.00  0.00     0.074 A 
ATOM     54  C   UNL     1      -0.505   8.818  13.026  1.00  0.00     0.031 C 
ATOM     55  C   UNL     1       1.474  10.194  12.448  1.00  0.00     0.034 A 
BRANCH  42  56
ATOM     56  C   UNL     1       5.769  11.057   8.091  1.00  0.00     0.023 A 
ATOM     57  C   UNL     1       5.721  12.082   7.123  1.00  0.00     0.012 A 
ATOM     58  C   UNL     1       7.002  10.732   8.690  1.00  0.00     0.148 A 
ATOM     59  C   UNL     1       6.883  12.743   6.728  1.00  0.00     0.002 A 
ATOM     60  C   UNL     1       8.149  11.428   8.324  1.00  0.00     0.091 A 
ATOM     61  F   UNL     1       7.034   9.742   9.593  1.00  0.00    -0.205 F 
ATOM     62  C   UNL     1       8.093  12.424   7.335  1.00  0.00     0.022 A 
BRANCH  60  63
ATOM     63  S   UNL     1       9.743  11.150   9.105  1.00  0.00     0.127 S 
ATOM     64  O   UNL     1      10.481  10.476   8.037  1.00  0.00    -0.237 OA
ATOM     65  O   UNL     1      10.190  12.514   9.387  1.00  0.00    -0.237 OA
ATOM     66  O   UNL     1       9.475  10.343  10.287  1.00  0.00    -0.744 OA
ENDBRANCH  60  63
ENDBRANCH  42  56
BRANCH  43  67
ATOM     67  C   UNL     1      -2.409   5.911  10.621  1.00  0.00     0.023 A 
ATOM     68  C   UNL     1      -3.641   6.566  10.822  1.00  0.00     0.012 A 
ATOM     69  C   UNL     1      -2.342   4.513  10.775  1.00  0.00     0.148 A 
ATOM     70  C   UNL     1      -4.776   5.848  11.201  1.00  0.00     0.002 A 
ATOM     71  C   UNL     1      -3.490   3.797  11.100  1.00  0.00     0.091 A 
ATOM     72  F   UNL     1      -1.160   3.909  10.592  1.00  0.00    -0.205 F 
ATOM     73  C   UNL     1      -4.703   4.465  11.330  1.00  0.00     0.022 A 
BRANCH  71  74
ATOM     74  S   UNL     1      -3.520   2.002  11.157  1.00  0.00     0.127 S 
ATOM     75  O   UNL     1      -3.603   1.749  12.593  1.00  0.00    -0.237 OA
ATOM     76  O   UNL     1      -4.737   1.694  10.405  1.00  0.00    -0.237 OA
ATOM     77  O   UNL     1      -2.290   1.570  10.506  1.00  0.00    -0.744 OA
ENDBRANCH  71  74
ENDBRANCH  43  67
BRANCH  55  78
ATOM     78  C   UNL     1       1.369  10.856  13.795  1.00  0.00     0.023 A 
ATOM     79  C   UNL     1       1.734  10.143  14.954  1.00  0.00     0.012 A 
ATOM     80  C   UNL     1       0.990  12.209  13.904  1.00  0.00     0.148 A 
ATOM     81  C   UNL     1       1.697  10.758  16.204  1.00  0.00     0.002 A 
ATOM     82  C   UNL     1       1.002  12.829  15.147  1.00  0.00     0.091 A 
ATOM     83  F   UNL     1       0.628  12.863  12.791  1.00  0.00    -0.205 F 
ATOM     84  C   UNL     1       1.344  12.102  16.299  1.00  0.00     0.022 A 
BRANCH  82  85
ATOM     85  S   UNL     1       0.656  14.580  15.350  1.00  0.00     0.127 S 
ATOM     86  O   UNL     1      -0.682  14.554  15.938  1.00  0.00    -0.237 OA
ATOM     87  O   UNL     1       1.717  15.003  16.265  1.00  0.00    -0.237 OA
ATOM     88  O   UNL     1       0.744  15.161  14.017  1.00  0.00    -0.744 OA
ENDBRANCH  82  85
ENDBRANCH  55  78
ENDBRANCH  29  30
ENDBRANCH  21  24
ENDBRANCH   1  20
TORSDOF 14
