REMARK SMILES Cc1nn(C)c(=O)c(C(=O)N2CCCC[C@H]2C(=O)NCCCNC(=O)c2ccc(-c3c4nc(c(-c5cccc(S(=O)(=O)[O-])c5F)c5ccc([nH]5)c(-c5cccc(S(=O)(=O)[O-])c5F)c5nc(c(-c6cccc(S(=O)(=O)[O-])c6F)c6ccc3[nH]6)C=C5)C=C4)cc2)c1C
REMARK SMILES IDX 21 1 20 2 19 3 17 4 18 5 16 7 11 8 12 9 13 10 15 11 14 12
REMARK SMILES IDX 9 13 10 14 8 15 1 16 2 17 3 18 89 19 4 20 90 21 5 22 6 23
REMARK SMILES IDX 7 24 22 25 23 26 24 27 25 29 26 30 27 31 88 32 28 33 87 34
REMARK SMILES IDX 29 35 30 36 31 37 81 38 32 39 86 40 80 41 82 42 33 43 85 44
REMARK SMILES IDX 79 45 78 46 34 48 66 49 46 50 65 51 47 52 50 53 64 54 83 55
REMARK SMILES IDX 48 56 49 57 63 59 84 60 51 61 35 62 36 63 44 64 37 65 39 66
REMARK SMILES IDX 45 67 38 68 40 69 41 70 42 71 43 72 67 73 68 74 76 75 69 76
REMARK SMILES IDX 71 77 77 78 70 79 72 80 73 81 74 82 75 83 52 84 53 85 61 86
REMARK SMILES IDX 54 87 56 88 62 89 55 90 57 91 58 92 59 93 60 94
REMARK H PARENT 19 6 23 28 82 47 50 58
REMARK Flexibility Score: inf
ROOT
ATOM      1  C   UNL     1      -1.947  -0.275  -1.132  1.00  0.00     0.042 C 
ENDROOT
BRANCH   1   2
ATOM      2  C   UNL     1      -2.481   0.914  -1.921  1.00  0.00     0.117 C 
BRANCH   2   3
ATOM      3  N   UNL     1      -1.582   2.060  -2.025  1.00  0.00    -0.354 N 
ATOM      4  C   UNL     1      -0.915   2.664  -3.048  1.00  0.00     0.242 C 
ATOM      5  O   UNL     1      -0.504   3.806  -2.796  1.00  0.00    -0.273 OA
ATOM      6  H   UNL     1      -1.421   2.495  -1.157  1.00  0.00     0.163 HD
BRANCH   4   7
ATOM      7  C   UNL     1      -0.467   1.970  -4.364  1.00  0.00     0.174 C 
ATOM      8  N   UNL     1      -1.137   0.766  -4.790  1.00  0.00    -0.326 N 
ATOM      9  C   UNL     1      -2.436   1.012  -5.469  1.00  0.00     0.120 C 
ATOM     10  C   UNL     1      -2.403   2.086  -6.557  1.00  0.00     0.022 C 
ATOM     11  C   UNL     1      -0.330   2.974  -5.527  1.00  0.00     0.035 C 
ATOM     12  C   UNL     1      -1.686   3.347  -6.099  1.00  0.00     0.004 C 
BRANCH   8  13
ATOM     13  C   UNL     1      -0.730  -0.553  -4.574  1.00  0.00     0.260 C 
ATOM     14  O   UNL     1      -1.457  -1.412  -5.093  1.00  0.00    -0.269 OA
BRANCH  13  15
ATOM     15  C   UNL     1       0.372  -1.076  -3.595  1.00  0.00     0.111 A 
ATOM     16  C   UNL     1       2.207  -0.649  -0.301  1.00  0.00     0.069 C 
ATOM     17  C   UNL     1       1.633  -1.336  -1.532  1.00  0.00     0.062 A 
ATOM     18  N   UNL     1       1.380  -2.587  -1.377  1.00  0.00    -0.175 NA
ATOM     19  C   UNL     1       1.305  -0.521  -2.771  1.00  0.00    -0.010 A 
ATOM     20  N   UNL     1       0.851  -3.243  -2.431  1.00  0.00    -0.232 N 
ATOM     21  C   UNL     1       1.976   0.816  -2.743  1.00  0.00     0.047 C 
ATOM     22  C   UNL     1       0.836  -4.694  -2.301  1.00  0.00     0.178 C 
ATOM     23  C   UNL     1       0.455  -2.616  -3.599  1.00  0.00     0.279 A 
ATOM     24  O   UNL     1       0.225  -3.256  -4.625  1.00  0.00    -0.267 OA
ENDBRANCH  13  15
ENDBRANCH   8  13
ENDBRANCH   4   7
ENDBRANCH   2   3
ENDBRANCH   1   2
BRANCH   1  25
ATOM     25  C   UNL     1      -1.452   0.024   0.274  1.00  0.00     0.118 C 
BRANCH  25  26
ATOM     26  N   UNL     1      -2.544   0.035   1.225  1.00  0.00    -0.352 N 
ATOM     27  C   UNL     1      -2.820  -0.859   2.231  1.00  0.00     0.251 C 
ATOM     28  H   UNL     1      -3.175   0.786   1.138  1.00  0.00     0.163 HD
ATOM     29  O   UNL     1      -3.953  -0.872   2.710  1.00  0.00    -0.269 OA
BRANCH  27  30
ATOM     30  C   UNL     1      -1.785  -1.784   2.762  1.00  0.00     0.039 A 
ATOM     31  C   UNL     1      -2.185  -3.059   3.181  1.00  0.00     0.014 A 
ATOM     32  C   UNL     1      -0.464  -1.375   2.976  1.00  0.00     0.014 A 
ATOM     33  C   UNL     1      -1.277  -3.908   3.823  1.00  0.00     0.010 A 
ATOM     34  C   UNL     1       0.457  -2.245   3.570  1.00  0.00     0.010 A 
ATOM     35  C   UNL     1       0.050  -3.504   4.037  1.00  0.00    -0.014 A 
BRANCH  35  36
ATOM     36  C   UNL     1       0.989  -4.358   4.815  1.00  0.00     0.031 A 
ATOM     37  C   UNL     1       1.453  -3.920   6.182  1.00  0.00     0.074 A 
ATOM     38  C   UNL     1       1.438  -5.519   4.302  1.00  0.00     0.049 A 
ATOM     39  N   UNL     1       2.269  -4.523   7.010  1.00  0.00    -0.248 NA
ATOM     40  C   UNL     1       0.943  -2.632   6.680  1.00  0.00     0.031 C 
ATOM     41  C   UNL     1       1.096  -6.045   2.981  1.00  0.00     0.029 A 
ATOM     42  N   UNL     1       2.289  -6.461   4.827  1.00  0.00    -0.354 N 
ATOM     43  C   UNL     1       2.385  -3.683   8.112  1.00  0.00     0.074 A 
ATOM     44  C   UNL     1       1.584  -2.511   7.834  1.00  0.00     0.031 C 
ATOM     45  C   UNL     1       1.724  -7.218   2.800  1.00  0.00     0.029 A 
ATOM     46  C   UNL     1       2.535  -7.516   3.979  1.00  0.00     0.049 A 
ATOM     47  H   UNL     1       2.686  -6.388   5.725  1.00  0.00     0.167 HD
ATOM     48  C   UNL     1       3.068  -3.880   9.265  1.00  0.00     0.034 A 
ATOM     49  C   UNL     1       3.325  -8.600   4.131  1.00  0.00     0.034 A 
ATOM     50  C   UNL     1       3.833  -5.062   9.564  1.00  0.00     0.049 A 
ATOM     51  C   UNL     1       4.075  -8.795   5.423  1.00  0.00     0.074 A 
ATOM     52  C   UNL     1       4.508  -5.373  10.731  1.00  0.00     0.029 A 
ATOM     53  N   UNL     1       4.027  -6.124   8.696  1.00  0.00    -0.354 N 
ATOM     54  N   UNL     1       4.070  -8.051   6.502  1.00  0.00    -0.248 NA
ATOM     55  C   UNL     1       4.918  -9.996   5.529  1.00  0.00     0.031 C 
ATOM     56  C   UNL     1       5.129  -6.615  10.561  1.00  0.00     0.029 A 
ATOM     57  C   UNL     1       4.821  -7.087   9.296  1.00  0.00     0.049 A 
ATOM     58  H   UNL     1       3.654  -6.186   7.786  1.00  0.00     0.167 HD
ATOM     59  C   UNL     1       4.885  -8.703   7.421  1.00  0.00     0.074 A 
ATOM     60  C   UNL     1       5.344  -9.920   6.783  1.00  0.00     0.031 C 
ATOM     61  C   UNL     1       5.240  -8.318   8.673  1.00  0.00     0.034 A 
BRANCH  48  62
ATOM     62  C   UNL     1       2.973  -2.819  10.332  1.00  0.00     0.023 A 
ATOM     63  C   UNL     1       1.776  -2.683  11.064  1.00  0.00     0.012 A 
ATOM     64  C   UNL     1       4.086  -2.026  10.675  1.00  0.00     0.148 A 
ATOM     65  C   UNL     1       1.679  -1.760  12.104  1.00  0.00     0.002 A 
ATOM     66  C   UNL     1       3.996  -1.139  11.741  1.00  0.00     0.091 A 
ATOM     67  F   UNL     1       5.210  -2.157   9.955  1.00  0.00    -0.205 F 
ATOM     68  C   UNL     1       2.791  -0.998  12.450  1.00  0.00     0.022 A 
BRANCH  66  69
ATOM     69  S   UNL     1       5.393  -0.168  12.321  1.00  0.00     0.127 S 
ATOM     70  O   UNL     1       4.984   1.186  11.951  1.00  0.00    -0.237 OA
ATOM     71  O   UNL     1       5.379  -0.438  13.759  1.00  0.00    -0.237 OA
ATOM     72  O   UNL     1       6.559  -0.681  11.616  1.00  0.00    -0.744 OA
ENDBRANCH  66  69
ENDBRANCH  48  62
BRANCH  49  73
ATOM     73  C   UNL     1       3.389  -9.622   3.048  1.00  0.00     0.023 A 
ATOM     74  C   UNL     1       2.810 -10.888   3.258  1.00  0.00     0.012 A 
ATOM     75  C   UNL     1       3.976  -9.335   1.800  1.00  0.00     0.148 A 
ATOM     76  C   UNL     1       2.830 -11.857   2.254  1.00  0.00     0.002 A 
ATOM     77  C   UNL     1       3.940 -10.282   0.784  1.00  0.00     0.091 A 
ATOM     78  F   UNL     1       4.541  -8.131   1.626  1.00  0.00    -0.205 F 
ATOM     79  C   UNL     1       3.382 -11.550   1.013  1.00  0.00     0.022 A 
BRANCH  77  80
ATOM     80  S   UNL     1       4.497  -9.927  -0.887  1.00  0.00     0.127 S 
ATOM     81  O   UNL     1       5.690 -10.762  -0.989  1.00  0.00    -0.237 OA
ATOM     82  O   UNL     1       3.357 -10.376  -1.685  1.00  0.00    -0.237 OA
ATOM     83  O   UNL     1       4.728  -8.488  -0.926  1.00  0.00    -0.744 OA
ENDBRANCH  77  80
ENDBRANCH  49  73
BRANCH  61  84
ATOM     84  C   UNL     1       6.172  -9.212   9.452  1.00  0.00     0.023 A 
ATOM     85  C   UNL     1       7.529  -9.289   9.080  1.00  0.00     0.012 A 
ATOM     86  C   UNL     1       5.733  -9.896  10.603  1.00  0.00     0.148 A 
ATOM     87  C   UNL     1       8.428 -10.054   9.823  1.00  0.00     0.002 A 
ATOM     88  C   UNL     1       6.645 -10.617  11.367  1.00  0.00     0.091 A 
ATOM     89  F   UNL     1       4.435  -9.826  10.934  1.00  0.00    -0.205 F 
ATOM     90  C   UNL     1       7.989 -10.706  10.973  1.00  0.00     0.022 A 
BRANCH  88  91
ATOM     91  S   UNL     1       6.194 -11.405  12.919  1.00  0.00     0.127 S 
ATOM     92  O   UNL     1       6.185 -12.818  12.544  1.00  0.00    -0.237 OA
ATOM     93  O   UNL     1       7.296 -11.015  13.799  1.00  0.00    -0.237 OA
ATOM     94  O   UNL     1       4.900 -10.847  13.289  1.00  0.00    -0.744 OA
ENDBRANCH  88  91
ENDBRANCH  61  84
ENDBRANCH  35  36
ENDBRANCH  27  30
ENDBRANCH  25  26
ENDBRANCH   1  25
TORSDOF 15
