REMARK SMILES O=C(NCCCNC(=O)[C@@H]1CSCN1C(=O)CN1C(=O)CNC1=O)c1ccc(-c2c3nc(c(-c4cccc(S(=O)(=O)[O-])c4F)c4ccc([nH]4)c(-c4cccc(S(=O)(=O)[O-])c4F)c4nc(c(-c5cccc(S(=O)(=O)[O-])c5F)c5ccc2[nH]5)C=C4)C=C3)cc1
REMARK SMILES IDX 5 1 4 2 3 3 1 4 2 5 25 7 26 8 87 9 27 10 86 11 28 12 29 13
REMARK SMILES IDX 30 14 80 15 31 16 85 17 79 18 81 19 32 20 84 21 78 22 77 23
REMARK SMILES IDX 33 25 65 26 45 27 64 28 46 29 49 30 63 31 82 32 47 33 48 34
REMARK SMILES IDX 62 36 83 37 50 38 34 39 35 40 43 41 36 42 38 43 44 44 37 45
REMARK SMILES IDX 39 46 40 47 41 48 42 49 66 50 67 51 75 52 68 53 70 54 76 55
REMARK SMILES IDX 69 56 71 57 72 58 73 59 74 60 51 61 52 62 60 63 53 64 55 65
REMARK SMILES IDX 61 66 54 67 56 68 57 69 58 70 59 71 6 72 7 73 8 74 9 76
REMARK SMILES IDX 10 77 11 78 14 79 12 80 13 81 15 82 16 83 17 84 18 85 19 86
REMARK SMILES IDX 23 87 20 88 21 89 22 90 24 91
REMARK H PARENT 3 6 81 24 49 35 7 75 22 92
REMARK Flexibility Score: inf
ROOT
ATOM      1  C   UNL     1       9.718   0.391   6.680  1.00  0.00     0.042 C 
ENDROOT
BRANCH   1   2
ATOM      2  C   UNL     1      10.337   0.384   8.077  1.00  0.00     0.118 C 
BRANCH   2   3
ATOM      3  N   UNL     1      10.591  -0.960   8.567  1.00  0.00    -0.352 N 
ATOM      4  O   UNL     1      11.814  -2.767   9.100  1.00  0.00    -0.269 OA
ATOM      5  C   UNL     1      11.782  -1.555   8.907  1.00  0.00     0.251 C 
ATOM      6  H   UNL     1       9.793  -1.528   8.669  1.00  0.00     0.163 HD
BRANCH   5   7
ATOM      7  C   UNL     1      13.018  -0.746   9.019  1.00  0.00     0.039 A 
ATOM      8  C   UNL     1      13.009   0.495   9.662  1.00  0.00     0.014 A 
ATOM      9  C   UNL     1      14.213  -1.254   8.502  1.00  0.00     0.014 A 
ATOM     10  C   UNL     1      14.157   1.281   9.670  1.00  0.00     0.010 A 
ATOM     11  C   UNL     1      15.386  -0.497   8.585  1.00  0.00     0.010 A 
ATOM     12  C   UNL     1      15.363   0.789   9.145  1.00  0.00    -0.014 A 
BRANCH  12  13
ATOM     13  C   UNL     1      16.601   1.602   9.267  1.00  0.00     0.031 A 
ATOM     14  C   UNL     1      17.328   2.112   8.053  1.00  0.00     0.074 A 
ATOM     15  C   UNL     1      17.075   1.875  10.500  1.00  0.00     0.049 A 
ATOM     16  N   UNL     1      18.405   2.852   7.992  1.00  0.00    -0.248 NA
ATOM     17  C   UNL     1      16.783   1.740   6.737  1.00  0.00     0.031 C 
ATOM     18  C   UNL     1      16.484   1.394  11.752  1.00  0.00     0.029 A 
ATOM     19  N   UNL     1      18.156   2.614  10.907  1.00  0.00    -0.354 N 
ATOM     20  C   UNL     1      18.689   3.007   6.640  1.00  0.00     0.074 A 
ATOM     21  C   UNL     1      17.675   2.274   5.912  1.00  0.00     0.031 C 
ATOM     22  C   UNL     1      17.193   1.869  12.785  1.00  0.00     0.029 A 
ATOM     23  C   UNL     1      18.317   2.645  12.272  1.00  0.00     0.049 A 
ATOM     24  H   UNL     1      18.759   3.077  10.282  1.00  0.00     0.167 HD
ATOM     25  C   UNL     1      19.693   3.708   6.059  1.00  0.00     0.034 A 
ATOM     26  C   UNL     1      19.269   3.219  13.031  1.00  0.00     0.034 A 
ATOM     27  C   UNL     1      20.682   4.460   6.788  1.00  0.00     0.049 A 
ATOM     28  C   UNL     1      20.359   4.004  12.359  1.00  0.00     0.074 A 
ATOM     29  C   UNL     1      21.699   5.255   6.288  1.00  0.00     0.029 A 
ATOM     30  N   UNL     1      20.786   4.504   8.170  1.00  0.00    -0.354 N 
ATOM     31  N   UNL     1      20.530   4.248  11.083  1.00  0.00    -0.248 NA
ATOM     32  C   UNL     1      21.370   4.615  13.232  1.00  0.00     0.031 C 
ATOM     33  C   UNL     1      22.431   5.761   7.367  1.00  0.00     0.029 A 
ATOM     34  C   UNL     1      21.856   5.302   8.541  1.00  0.00     0.049 A 
ATOM     35  H   UNL     1      20.188   4.036   8.796  1.00  0.00     0.167 HD
ATOM     36  C   UNL     1      21.652   5.063  11.000  1.00  0.00     0.074 A 
ATOM     37  C   UNL     1      22.103   5.292  12.358  1.00  0.00     0.031 C 
ATOM     38  C   UNL     1      22.265   5.561   9.898  1.00  0.00     0.034 A 
BRANCH  25  39
ATOM     39  C   UNL     1      19.756   3.735   4.553  1.00  0.00     0.023 A 
ATOM     40  C   UNL     1      18.820   4.504   3.833  1.00  0.00     0.012 A 
ATOM     41  C   UNL     1      20.783   3.067   3.856  1.00  0.00     0.148 A 
ATOM     42  C   UNL     1      18.887   4.587   2.442  1.00  0.00     0.002 A 
ATOM     43  C   UNL     1      20.867   3.187   2.473  1.00  0.00     0.091 A 
ATOM     44  F   UNL     1      21.653   2.326   4.556  1.00  0.00    -0.205 F 
ATOM     45  C   UNL     1      19.915   3.938   1.764  1.00  0.00     0.022 A 
BRANCH  43  46
ATOM     46  S   UNL     1      22.198   2.450   1.516  1.00  0.00     0.127 S 
ATOM     47  O   UNL     1      21.502   1.359   0.836  1.00  0.00    -0.237 OA
ATOM     48  O   UNL     1      22.598   3.554   0.642  1.00  0.00    -0.237 OA
ATOM     49  O   UNL     1      23.209   2.044   2.482  1.00  0.00    -0.744 OA
ENDBRANCH  43  46
ENDBRANCH  25  39
BRANCH  26  50
ATOM     50  C   UNL     1      19.199   3.108  14.515  1.00  0.00     0.023 A 
ATOM     51  C   UNL     1      18.900   4.250  15.282  1.00  0.00     0.012 A 
ATOM     52  C   UNL     1      19.377   1.871  15.164  1.00  0.00     0.148 A 
ATOM     53  C   UNL     1      18.803   4.167  16.671  1.00  0.00     0.002 A 
ATOM     54  C   UNL     1      19.221   1.784  16.542  1.00  0.00     0.091 A 
ATOM     55  F   UNL     1      19.677   0.799  14.417  1.00  0.00    -0.205 F 
ATOM     56  C   UNL     1      18.951   2.933  17.299  1.00  0.00     0.022 A 
BRANCH  54  57
ATOM     57  S   UNL     1      19.252   0.212  17.411  1.00  0.00     0.127 S 
ATOM     58  O   UNL     1      20.542   0.274  18.093  1.00  0.00    -0.237 OA
ATOM     59  O   UNL     1      18.085   0.327  18.287  1.00  0.00    -0.237 OA
ATOM     60  O   UNL     1      19.126  -0.807  16.378  1.00  0.00    -0.744 OA
ENDBRANCH  54  57
ENDBRANCH  26  50
BRANCH  38  61
ATOM     61  C   UNL     1      23.477   6.428  10.112  1.00  0.00     0.023 A 
ATOM     62  C   UNL     1      24.693   5.843  10.518  1.00  0.00     0.012 A 
ATOM     63  C   UNL     1      23.428   7.812   9.851  1.00  0.00     0.148 A 
ATOM     64  C   UNL     1      25.832   6.626  10.693  1.00  0.00     0.002 A 
ATOM     65  C   UNL     1      24.579   8.578   9.982  1.00  0.00     0.091 A 
ATOM     66  F   UNL     1      22.256   8.353   9.487  1.00  0.00    -0.205 F 
ATOM     67  C   UNL     1      25.779   7.990  10.414  1.00  0.00     0.022 A 
BRANCH  65  68
ATOM     68  S   UNL     1      24.625  10.323   9.556  1.00  0.00     0.127 S 
ATOM     69  O   UNL     1      24.675  10.950  10.876  1.00  0.00    -0.237 OA
ATOM     70  O   UNL     1      25.866  10.423   8.786  1.00  0.00    -0.237 OA
ATOM     71  O   UNL     1      23.416  10.579   8.786  1.00  0.00    -0.744 OA
ENDBRANCH  65  68
ENDBRANCH  38  61
ENDBRANCH  12  13
ENDBRANCH   5   7
ENDBRANCH   2   3
ENDBRANCH   1   2
BRANCH   1  72
ATOM     72  C   UNL     1       8.292  -0.161   6.623  1.00  0.00     0.117 C 
BRANCH  72  73
ATOM     73  N   UNL     1       7.412   0.597   7.493  1.00  0.00    -0.354 N 
ATOM     74  C   UNL     1       6.602   1.660   7.228  1.00  0.00     0.243 C 
ATOM     75  H   UNL     1       7.399   0.294   8.429  1.00  0.00     0.163 HD
ATOM     76  O   UNL     1       6.307   2.380   8.186  1.00  0.00    -0.273 OA
BRANCH  74  77
ATOM     77  C   UNL     1       6.065   1.925   5.801  1.00  0.00     0.185 C 
ATOM     78  C   UNL     1       7.179   2.335   4.840  1.00  0.00     0.106 C 
ATOM     79  N   UNL     1       5.066   3.010   5.889  1.00  0.00    -0.319 N 
ATOM     80  S   UNL     1       6.700   3.907   4.093  1.00  0.00    -0.138 SA
ATOM     81  C   UNL     1       5.520   4.283   5.395  1.00  0.00     0.190 C 
BRANCH  79  82
ATOM     82  C   UNL     1       3.832   2.753   6.453  1.00  0.00     0.244 C 
ATOM     83  O   UNL     1       3.418   1.590   6.532  1.00  0.00    -0.273 OA
BRANCH  82  84
ATOM     84  C   UNL     1       2.897   3.913   6.833  1.00  0.00     0.230 C 
BRANCH  84  85
ATOM     85  N   UNL     1       3.531   4.995   7.559  1.00  0.00    -0.253 N 
ATOM     86  C   UNL     1       3.956   4.904   8.857  1.00  0.00     0.250 C 
ATOM     87  C   UNL     1       3.588   6.288   7.141  1.00  0.00     0.325 C 
ATOM     88  O   UNL     1       3.870   3.929   9.586  1.00  0.00    -0.272 OA
ATOM     89  C   UNL     1       4.542   6.247   9.265  1.00  0.00     0.218 C 
ATOM     90  N   UNL     1       4.194   7.040   8.119  1.00  0.00    -0.329 N 
ATOM     91  O   UNL     1       3.166   6.746   6.093  1.00  0.00    -0.248 OA
ATOM     92  H   UNL     1       4.369   8.005   8.043  1.00  0.00     0.165 HD
ENDBRANCH  84  85
ENDBRANCH  82  84
ENDBRANCH  79  82
ENDBRANCH  74  77
ENDBRANCH  72  73
ENDBRANCH   1  72
TORSDOF 16
