REMARK SMILES COc1ccc(C(=O)N2CC[C@@H](C(=O)NCCCNC(=O)c3ccc(-c4c5nc(c(-c6cccc(S(=O)(=O)[O-])c6F)c6ccc([nH]6)c(-c6cccc(S(=O)(=O)[O-])c6F)c6nc(c(-c7cccc(S(=O)(=O)[O-])c7F)c7ccc4[nH]7)C=C6)C=C5)cc3)[C@H]2C)cc1O
REMARK SMILES IDX 17 1 16 2 15 3 13 4 14 5 12 7 9 8 10 9 85 10 11 11 86 12
REMARK SMILES IDX 7 13 8 14 6 15 3 16 4 17 88 18 5 19 87 20 2 21 1 22 89 23
REMARK SMILES IDX 18 25 19 26 20 27 21 29 22 30 23 31 84 32 24 33 83 34 25 35
REMARK SMILES IDX 26 36 27 37 77 38 28 39 82 40 76 41 78 42 29 43 81 44 75 45
REMARK SMILES IDX 74 46 30 48 62 49 42 50 61 51 43 52 46 53 60 54 79 55 44 56
REMARK SMILES IDX 45 57 59 59 80 60 47 61 31 62 32 63 40 64 33 65 35 66 41 67
REMARK SMILES IDX 34 68 36 69 37 70 38 71 39 72 63 73 64 74 72 75 65 76 67 77
REMARK SMILES IDX 73 78 66 79 68 80 69 81 70 82 71 83 48 84 49 85 57 86 50 87
REMARK SMILES IDX 52 88 58 89 51 90 53 91 54 92 55 93 56 94
REMARK H PARENT 15 6 89 24 19 28 78 47 46 58
REMARK Flexibility Score: inf
ROOT
ATOM      1  C   UNL     1      -4.592  -2.988  -1.140  1.00  0.00     0.042 C 
ENDROOT
BRANCH   1   2
ATOM      2  C   UNL     1      -5.739  -2.388  -1.951  1.00  0.00     0.117 C 
BRANCH   2   3
ATOM      3  N   UNL     1      -6.978  -2.303  -1.192  1.00  0.00    -0.356 N 
ATOM      4  C   UNL     1      -7.791  -1.269  -0.868  1.00  0.00     0.225 C 
ATOM      5  O   UNL     1      -8.787  -1.548  -0.190  1.00  0.00    -0.275 OA
ATOM      6  H   UNL     1      -7.287  -3.171  -0.845  1.00  0.00     0.163 HD
BRANCH   4   7
ATOM      7  C   UNL     1      -7.570   0.170  -1.302  1.00  0.00     0.102 C 
ATOM      8  N   UNL     1      -5.691   1.522  -1.873  1.00  0.00    -0.335 N 
ATOM      9  C   UNL     1      -6.620   1.589  -2.981  1.00  0.00     0.121 C 
ATOM     10  C   UNL     1      -6.391   0.969  -0.702  1.00  0.00     0.094 C 
ATOM     11  C   UNL     1      -7.495   0.366  -2.820  1.00  0.00     0.037 C 
ATOM     12  C   UNL     1      -5.546   0.274   0.349  1.00  0.00     0.032 C 
BRANCH   8  13
ATOM     13  C   UNL     1      -4.750   2.547  -1.782  1.00  0.00     0.254 C 
ATOM     14  O   UNL     1      -4.967   3.676  -2.216  1.00  0.00    -0.269 OA
BRANCH  13  15
ATOM     15  C   UNL     1      -3.400   2.214  -1.255  1.00  0.00     0.043 A 
ATOM     16  C   UNL     1      -0.809   1.633  -0.306  1.00  0.00     0.160 A 
ATOM     17  C   UNL     1      -1.322   2.937  -0.262  1.00  0.00     0.051 A 
ATOM     18  C   UNL     1      -1.617   0.623  -0.828  1.00  0.00     0.158 A 
ATOM     19  C   UNL     1      -2.608   3.231  -0.722  1.00  0.00     0.018 A 
ATOM     20  C   UNL     1      -2.878   0.921  -1.352  1.00  0.00     0.064 A 
BRANCH  16  21
ATOM     21  O   UNL     1       0.457   1.561   0.186  1.00  0.00    -0.493 OA
ATOM     22  C   UNL     1       1.230   0.377   0.068  1.00  0.00     0.278 C 
ENDBRANCH  16  21
BRANCH  18  23
ATOM     23  O   UNL     1      -1.299  -0.705  -0.829  1.00  0.00    -0.504 OA
ATOM     24  H   UNL     1      -0.471  -0.989  -0.494  1.00  0.00     0.293 HD
ENDBRANCH  18  23
ENDBRANCH  13  15
ENDBRANCH   8  13
ENDBRANCH   4   7
ENDBRANCH   2   3
ENDBRANCH   1   2
BRANCH   1  25
ATOM     25  C   UNL     1      -4.823  -4.407  -0.643  1.00  0.00     0.118 C 
BRANCH  25  26
ATOM     26  N   UNL     1      -4.620  -5.408  -1.676  1.00  0.00    -0.352 N 
ATOM     27  C   UNL     1      -3.590  -6.302  -1.852  1.00  0.00     0.251 C 
ATOM     28  H   UNL     1      -5.330  -5.453  -2.357  1.00  0.00     0.163 HD
ATOM     29  O   UNL     1      -3.522  -6.932  -2.905  1.00  0.00    -0.269 OA
BRANCH  27  30
ATOM     30  C   UNL     1      -2.555  -6.503  -0.807  1.00  0.00     0.039 A 
ATOM     31  C   UNL     1      -1.226  -6.686  -1.202  1.00  0.00     0.014 A 
ATOM     32  C   UNL     1      -2.880  -6.561   0.551  1.00  0.00     0.014 A 
ATOM     33  C   UNL     1      -0.227  -6.872  -0.240  1.00  0.00     0.010 A 
ATOM     34  C   UNL     1      -1.873  -6.646   1.511  1.00  0.00     0.010 A 
ATOM     35  C   UNL     1      -0.536  -6.825   1.129  1.00  0.00    -0.014 A 
BRANCH  35  36
ATOM     36  C   UNL     1       0.517  -6.981   2.169  1.00  0.00     0.031 A 
ATOM     37  C   UNL     1       0.449  -8.115   3.161  1.00  0.00     0.074 A 
ATOM     38  C   UNL     1       1.492  -6.056   2.283  1.00  0.00     0.049 A 
ATOM     39  N   UNL     1       1.243  -8.380   4.167  1.00  0.00    -0.248 NA
ATOM     40  C   UNL     1      -0.676  -9.056   3.027  1.00  0.00     0.031 C 
ATOM     41  C   UNL     1       1.624  -4.860   1.448  1.00  0.00     0.029 A 
ATOM     42  N   UNL     1       2.539  -5.961   3.166  1.00  0.00    -0.354 N 
ATOM     43  C   UNL     1       0.690  -9.482   4.810  1.00  0.00     0.074 A 
ATOM     44  C   UNL     1      -0.525  -9.816   4.101  1.00  0.00     0.031 C 
ATOM     45  C   UNL     1       2.689  -4.153   1.859  1.00  0.00     0.029 A 
ATOM     46  C   UNL     1       3.301  -4.828   3.000  1.00  0.00     0.049 A 
ATOM     47  H   UNL     1       2.727  -6.641   3.853  1.00  0.00     0.167 HD
ATOM     48  C   UNL     1       1.162 -10.175   5.875  1.00  0.00     0.034 A 
ATOM     49  C   UNL     1       4.367  -4.377   3.691  1.00  0.00     0.034 A 
ATOM     50  C   UNL     1       2.402  -9.882   6.541  1.00  0.00     0.049 A 
ATOM     51  C   UNL     1       4.914  -5.200   4.824  1.00  0.00     0.074 A 
ATOM     52  C   UNL     1       3.026 -10.597   7.548  1.00  0.00     0.029 A 
ATOM     53  N   UNL     1       3.203  -8.783   6.276  1.00  0.00    -0.354 N 
ATOM     54  N   UNL     1       4.475  -6.340   5.301  1.00  0.00    -0.248 NA
ATOM     55  C   UNL     1       6.124  -4.697   5.490  1.00  0.00     0.031 C 
ATOM     56  C   UNL     1       4.193  -9.915   7.910  1.00  0.00     0.029 A 
ATOM     57  C   UNL     1       4.309  -8.790   7.109  1.00  0.00     0.049 A 
ATOM     58  H   UNL     1       3.014  -8.098   5.595  1.00  0.00     0.167 HD
ATOM     59  C   UNL     1       5.371  -6.705   6.299  1.00  0.00     0.074 A 
ATOM     60  C   UNL     1       6.390  -5.677   6.343  1.00  0.00     0.031 C 
ATOM     61  C   UNL     1       5.343  -7.788   7.114  1.00  0.00     0.034 A 
BRANCH  48  62
ATOM     62  C   UNL     1       0.358 -11.356   6.355  1.00  0.00     0.023 A 
ATOM     63  C   UNL     1       0.300 -12.527   5.571  1.00  0.00     0.012 A 
ATOM     64  C   UNL     1      -0.294 -11.329   7.604  1.00  0.00     0.148 A 
ATOM     65  C   UNL     1      -0.428 -13.636   6.001  1.00  0.00     0.002 A 
ATOM     66  C   UNL     1      -0.978 -12.456   8.047  1.00  0.00     0.091 A 
ATOM     67  F   UNL     1      -0.246 -10.202   8.327  1.00  0.00    -0.205 F 
ATOM     68  C   UNL     1      -1.057 -13.604   7.242  1.00  0.00     0.022 A 
BRANCH  66  69
ATOM     69  S   UNL     1      -1.751 -12.541   9.666  1.00  0.00     0.127 S 
ATOM     70  O   UNL     1      -3.168 -12.451   9.322  1.00  0.00    -0.237 OA
ATOM     71  O   UNL     1      -1.322 -13.856  10.145  1.00  0.00    -0.237 OA
ATOM     72  O   UNL     1      -1.216 -11.418  10.424  1.00  0.00    -0.744 OA
ENDBRANCH  66  69
ENDBRANCH  48  62
BRANCH  49  73
ATOM     73  C   UNL     1       5.022  -3.102   3.285  1.00  0.00     0.023 A 
ATOM     74  C   UNL     1       6.288  -3.132   2.671  1.00  0.00     0.012 A 
ATOM     75  C   UNL     1       4.375  -1.866   3.463  1.00  0.00     0.148 A 
ATOM     76  C   UNL     1       6.909  -1.951   2.264  1.00  0.00     0.002 A 
ATOM     77  C   UNL     1       4.972  -0.700   3.001  1.00  0.00     0.091 A 
ATOM     78  F   UNL     1       3.177  -1.854   4.065  1.00  0.00    -0.205 F 
ATOM     79  C   UNL     1       6.247  -0.736   2.416  1.00  0.00     0.022 A 
BRANCH  77  80
ATOM     80  S   UNL     1       4.098   0.868   3.009  1.00  0.00     0.127 S 
ATOM     81  O   UNL     1       4.654   1.520   4.189  1.00  0.00    -0.237 OA
ATOM     82  O   UNL     1       4.501   1.450   1.728  1.00  0.00    -0.237 OA
ATOM     83  O   UNL     1       2.686   0.506   3.073  1.00  0.00    -0.744 OA
ENDBRANCH  77  80
ENDBRANCH  49  73
BRANCH  61  84
ATOM     84  C   UNL     1       6.461  -7.942   8.112  1.00  0.00     0.023 A 
ATOM     85  C   UNL     1       6.515  -7.101   9.240  1.00  0.00     0.012 A 
ATOM     86  C   UNL     1       7.414  -8.971   7.969  1.00  0.00     0.148 A 
ATOM     87  C   UNL     1       7.519  -7.260  10.195  1.00  0.00     0.002 A 
ATOM     88  C   UNL     1       8.382  -9.154   8.950  1.00  0.00     0.091 A 
ATOM     89  F   UNL     1       7.358  -9.748   6.878  1.00  0.00    -0.205 F 
ATOM     90  C   UNL     1       8.443  -8.293  10.057  1.00  0.00     0.022 A 
BRANCH  88  91
ATOM     91  S   UNL     1       9.551 -10.517   8.902  1.00  0.00     0.127 S 
ATOM     92  O   UNL     1      10.790  -9.834   8.535  1.00  0.00    -0.237 OA
ATOM     93  O   UNL     1       9.511 -11.011  10.279  1.00  0.00    -0.237 OA
ATOM     94  O   UNL     1       9.035 -11.452   7.911  1.00  0.00    -0.744 OA
ENDBRANCH  88  91
ENDBRANCH  61  84
ENDBRANCH  35  36
ENDBRANCH  27  30
ENDBRANCH  25  26
ENDBRANCH   1  25
TORSDOF 17
