REMARK SMILES C[C@@](O)(CC1(C(=O)NCCCNC(=O)c2ccc(-c3c4nc(c(-c5cccc(S(=O)(=O)[O-])c5F)c5ccc([nH]5)c(-c5cccc(S(=O)(=O)[O-])c5F)c5nc(c(-c6cccc(S(=O)(=O)[O-])c6F)c6ccc3[nH]6)C=C5)C=C4)cc2)CC1)c1ccccc1
REMARK SMILES IDX 10 1 9 2 8 3 6 4 7 5 5 7 78 8 79 9 4 10 2 11 1 12 3 13 80 15
REMARK SMILES IDX 81 16 85 17 82 18 84 19 83 20 11 21 12 22 13 23 14 25 15 26
REMARK SMILES IDX 16 27 77 28 17 29 76 30 18 31 19 32 20 33 70 34 21 35 75 36
REMARK SMILES IDX 69 37 71 38 22 39 74 40 68 41 67 42 23 44 55 45 35 46 54 47
REMARK SMILES IDX 36 48 39 49 53 50 72 51 37 52 38 53 52 55 73 56 40 57 24 58
REMARK SMILES IDX 25 59 33 60 26 61 28 62 34 63 27 64 29 65 30 66 31 67 32 68
REMARK SMILES IDX 56 69 57 70 65 71 58 72 60 73 66 74 59 75 61 76 62 77 63 78
REMARK SMILES IDX 64 79 41 80 42 81 50 82 43 83 45 84 51 85 44 86 46 87 47 88
REMARK SMILES IDX 48 89 49 90
REMARK H PARENT 8 6 3 14 12 24 71 43 39 54
REMARK Flexibility Score: inf
ROOT
ATOM      1  C   UNL     1      -3.959  -1.899  -4.236  1.00  0.00     0.042 C 
ENDROOT
BRANCH   1   2
ATOM      2  C   UNL     1      -3.904  -0.776  -3.207  1.00  0.00     0.117 C 
BRANCH   2   3
ATOM      3  N   UNL     1      -3.909  -1.289  -1.848  1.00  0.00    -0.356 N 
ATOM      4  C   UNL     1      -2.985  -1.395  -0.843  1.00  0.00     0.226 C 
ATOM      5  O   UNL     1      -3.381  -1.926   0.192  1.00  0.00    -0.274 OA
ATOM      6  H   UNL     1      -4.789  -1.647  -1.586  1.00  0.00     0.163 HD
BRANCH   4   7
ATOM      7  C   UNL     1      -1.558  -0.856  -0.906  1.00  0.00     0.052 C 
ATOM      8  C   UNL     1      -1.392   0.526  -1.533  1.00  0.00     0.018 C 
ATOM      9  C   UNL     1      -0.843  -0.679  -2.238  1.00  0.00     0.018 C 
BRANCH   7  10
ATOM     10  C   UNL     1      -0.741  -1.107   0.390  1.00  0.00     0.056 C 
BRANCH  10  11
ATOM     11  C   UNL     1       0.802  -1.286   0.345  1.00  0.00     0.088 C 
ATOM     12  C   UNL     1       1.507   0.067   0.147  1.00  0.00     0.047 C 
BRANCH  11  13
ATOM     13  O   UNL     1       1.192  -1.672   1.687  1.00  0.00    -0.385 OA
ATOM     14  H   UNL     1       0.920  -0.983   2.313  1.00  0.00     0.211 HD
ENDBRANCH  11  13
BRANCH  11  15
ATOM     15  C   UNL     1       1.263  -2.417  -0.578  1.00  0.00    -0.017 A 
ATOM     16  C   UNL     1       0.671  -3.690  -0.475  1.00  0.00     0.007 A 
ATOM     17  C   UNL     1       2.255  -2.238  -1.559  1.00  0.00     0.007 A 
ATOM     18  C   UNL     1       1.007  -4.719  -1.358  1.00  0.00     0.000 A 
ATOM     19  C   UNL     1       2.582  -3.264  -2.450  1.00  0.00     0.000 A 
ATOM     20  C   UNL     1       1.951  -4.501  -2.355  1.00  0.00     0.000 A 
ENDBRANCH  11  15
ENDBRANCH  10  11
ENDBRANCH   7  10
ENDBRANCH   4   7
ENDBRANCH   2   3
ENDBRANCH   1   2
BRANCH   1  21
ATOM     21  C   UNL     1      -5.256  -2.700  -4.189  1.00  0.00     0.118 C 
BRANCH  21  22
ATOM     22  N   UNL     1      -6.432  -1.864  -4.408  1.00  0.00    -0.352 N 
ATOM     23  C   UNL     1      -7.325  -1.846  -5.449  1.00  0.00     0.251 C 
ATOM     24  H   UNL     1      -6.613  -1.209  -3.696  1.00  0.00     0.163 HD
ATOM     25  O   UNL     1      -8.102  -0.903  -5.566  1.00  0.00    -0.269 OA
BRANCH  23  26
ATOM     26  C   UNL     1      -7.348  -2.953  -6.426  1.00  0.00     0.039 A 
ATOM     27  C   UNL     1      -7.508  -2.660  -7.783  1.00  0.00     0.014 A 
ATOM     28  C   UNL     1      -7.232  -4.279  -6.003  1.00  0.00     0.014 A 
ATOM     29  C   UNL     1      -7.482  -3.695  -8.720  1.00  0.00     0.010 A 
ATOM     30  C   UNL     1      -7.119  -5.297  -6.942  1.00  0.00     0.010 A 
ATOM     31  C   UNL     1      -7.249  -5.018  -8.310  1.00  0.00    -0.014 A 
BRANCH  31  32
ATOM     32  C   UNL     1      -7.117  -6.123  -9.292  1.00  0.00     0.031 A 
ATOM     33  C   UNL     1      -8.076  -7.280  -9.264  1.00  0.00     0.074 A 
ATOM     34  C   UNL     1      -6.068  -6.132 -10.139  1.00  0.00     0.049 A 
ATOM     35  N   UNL     1      -8.070  -8.373  -9.983  1.00  0.00    -0.248 NA
ATOM     36  C   UNL     1      -9.171  -7.217  -8.281  1.00  0.00     0.031 C 
ATOM     37  C   UNL     1      -5.026  -5.106 -10.205  1.00  0.00     0.029 A 
ATOM     38  N   UNL     1      -5.687  -7.053 -11.082  1.00  0.00    -0.354 N 
ATOM     39  C   UNL     1      -9.127  -9.142  -9.514  1.00  0.00     0.074 A 
ATOM     40  C   UNL     1      -9.737  -8.406  -8.429  1.00  0.00     0.031 C 
ATOM     41  C   UNL     1      -4.124  -5.454 -11.136  1.00  0.00     0.029 A 
ATOM     42  C   UNL     1      -4.500  -6.744 -11.704  1.00  0.00     0.049 A 
ATOM     43  H   UNL     1      -6.212  -7.859 -11.292  1.00  0.00     0.167 HD
ATOM     44  C   UNL     1      -9.567 -10.342  -9.963  1.00  0.00     0.034 A 
ATOM     45  C   UNL     1      -3.782  -7.431 -12.614  1.00  0.00     0.034 A 
ATOM     46  C   UNL     1      -8.978 -11.052 -11.066  1.00  0.00     0.049 A 
ATOM     47  C   UNL     1      -4.306  -8.749 -13.113  1.00  0.00     0.074 A 
ATOM     48  C   UNL     1      -9.411 -12.223 -11.663  1.00  0.00     0.029 A 
ATOM     49  N   UNL     1      -7.820 -10.671 -11.726  1.00  0.00    -0.354 N 
ATOM     50  N   UNL     1      -5.405  -9.380 -12.777  1.00  0.00    -0.248 NA
ATOM     51  C   UNL     1      -3.507  -9.437 -14.137  1.00  0.00     0.031 C 
ATOM     52  C   UNL     1      -8.492 -12.570 -12.659  1.00  0.00     0.029 A 
ATOM     53  C   UNL     1      -7.507 -11.596 -12.707  1.00  0.00     0.049 A 
ATOM     54  H   UNL     1      -7.297  -9.861 -11.526  1.00  0.00     0.167 HD
ATOM     55  C   UNL     1      -5.444 -10.525 -13.565  1.00  0.00     0.074 A 
ATOM     56  C   UNL     1      -4.272 -10.485 -14.416  1.00  0.00     0.031 C 
ATOM     57  C   UNL     1      -6.358 -11.527 -13.573  1.00  0.00     0.034 A 
BRANCH  44  58
ATOM     58  C   UNL     1     -10.767 -10.949  -9.282  1.00  0.00     0.023 A 
ATOM     59  C   UNL     1     -12.039 -10.365  -9.455  1.00  0.00     0.012 A 
ATOM     60  C   UNL     1     -10.646 -12.126  -8.519  1.00  0.00     0.148 A 
ATOM     61  C   UNL     1     -13.165 -10.921  -8.847  1.00  0.00     0.002 A 
ATOM     62  C   UNL     1     -11.779 -12.702  -7.957  1.00  0.00     0.091 A 
ATOM     63  F   UNL     1      -9.426 -12.656  -8.349  1.00  0.00    -0.205 F 
ATOM     64  C   UNL     1     -13.036 -12.093  -8.108  1.00  0.00     0.022 A 
BRANCH  62  65
ATOM     65  S   UNL     1     -11.734 -14.255  -7.056  1.00  0.00     0.127 S 
ATOM     66  O   UNL     1     -12.005 -13.812  -5.690  1.00  0.00    -0.237 OA
ATOM     67  O   UNL     1     -12.824 -15.004  -7.683  1.00  0.00    -0.237 OA
ATOM     68  O   UNL     1     -10.407 -14.811  -7.280  1.00  0.00    -0.744 OA
ENDBRANCH  62  65
ENDBRANCH  44  58
BRANCH  45  69
ATOM     69  C   UNL     1      -2.510  -6.860 -13.141  1.00  0.00     0.023 A 
ATOM     70  C   UNL     1      -2.449  -6.417 -14.476  1.00  0.00     0.012 A 
ATOM     71  C   UNL     1      -1.375  -6.724 -12.318  1.00  0.00     0.148 A 
ATOM     72  C   UNL     1      -1.270  -5.877 -14.992  1.00  0.00     0.002 A 
ATOM     73  C   UNL     1      -0.222  -6.132 -12.822  1.00  0.00     0.091 A 
ATOM     74  F   UNL     1      -1.452  -7.159 -11.053  1.00  0.00    -0.205 F 
ATOM     75  C   UNL     1      -0.162  -5.725 -14.163  1.00  0.00     0.022 A 
BRANCH  73  76
ATOM     76  S   UNL     1       1.206  -5.772 -11.793  1.00  0.00     0.127 S 
ATOM     77  O   UNL     1       2.203  -6.693 -12.332  1.00  0.00    -0.237 OA
ATOM     78  O   UNL     1       1.444  -4.360 -12.094  1.00  0.00    -0.237 OA
ATOM     79  O   UNL     1       0.783  -6.031 -10.424  1.00  0.00    -0.744 OA
ENDBRANCH  73  76
ENDBRANCH  45  69
BRANCH  57  80
ATOM     80  C   UNL     1      -6.144 -12.660 -14.543  1.00  0.00     0.023 A 
ATOM     81  C   UNL     1      -5.108 -13.588 -14.318  1.00  0.00     0.012 A 
ATOM     82  C   UNL     1      -7.016 -12.848 -15.633  1.00  0.00     0.148 A 
ATOM     83  C   UNL     1      -4.923 -14.666 -15.182  1.00  0.00     0.002 A 
ATOM     84  C   UNL     1      -6.858 -13.953 -16.460  1.00  0.00     0.091 A 
ATOM     85  F   UNL     1      -7.986 -11.945 -15.838  1.00  0.00    -0.205 F 
ATOM     86  C   UNL     1      -5.804 -14.856 -16.244  1.00  0.00     0.022 A 
BRANCH  84  87
ATOM     87  S   UNL     1      -7.999 -14.334 -17.794  1.00  0.00     0.127 S 
ATOM     88  O   UNL     1      -7.168 -14.098 -18.973  1.00  0.00    -0.237 OA
ATOM     89  O   UNL     1      -8.312 -15.741 -17.540  1.00  0.00    -0.237 OA
ATOM     90  O   UNL     1      -9.125 -13.425 -17.634  1.00  0.00    -0.744 OA
ENDBRANCH  84  87
ENDBRANCH  57  80
ENDBRANCH  31  32
ENDBRANCH  23  26
ENDBRANCH  21  22
ENDBRANCH   1  21
TORSDOF 17
