REMARK SMILES [NH3+]C1(C(=O)N2[C@@H](C(=O)NCCCNC(=O)c3ccc(-c4c5nc(c(-c6cccc(S(=O)(=O)[O-])c6F)c6ccc([nH]6)c(-c6cccc(S(=O)(=O)[O-])c6F)c6nc(c(-c7cccc(S(=O)(=O)[O-])c7F)c7ccc4[nH]7)C=C6)C=C5)cc3)CC[C@@H]3CCCC[C@@H]32)CC1
REMARK SMILES IDX 11 1 10 2 9 3 7 4 8 5 6 7 5 8 86 9 79 10 81 11 85 12 80 13
REMARK SMILES IDX 82 14 84 15 83 16 3 17 4 18 2 19 87 20 88 21 1 22 12 26
REMARK SMILES IDX 13 27 14 28 15 30 16 31 17 32 78 33 18 34 77 35 19 36 20 37
REMARK SMILES IDX 21 38 71 39 22 40 76 41 70 42 72 43 23 44 75 45 69 46 68 47
REMARK SMILES IDX 24 49 56 50 36 51 55 52 37 53 40 54 54 55 73 56 38 57 39 58
REMARK SMILES IDX 53 60 74 61 41 62 25 63 26 64 34 65 27 66 29 67 35 68 28 69
REMARK SMILES IDX 30 70 31 71 32 72 33 73 57 74 58 75 66 76 59 77 61 78 67 79
REMARK SMILES IDX 60 80 62 81 63 82 64 83 65 84 42 85 43 86 51 87 44 88 46 89
REMARK SMILES IDX 52 90 45 91 47 92 48 93 49 94 50 95
REMARK H PARENT 9 6 1 23 1 24 1 25 13 29 72 48 40 59
REMARK Flexibility Score: inf
ROOT
ATOM      1  C   UNL     1      -4.066   0.345   0.853  1.00  0.00     0.042 C 
ENDROOT
BRANCH   1   2
ATOM      2  C   UNL     1      -2.688   0.091   0.262  1.00  0.00     0.117 C 
BRANCH   2   3
ATOM      3  N   UNL     1      -2.478  -1.330   0.070  1.00  0.00    -0.354 N 
ATOM      4  C   UNL     1      -2.384  -2.035  -1.083  1.00  0.00     0.242 C 
ATOM      5  O   UNL     1      -2.480  -3.265  -1.009  1.00  0.00    -0.273 OA
ATOM      6  H   UNL     1      -2.389  -1.858   0.895  1.00  0.00     0.163 HD
BRANCH   4   7
ATOM      7  C   UNL     1      -2.300  -1.343  -2.455  1.00  0.00     0.175 C 
ATOM      8  N   UNL     1      -1.374  -0.189  -2.635  1.00  0.00    -0.322 N 
ATOM      9  C   UNL     1      -1.541   0.578  -3.888  1.00  0.00     0.089 C 
ATOM     10  C   UNL     1      -3.766  -0.960  -2.797  1.00  0.00     0.036 C 
ATOM     11  C   UNL     1      -2.980   1.037  -4.085  1.00  0.00     0.012 C 
ATOM     12  C   UNL     1      -0.985  -0.221  -5.089  1.00  0.00     0.025 C 
ATOM     13  C   UNL     1      -3.931  -0.160  -4.080  1.00  0.00     0.008 C 
ATOM     14  C   UNL     1      -3.051   1.863  -5.370  1.00  0.00     0.006 C 
ATOM     15  C   UNL     1      -1.477   0.169  -6.487  1.00  0.00     0.002 C 
ATOM     16  C   UNL     1      -2.728   1.037  -6.604  1.00  0.00     0.000 C 
BRANCH   8  17
ATOM     17  C   UNL     1      -0.132   0.021  -2.007  1.00  0.00     0.284 C 
ATOM     18  O   UNL     1       0.513   1.053  -2.210  1.00  0.00    -0.268 OA
BRANCH  17  19
ATOM     19  C   UNL     1       0.526  -0.998  -1.094  1.00  0.00     0.174 C 
ATOM     20  C   UNL     1       1.692  -1.700  -1.800  1.00  0.00     0.086 C 
ATOM     21  C   UNL     1       0.566  -2.498  -1.254  1.00  0.00     0.086 C 
BRANCH  19  22
ATOM     22  N   UNL     1       0.814  -0.446   0.258  1.00  0.00    -0.345 N 
ATOM     23  H   UNL     1       0.755   0.572   0.230  1.00  0.00     0.345 HD
ATOM     24  H   UNL     1       1.751  -0.725   0.547  1.00  0.00     0.345 HD
ATOM     25  H   UNL     1       0.131  -0.807   0.925  1.00  0.00     0.345 HD
ENDBRANCH  19  22
ENDBRANCH  17  19
ENDBRANCH   8  17
ENDBRANCH   4   7
ENDBRANCH   2   3
ENDBRANCH   1   2
BRANCH   1  26
ATOM     26  C   UNL     1      -4.256  -0.291   2.222  1.00  0.00     0.118 C 
BRANCH  26  27
ATOM     27  N   UNL     1      -3.312   0.222   3.206  1.00  0.00    -0.352 N 
ATOM     28  C   UNL     1      -3.565   0.857   4.394  1.00  0.00     0.251 C 
ATOM     29  H   UNL     1      -2.360   0.096   2.987  1.00  0.00     0.163 HD
ATOM     30  O   UNL     1      -2.651   1.410   5.005  1.00  0.00    -0.269 OA
BRANCH  28  31
ATOM     31  C   UNL     1      -4.941   0.884   4.923  1.00  0.00     0.039 A 
ATOM     32  C   UNL     1      -5.452   2.080   5.428  1.00  0.00     0.014 A 
ATOM     33  C   UNL     1      -5.730  -0.269   4.897  1.00  0.00     0.014 A 
ATOM     34  C   UNL     1      -6.777   2.132   5.859  1.00  0.00     0.010 A 
ATOM     35  C   UNL     1      -7.075  -0.189   5.231  1.00  0.00     0.010 A 
ATOM     36  C   UNL     1      -7.608   1.006   5.733  1.00  0.00    -0.014 A 
BRANCH  36  37
ATOM     37  C   UNL     1      -9.038   1.055   6.125  1.00  0.00     0.031 A 
ATOM     38  C   UNL     1      -9.551   0.158   7.217  1.00  0.00     0.074 A 
ATOM     39  C   UNL     1      -9.888   1.844   5.440  1.00  0.00     0.049 A 
ATOM     40  N   UNL     1     -10.768   0.032   7.677  1.00  0.00    -0.248 NA
ATOM     41  C   UNL     1      -8.575  -0.740   7.857  1.00  0.00     0.031 C 
ATOM     42  C   UNL     1      -9.523   2.704   4.312  1.00  0.00     0.029 A 
ATOM     43  N   UNL     1     -11.239   2.037   5.580  1.00  0.00    -0.354 N 
ATOM     44  C   UNL     1     -10.714  -0.985   8.622  1.00  0.00     0.074 A 
ATOM     45  C   UNL     1      -9.351  -1.470   8.643  1.00  0.00     0.031 C 
ATOM     46  C   UNL     1     -10.616   3.351   3.881  1.00  0.00     0.029 A 
ATOM     47  C   UNL     1     -11.765   2.925   4.673  1.00  0.00     0.049 A 
ATOM     48  H   UNL     1     -11.779   1.582   6.266  1.00  0.00     0.167 HD
ATOM     49  C   UNL     1     -11.700  -1.456   9.421  1.00  0.00     0.034 A 
ATOM     50  C   UNL     1     -13.032   3.348   4.499  1.00  0.00     0.034 A 
ATOM     51  C   UNL     1     -13.044  -0.945   9.418  1.00  0.00     0.049 A 
ATOM     52  C   UNL     1     -14.107   2.828   5.414  1.00  0.00     0.074 A 
ATOM     53  C   UNL     1     -14.093  -1.278  10.256  1.00  0.00     0.029 A 
ATOM     54  N   UNL     1     -13.530  -0.006   8.521  1.00  0.00    -0.354 N 
ATOM     55  N   UNL     1     -14.004   1.987   6.414  1.00  0.00    -0.248 NA
ATOM     56  C   UNL     1     -15.467   3.339   5.195  1.00  0.00     0.031 C 
ATOM     57  C   UNL     1     -15.226  -0.573   9.835  1.00  0.00     0.029 A 
ATOM     58  C   UNL     1     -14.871   0.234   8.766  1.00  0.00     0.049 A 
ATOM     59  H   UNL     1     -12.999   0.427   7.814  1.00  0.00     0.167 HD
ATOM     60  C   UNL     1     -15.275   1.898   6.971  1.00  0.00     0.074 A 
ATOM     61  C   UNL     1     -16.127   2.784   6.203  1.00  0.00     0.031 C 
ATOM     62  C   UNL     1     -15.699   1.148   8.018  1.00  0.00     0.034 A 
BRANCH  49  63
ATOM     63  C   UNL     1     -11.349  -2.568  10.378  1.00  0.00     0.023 A 
ATOM     64  C   UNL     1     -10.477  -2.319  11.459  1.00  0.00     0.012 A 
ATOM     65  C   UNL     1     -11.898  -3.855  10.219  1.00  0.00     0.148 A 
ATOM     66  C   UNL     1     -10.114  -3.345  12.331  1.00  0.00     0.002 A 
ATOM     67  C   UNL     1     -11.573  -4.859  11.124  1.00  0.00     0.091 A 
ATOM     68  F   UNL     1     -12.707  -4.083   9.175  1.00  0.00    -0.205 F 
ATOM     69  C   UNL     1     -10.669  -4.611  12.169  1.00  0.00     0.022 A 
BRANCH  67  70
ATOM     70  S   UNL     1     -12.303  -6.498  11.049  1.00  0.00     0.127 S 
ATOM     71  O   UNL     1     -11.183  -7.298  10.557  1.00  0.00    -0.237 OA
ATOM     72  O   UNL     1     -12.657  -6.742  12.448  1.00  0.00    -0.237 OA
ATOM     73  O   UNL     1     -13.441  -6.388  10.148  1.00  0.00    -0.744 OA
ENDBRANCH  67  70
ENDBRANCH  49  63
BRANCH  50  74
ATOM     74  C   UNL     1     -13.333   4.383   3.470  1.00  0.00     0.023 A 
ATOM     75  C   UNL     1     -13.674   5.684   3.887  1.00  0.00     0.012 A 
ATOM     76  C   UNL     1     -13.242   4.103   2.093  1.00  0.00     0.148 A 
ATOM     77  C   UNL     1     -13.945   6.683   2.951  1.00  0.00     0.002 A 
ATOM     78  C   UNL     1     -13.462   5.115   1.167  1.00  0.00     0.091 A 
ATOM     79  F   UNL     1     -12.918   2.857   1.720  1.00  0.00    -0.205 F 
ATOM     80  C   UNL     1     -13.830   6.401   1.593  1.00  0.00     0.022 A 
BRANCH  78  81
ATOM     81  S   UNL     1     -13.218   4.884  -0.598  1.00  0.00     0.127 S 
ATOM     82  O   UNL     1     -14.572   5.069  -1.114  1.00  0.00    -0.237 OA
ATOM     83  O   UNL     1     -12.284   5.965  -0.914  1.00  0.00    -0.237 OA
ATOM     84  O   UNL     1     -12.666   3.545  -0.750  1.00  0.00    -0.744 OA
ENDBRANCH  78  81
ENDBRANCH  50  74
BRANCH  62  85
ATOM     85  C   UNL     1     -17.143   1.276   8.429  1.00  0.00     0.023 A 
ATOM     86  C   UNL     1     -18.161   0.743   7.613  1.00  0.00     0.012 A 
ATOM     87  C   UNL     1     -17.484   1.862   9.665  1.00  0.00     0.148 A 
ATOM     88  C   UNL     1     -19.497   0.824   8.003  1.00  0.00     0.002 A 
ATOM     89  C   UNL     1     -18.812   1.890  10.072  1.00  0.00     0.091 A 
ATOM     90  F   UNL     1     -16.504   2.379  10.419  1.00  0.00    -0.205 F 
ATOM     91  C   UNL     1     -19.821   1.385   9.236  1.00  0.00     0.022 A 
BRANCH  89  92
ATOM     92  S   UNL     1     -19.313   2.498  11.686  1.00  0.00     0.127 S 
ATOM     93  O   UNL     1     -20.002   3.739  11.336  1.00  0.00    -0.237 OA
ATOM     94  O   UNL     1     -20.188   1.427  12.162  1.00  0.00    -0.237 OA
ATOM     95  O   UNL     1     -18.085   2.662  12.454  1.00  0.00    -0.744 OA
ENDBRANCH  89  92
ENDBRANCH  62  85
ENDBRANCH  36  37
ENDBRANCH  28  31
ENDBRANCH  26  27
ENDBRANCH   1  26
TORSDOF 16
