REMARK SMILES Cc1cn(C)c(CC(=O)NCC[NH+]2CCC(C)CC2)c1C(=O)NCCCNC(=O)c1ccc(-c2c3nc(c(-c4cccc(S(=O)(=O)[O-])c4F)c4ccc([nH]4)c(-c4cccc(S(=O)(=O)[O-])c4F)c4nc(c(-c5cccc(S(=O)(=O)[O-])c5F)c5ccc2[nH]5)C=C4)C=C3)cc1
REMARK SMILES IDX 24 1 23 2 21 3 22 4 20 6 1 7 2 8 3 9 4 10 6 11 5 12 7 13
REMARK SMILES IDX 8 14 9 15 10 16 11 18 12 19 13 20 14 21 19 22 15 24 18 25
REMARK SMILES IDX 16 26 17 27 25 28 26 29 27 30 28 31 29 33 30 34 31 35 92 36
REMARK SMILES IDX 32 37 91 38 33 39 34 40 35 41 85 42 36 43 90 44 84 45 86 46
REMARK SMILES IDX 37 47 89 48 83 49 82 50 38 52 70 53 50 54 69 55 51 56 54 57
REMARK SMILES IDX 68 58 87 59 52 60 53 61 67 63 88 64 55 65 39 66 40 67 48 68
REMARK SMILES IDX 41 69 43 70 49 71 42 72 44 73 45 74 46 75 47 76 71 77 72 78
REMARK SMILES IDX 80 79 73 80 75 81 81 82 74 83 76 84 77 85 78 86 79 87 56 88
REMARK SMILES IDX 57 89 65 90 58 91 60 92 66 93 59 94 61 95 62 96 63 97 64 98
REMARK H PARENT 23 5 10 17 13 23 27 32 86 51 54 62
REMARK Flexibility Score: inf
ROOT
ATOM      1  C   UNL     1       1.306   0.855   1.929  1.00  0.00     0.118 C 
ENDROOT
BRANCH   1   2
ATOM      2  N   UNL     1       1.494   2.141   1.316  1.00  0.00    -0.352 N 
ATOM      3  C   UNL     1       0.976   2.735   0.201  1.00  0.00     0.253 C 
ATOM      4  O   UNL     1       1.049   3.967   0.256  1.00  0.00    -0.269 OA
ATOM      5  H   UNL     1       2.131   2.714   1.801  1.00  0.00     0.163 HD
BRANCH   3   6
ATOM      6  C   UNL     1       0.404   2.048  -0.990  1.00  0.00     0.064 A 
ATOM      7  C   UNL     1       0.429  -0.640  -0.706  1.00  0.00     0.047 C 
ATOM      8  C   UNL     1       0.148   0.663  -1.357  1.00  0.00    -0.020 A 
ATOM      9  C   UNL     1      -0.451   0.668  -2.601  1.00  0.00     0.089 A 
ATOM     10  N   UNL     1      -0.505   1.937  -3.070  1.00  0.00    -0.353 N 
ATOM     11  C   UNL     1       0.063   2.790  -2.154  1.00  0.00     0.040 A 
ATOM     12  C   UNL     1      -1.027   2.271  -4.379  1.00  0.00     0.149 C 
BRANCH  11  13
ATOM     13  C   UNL     1       0.255   4.261  -2.494  1.00  0.00     0.154 C 
BRANCH  13  14
ATOM     14  C   UNL     1       1.127   4.459  -3.733  1.00  0.00     0.226 C 
ATOM     15  O   UNL     1       0.650   4.926  -4.772  1.00  0.00    -0.275 OA
ATOM     16  N   UNL     1       2.447   4.118  -3.706  1.00  0.00    -0.350 N 
ATOM     17  H   UNL     1       2.950   4.283  -4.536  1.00  0.00     0.163 HD
BRANCH  16  18
ATOM     18  C   UNL     1       3.205   3.544  -2.610  1.00  0.00     0.177 C 
BRANCH  18  19
ATOM     19  C   UNL     1       3.695   2.114  -2.923  1.00  0.00     0.283 C 
BRANCH  19  20
ATOM     20  N   UNL     1       4.738   2.003  -3.971  1.00  0.00    -0.333 N 
ATOM     21  C   UNL     1       5.253   0.623  -4.068  1.00  0.00     0.262 C 
ATOM     22  C   UNL     1       5.878   2.916  -3.765  1.00  0.00     0.262 C 
ATOM     23  H   UNL     1       4.274   2.272  -4.838  1.00  0.00     0.348 HD
ATOM     24  C   UNL     1       6.098   0.173  -2.866  1.00  0.00     0.065 C 
ATOM     25  C   UNL     1       6.653   2.618  -2.482  1.00  0.00     0.065 C 
ATOM     26  C   UNL     1       7.196   1.184  -2.500  1.00  0.00    -0.003 C 
ATOM     27  C   UNL     1       7.833   0.838  -1.155  1.00  0.00     0.008 C 
ENDBRANCH  19  20
ENDBRANCH  18  19
ENDBRANCH  16  18
ENDBRANCH  13  14
ENDBRANCH  11  13
ENDBRANCH   3   6
ENDBRANCH   1   2
BRANCH   1  28
ATOM     28  C   UNL     1       2.479  -0.095   1.687  1.00  0.00     0.042 C 
BRANCH  28  29
ATOM     29  C   UNL     1       3.538   0.003   2.768  1.00  0.00     0.118 C 
BRANCH  29  30
ATOM     30  N   UNL     1       3.034  -0.469   4.060  1.00  0.00    -0.352 N 
ATOM     31  C   UNL     1       3.657  -0.445   5.285  1.00  0.00     0.251 C 
ATOM     32  H   UNL     1       2.128  -0.855   4.050  1.00  0.00     0.163 HD
ATOM     33  O   UNL     1       3.256  -1.174   6.197  1.00  0.00    -0.269 OA
BRANCH  31  34
ATOM     34  C   UNL     1       4.809   0.445   5.489  1.00  0.00     0.039 A 
ATOM     35  C   UNL     1       5.921   0.016   6.213  1.00  0.00     0.014 A 
ATOM     36  C   UNL     1       4.786   1.709   4.899  1.00  0.00     0.014 A 
ATOM     37  C   UNL     1       7.042   0.837   6.255  1.00  0.00     0.010 A 
ATOM     38  C   UNL     1       5.944   2.438   4.798  1.00  0.00     0.010 A 
ATOM     39  C   UNL     1       7.063   2.031   5.508  1.00  0.00    -0.014 A 
BRANCH  39  40
ATOM     40  C   UNL     1       8.322   2.744   5.304  1.00  0.00     0.031 A 
ATOM     41  C   UNL     1       9.406   1.841   4.839  1.00  0.00     0.074 A 
ATOM     42  C   UNL     1       8.464   4.088   5.358  1.00  0.00     0.049 A 
ATOM     43  N   UNL     1      10.361   1.358   5.562  1.00  0.00    -0.248 NA
ATOM     44  C   UNL     1       9.289   1.206   3.515  1.00  0.00     0.031 C 
ATOM     45  C   UNL     1       7.412   5.098   5.513  1.00  0.00     0.029 A 
ATOM     46  N   UNL     1       9.577   4.853   5.164  1.00  0.00    -0.354 N 
ATOM     47  C   UNL     1      11.146   0.623   4.680  1.00  0.00     0.074 A 
ATOM     48  C   UNL     1      10.302   0.336   3.554  1.00  0.00     0.031 C 
ATOM     49  C   UNL     1       7.889   6.311   5.156  1.00  0.00     0.029 A 
ATOM     50  C   UNL     1       9.314   6.201   4.909  1.00  0.00     0.049 A 
ATOM     51  H   UNL     1      10.489   4.486   5.200  1.00  0.00     0.167 HD
ATOM     52  C   UNL     1      12.502   0.645   4.807  1.00  0.00     0.034 A 
ATOM     53  C   UNL     1      10.196   7.149   4.495  1.00  0.00     0.034 A 
ATOM     54  C   UNL     1      12.883   1.154   6.109  1.00  0.00     0.049 A 
ATOM     55  C   UNL     1      11.546   6.660   4.846  1.00  0.00     0.074 A 
ATOM     56  C   UNL     1      12.568   0.842   7.418  1.00  0.00     0.029 A 
ATOM     57  N   UNL     1      13.386   2.432   6.137  1.00  0.00    -0.354 N 
ATOM     58  N   UNL     1      11.967   6.543   6.073  1.00  0.00    -0.248 NA
ATOM     59  C   UNL     1      12.269   5.888   3.851  1.00  0.00     0.031 C 
ATOM     60  C   UNL     1      12.462   2.101   8.082  1.00  0.00     0.029 A 
ATOM     61  C   UNL     1      12.816   3.104   7.179  1.00  0.00     0.049 A 
ATOM     62  H   UNL     1      14.049   2.802   5.509  1.00  0.00     0.167 HD
ATOM     63  C   UNL     1      12.633   5.327   6.074  1.00  0.00     0.074 A 
ATOM     64  C   UNL     1      12.893   5.033   4.665  1.00  0.00     0.031 C 
ATOM     65  C   UNL     1      12.629   4.537   7.187  1.00  0.00     0.034 A 
BRANCH  52  66
ATOM     66  C   UNL     1      13.480   0.693   3.641  1.00  0.00     0.023 A 
ATOM     67  C   UNL     1      14.855   0.724   3.974  1.00  0.00     0.012 A 
ATOM     68  C   UNL     1      13.147   1.018   2.305  1.00  0.00     0.148 A 
ATOM     69  C   UNL     1      15.824   1.165   3.067  1.00  0.00     0.002 A 
ATOM     70  C   UNL     1      14.122   1.383   1.384  1.00  0.00     0.091 A 
ATOM     71  F   UNL     1      11.875   1.095   1.920  1.00  0.00    -0.205 F 
ATOM     72  C   UNL     1      15.457   1.499   1.771  1.00  0.00     0.022 A 
BRANCH  70  73
ATOM     73  S   UNL     1      13.708   1.784  -0.321  1.00  0.00     0.127 S 
ATOM     74  O   UNL     1      14.013   3.211  -0.365  1.00  0.00    -0.237 OA
ATOM     75  O   UNL     1      14.635   0.924  -1.056  1.00  0.00    -0.237 OA
ATOM     76  O   UNL     1      12.303   1.431  -0.487  1.00  0.00    -0.744 OA
ENDBRANCH  70  73
ENDBRANCH  52  66
BRANCH  53  77
ATOM     77  C   UNL     1      10.028   8.347   3.634  1.00  0.00     0.023 A 
ATOM     78  C   UNL     1      11.048   9.324   3.595  1.00  0.00     0.012 A 
ATOM     79  C   UNL     1       9.047   8.378   2.621  1.00  0.00     0.148 A 
ATOM     80  C   UNL     1      11.122  10.259   2.555  1.00  0.00     0.002 A 
ATOM     81  C   UNL     1       9.124   9.309   1.587  1.00  0.00     0.091 A 
ATOM     82  F   UNL     1       8.096   7.434   2.617  1.00  0.00    -0.205 F 
ATOM     83  C   UNL     1      10.168  10.242   1.543  1.00  0.00     0.022 A 
BRANCH  81  84
ATOM     84  S   UNL     1       7.956   9.319   0.220  1.00  0.00     0.127 S 
ATOM     85  O   UNL     1       7.580  10.731   0.154  1.00  0.00    -0.237 OA
ATOM     86  O   UNL     1       8.785   8.852  -0.888  1.00  0.00    -0.237 OA
ATOM     87  O   UNL     1       6.874   8.426   0.617  1.00  0.00    -0.744 OA
ENDBRANCH  81  84
ENDBRANCH  53  77
BRANCH  65  88
ATOM     88  C   UNL     1      12.209   5.147   8.498  1.00  0.00     0.023 A 
ATOM     89  C   UNL     1      10.921   5.669   8.741  1.00  0.00     0.012 A 
ATOM     90  C   UNL     1      13.115   5.047   9.566  1.00  0.00     0.148 A 
ATOM     91  C   UNL     1      10.558   6.099  10.021  1.00  0.00     0.002 A 
ATOM     92  C   UNL     1      12.734   5.426  10.845  1.00  0.00     0.091 A 
ATOM     93  F   UNL     1      14.338   4.557   9.314  1.00  0.00    -0.205 F 
ATOM     94  C   UNL     1      11.459   5.963  11.077  1.00  0.00     0.022 A 
BRANCH  92  95
ATOM     95  S   UNL     1      13.814   5.154  12.250  1.00  0.00     0.127 S 
ATOM     96  O   UNL     1      14.313   6.502  12.515  1.00  0.00    -0.237 OA
ATOM     97  O   UNL     1      12.892   4.632  13.259  1.00  0.00    -0.237 OA
ATOM     98  O   UNL     1      14.814   4.190  11.806  1.00  0.00    -0.744 OA
ENDBRANCH  92  95
ENDBRANCH  65  88
ENDBRANCH  39  40
ENDBRANCH  31  34
ENDBRANCH  29  30
ENDBRANCH  28  29
ENDBRANCH   1  28
TORSDOF 18
