REMARK SMILES Cc1nc(CCC(F)(F)F)[nH]c(=O)c1CCC(=O)NCCCNC(=O)c1ccc(-c2c3nc(c(-c4cccc(S(=O)(=O)[O-])c4F)c4ccc([nH]4)c(-c4cccc(S(=O)(=O)[O-])c4F)c4nc(c(-c5cccc(S(=O)(=O)[O-])c5F)c5ccc2[nH]5)C=C4)C=C3)cc1
REMARK SMILES IDX 20 1 19 2 17 3 18 4 16 6 15 7 14 8 1 9 2 10 3 11 4 12 12 13
REMARK SMILES IDX 11 14 13 15 5 17 6 18 7 19 8 20 9 21 10 22 21 23 22 24 23 25
REMARK SMILES IDX 24 26 25 28 26 29 27 30 88 31 28 32 87 33 29 34 30 35 31 36
REMARK SMILES IDX 81 37 32 38 86 39 80 40 82 41 33 42 85 43 79 44 78 45 34 47
REMARK SMILES IDX 66 48 46 49 65 50 47 51 50 52 64 53 83 54 48 55 49 56 63 58
REMARK SMILES IDX 84 59 51 60 35 61 36 62 44 63 37 64 39 65 45 66 38 67 40 68
REMARK SMILES IDX 41 69 42 70 43 71 67 72 68 73 76 74 69 75 71 76 77 77 70 78
REMARK SMILES IDX 72 79 73 80 74 81 75 82 52 83 53 84 61 85 54 86 56 87 62 88
REMARK SMILES IDX 55 89 57 90 58 91 59 92 60 93
REMARK H PARENT 19 5 11 16 23 27 82 46 50 57
REMARK Flexibility Score: inf
ROOT
ATOM      1  C   UNL     1       2.790  -0.326  -1.647  1.00  0.00     0.117 C 
ENDROOT
BRANCH   1   2
ATOM      2  N   UNL     1       2.882  -1.772  -1.427  1.00  0.00    -0.356 N 
ATOM      3  C   UNL     1       1.955  -2.763  -1.304  1.00  0.00     0.220 C 
ATOM      4  O   UNL     1       2.360  -3.897  -1.028  1.00  0.00    -0.275 OA
ATOM      5  H   UNL     1       3.809  -2.096  -1.353  1.00  0.00     0.163 HD
BRANCH   3   6
ATOM      6  C   UNL     1       0.478  -2.534  -1.570  1.00  0.00     0.105 C 
BRANCH   6   7
ATOM      7  C   UNL     1      -0.401  -2.643  -0.305  1.00  0.00     0.053 C 
BRANCH   7   8
ATOM      8  C   UNL     1      -0.862  -1.277   0.117  1.00  0.00     0.039 A 
ATOM      9  C   UNL     1      -3.318  -1.528  -0.245  1.00  0.00     0.067 C 
ATOM     10  C   UNL     1      -2.092  -0.725   0.089  1.00  0.00     0.048 A 
ATOM     11  N   UNL     1      -2.326   0.624   0.295  1.00  0.00    -0.240 NA
ATOM     12  C   UNL     1      -1.293   1.399   0.373  1.00  0.00     0.109 A 
ATOM     13  C   UNL     1       0.217  -0.388   0.559  1.00  0.00     0.254 A 
ATOM     14  N   UNL     1      -0.018   0.924   0.352  1.00  0.00    -0.310 N 
ATOM     15  O   UNL     1       1.266  -0.817   1.032  1.00  0.00    -0.269 OA
ATOM     16  H   UNL     1       0.733   1.539   0.187  1.00  0.00     0.171 HD
BRANCH  12  17
ATOM     17  C   UNL     1      -1.416   2.902   0.481  1.00  0.00     0.084 C 
BRANCH  17  18
ATOM     18  C   UNL     1      -1.000   3.502   1.833  1.00  0.00     0.123 C 
BRANCH  18  19
ATOM     19  C   UNL     1       0.306   2.970   2.383  1.00  0.00     0.389 C 
ATOM     20  F   UNL     1       1.228   2.910   1.387  1.00  0.00    -0.171 F 
ATOM     21  F   UNL     1       0.813   3.737   3.355  1.00  0.00    -0.171 F 
ATOM     22  F   UNL     1       0.172   1.722   2.869  1.00  0.00    -0.171 F 
ENDBRANCH  18  19
ENDBRANCH  17  18
ENDBRANCH  12  17
ENDBRANCH   7   8
ENDBRANCH   6   7
ENDBRANCH   3   6
ENDBRANCH   1   2
BRANCH   1  23
ATOM     23  C   UNL     1       3.467   0.461  -0.501  1.00  0.00     0.042 C 
BRANCH  23  24
ATOM     24  C   UNL     1       4.428   1.563  -0.945  1.00  0.00     0.118 C 
BRANCH  24  25
ATOM     25  N   UNL     1       3.766   2.698  -1.566  1.00  0.00    -0.352 N 
ATOM     26  C   UNL     1       3.340   3.945  -1.180  1.00  0.00     0.251 C 
ATOM     27  H   UNL     1       3.572   2.528  -2.516  1.00  0.00     0.163 HD
ATOM     28  O   UNL     1       2.838   4.614  -2.092  1.00  0.00    -0.269 OA
BRANCH  26  29
ATOM     29  C   UNL     1       3.392   4.554   0.191  1.00  0.00     0.039 A 
ATOM     30  C   UNL     1       2.706   5.778   0.357  1.00  0.00     0.014 A 
ATOM     31  C   UNL     1       4.038   4.038   1.312  1.00  0.00     0.014 A 
ATOM     32  C   UNL     1       2.668   6.457   1.588  1.00  0.00     0.010 A 
ATOM     33  C   UNL     1       3.961   4.694   2.559  1.00  0.00     0.010 A 
ATOM     34  C   UNL     1       3.287   5.917   2.717  1.00  0.00    -0.014 A 
BRANCH  34  35
ATOM     35  C   UNL     1       3.253   6.604   4.049  1.00  0.00     0.031 A 
ATOM     36  C   UNL     1       4.538   7.024   4.725  1.00  0.00     0.074 A 
ATOM     37  C   UNL     1       2.089   6.786   4.711  1.00  0.00     0.049 A 
ATOM     38  N   UNL     1       4.718   7.544   5.914  1.00  0.00    -0.248 NA
ATOM     39  C   UNL     1       5.784   6.823   3.969  1.00  0.00     0.031 C 
ATOM     40  C   UNL     1       0.764   6.421   4.215  1.00  0.00     0.029 A 
ATOM     41  N   UNL     1       1.835   7.282   5.971  1.00  0.00    -0.354 N 
ATOM     42  C   UNL     1       6.093   7.696   6.063  1.00  0.00     0.074 A 
ATOM     43  C   UNL     1       6.702   7.178   4.857  1.00  0.00     0.031 C 
ATOM     44  C   UNL     1      -0.150   6.632   5.174  1.00  0.00     0.029 A 
ATOM     45  C   UNL     1       0.515   7.177   6.352  1.00  0.00     0.049 A 
ATOM     46  H   UNL     1       2.531   7.676   6.545  1.00  0.00     0.167 HD
ATOM     47  C   UNL     1       6.788   8.254   7.084  1.00  0.00     0.034 A 
ATOM     48  C   UNL     1      -0.102   7.486   7.511  1.00  0.00     0.034 A 
ATOM     49  C   UNL     1       6.190   8.839   8.255  1.00  0.00     0.049 A 
ATOM     50  C   UNL     1       0.686   8.131   8.619  1.00  0.00     0.074 A 
ATOM     51  C   UNL     1       6.809   9.527   9.285  1.00  0.00     0.029 A 
ATOM     52  N   UNL     1       4.838   8.808   8.554  1.00  0.00    -0.354 N 
ATOM     53  N   UNL     1       1.961   8.428   8.657  1.00  0.00    -0.248 NA
ATOM     54  C   UNL     1      -0.062   8.540   9.818  1.00  0.00     0.031 C 
ATOM     55  C   UNL     1       5.831   9.905  10.212  1.00  0.00     0.029 A 
ATOM     56  C   UNL     1       4.602   9.460   9.753  1.00  0.00     0.049 A 
ATOM     57  H   UNL     1       4.146   8.384   7.996  1.00  0.00     0.167 HD
ATOM     58  C   UNL     1       2.159   9.101   9.858  1.00  0.00     0.074 A 
ATOM     59  C   UNL     1       0.870   9.180  10.512  1.00  0.00     0.031 C 
ATOM     60  C   UNL     1       3.309   9.598  10.373  1.00  0.00     0.034 A 
BRANCH  47  61
ATOM     61  C   UNL     1       8.287   8.335   6.943  1.00  0.00     0.023 A 
ATOM     62  C   UNL     1       8.844   9.254   6.031  1.00  0.00     0.012 A 
ATOM     63  C   UNL     1       9.143   7.550   7.741  1.00  0.00     0.148 A 
ATOM     64  C   UNL     1      10.226   9.363   5.883  1.00  0.00     0.002 A 
ATOM     65  C   UNL     1      10.521   7.693   7.617  1.00  0.00     0.091 A 
ATOM     66  F   UNL     1       8.598   6.670   8.593  1.00  0.00    -0.205 F 
ATOM     67  C   UNL     1      11.063   8.589   6.681  1.00  0.00     0.022 A 
BRANCH  65  68
ATOM     68  S   UNL     1      11.685   6.797   8.652  1.00  0.00     0.127 S 
ATOM     69  O   UNL     1      12.207   5.803   7.716  1.00  0.00    -0.237 OA
ATOM     70  O   UNL     1      12.638   7.843   9.024  1.00  0.00    -0.237 OA
ATOM     71  O   UNL     1      10.905   6.267   9.762  1.00  0.00    -0.744 OA
ENDBRANCH  65  68
ENDBRANCH  47  61
BRANCH  48  72
ATOM     72  C   UNL     1      -1.574   7.290   7.648  1.00  0.00     0.023 A 
ATOM     73  C   UNL     1      -2.418   8.417   7.633  1.00  0.00     0.012 A 
ATOM     74  C   UNL     1      -2.143   6.008   7.775  1.00  0.00     0.148 A 
ATOM     75  C   UNL     1      -3.798   8.277   7.778  1.00  0.00     0.002 A 
ATOM     76  C   UNL     1      -3.524   5.871   7.872  1.00  0.00     0.091 A 
ATOM     77  F   UNL     1      -1.323   4.947   7.796  1.00  0.00    -0.205 F 
ATOM     78  C   UNL     1      -4.352   7.005   7.889  1.00  0.00     0.022 A 
BRANCH  76  79
ATOM     79  S   UNL     1      -4.337   4.269   7.897  1.00  0.00     0.127 S 
ATOM     80  O   UNL     1      -4.778   4.179   9.287  1.00  0.00    -0.237 OA
ATOM     81  O   UNL     1      -5.410   4.459   6.920  1.00  0.00    -0.237 OA
ATOM     82  O   UNL     1      -3.321   3.310   7.488  1.00  0.00    -0.744 OA
ENDBRANCH  76  79
ENDBRANCH  48  72
BRANCH  60  83
ATOM     83  C   UNL     1       3.237  10.311  11.697  1.00  0.00     0.023 A 
ATOM     84  C   UNL     1       3.048   9.569  12.880  1.00  0.00     0.012 A 
ATOM     85  C   UNL     1       3.431  11.704  11.780  1.00  0.00     0.148 A 
ATOM     86  C   UNL     1       3.026  10.205  14.121  1.00  0.00     0.002 A 
ATOM     87  C   UNL     1       3.453  12.326  13.024  1.00  0.00     0.091 A 
ATOM     88  F   UNL     1       3.585  12.399  10.643  1.00  0.00    -0.205 F 
ATOM     89  C   UNL     1       3.241  11.579  14.194  1.00  0.00     0.022 A 
BRANCH  87  90
ATOM     90  S   UNL     1       3.817  14.075  13.216  1.00  0.00     0.127 S 
ATOM     91  O   UNL     1       2.490  14.629  13.478  1.00  0.00    -0.237 OA
ATOM     92  O   UNL     1       4.720  14.084  14.367  1.00  0.00    -0.237 OA
ATOM     93  O   UNL     1       4.436  14.492  11.964  1.00  0.00    -0.744 OA
ENDBRANCH  87  90
ENDBRANCH  60  83
ENDBRANCH  34  35
ENDBRANCH  26  29
ENDBRANCH  24  25
ENDBRANCH  23  24
ENDBRANCH   1  23
TORSDOF 18
