REMARK SMILES CC(C)[C@H]([NH2+]Cc1ccc(O)cn1)C(=O)NCCCNC(=O)c1ccc(-c2c3nc(c(-c4cccc(S(=O)(=O)[O-])c4F)c4ccc([nH]4)c(-c4cccc(S(=O)(=O)[O-])c4F)c4nc(c(-c5cccc(S(=O)(=O)[O-])c5F)c5ccc2[nH]5)C=C4)C=C3)cc1
REMARK SMILES IDX 17 1 16 2 14 3 15 4 4 6 2 7 1 8 3 9 5 10 6 13 7 14 8 15
REMARK SMILES IDX 13 16 9 17 12 18 10 19 11 20 18 22 19 23 20 24 21 25 22 27
REMARK SMILES IDX 23 28 24 29 85 30 25 31 84 32 26 33 27 34 28 35 78 36 29 37
REMARK SMILES IDX 83 38 77 39 79 40 30 41 82 42 76 43 75 44 31 46 63 47 43 48
REMARK SMILES IDX 62 49 44 50 47 51 61 52 80 53 45 54 46 55 60 57 81 58 48 59
REMARK SMILES IDX 32 60 33 61 41 62 34 63 36 64 42 65 35 66 37 67 38 68 39 69
REMARK SMILES IDX 40 70 64 71 65 72 73 73 66 74 68 75 74 76 67 77 69 78 70 79
REMARK SMILES IDX 71 80 72 81 49 82 50 83 58 84 51 85 53 86 59 87 52 88 54 89
REMARK SMILES IDX 55 90 56 91 57 92
REMARK H PARENT 16 5 5 11 5 12 11 21 20 26 79 45 47 56
REMARK Flexibility Score: inf
ROOT
ATOM      1  C   UNL     1      -0.391   4.039   0.804  1.00  0.00     0.118 C 
ENDROOT
BRANCH   1   2
ATOM      2  N   UNL     1      -1.259   3.708  -0.311  1.00  0.00    -0.351 N 
ATOM      3  C   UNL     1      -1.687   2.518  -0.821  1.00  0.00     0.278 C 
ATOM      4  O   UNL     1      -2.556   2.577  -1.700  1.00  0.00    -0.268 OA
ATOM      5  H   UNL     1      -1.605   4.494  -0.792  1.00  0.00     0.163 HD
BRANCH   3   6
ATOM      6  C   UNL     1      -1.180   1.139  -0.312  1.00  0.00     0.275 C 
BRANCH   6   7
ATOM      7  C   UNL     1      -1.912   0.647   0.972  1.00  0.00     0.051 C 
ATOM      8  C   UNL     1      -1.728   1.485   2.234  1.00  0.00     0.014 C 
ATOM      9  C   UNL     1      -3.417   0.476   0.712  1.00  0.00     0.014 C 
ENDBRANCH   6   7
BRANCH   6  10
ATOM     10  N   UNL     1       0.289   1.127  -0.332  1.00  0.00    -0.331 N 
ATOM     11  H   UNL     1       0.615   1.764   0.394  1.00  0.00     0.347 HD
ATOM     12  H   UNL     1       0.550   1.399  -1.280  1.00  0.00     0.347 HD
BRANCH  10  13
ATOM     13  C   UNL     1       0.929  -0.167  -0.109  1.00  0.00     0.318 C 
BRANCH  13  14
ATOM     14  C   UNL     1       2.445  -0.041  -0.175  1.00  0.00     0.095 A 
ATOM     15  C   UNL     1       3.131   0.651   0.831  1.00  0.00     0.033 A 
ATOM     16  N   UNL     1       3.075  -0.555  -1.259  1.00  0.00    -0.251 NA
ATOM     17  C   UNL     1       4.506   0.853   0.709  1.00  0.00     0.050 A 
ATOM     18  C   UNL     1       4.412  -0.343  -1.349  1.00  0.00     0.157 A 
ATOM     19  C   UNL     1       5.154   0.352  -0.407  1.00  0.00     0.133 A 
BRANCH  19  20
ATOM     20  O   UNL     1       6.489   0.517  -0.606  1.00  0.00    -0.506 OA
ATOM     21  H   UNL     1       7.002   0.986   0.024  1.00  0.00     0.293 HD
ENDBRANCH  19  20
ENDBRANCH  13  14
ENDBRANCH  10  13
ENDBRANCH   6  10
ENDBRANCH   3   6
ENDBRANCH   1   2
BRANCH   1  22
ATOM     22  C   UNL     1       0.816   4.868   0.400  1.00  0.00     0.042 C 
BRANCH  22  23
ATOM     23  C   UNL     1       0.457   6.287  -0.018  1.00  0.00     0.118 C 
BRANCH  23  24
ATOM     24  N   UNL     1      -0.199   7.037   1.050  1.00  0.00    -0.352 N 
ATOM     25  C   UNL     1       0.244   8.097   1.806  1.00  0.00     0.251 C 
ATOM     26  H   UNL     1      -1.111   6.733   1.264  1.00  0.00     0.163 HD
ATOM     27  O   UNL     1      -0.386   8.437   2.799  1.00  0.00    -0.269 OA
BRANCH  25  28
ATOM     28  C   UNL     1       1.483   8.812   1.429  1.00  0.00     0.039 A 
ATOM     29  C   UNL     1       2.368   9.224   2.430  1.00  0.00     0.014 A 
ATOM     30  C   UNL     1       1.766   9.085   0.091  1.00  0.00     0.014 A 
ATOM     31  C   UNL     1       3.575   9.834   2.077  1.00  0.00     0.010 A 
ATOM     32  C   UNL     1       3.009   9.591  -0.262  1.00  0.00     0.010 A 
ATOM     33  C   UNL     1       3.925   9.981   0.725  1.00  0.00    -0.014 A 
BRANCH  33  34
ATOM     34  C   UNL     1       5.231  10.547   0.303  1.00  0.00     0.031 A 
ATOM     35  C   UNL     1       5.265  11.781  -0.560  1.00  0.00     0.074 A 
ATOM     36  C   UNL     1       6.372   9.891   0.596  1.00  0.00     0.049 A 
ATOM     37  N   UNL     1       6.285  12.348  -1.151  1.00  0.00    -0.248 NA
ATOM     38  C   UNL     1       3.976  12.444  -0.827  1.00  0.00     0.031 C 
ATOM     39  C   UNL     1       6.463   8.644   1.360  1.00  0.00     0.029 A 
ATOM     40  N   UNL     1       7.674  10.165   0.258  1.00  0.00    -0.354 N 
ATOM     41  C   UNL     1       5.757  13.401  -1.890  1.00  0.00     0.074 A 
ATOM     42  C   UNL     1       4.323  13.369  -1.710  1.00  0.00     0.031 C 
ATOM     43  C   UNL     1       7.749   8.268   1.440  1.00  0.00     0.029 A 
ATOM     44  C   UNL     1       8.572   9.222   0.705  1.00  0.00     0.049 A 
ATOM     45  H   UNL     1       7.941  10.961  -0.255  1.00  0.00     0.167 HD
ATOM     46  C   UNL     1       6.409  14.337  -2.619  1.00  0.00     0.034 A 
ATOM     47  C   UNL     1       9.906   9.136   0.536  1.00  0.00     0.034 A 
ATOM     48  C   UNL     1       7.838  14.405  -2.739  1.00  0.00     0.049 A 
ATOM     49  C   UNL     1      10.610  10.221  -0.236  1.00  0.00     0.074 A 
ATOM     50  C   UNL     1       8.603  15.351  -3.397  1.00  0.00     0.029 A 
ATOM     51  N   UNL     1       8.720  13.496  -2.176  1.00  0.00    -0.354 N 
ATOM     52  N   UNL     1      10.104  11.284  -0.814  1.00  0.00    -0.248 NA
ATOM     53  C   UNL     1      12.072  10.117  -0.348  1.00  0.00     0.031 C 
ATOM     54  C   UNL     1       9.951  15.014  -3.230  1.00  0.00     0.029 A 
ATOM     55  C   UNL     1      10.023  13.865  -2.459  1.00  0.00     0.049 A 
ATOM     56  H   UNL     1       8.458  12.705  -1.651  1.00  0.00     0.167 HD
ATOM     57  C   UNL     1      11.187  11.996  -1.317  1.00  0.00     0.074 A 
ATOM     58  C   UNL     1      12.377  11.253  -0.960  1.00  0.00     0.031 C 
ATOM     59  C   UNL     1      11.196  13.151  -2.027  1.00  0.00     0.034 A 
BRANCH  46  60
ATOM     60  C   UNL     1       5.582  15.414  -3.272  1.00  0.00     0.023 A 
ATOM     61  C   UNL     1       4.984  16.405  -2.466  1.00  0.00     0.012 A 
ATOM     62  C   UNL     1       5.438  15.483  -4.671  1.00  0.00     0.148 A 
ATOM     63  C   UNL     1       4.227  17.426  -3.037  1.00  0.00     0.002 A 
ATOM     64  C   UNL     1       4.719  16.530  -5.237  1.00  0.00     0.091 A 
ATOM     65  F   UNL     1       5.997  14.522  -5.420  1.00  0.00    -0.205 F 
ATOM     66  C   UNL     1       4.104  17.495  -4.421  1.00  0.00     0.022 A 
BRANCH  64  67
ATOM     67  S   UNL     1       4.562  16.755  -7.012  1.00  0.00     0.127 S 
ATOM     68  O   UNL     1       3.151  16.438  -7.226  1.00  0.00    -0.237 OA
ATOM     69  O   UNL     1       4.900  18.169  -7.174  1.00  0.00    -0.237 OA
ATOM     70  O   UNL     1       5.510  15.831  -7.619  1.00  0.00    -0.744 OA
ENDBRANCH  64  67
ENDBRANCH  46  60
BRANCH  47  71
ATOM     71  C   UNL     1      10.675   8.034   1.182  1.00  0.00     0.023 A 
ATOM     72  C   UNL     1      11.546   8.341   2.247  1.00  0.00     0.012 A 
ATOM     73  C   UNL     1      10.542   6.692   0.775  1.00  0.00     0.148 A 
ATOM     74  C   UNL     1      12.300   7.343   2.864  1.00  0.00     0.002 A 
ATOM     75  C   UNL     1      11.251   5.693   1.436  1.00  0.00     0.091 A 
ATOM     76  F   UNL     1       9.723   6.411  -0.248  1.00  0.00    -0.205 F 
ATOM     77  C   UNL     1      12.146   6.018   2.466  1.00  0.00     0.022 A 
BRANCH  75  78
ATOM     78  S   UNL     1      10.982   3.951   1.078  1.00  0.00     0.127 S 
ATOM     79  O   UNL     1      12.082   3.657   0.166  1.00  0.00    -0.237 OA
ATOM     80  O   UNL     1      11.097   3.338   2.402  1.00  0.00    -0.237 OA
ATOM     81  O   UNL     1       9.638   3.878   0.515  1.00  0.00    -0.744 OA
ENDBRANCH  75  78
ENDBRANCH  47  71
BRANCH  59  82
ATOM     82  C   UNL     1      12.533  13.717  -2.423  1.00  0.00     0.023 A 
ATOM     83  C   UNL     1      13.267  13.113  -3.462  1.00  0.00     0.012 A 
ATOM     84  C   UNL     1      13.018  14.896  -1.824  1.00  0.00     0.148 A 
ATOM     85  C   UNL     1      14.479  13.659  -3.881  1.00  0.00     0.002 A 
ATOM     86  C   UNL     1      14.204  15.460  -2.278  1.00  0.00     0.091 A 
ATOM     87  F   UNL     1      12.312  15.443  -0.824  1.00  0.00    -0.205 F 
ATOM     88  C   UNL     1      14.941  14.838  -3.299  1.00  0.00     0.022 A 
BRANCH  86  89
ATOM     89  S   UNL     1      14.824  17.026  -1.652  1.00  0.00     0.127 S 
ATOM     90  O   UNL     1      15.943  16.590  -0.818  1.00  0.00    -0.237 OA
ATOM     91  O   UNL     1      15.212  17.721  -2.880  1.00  0.00    -0.237 OA
ATOM     92  O   UNL     1      13.712  17.639  -0.938  1.00  0.00    -0.744 OA
ENDBRANCH  86  89
ENDBRANCH  59  82
ENDBRANCH  33  34
ENDBRANCH  25  28
ENDBRANCH  23  24
ENDBRANCH  22  23
ENDBRANCH   1  22
TORSDOF 18
