REMARK SMILES C[C@@H](C(=O)NCCCNC(=O)c1ccc(-c2c3nc(c(-c4cccc(S(=O)(=O)[O-])c4F)c4ccc([nH]4)c(-c4cccc(S(=O)(=O)[O-])c4F)c4nc(c(-c5cccc(S(=O)(=O)[O-])c5F)c5ccc2[nH]5)C=C4)C=C3)cc1)N1C(=O)CC2(CCCC2)C1=O
REMARK SMILES IDX 8 1 7 2 6 3 5 4 3 5 4 6 2 8 1 9 75 10 76 11 84 12 77 13
REMARK SMILES IDX 78 14 79 15 85 16 80 17 83 18 81 19 82 20 9 21 10 22 11 24
REMARK SMILES IDX 12 25 13 26 74 27 14 28 73 29 15 30 16 31 17 32 67 33 18 34
REMARK SMILES IDX 72 35 66 36 68 37 19 38 71 39 65 40 64 41 20 43 52 44 32 45
REMARK SMILES IDX 51 46 33 47 36 48 50 49 69 50 34 51 35 52 49 54 70 55 37 56
REMARK SMILES IDX 21 57 22 58 30 59 23 60 25 61 31 62 24 63 26 64 27 65 28 66
REMARK SMILES IDX 29 67 53 68 54 69 62 70 55 71 57 72 63 73 56 74 58 75 59 76
REMARK SMILES IDX 60 77 61 78 38 79 39 80 47 81 40 82 42 83 48 84 41 85 43 86
REMARK SMILES IDX 44 87 45 88 46 89
REMARK H PARENT 5 7 9 23 68 42 36 53
REMARK Flexibility Score: inf
ROOT
ATOM      1  C   UNL     1       5.018  -2.426   0.280  1.00  0.00     0.118 C 
ENDROOT
BRANCH   1   2
ATOM      2  C   UNL     1       4.239  -1.202  -0.193  1.00  0.00     0.042 C 
BRANCH   2   3
ATOM      3  C   UNL     1       3.256  -1.484  -1.331  1.00  0.00     0.117 C 
BRANCH   3   4
ATOM      4  N   UNL     1       2.198  -2.384  -0.900  1.00  0.00    -0.354 N 
ATOM      5  C   UNL     1       0.922  -2.097  -0.496  1.00  0.00     0.243 C 
ATOM      6  O   UNL     1       0.325  -2.950   0.165  1.00  0.00    -0.273 OA
ATOM      7  H   UNL     1       2.435  -3.339  -0.899  1.00  0.00     0.163 HD
BRANCH   5   8
ATOM      8  C   UNL     1       0.307  -0.718  -0.828  1.00  0.00     0.179 C 
ATOM      9  C   UNL     1       0.780   0.246   0.268  1.00  0.00     0.042 C 
BRANCH   8  10
ATOM     10  N   UNL     1      -1.162  -0.795  -0.888  1.00  0.00    -0.270 N 
ATOM     11  C   UNL     1      -1.955   0.320  -0.947  1.00  0.00     0.231 C 
ATOM     12  C   UNL     1      -1.840  -1.823  -1.487  1.00  0.00     0.236 C 
ATOM     13  O   UNL     1      -1.598   1.486  -0.956  1.00  0.00    -0.274 OA
ATOM     14  C   UNL     1      -3.383  -0.084  -1.194  1.00  0.00     0.117 C 
ATOM     15  C   UNL     1      -3.311  -1.604  -1.226  1.00  0.00     0.059 C 
ATOM     16  O   UNL     1      -1.374  -2.702  -2.199  1.00  0.00    -0.274 OA
ATOM     17  C   UNL     1      -3.772  -2.229   0.096  1.00  0.00     0.017 C 
ATOM     18  C   UNL     1      -4.244  -2.257  -2.237  1.00  0.00     0.017 C 
ATOM     19  C   UNL     1      -5.293  -2.324  -0.036  1.00  0.00     0.001 C 
ATOM     20  C   UNL     1      -5.596  -2.297  -1.534  1.00  0.00     0.001 C 
ENDBRANCH   8  10
ENDBRANCH   5   8
ENDBRANCH   3   4
ENDBRANCH   2   3
ENDBRANCH   1   2
BRANCH   1  21
ATOM     21  N   UNL     1       5.961  -2.907  -0.717  1.00  0.00    -0.352 N 
ATOM     22  C   UNL     1       7.313  -3.123  -0.610  1.00  0.00     0.251 C 
ATOM     23  H   UNL     1       5.572  -3.108  -1.599  1.00  0.00     0.163 HD
ATOM     24  O   UNL     1       7.966  -3.361  -1.623  1.00  0.00    -0.269 OA
BRANCH  22  25
ATOM     25  C   UNL     1       7.988  -3.053   0.707  1.00  0.00     0.039 A 
ATOM     26  C   UNL     1       9.229  -2.415   0.791  1.00  0.00     0.014 A 
ATOM     27  C   UNL     1       7.425  -3.633   1.848  1.00  0.00     0.014 A 
ATOM     28  C   UNL     1       9.878  -2.312   2.025  1.00  0.00     0.010 A 
ATOM     29  C   UNL     1       8.038  -3.465   3.089  1.00  0.00     0.010 A 
ATOM     30  C   UNL     1       9.274  -2.810   3.191  1.00  0.00    -0.014 A 
BRANCH  30  31
ATOM     31  C   UNL     1       9.915  -2.640   4.522  1.00  0.00     0.031 A 
ATOM     32  C   UNL     1      10.339  -3.840   5.327  1.00  0.00     0.074 A 
ATOM     33  C   UNL     1      10.043  -1.403   5.045  1.00  0.00     0.049 A 
ATOM     34  N   UNL     1      10.866  -3.885   6.524  1.00  0.00    -0.248 NA
ATOM     35  C   UNL     1      10.122  -5.163   4.719  1.00  0.00     0.031 C 
ATOM     36  C   UNL     1       9.599  -0.165   4.402  1.00  0.00     0.029 A 
ATOM     37  N   UNL     1      10.556  -0.986   6.248  1.00  0.00    -0.354 N 
ATOM     38  C   UNL     1      11.009  -5.234   6.827  1.00  0.00     0.074 A 
ATOM     39  C   UNL     1      10.486  -5.976   5.701  1.00  0.00     0.031 C 
ATOM     40  C   UNL     1       9.858   0.871   5.216  1.00  0.00     0.029 A 
ATOM     41  C   UNL     1      10.458   0.371   6.449  1.00  0.00     0.049 A 
ATOM     42  H   UNL     1      10.957  -1.601   6.905  1.00  0.00     0.167 HD
ATOM     43  C   UNL     1      11.550  -5.805   7.930  1.00  0.00     0.034 A 
ATOM     44  C   UNL     1      10.801   1.129   7.510  1.00  0.00     0.034 A 
ATOM     45  C   UNL     1      12.108  -5.065   9.031  1.00  0.00     0.049 A 
ATOM     46  C   UNL     1      11.442   0.474   8.703  1.00  0.00     0.074 A 
ATOM     47  C   UNL     1      12.761  -5.552  10.150  1.00  0.00     0.029 A 
ATOM     48  N   UNL     1      12.074  -3.685   9.158  1.00  0.00    -0.354 N 
ATOM     49  N   UNL     1      11.716  -0.793   8.900  1.00  0.00    -0.248 NA
ATOM     50  C   UNL     1      11.857   1.356   9.804  1.00  0.00     0.031 C 
ATOM     51  C   UNL     1      13.099  -4.467  10.966  1.00  0.00     0.029 A 
ATOM     52  C   UNL     1      12.684  -3.303  10.340  1.00  0.00     0.049 A 
ATOM     53  H   UNL     1      11.674  -3.068   8.503  1.00  0.00     0.167 HD
ATOM     54  C   UNL     1      12.365  -0.856  10.128  1.00  0.00     0.074 A 
ATOM     55  C   UNL     1      12.463   0.503  10.619  1.00  0.00     0.031 C 
ATOM     56  C   UNL     1      12.824  -1.943  10.795  1.00  0.00     0.034 A 
BRANCH  43  57
ATOM     57  C   UNL     1      11.617  -7.310   7.982  1.00  0.00     0.023 A 
ATOM     58  C   UNL     1      12.525  -7.994   7.149  1.00  0.00     0.012 A 
ATOM     59  C   UNL     1      10.837  -8.040   8.901  1.00  0.00     0.148 A 
ATOM     60  C   UNL     1      12.633  -9.383   7.205  1.00  0.00     0.002 A 
ATOM     61  C   UNL     1      10.983  -9.420   8.983  1.00  0.00     0.091 A 
ATOM     62  F   UNL     1       9.966  -7.374   9.673  1.00  0.00    -0.205 F 
ATOM     63  C   UNL     1      11.871 -10.094   8.128  1.00  0.00     0.022 A 
BRANCH  61  64
ATOM     64  S   UNL     1      10.110 -10.419  10.194  1.00  0.00     0.127 S 
ATOM     65  O   UNL     1       9.174 -11.158   9.346  1.00  0.00    -0.237 OA
ATOM     66  O   UNL     1      11.189 -11.229  10.760  1.00  0.00    -0.237 OA
ATOM     67  O   UNL     1       9.500  -9.481  11.125  1.00  0.00    -0.744 OA
ENDBRANCH  61  64
ENDBRANCH  43  57
BRANCH  44  68
ATOM     68  C   UNL     1      10.599   2.605   7.463  1.00  0.00     0.023 A 
ATOM     69  C   UNL     1      11.719   3.455   7.376  1.00  0.00     0.012 A 
ATOM     70  C   UNL     1       9.308   3.167   7.473  1.00  0.00     0.148 A 
ATOM     71  C   UNL     1      11.558   4.840   7.332  1.00  0.00     0.002 A 
ATOM     72  C   UNL     1       9.153   4.545   7.371  1.00  0.00     0.091 A 
ATOM     73  F   UNL     1       8.257   2.342   7.567  1.00  0.00    -0.205 F 
ATOM     74  C   UNL     1      10.276   5.385   7.319  1.00  0.00     0.022 A 
BRANCH  72  75
ATOM     75  S   UNL     1       7.542   5.322   7.209  1.00  0.00     0.127 S 
ATOM     76  O   UNL     1       7.400   5.989   8.500  1.00  0.00    -0.237 OA
ATOM     77  O   UNL     1       7.753   6.219   6.072  1.00  0.00    -0.237 OA
ATOM     78  O   UNL     1       6.606   4.237   6.949  1.00  0.00    -0.744 OA
ENDBRANCH  72  75
ENDBRANCH  44  68
BRANCH  56  79
ATOM     79  C   UNL     1      13.512  -1.716  12.116  1.00  0.00     0.023 A 
ATOM     80  C   UNL     1      12.758  -1.341  13.246  1.00  0.00     0.012 A 
ATOM     81  C   UNL     1      14.896  -1.946  12.254  1.00  0.00     0.148 A 
ATOM     82  C   UNL     1      13.376  -1.167  14.484  1.00  0.00     0.002 A 
ATOM     83  C   UNL     1      15.495  -1.820  13.501  1.00  0.00     0.091 A 
ATOM     84  F   UNL     1      15.600  -2.284  11.163  1.00  0.00    -0.205 F 
ATOM     85  C   UNL     1      14.739  -1.418  14.614  1.00  0.00     0.022 A 
BRANCH  83  86
ATOM     86  S   UNL     1      17.225  -2.216  13.782  1.00  0.00     0.127 S 
ATOM     87  O   UNL     1      17.809  -0.888  13.963  1.00  0.00    -0.237 OA
ATOM     88  O   UNL     1      17.164  -3.026  14.999  1.00  0.00    -0.237 OA
ATOM     89  O   UNL     1      17.669  -2.938  12.598  1.00  0.00    -0.744 OA
ENDBRANCH  83  86
ENDBRANCH  56  79
ENDBRANCH  30  31
ENDBRANCH  22  25
ENDBRANCH   1  21
TORSDOF 14
