REMARK SMILES C[C@@]1(C(=O)c2ccccc2N)[C@H](C(=O)NCCCNC(=O)c2ccc(-c3c4nc(c(-c5cccc(S(=O)(=O)[O-])c5F)c5ccc([nH]5)c(-c5cccc(S(=O)(=O)[O-])c5F)c5nc(c(-c6cccc(S(=O)(=O)[O-])c6F)c6ccc3[nH]6)C=C5)C=C4)cc2)[C@@H]1C(=O)N1CCOCC1
REMARK SMILES IDX 17 1 16 2 15 3 13 4 14 5 12 7 1 8 2 9 85 10 3 11 4 12 5 13
REMARK SMILES IDX 6 14 10 15 7 16 9 17 8 18 11 19 86 22 87 23 88 24 89 25
REMARK SMILES IDX 93 26 90 27 92 28 91 29 18 30 19 31 20 32 21 34 22 35 23 36
REMARK SMILES IDX 84 37 24 38 83 39 25 40 26 41 27 42 77 43 28 44 82 45 76 46
REMARK SMILES IDX 78 47 29 48 81 49 75 50 74 51 30 53 62 54 42 55 61 56 43 57
REMARK SMILES IDX 46 58 60 59 79 60 44 61 45 62 59 64 80 65 47 66 31 67 32 68
REMARK SMILES IDX 40 69 33 70 35 71 41 72 34 73 36 74 37 75 38 76 39 77 63 78
REMARK SMILES IDX 64 79 72 80 65 81 67 82 73 83 66 84 68 85 69 86 70 87 71 88
REMARK SMILES IDX 48 89 49 90 57 91 50 92 52 93 58 94 51 95 53 96 54 97 55 98
REMARK SMILES IDX 56 99
REMARK H PARENT 15 6 11 20 11 21 19 33 78 52 46 63
REMARK Flexibility Score: inf
ROOT
ATOM      1  C   UNL     1      -3.365   2.349   2.815  1.00  0.00     0.042 C 
ENDROOT
BRANCH   1   2
ATOM      2  C   UNL     1      -2.388   2.621   1.682  1.00  0.00     0.117 C 
BRANCH   2   3
ATOM      3  N   UNL     1      -1.126   3.102   2.184  1.00  0.00    -0.356 N 
ATOM      4  C   UNL     1       0.133   3.106   1.697  1.00  0.00     0.224 C 
ATOM      5  O   UNL     1       0.968   3.682   2.398  1.00  0.00    -0.275 OA
ATOM      6  H   UNL     1      -1.198   3.517   3.074  1.00  0.00     0.163 HD
BRANCH   4   7
ATOM      7  C   UNL     1       0.618   2.555   0.426  1.00  0.00     0.106 C 
ATOM      8  C   UNL     1       2.051   0.605  -0.339  1.00  0.00     0.022 C 
ATOM      9  C   UNL     1       0.647   1.111  -0.015  1.00  0.00     0.056 C 
ATOM     10  C   UNL     1       0.056   2.266  -0.915  1.00  0.00     0.106 C 
BRANCH   9  11
ATOM     11  C   UNL     1      -0.306  -0.035   0.218  1.00  0.00     0.172 C 
ATOM     12  O   UNL     1      -0.421  -0.857  -0.692  1.00  0.00    -0.293 OA
BRANCH  11  13
ATOM     13  C   UNL     1      -0.996  -0.336   1.490  1.00  0.00     0.041 A 
ATOM     14  C   UNL     1      -0.326  -0.224   2.713  1.00  0.00     0.014 A 
ATOM     15  C   UNL     1      -2.331  -0.815   1.441  1.00  0.00     0.042 A 
ATOM     16  C   UNL     1      -0.986  -0.570   3.895  1.00  0.00     0.001 A 
ATOM     17  C   UNL     1      -2.977  -1.129   2.642  1.00  0.00     0.026 A 
ATOM     18  C   UNL     1      -2.306  -1.023   3.860  1.00  0.00     0.002 A 
BRANCH  15  19
ATOM     19  N   UNL     1      -3.100  -0.756   0.272  1.00  0.00    -0.398 N 
ATOM     20  H   UNL     1      -2.673  -0.538  -0.588  1.00  0.00     0.156 HD
ATOM     21  H   UNL     1      -4.067  -0.934   0.310  1.00  0.00     0.156 HD
ENDBRANCH  15  19
ENDBRANCH  11  13
ENDBRANCH   9  11
BRANCH  10  22
ATOM     22  C   UNL     1      -1.365   2.268  -1.353  1.00  0.00     0.227 C 
ATOM     23  O   UNL     1      -1.843   1.230  -1.794  1.00  0.00    -0.275 OA
ATOM     24  N   UNL     1      -2.087   3.454  -1.378  1.00  0.00    -0.338 N 
ATOM     25  C   UNL     1      -1.580   4.806  -1.141  1.00  0.00     0.148 C 
ATOM     26  C   UNL     1      -3.462   3.409  -1.893  1.00  0.00     0.148 C 
ATOM     27  C   UNL     1      -2.597   5.680  -0.385  1.00  0.00     0.181 C 
ATOM     28  C   UNL     1      -4.398   4.268  -1.047  1.00  0.00     0.181 C 
ATOM     29  O   UNL     1      -3.913   5.617  -0.954  1.00  0.00    -0.378 OA
ENDBRANCH  10  22
ENDBRANCH   4   7
ENDBRANCH   2   3
ENDBRANCH   1   2
BRANCH   1  30
ATOM     30  C   UNL     1      -3.983   3.652   3.316  1.00  0.00     0.118 C 
BRANCH  30  31
ATOM     31  N   UNL     1      -5.194   4.000   2.597  1.00  0.00    -0.352 N 
ATOM     32  C   UNL     1      -6.425   3.398   2.511  1.00  0.00     0.251 C 
ATOM     33  H   UNL     1      -5.118   4.827   2.068  1.00  0.00     0.163 HD
ATOM     34  O   UNL     1      -7.180   3.797   1.623  1.00  0.00    -0.269 OA
BRANCH  32  35
ATOM     35  C   UNL     1      -6.883   2.306   3.420  1.00  0.00     0.039 A 
ATOM     36  C   UNL     1      -7.983   1.532   3.013  1.00  0.00     0.014 A 
ATOM     37  C   UNL     1      -6.362   2.085   4.694  1.00  0.00     0.014 A 
ATOM     38  C   UNL     1      -8.576   0.610   3.886  1.00  0.00     0.010 A 
ATOM     39  C   UNL     1      -6.884   1.097   5.526  1.00  0.00     0.010 A 
ATOM     40  C   UNL     1      -8.041   0.402   5.164  1.00  0.00    -0.014 A 
BRANCH  40  41
ATOM     41  C   UNL     1      -8.718  -0.437   6.188  1.00  0.00     0.031 A 
ATOM     42  C   UNL     1      -9.177   0.195   7.484  1.00  0.00     0.074 A 
ATOM     43  C   UNL     1      -8.840  -1.765   6.008  1.00  0.00     0.049 A 
ATOM     44  N   UNL     1      -9.674  -0.370   8.553  1.00  0.00    -0.248 NA
ATOM     45  C   UNL     1      -9.008   1.654   7.611  1.00  0.00     0.031 C 
ATOM     46  C   UNL     1      -8.373  -2.508   4.837  1.00  0.00     0.029 A 
ATOM     47  N   UNL     1      -9.371  -2.729   6.826  1.00  0.00    -0.354 N 
ATOM     48  C   UNL     1      -9.802   0.644   9.498  1.00  0.00     0.074 A 
ATOM     49  C   UNL     1      -9.301   1.854   8.887  1.00  0.00     0.031 C 
ATOM     50  C   UNL     1      -8.652  -3.811   5.005  1.00  0.00     0.029 A 
ATOM     51  C   UNL     1      -9.293  -3.999   6.304  1.00  0.00     0.049 A 
ATOM     52  H   UNL     1      -9.771  -2.531   7.704  1.00  0.00     0.167 HD
ATOM     53  C   UNL     1     -10.321   0.586  10.748  1.00  0.00     0.034 A 
ATOM     54  C   UNL     1      -9.701  -5.177   6.814  1.00  0.00     0.034 A 
ATOM     55  C   UNL     1     -10.917  -0.596  11.309  1.00  0.00     0.049 A 
ATOM     56  C   UNL     1     -10.380  -5.197   8.157  1.00  0.00     0.074 A 
ATOM     57  C   UNL     1     -11.583  -0.739  12.513  1.00  0.00     0.029 A 
ATOM     58  N   UNL     1     -10.934  -1.837  10.692  1.00  0.00    -0.354 N 
ATOM     59  N   UNL     1     -10.623  -4.201   8.975  1.00  0.00    -0.248 NA
ATOM     60  C   UNL     1     -10.882  -6.496   8.627  1.00  0.00     0.031 C 
ATOM     61  C   UNL     1     -11.997  -2.071  12.627  1.00  0.00     0.029 A 
ATOM     62  C   UNL     1     -11.604  -2.751  11.485  1.00  0.00     0.049 A 
ATOM     63  H   UNL     1     -10.530  -2.038   9.817  1.00  0.00     0.167 HD
ATOM     64  C   UNL     1     -11.347  -4.743  10.031  1.00  0.00     0.074 A 
ATOM     65  C   UNL     1     -11.514  -6.153   9.741  1.00  0.00     0.031 C 
ATOM     66  C   UNL     1     -11.820  -4.134  11.147  1.00  0.00     0.034 A 
BRANCH  53  67
ATOM     67  C   UNL     1     -10.325   1.852  11.571  1.00  0.00     0.023 A 
ATOM     68  C   UNL     1     -11.175   2.919  11.212  1.00  0.00     0.012 A 
ATOM     69  C   UNL     1      -9.521   1.972  12.722  1.00  0.00     0.148 A 
ATOM     70  C   UNL     1     -11.188   4.101  11.953  1.00  0.00     0.002 A 
ATOM     71  C   UNL     1      -9.577   3.135  13.485  1.00  0.00     0.091 A 
ATOM     72  F   UNL     1      -8.703   0.959  13.042  1.00  0.00    -0.205 F 
ATOM     73  C   UNL     1     -10.398   4.205  13.093  1.00  0.00     0.022 A 
BRANCH  71  74
ATOM     74  S   UNL     1      -8.661   3.328  15.018  1.00  0.00     0.127 S 
ATOM     75  O   UNL     1      -7.582   4.225  14.607  1.00  0.00    -0.237 OA
ATOM     76  O   UNL     1      -9.656   3.939  15.900  1.00  0.00    -0.237 OA
ATOM     77  O   UNL     1      -8.251   1.987  15.409  1.00  0.00    -0.744 OA
ENDBRANCH  71  74
ENDBRANCH  53  67
BRANCH  54  78
ATOM     78  C   UNL     1      -9.583  -6.417   5.996  1.00  0.00     0.023 A 
ATOM     79  C   UNL     1     -10.751  -6.985   5.450  1.00  0.00     0.012 A 
ATOM     80  C   UNL     1      -8.337  -7.011   5.722  1.00  0.00     0.148 A 
ATOM     81  C   UNL     1     -10.685  -8.139   4.669  1.00  0.00     0.002 A 
ATOM     82  C   UNL     1      -8.273  -8.131   4.901  1.00  0.00     0.091 A 
ATOM     83  F   UNL     1      -7.239  -6.460   6.258  1.00  0.00    -0.205 F 
ATOM     84  C   UNL     1      -9.446  -8.706   4.386  1.00  0.00     0.022 A 
BRANCH  82  85
ATOM     85  S   UNL     1      -6.714  -8.855   4.377  1.00  0.00     0.127 S 
ATOM     86  O   UNL     1      -6.700 -10.108   5.128  1.00  0.00    -0.237 OA
ATOM     87  O   UNL     1      -6.918  -9.001   2.936  1.00  0.00    -0.237 OA
ATOM     88  O   UNL     1      -5.691  -7.885   4.744  1.00  0.00    -0.744 OA
ENDBRANCH  82  85
ENDBRANCH  54  78
BRANCH  66  89
ATOM     89  C   UNL     1     -12.613  -4.971  12.115  1.00  0.00     0.023 A 
ATOM     90  C   UNL     1     -11.960  -5.921  12.924  1.00  0.00     0.012 A 
ATOM     91  C   UNL     1     -13.999  -4.767  12.268  1.00  0.00     0.148 A 
ATOM     92  C   UNL     1     -12.680  -6.681  13.844  1.00  0.00     0.002 A 
ATOM     93  C   UNL     1     -14.701  -5.494  13.222  1.00  0.00     0.091 A 
ATOM     94  F   UNL     1     -14.608  -3.874  11.474  1.00  0.00    -0.205 F 
ATOM     95  C   UNL     1     -14.046  -6.460  14.002  1.00  0.00     0.022 A 
BRANCH  93  96
ATOM     96  S   UNL     1     -16.441  -5.195  13.553  1.00  0.00     0.127 S 
ATOM     97  O   UNL     1     -17.077  -6.290  12.824  1.00  0.00    -0.237 OA
ATOM     98  O   UNL     1     -16.509  -5.311  15.010  1.00  0.00    -0.237 OA
ATOM     99  O   UNL     1     -16.714  -3.856  13.047  1.00  0.00    -0.744 OA
ENDBRANCH  93  96
ENDBRANCH  66  89
ENDBRANCH  40  41
ENDBRANCH  32  35
ENDBRANCH  30  31
ENDBRANCH   1  30
TORSDOF 17
