REMARK SMILES O=C(NCCCNC(=O)c1nnn(-c2cccc(C(F)(F)F)c2)c1[C@H]1COc2ccccc2O1)c1ccc(-c2c3nc(c(-c4cccc(S(=O)(=O)[O-])c4F)c4ccc([nH]4)c(-c4cccc(S(=O)(=O)[O-])c4F)c4nc(c(-c5cccc(S(=O)(=O)[O-])c5F)c5ccc2[nH]5)C=C4)C=C3)cc1
REMARK SMILES IDX 4 1 3 2 1 3 2 4 35 6 36 7 97 8 37 9 96 10 38 11 39 12 40 13
REMARK SMILES IDX 90 14 41 15 95 16 89 17 91 18 42 19 94 20 88 21 87 22 43 24
REMARK SMILES IDX 75 25 55 26 74 27 56 28 59 29 73 30 92 31 57 32 58 33 72 35
REMARK SMILES IDX 93 36 60 37 44 38 45 39 53 40 46 41 48 42 54 43 47 44 49 45
REMARK SMILES IDX 50 46 51 47 52 48 76 49 77 50 85 51 78 52 80 53 86 54 79 55
REMARK SMILES IDX 81 56 82 57 83 58 84 59 61 60 62 61 70 62 63 63 65 64 71 65
REMARK SMILES IDX 64 66 66 67 67 68 68 69 69 70 5 71 6 72 7 73 8 74 9 76 10 77
REMARK SMILES IDX 11 78 24 79 12 80 13 81 25 82 26 83 34 84 27 85 33 86 28 87
REMARK SMILES IDX 32 88 29 89 31 90 30 91 14 92 15 93 23 94 16 95 18 96 17 97
REMARK SMILES IDX 19 98 20 99 21 100 22 101
REMARK H PARENT 3 5 91 23 59 34 7 75
REMARK Flexibility Score: inf
ROOT
ATOM      1  C   UNL     1       6.125   4.328  -2.290  1.00  0.00     0.118 C 
ENDROOT
BRANCH   1   2
ATOM      2  N   UNL     1       6.013   5.771  -2.396  1.00  0.00    -0.352 N 
ATOM      3  O   UNL     1       6.435   7.875  -2.910  1.00  0.00    -0.269 OA
ATOM      4  C   UNL     1       6.907   6.802  -2.522  1.00  0.00     0.251 C 
ATOM      5  H   UNL     1       5.079   6.080  -2.372  1.00  0.00     0.163 HD
BRANCH   4   6
ATOM      6  C   UNL     1       8.352   6.739  -2.169  1.00  0.00     0.039 A 
ATOM      7  C   UNL     1       9.069   5.577  -1.887  1.00  0.00     0.014 A 
ATOM      8  C   UNL     1       9.024   7.974  -2.088  1.00  0.00     0.014 A 
ATOM      9  C   UNL     1      10.393   5.646  -1.458  1.00  0.00     0.010 A 
ATOM     10  C   UNL     1      10.356   8.048  -1.687  1.00  0.00     0.010 A 
ATOM     11  C   UNL     1      11.035   6.882  -1.343  1.00  0.00    -0.014 A 
BRANCH  11  12
ATOM     12  C   UNL     1      12.459   6.889  -1.007  1.00  0.00     0.031 A 
ATOM     13  C   UNL     1      13.368   6.293  -2.032  1.00  0.00     0.074 A 
ATOM     14  C   UNL     1      12.982   7.544   0.049  1.00  0.00     0.049 A 
ATOM     15  N   UNL     1      14.225   5.331  -1.891  1.00  0.00    -0.248 NA
ATOM     16  C   UNL     1      13.259   6.804  -3.407  1.00  0.00     0.031 C 
ATOM     17  C   UNL     1      12.291   8.466   0.953  1.00  0.00     0.029 A 
ATOM     18  N   UNL     1      14.289   7.639   0.440  1.00  0.00    -0.354 N 
ATOM     19  C   UNL     1      14.903   5.249  -3.109  1.00  0.00     0.074 A 
ATOM     20  C   UNL     1      14.184   6.082  -4.038  1.00  0.00     0.031 C 
ATOM     21  C   UNL     1      13.210   9.207   1.610  1.00  0.00     0.029 A 
ATOM     22  C   UNL     1      14.538   8.726   1.269  1.00  0.00     0.049 A 
ATOM     23  H   UNL     1      14.985   7.000   0.163  1.00  0.00     0.167 HD
ATOM     24  C   UNL     1      16.123   4.659  -3.236  1.00  0.00     0.034 A 
ATOM     25  C   UNL     1      15.746   9.252   1.581  1.00  0.00     0.034 A 
ATOM     26  C   UNL     1      16.447   3.811  -2.125  1.00  0.00     0.049 A 
ATOM     27  C   UNL     1      16.782   8.239   1.287  1.00  0.00     0.074 A 
ATOM     28  C   UNL     1      15.885   2.695  -1.539  1.00  0.00     0.029 A 
ATOM     29  N   UNL     1      17.390   4.264  -1.238  1.00  0.00    -0.354 N 
ATOM     30  N   UNL     1      16.944   7.137   1.963  1.00  0.00    -0.248 NA
ATOM     31  C   UNL     1      17.465   8.294   0.006  1.00  0.00     0.031 C 
ATOM     32  C   UNL     1      16.180   2.819  -0.150  1.00  0.00     0.029 A 
ATOM     33  C   UNL     1      16.917   3.993   0.017  1.00  0.00     0.049 A 
ATOM     34  H   UNL     1      18.244   4.700  -1.462  1.00  0.00     0.167 HD
ATOM     35  C   UNL     1      17.375   6.213   1.024  1.00  0.00     0.074 A 
ATOM     36  C   UNL     1      17.811   7.011  -0.117  1.00  0.00     0.031 C 
ATOM     37  C   UNL     1      17.068   4.887   1.145  1.00  0.00     0.034 A 
BRANCH  24  38
ATOM     38  C   UNL     1      17.175   5.076  -4.236  1.00  0.00     0.023 A 
ATOM     39  C   UNL     1      18.274   4.213  -4.445  1.00  0.00     0.012 A 
ATOM     40  C   UNL     1      17.269   6.377  -4.780  1.00  0.00     0.148 A 
ATOM     41  C   UNL     1      19.417   4.632  -5.137  1.00  0.00     0.002 A 
ATOM     42  C   UNL     1      18.368   6.758  -5.543  1.00  0.00     0.091 A 
ATOM     43  F   UNL     1      16.360   7.303  -4.454  1.00  0.00    -0.205 F 
ATOM     44  C   UNL     1      19.458   5.900  -5.701  1.00  0.00     0.022 A 
BRANCH  42  45
ATOM     45  S   UNL     1      18.422   8.359  -6.356  1.00  0.00     0.127 S 
ATOM     46  O   UNL     1      19.248   9.130  -5.433  1.00  0.00    -0.237 OA
ATOM     47  O   UNL     1      19.058   8.031  -7.633  1.00  0.00    -0.237 OA
ATOM     48  O   UNL     1      17.027   8.764  -6.477  1.00  0.00    -0.744 OA
ENDBRANCH  42  45
ENDBRANCH  24  38
BRANCH  25  49
ATOM     49  C   UNL     1      16.105  10.649   1.918  1.00  0.00     0.023 A 
ATOM     50  C   UNL     1      17.283  10.911   2.645  1.00  0.00     0.012 A 
ATOM     51  C   UNL     1      15.439  11.737   1.313  1.00  0.00     0.148 A 
ATOM     52  C   UNL     1      17.793  12.211   2.747  1.00  0.00     0.002 A 
ATOM     53  C   UNL     1      15.941  13.029   1.429  1.00  0.00     0.091 A 
ATOM     54  F   UNL     1      14.367  11.493   0.547  1.00  0.00    -0.205 F 
ATOM     55  C   UNL     1      17.125  13.269   2.136  1.00  0.00     0.022 A 
BRANCH  53  56
ATOM     56  S   UNL     1      15.131  14.438   0.661  1.00  0.00     0.127 S 
ATOM     57  O   UNL     1      15.157  15.429   1.738  1.00  0.00    -0.237 OA
ATOM     58  O   UNL     1      16.023  14.727  -0.458  1.00  0.00    -0.237 OA
ATOM     59  O   UNL     1      13.793  13.979   0.307  1.00  0.00    -0.744 OA
ENDBRANCH  53  56
ENDBRANCH  25  49
BRANCH  37  60
ATOM     60  C   UNL     1      16.522   4.395   2.463  1.00  0.00     0.023 A 
ATOM     61  C   UNL     1      15.322   4.899   3.005  1.00  0.00     0.012 A 
ATOM     62  C   UNL     1      17.127   3.283   3.076  1.00  0.00     0.148 A 
ATOM     63  C   UNL     1      14.756   4.333   4.149  1.00  0.00     0.002 A 
ATOM     64  C   UNL     1      16.533   2.689   4.184  1.00  0.00     0.091 A 
ATOM     65  F   UNL     1      18.264   2.804   2.547  1.00  0.00    -0.205 F 
ATOM     66  C   UNL     1      15.354   3.219   4.731  1.00  0.00     0.022 A 
BRANCH  64  67
ATOM     67  S   UNL     1      17.172   1.168   4.891  1.00  0.00     0.127 S 
ATOM     68  O   UNL     1      17.871   1.651   6.079  1.00  0.00    -0.237 OA
ATOM     69  O   UNL     1      15.950   0.410   5.168  1.00  0.00    -0.237 OA
ATOM     70  O   UNL     1      18.014   0.574   3.860  1.00  0.00    -0.744 OA
ENDBRANCH  64  67
ENDBRANCH  37  60
ENDBRANCH  11  12
ENDBRANCH   4   6
ENDBRANCH   1   2
BRANCH   1  71
ATOM     71  C   UNL     1       6.296   3.766  -0.880  1.00  0.00     0.042 C 
BRANCH  71  72
ATOM     72  C   UNL     1       5.264   4.222   0.139  1.00  0.00     0.118 C 
BRANCH  72  73
ATOM     73  N   UNL     1       3.906   3.805  -0.124  1.00  0.00    -0.351 N 
ATOM     74  C   UNL     1       2.916   3.505   0.794  1.00  0.00     0.273 C 
ATOM     75  H   UNL     1       3.655   3.724  -1.072  1.00  0.00     0.163 HD
ATOM     76  O   UNL     1       1.795   3.241   0.385  1.00  0.00    -0.267 OA
BRANCH  74  77
ATOM     77  C   UNL     1       3.253   3.464   2.216  1.00  0.00     0.178 A 
ATOM     78  N   UNL     1       3.336   2.266   2.879  1.00  0.00    -0.124 NA
ATOM     79  C   UNL     1       3.553   4.496   3.102  1.00  0.00     0.122 A 
ATOM     80  N   UNL     1       3.731   2.503   4.120  1.00  0.00    -0.061 NA
ATOM     81  N   UNL     1       3.748   3.839   4.308  1.00  0.00    -0.213 N 
BRANCH  79  82
ATOM     82  C   UNL     1       3.795   5.963   2.904  1.00  0.00     0.262 C 
ATOM     83  C   UNL     1       5.298   6.293   2.952  1.00  0.00     0.281 C 
ATOM     84  O   UNL     1       3.174   6.301   1.663  1.00  0.00    -0.477 OA
ATOM     85  O   UNL     1       5.570   7.648   2.606  1.00  0.00    -0.485 OA
ATOM     86  C   UNL     1       3.720   7.393   1.052  1.00  0.00     0.162 A 
ATOM     87  C   UNL     1       4.896   8.014   1.475  1.00  0.00     0.161 A 
ATOM     88  C   UNL     1       3.064   7.839  -0.094  1.00  0.00     0.050 A 
ATOM     89  C   UNL     1       5.434   9.063   0.735  1.00  0.00     0.050 A 
ATOM     90  C   UNL     1       3.599   8.891  -0.833  1.00  0.00     0.004 A 
ATOM     91  C   UNL     1       4.791   9.493  -0.427  1.00  0.00     0.004 A 
ENDBRANCH  79  82
BRANCH  81  92
ATOM     92  C   UNL     1       4.047   4.386   5.576  1.00  0.00     0.067 A 
ATOM     93  C   UNL     1       5.060   3.807   6.347  1.00  0.00     0.028 A 
ATOM     94  C   UNL     1       3.381   5.531   6.032  1.00  0.00     0.041 A 
ATOM     95  C   UNL     1       5.473   4.436   7.521  1.00  0.00     0.003 A 
ATOM     96  C   UNL     1       3.781   6.160   7.221  1.00  0.00     0.058 A 
ATOM     97  C   UNL     1       4.849   5.612   7.947  1.00  0.00     0.013 A 
BRANCH  96  98
ATOM     98  C   UNL     1       3.090   7.411   7.705  1.00  0.00     0.416 C 
ATOM     99  F   UNL     1       2.597   7.282   8.967  1.00  0.00    -0.166 F 
ATOM    100  F   UNL     1       3.917   8.490   7.729  1.00  0.00    -0.166 F 
ATOM    101  F   UNL     1       2.028   7.772   6.929  1.00  0.00    -0.166 F 
ENDBRANCH  96  98
ENDBRANCH  81  92
ENDBRANCH  74  77
ENDBRANCH  72  73
ENDBRANCH  71  72
ENDBRANCH   1  71
TORSDOF 16
