REMARK SMILES COc1ccc(/C=C/c2cc(C(=O)NCCCNC(=O)c3ccc(-c4c5nc(c(-c6cccc(S(=O)(=O)[O-])c6F)c6ccc([nH]6)c(-c6cccc(S(=O)(=O)[O-])c6F)c6nc(c(-c7cccc(S(=O)(=O)[O-])c7F)c7ccc4[nH]7)C=C6)C=C5)cc3)c3ccccc3n2)c(OC)c1
REMARK SMILES IDX 16 1 15 2 14 3 12 4 13 5 11 7 9 8 10 9 90 10 89 11 84 12
REMARK SMILES IDX 88 13 85 14 87 15 86 16 8 17 7 18 6 19 3 20 4 21 94 22 5 23
REMARK SMILES IDX 91 24 2 25 1 26 92 27 93 28 17 29 18 30 19 31 20 33 21 34
REMARK SMILES IDX 22 35 83 36 23 37 82 38 24 39 25 40 26 41 76 42 27 43 81 44
REMARK SMILES IDX 75 45 77 46 28 47 80 48 74 49 73 50 29 52 61 53 41 54 60 55
REMARK SMILES IDX 42 56 45 57 59 58 78 59 43 60 44 61 58 63 79 64 46 65 30 66
REMARK SMILES IDX 31 67 39 68 32 69 34 70 40 71 33 72 35 73 36 74 37 75 38 76
REMARK SMILES IDX 62 77 63 78 71 79 64 80 66 81 72 82 65 83 67 84 68 85 69 86
REMARK SMILES IDX 70 87 47 88 48 89 56 90 49 91 51 92 57 93 50 94 52 95 53 96
REMARK SMILES IDX 54 97 55 98
REMARK H PARENT 14 6 18 32 77 51 45 62
REMARK Flexibility Score: inf
ROOT
ATOM      1  C   UNL     1       4.268  -7.996   9.758  1.00  0.00     0.042 C 
ENDROOT
BRANCH   1   2
ATOM      2  C   UNL     1       4.244  -6.480   9.944  1.00  0.00     0.118 C 
BRANCH   2   3
ATOM      3  N   UNL     1       5.119  -5.793   9.023  1.00  0.00    -0.352 N 
ATOM      4  C   UNL     1       5.066  -5.928   7.659  1.00  0.00     0.252 C 
ATOM      5  O   UNL     1       6.064  -6.390   7.106  1.00  0.00    -0.269 OA
ATOM      6  H   UNL     1       5.799  -5.188   9.398  1.00  0.00     0.163 HD
BRANCH   4   7
ATOM      7  C   UNL     1       3.966  -5.299   6.855  1.00  0.00     0.051 A 
ATOM      8  C   UNL     1       2.836  -3.243   6.980  1.00  0.00     0.065 A 
ATOM      9  C   UNL     1       2.948  -4.541   7.442  1.00  0.00     0.042 A 
ATOM     10  N   UNL     1       3.888  -2.668   6.361  1.00  0.00    -0.248 NA
ATOM     11  C   UNL     1       4.555  -3.460   5.526  1.00  0.00     0.072 A 
ATOM     12  C   UNL     1       4.469  -4.840   5.628  1.00  0.00     0.013 A 
ATOM     13  C   UNL     1       5.166  -2.901   4.427  1.00  0.00     0.029 A 
ATOM     14  C   UNL     1       4.831  -5.648   4.526  1.00  0.00     0.011 A 
ATOM     15  C   UNL     1       5.468  -3.675   3.309  1.00  0.00     0.002 A 
ATOM     16  C   UNL     1       5.267  -5.051   3.346  1.00  0.00     0.001 A 
BRANCH   8  17
ATOM     17  C   UNL     1       1.566  -2.611   6.519  1.00  0.00     0.029 C 
ATOM     18  C   UNL     1       1.428  -2.608   5.173  1.00  0.00     0.014 C 
BRANCH  18  19
ATOM     19  C   UNL     1       0.773  -1.670   4.242  1.00  0.00     0.017 A 
ATOM     20  C   UNL     1      -0.332  -0.336   2.026  1.00  0.00     0.122 A 
ATOM     21  C   UNL     1      -1.150  -1.051   2.901  1.00  0.00     0.047 A 
ATOM     22  C   UNL     1       1.021  -0.198   2.308  1.00  0.00     0.093 A 
ATOM     23  C   UNL     1      -0.602  -1.723   4.006  1.00  0.00     0.016 A 
ATOM     24  C   UNL     1       1.588  -0.874   3.391  1.00  0.00     0.129 A 
BRANCH  20  25
ATOM     25  O   UNL     1      -0.919   0.224   0.920  1.00  0.00    -0.497 OA
ATOM     26  C   UNL     1      -0.122   0.128  -0.265  1.00  0.00     0.278 C 
ENDBRANCH  20  25
BRANCH  24  27
ATOM     27  O   UNL     1       2.937  -0.813   3.663  1.00  0.00    -0.496 OA
ATOM     28  C   UNL     1       3.782  -0.267   2.653  1.00  0.00     0.278 C 
ENDBRANCH  24  27
ENDBRANCH  18  19
ENDBRANCH   8  17
ENDBRANCH   4   7
ENDBRANCH   2   3
ENDBRANCH   1   2
BRANCH   1  29
ATOM     29  C   UNL     1       5.661  -8.624   9.668  1.00  0.00     0.118 C 
BRANCH  29  30
ATOM     30  N   UNL     1       6.479  -8.379  10.849  1.00  0.00    -0.352 N 
ATOM     31  C   UNL     1       6.901  -9.252  11.815  1.00  0.00     0.251 C 
ATOM     32  H   UNL     1       6.773  -7.447  10.969  1.00  0.00     0.163 HD
ATOM     33  O   UNL     1       7.445  -8.824  12.837  1.00  0.00    -0.269 OA
BRANCH  31  34
ATOM     34  C   UNL     1       6.689 -10.702  11.646  1.00  0.00     0.039 A 
ATOM     35  C   UNL     1       6.144 -11.438  12.701  1.00  0.00     0.014 A 
ATOM     36  C   UNL     1       7.038 -11.335  10.450  1.00  0.00     0.014 A 
ATOM     37  C   UNL     1       5.893 -12.802  12.535  1.00  0.00     0.010 A 
ATOM     38  C   UNL     1       6.718 -12.675  10.261  1.00  0.00     0.010 A 
ATOM     39  C   UNL     1       6.153 -13.425  11.304  1.00  0.00    -0.014 A 
BRANCH  39  40
ATOM     40  C   UNL     1       5.863 -14.864  11.082  1.00  0.00     0.031 A 
ATOM     41  C   UNL     1       6.989 -15.814  10.776  1.00  0.00     0.074 A 
ATOM     42  C   UNL     1       4.586 -15.292  11.052  1.00  0.00     0.049 A 
ATOM     43  N   UNL     1       6.937 -17.078  10.446  1.00  0.00    -0.248 NA
ATOM     44  C   UNL     1       8.354 -15.261  10.813  1.00  0.00     0.031 C 
ATOM     45  C   UNL     1       3.405 -14.450  11.258  1.00  0.00     0.029 A 
ATOM     46  N   UNL     1       4.065 -16.537  10.801  1.00  0.00    -0.354 N 
ATOM     47  C   UNL     1       8.249 -17.457  10.189  1.00  0.00     0.074 A 
ATOM     48  C   UNL     1       9.073 -16.283  10.373  1.00  0.00     0.031 C 
ATOM     49  C   UNL     1       2.300 -15.201  11.121  1.00  0.00     0.029 A 
ATOM     50  C   UNL     1       2.689 -16.568  10.790  1.00  0.00     0.049 A 
ATOM     51  H   UNL     1       4.623 -17.333  10.644  1.00  0.00     0.167 HD
ATOM     52  C   UNL     1       8.730 -18.679   9.859  1.00  0.00     0.034 A 
ATOM     53  C   UNL     1       1.839 -17.582  10.534  1.00  0.00     0.034 A 
ATOM     54  C   UNL     1       7.912 -19.855   9.738  1.00  0.00     0.049 A 
ATOM     55  C   UNL     1       2.402 -18.946  10.235  1.00  0.00     0.074 A 
ATOM     56  C   UNL     1       8.309 -21.159   9.500  1.00  0.00     0.029 A 
ATOM     57  N   UNL     1       6.530 -19.870   9.849  1.00  0.00    -0.354 N 
ATOM     58  N   UNL     1       3.657 -19.318  10.146  1.00  0.00    -0.248 NA
ATOM     59  C   UNL     1       1.437 -20.037  10.038  1.00  0.00     0.031 C 
ATOM     60  C   UNL     1       7.163 -21.961   9.456  1.00  0.00     0.029 A 
ATOM     61  C   UNL     1       6.056 -21.159   9.686  1.00  0.00     0.049 A 
ATOM     62  H   UNL     1       5.969 -19.079  10.019  1.00  0.00     0.167 HD
ATOM     63  C   UNL     1       3.633 -20.691   9.926  1.00  0.00     0.074 A 
ATOM     64  C   UNL     1       2.239 -21.086   9.909  1.00  0.00     0.031 C 
ATOM     65  C   UNL     1       4.670 -21.544   9.739  1.00  0.00     0.034 A 
BRANCH  52  66
ATOM     66  C   UNL     1      10.218 -18.819   9.667  1.00  0.00     0.023 A 
ATOM     67  C   UNL     1      11.072 -18.747  10.787  1.00  0.00     0.012 A 
ATOM     68  C   UNL     1      10.768 -19.071   8.395  1.00  0.00     0.148 A 
ATOM     69  C   UNL     1      12.451 -18.886  10.640  1.00  0.00     0.002 A 
ATOM     70  C   UNL     1      12.140 -19.253   8.262  1.00  0.00     0.091 A 
ATOM     71  F   UNL     1       9.944 -19.114   7.338  1.00  0.00    -0.205 F 
ATOM     72  C   UNL     1      12.983 -19.148   9.381  1.00  0.00     0.022 A 
BRANCH  70  73
ATOM     73  S   UNL     1      12.915 -19.675   6.697  1.00  0.00     0.127 S 
ATOM     74  O   UNL     1      13.593 -18.425   6.356  1.00  0.00    -0.237 OA
ATOM     75  O   UNL     1      13.809 -20.768   7.080  1.00  0.00    -0.237 OA
ATOM     76  O   UNL     1      11.831 -20.063   5.806  1.00  0.00    -0.744 OA
ENDBRANCH  70  73
ENDBRANCH  52  66
BRANCH  53  77
ATOM     77  C   UNL     1       0.368 -17.362  10.631  1.00  0.00     0.023 A 
ATOM     78  C   UNL     1      -0.343 -17.934  11.704  1.00  0.00     0.012 A 
ATOM     79  C   UNL     1      -0.323 -16.567   9.696  1.00  0.00     0.148 A 
ATOM     80  C   UNL     1      -1.720 -17.744  11.828  1.00  0.00     0.002 A 
ATOM     81  C   UNL     1      -1.685 -16.338   9.855  1.00  0.00     0.091 A 
ATOM     82  F   UNL     1       0.368 -16.041   8.675  1.00  0.00    -0.205 F 
ATOM     83  C   UNL     1      -2.389 -16.939  10.911  1.00  0.00     0.022 A 
BRANCH  81  84
ATOM     84  S   UNL     1      -2.600 -15.207   8.800  1.00  0.00     0.127 S 
ATOM     85  O   UNL     1      -3.398 -16.128   7.995  1.00  0.00    -0.237 OA
ATOM     86  O   UNL     1      -3.359 -14.426   9.777  1.00  0.00    -0.237 OA
ATOM     87  O   UNL     1      -1.591 -14.443   8.079  1.00  0.00    -0.744 OA
ENDBRANCH  81  84
ENDBRANCH  53  77
BRANCH  65  88
ATOM     88  C   UNL     1       4.351 -23.003   9.547  1.00  0.00     0.023 A 
ATOM     89  C   UNL     1       3.811 -23.446   8.324  1.00  0.00     0.012 A 
ATOM     90  C   UNL     1       4.674 -23.943  10.545  1.00  0.00     0.148 A 
ATOM     91  C   UNL     1       3.574 -24.803   8.107  1.00  0.00     0.002 A 
ATOM     92  C   UNL     1       4.478 -25.297  10.303  1.00  0.00     0.091 A 
ATOM     93  F   UNL     1       5.168 -23.497  11.709  1.00  0.00    -0.205 F 
ATOM     94  C   UNL     1       3.919 -25.728   9.089  1.00  0.00     0.022 A 
BRANCH  92  95
ATOM     95  S   UNL     1       4.985 -26.564  11.472  1.00  0.00     0.127 S 
ATOM     96  O   UNL     1       3.699 -27.001  12.013  1.00  0.00    -0.237 OA
ATOM     97  O   UNL     1       5.646 -27.541  10.606  1.00  0.00    -0.237 OA
ATOM     98  O   UNL     1       5.871 -25.902  12.421  1.00  0.00    -0.744 OA
ENDBRANCH  92  95
ENDBRANCH  65  88
ENDBRANCH  39  40
ENDBRANCH  31  34
ENDBRANCH  29  30
ENDBRANCH   1  29
TORSDOF 17
