REMARK SMILES Cc1cccc(C[C@H](C(=O)NCCCNC(=O)c2ccc(-c3c4nc(c(-c5cccc(S(=O)(=O)[O-])c5F)c5ccc([nH]5)c(-c5cccc(S(=O)(=O)[O-])c5F)c5nc(c(-c6cccc(S(=O)(=O)[O-])c6F)c6ccc3[nH]6)C=C5)C=C4)cc2)[C@@H]2CCCC[C@@H]2O)c1
REMARK SMILES IDX 13 1 12 2 11 3 9 4 10 5 8 7 7 8 6 9 1 10 2 11 3 12 88 13
REMARK SMILES IDX 4 14 5 15 81 16 82 17 86 18 83 19 85 20 84 21 87 22 14 24
REMARK SMILES IDX 15 25 16 26 17 28 18 29 19 30 80 31 20 32 79 33 21 34 22 35
REMARK SMILES IDX 23 36 73 37 24 38 78 39 72 40 74 41 25 42 77 43 71 44 70 45
REMARK SMILES IDX 26 47 58 48 38 49 57 50 39 51 42 52 56 53 75 54 40 55 41 56
REMARK SMILES IDX 55 58 76 59 43 60 27 61 28 62 36 63 29 64 31 65 37 66 30 67
REMARK SMILES IDX 32 68 33 69 34 70 35 71 59 72 60 73 68 74 61 75 63 76 69 77
REMARK SMILES IDX 62 78 64 79 65 80 66 81 67 82 44 83 45 84 53 85 46 86 48 87
REMARK SMILES IDX 54 88 47 89 49 90 50 91 51 92 52 93
REMARK H PARENT 11 6 87 23 15 27 74 46 42 57
REMARK Flexibility Score: inf
ROOT
ATOM      1  C   UNL     1      -6.620   5.119   2.989  1.00  0.00     0.042 C 
ENDROOT
BRANCH   1   2
ATOM      2  C   UNL     1      -6.545   3.862   2.124  1.00  0.00     0.117 C 
BRANCH   2   3
ATOM      3  N   UNL     1      -5.243   3.234   1.994  1.00  0.00    -0.356 N 
ATOM      4  C   UNL     1      -4.295   3.369   1.018  1.00  0.00     0.223 C 
ATOM      5  O   UNL     1      -3.429   2.495   0.941  1.00  0.00    -0.275 OA
ATOM      6  H   UNL     1      -5.006   2.614   2.721  1.00  0.00     0.163 HD
BRANCH   4   7
ATOM      7  C   UNL     1      -4.313   4.576   0.073  1.00  0.00     0.088 C 
BRANCH   7   8
ATOM      8  C   UNL     1      -4.146   5.940   0.763  1.00  0.00     0.049 C 
BRANCH   8   9
ATOM      9  C   UNL     1      -3.402   6.237   2.046  1.00  0.00    -0.047 A 
ATOM     10  C   UNL     1      -2.960   9.456   4.061  1.00  0.00     0.044 C 
ATOM     11  C   UNL     1      -2.913   8.008   3.679  1.00  0.00    -0.051 A 
ATOM     12  C   UNL     1      -2.497   7.042   4.593  1.00  0.00     0.003 A 
ATOM     13  C   UNL     1      -3.377   7.596   2.425  1.00  0.00     0.007 A 
ATOM     14  C   UNL     1      -2.459   5.702   4.220  1.00  0.00     0.001 A 
ATOM     15  C   UNL     1      -2.879   5.305   2.945  1.00  0.00     0.004 A 
ENDBRANCH   8   9
ENDBRANCH   7   8
BRANCH   7  16
ATOM     16  C   UNL     1      -3.421   4.344  -1.215  1.00  0.00     0.030 C 
ATOM     17  C   UNL     1      -2.368   5.410  -1.589  1.00  0.00     0.007 C 
ATOM     18  C   UNL     1      -4.300   4.069  -2.458  1.00  0.00     0.118 C 
ATOM     19  C   UNL     1      -2.878   6.658  -2.324  1.00  0.00     0.001 C 
ATOM     20  C   UNL     1      -4.981   5.345  -2.950  1.00  0.00     0.032 C 
ATOM     21  C   UNL     1      -3.965   6.401  -3.362  1.00  0.00     0.003 C 
BRANCH  18  22
ATOM     22  O   UNL     1      -5.298   3.092  -2.179  1.00  0.00    -0.393 OA
ATOM     23  H   UNL     1      -5.891   3.424  -1.487  1.00  0.00     0.210 HD
ENDBRANCH  18  22
ENDBRANCH   7  16
ENDBRANCH   4   7
ENDBRANCH   2   3
ENDBRANCH   1   2
BRANCH   1  24
ATOM     24  C   UNL     1      -6.348   4.912   4.467  1.00  0.00     0.118 C 
BRANCH  24  25
ATOM     25  N   UNL     1      -6.573   6.163   5.203  1.00  0.00    -0.352 N 
ATOM     26  C   UNL     1      -6.556   6.436   6.561  1.00  0.00     0.251 C 
ATOM     27  H   UNL     1      -6.770   6.942   4.634  1.00  0.00     0.163 HD
ATOM     28  O   UNL     1      -6.755   7.571   6.956  1.00  0.00    -0.269 OA
BRANCH  26  29
ATOM     29  C   UNL     1      -6.186   5.350   7.493  1.00  0.00     0.039 A 
ATOM     30  C   UNL     1      -5.166   5.574   8.427  1.00  0.00     0.014 A 
ATOM     31  C   UNL     1      -6.686   4.074   7.282  1.00  0.00     0.014 A 
ATOM     32  C   UNL     1      -4.483   4.487   8.972  1.00  0.00     0.010 A 
ATOM     33  C   UNL     1      -5.940   3.006   7.714  1.00  0.00     0.010 A 
ATOM     34  C   UNL     1      -4.809   3.214   8.520  1.00  0.00    -0.014 A 
BRANCH  34  35
ATOM     35  C   UNL     1      -4.056   1.997   8.778  1.00  0.00     0.031 A 
ATOM     36  C   UNL     1      -4.657   0.950   9.631  1.00  0.00     0.074 A 
ATOM     37  C   UNL     1      -3.035   1.698   7.943  1.00  0.00     0.049 A 
ATOM     38  N   UNL     1      -4.103  -0.184   9.882  1.00  0.00    -0.248 NA
ATOM     39  C   UNL     1      -5.945   1.124  10.299  1.00  0.00     0.031 C 
ATOM     40  C   UNL     1      -2.556   0.367   7.587  1.00  0.00     0.029 A 
ATOM     41  N   UNL     1      -2.071   2.561   7.413  1.00  0.00    -0.354 N 
ATOM     42  C   UNL     1      -5.065  -0.992  10.444  1.00  0.00     0.074 A 
ATOM     43  C   UNL     1      -6.133  -0.097  10.808  1.00  0.00     0.031 C 
ATOM     44  C   UNL     1      -1.287   0.464   7.172  1.00  0.00     0.029 A 
ATOM     45  C   UNL     1      -0.864   1.833   7.404  1.00  0.00     0.049 A 
ATOM     46  H   UNL     1      -2.207   3.487   7.109  1.00  0.00     0.167 HD
ATOM     47  C   UNL     1      -4.884  -2.341  10.391  1.00  0.00     0.034 A 
ATOM     48  C   UNL     1       0.230   2.197   8.134  1.00  0.00     0.034 A 
ATOM     49  C   UNL     1      -3.482  -2.663  10.073  1.00  0.00     0.049 A 
ATOM     50  C   UNL     1       0.588   1.200   9.230  1.00  0.00     0.074 A 
ATOM     51  C   UNL     1      -2.790  -3.145   8.976  1.00  0.00     0.029 A 
ATOM     52  N   UNL     1      -2.514  -2.219  10.960  1.00  0.00    -0.354 N 
ATOM     53  N   UNL     1       0.084   0.001   9.355  1.00  0.00    -0.248 NA
ATOM     54  C   UNL     1       1.491   1.533  10.335  1.00  0.00     0.031 C 
ATOM     55  C   UNL     1      -1.399  -2.862   9.177  1.00  0.00     0.029 A 
ATOM     56  C   UNL     1      -1.248  -2.244  10.407  1.00  0.00     0.049 A 
ATOM     57  H   UNL     1      -2.707  -1.920  11.878  1.00  0.00     0.167 HD
ATOM     58  C   UNL     1       0.407  -0.495  10.594  1.00  0.00     0.074 A 
ATOM     59  C   UNL     1       1.343   0.470  11.142  1.00  0.00     0.031 C 
ATOM     60  C   UNL     1      -0.161  -1.610  11.146  1.00  0.00     0.034 A 
BRANCH  47  61
ATOM     61  C   UNL     1      -5.979  -3.393  10.485  1.00  0.00     0.023 A 
ATOM     62  C   UNL     1      -5.591  -4.739  10.295  1.00  0.00     0.012 A 
ATOM     63  C   UNL     1      -7.372  -3.172  10.630  1.00  0.00     0.148 A 
ATOM     64  C   UNL     1      -6.516  -5.789  10.225  1.00  0.00     0.002 A 
ATOM     65  C   UNL     1      -8.295  -4.223  10.598  1.00  0.00     0.091 A 
ATOM     66  F   UNL     1      -7.854  -1.936  10.735  1.00  0.00    -0.205 F 
ATOM     67  C   UNL     1      -7.869  -5.533  10.382  1.00  0.00     0.022 A 
BRANCH  65  68
ATOM     68  S   UNL     1     -10.071  -3.962  10.790  1.00  0.00     0.127 S 
ATOM     69  O   UNL     1     -10.585  -4.415   9.498  1.00  0.00    -0.237 OA
ATOM     70  O   UNL     1     -10.394  -4.839  11.915  1.00  0.00    -0.237 OA
ATOM     71  O   UNL     1     -10.258  -2.541  11.055  1.00  0.00    -0.744 OA
ENDBRANCH  65  68
ENDBRANCH  47  61
BRANCH  48  72
ATOM     72  C   UNL     1       0.423   3.672   8.206  1.00  0.00     0.023 A 
ATOM     73  C   UNL     1       0.828   4.319   7.015  1.00  0.00     0.012 A 
ATOM     74  C   UNL     1      -0.134   4.438   9.244  1.00  0.00     0.148 A 
ATOM     75  C   UNL     1       0.602   5.683   6.827  1.00  0.00     0.002 A 
ATOM     76  C   UNL     1      -0.380   5.793   9.039  1.00  0.00     0.091 A 
ATOM     77  F   UNL     1      -0.526   3.807  10.358  1.00  0.00    -0.205 F 
ATOM     78  C   UNL     1      -0.027   6.412   7.828  1.00  0.00     0.022 A 
BRANCH  76  79
ATOM     79  S   UNL     1      -1.321   6.790  10.199  1.00  0.00     0.127 S 
ATOM     80  O   UNL     1      -0.315   7.749  10.646  1.00  0.00    -0.237 OA
ATOM     81  O   UNL     1      -2.361   7.341   9.331  1.00  0.00    -0.237 OA
ATOM     82  O   UNL     1      -1.804   5.859  11.207  1.00  0.00    -0.744 OA
ENDBRANCH  76  79
ENDBRANCH  48  72
BRANCH  60  83
ATOM     83  C   UNL     1       0.298  -2.177  12.472  1.00  0.00     0.023 A 
ATOM     84  C   UNL     1       1.677  -2.331  12.723  1.00  0.00     0.012 A 
ATOM     85  C   UNL     1      -0.597  -2.727  13.419  1.00  0.00     0.148 A 
ATOM     86  C   UNL     1       2.146  -2.983  13.869  1.00  0.00     0.002 A 
ATOM     87  C   UNL     1      -0.127  -3.471  14.498  1.00  0.00     0.091 A 
ATOM     88  F   UNL     1      -1.910  -2.485  13.310  1.00  0.00    -0.205 F 
ATOM     89  C   UNL     1       1.244  -3.581  14.740  1.00  0.00     0.022 A 
BRANCH  87  90
ATOM     90  S   UNL     1      -1.233  -4.455  15.522  1.00  0.00     0.127 S 
ATOM     91  O   UNL     1      -0.495  -5.715  15.641  1.00  0.00    -0.237 OA
ATOM     92  O   UNL     1      -1.292  -3.666  16.749  1.00  0.00    -0.237 OA
ATOM     93  O   UNL     1      -2.472  -4.560  14.764  1.00  0.00    -0.744 OA
ENDBRANCH  87  90
ENDBRANCH  60  83
ENDBRANCH  34  35
ENDBRANCH  26  29
ENDBRANCH  24  25
ENDBRANCH   1  24
TORSDOF 17
