REMARK SMILES CC[C@@H]1CCC[C@@](C[C@@H]2CSc3ccccc32)(C(=O)NCCCNC(=O)c2ccc(-c3c4nc(c(-c5cccc(S(=O)(=O)[O-])c5F)c5ccc([nH]5)c(-c5cccc(S(=O)(=O)[O-])c5F)c5nc(c(-c6cccc(S(=O)(=O)[O-])c6F)c6ccc3[nH]6)C=C5)C=C4)cc2)C1
REMARK SMILES IDX 22 1 21 2 20 3 18 4 19 5 7 7 3 8 4 9 90 10 5 11 6 12 2 13
REMARK SMILES IDX 1 14 8 15 9 16 10 17 17 18 11 19 12 20 16 21 13 22 15 23
REMARK SMILES IDX 14 24 23 25 24 26 25 27 26 29 27 30 28 31 89 32 29 33 88 34
REMARK SMILES IDX 30 35 31 36 32 37 82 38 33 39 87 40 81 41 83 42 34 43 86 44
REMARK SMILES IDX 80 45 79 46 35 48 67 49 47 50 66 51 48 52 51 53 65 54 84 55
REMARK SMILES IDX 49 56 50 57 64 59 85 60 52 61 36 62 37 63 45 64 38 65 40 66
REMARK SMILES IDX 46 67 39 68 41 69 42 70 43 71 44 72 68 73 69 74 77 75 70 76
REMARK SMILES IDX 72 77 78 78 71 79 73 80 74 81 75 82 76 83 53 84 54 85 62 86
REMARK SMILES IDX 55 87 57 88 63 89 56 90 58 91 59 92 60 93 61 94
REMARK H PARENT 20 6 24 28 83 47 51 58
REMARK Flexibility Score: inf
ROOT
ATOM      1  C   UNL     1       2.829  -9.091   2.593  1.00  0.00     0.042 C 
ENDROOT
BRANCH   1   2
ATOM      2  C   UNL     1       1.664  -8.219   3.015  1.00  0.00     0.117 C 
BRANCH   2   3
ATOM      3  N   UNL     1       0.630  -8.898   3.761  1.00  0.00    -0.356 N 
ATOM      4  C   UNL     1      -0.258  -8.395   4.657  1.00  0.00     0.226 C 
ATOM      5  O   UNL     1      -1.359  -8.959   4.670  1.00  0.00    -0.274 OA
ATOM      6  H   UNL     1       0.558  -9.866   3.596  1.00  0.00     0.163 HD
BRANCH   4   7
ATOM      7  C   UNL     1       0.036  -7.203   5.612  1.00  0.00     0.050 C 
ATOM      8  C   UNL     1      -0.413  -8.731   7.713  1.00  0.00    -0.010 C 
ATOM      9  C   UNL     1       1.062  -8.622   8.114  1.00  0.00     0.003 C 
ATOM     10  C   UNL     1      -0.845  -7.487   6.903  1.00  0.00     0.020 C 
ATOM     11  C   UNL     1       1.949  -8.349   6.910  1.00  0.00     0.001 C 
ATOM     12  C   UNL     1       1.483  -7.111   6.147  1.00  0.00     0.017 C 
BRANCH   8  13
ATOM     13  C   UNL     1      -1.273  -8.927   8.976  1.00  0.00     0.000 C 
ATOM     14  C   UNL     1      -2.723  -9.275   8.675  1.00  0.00     0.004 C 
ENDBRANCH   8  13
BRANCH   7  15
ATOM     15  C   UNL     1      -0.541  -5.843   5.051  1.00  0.00     0.026 C 
BRANCH  15  16
ATOM     16  C   UNL     1       0.027  -5.013   3.869  1.00  0.00     0.032 C 
ATOM     17  C   UNL     1      -0.366  -5.551   2.478  1.00  0.00     0.083 C 
ATOM     18  C   UNL     1       1.498  -4.696   3.870  1.00  0.00    -0.030 A 
ATOM     19  S   UNL     1       1.002  -5.208   1.326  1.00  0.00    -0.125 SA
ATOM     20  C   UNL     1       2.132  -4.845   2.635  1.00  0.00     0.011 A 
ATOM     21  C   UNL     1       2.227  -4.234   4.963  1.00  0.00     0.005 A 
ATOM     22  C   UNL     1       3.509  -4.710   2.511  1.00  0.00     0.015 A 
ATOM     23  C   UNL     1       3.610  -4.079   4.848  1.00  0.00     0.000 A 
ATOM     24  C   UNL     1       4.253  -4.348   3.635  1.00  0.00     0.001 A 
ENDBRANCH  15  16
ENDBRANCH   7  15
ENDBRANCH   4   7
ENDBRANCH   2   3
ENDBRANCH   1   2
BRANCH   1  25
ATOM     25  C   UNL     1       2.473  -9.950   1.384  1.00  0.00     0.118 C 
BRANCH  25  26
ATOM     26  N   UNL     1       2.270  -9.179   0.154  1.00  0.00    -0.352 N 
ATOM     27  C   UNL     1       3.132  -8.744  -0.833  1.00  0.00     0.251 C 
ATOM     28  H   UNL     1       1.333  -8.921   0.001  1.00  0.00     0.163 HD
ATOM     29  O   UNL     1       2.718  -7.987  -1.700  1.00  0.00    -0.269 OA
BRANCH  27  30
ATOM     30  C   UNL     1       4.559  -9.136  -0.817  1.00  0.00     0.039 A 
ATOM     31  C   UNL     1       4.939 -10.414  -0.433  1.00  0.00     0.014 A 
ATOM     32  C   UNL     1       5.542  -8.205  -1.172  1.00  0.00     0.014 A 
ATOM     33  C   UNL     1       6.263 -10.668  -0.115  1.00  0.00     0.010 A 
ATOM     34  C   UNL     1       6.896  -8.520  -1.000  1.00  0.00     0.010 A 
ATOM     35  C   UNL     1       7.265  -9.723  -0.383  1.00  0.00    -0.014 A 
BRANCH  35  36
ATOM     36  C   UNL     1       8.665 -10.021   0.034  1.00  0.00     0.031 A 
ATOM     37  C   UNL     1       9.404  -9.109   0.983  1.00  0.00     0.074 A 
ATOM     38  C   UNL     1       9.237 -11.178  -0.360  1.00  0.00     0.049 A 
ATOM     39  N   UNL     1      10.605  -9.249   1.484  1.00  0.00    -0.248 NA
ATOM     40  C   UNL     1       8.722  -7.879   1.423  1.00  0.00     0.031 C 
ATOM     41  C   UNL     1       8.636 -12.143  -1.286  1.00  0.00     0.029 A 
ATOM     42  N   UNL     1      10.425 -11.766  -0.001  1.00  0.00    -0.354 N 
ATOM     43  C   UNL     1      10.845  -8.105   2.236  1.00  0.00     0.074 A 
ATOM     44  C   UNL     1       9.665  -7.278   2.137  1.00  0.00     0.031 C 
ATOM     45  C   UNL     1       9.407 -13.237  -1.346  1.00  0.00     0.029 A 
ATOM     46  C   UNL     1      10.599 -13.021  -0.535  1.00  0.00     0.049 A 
ATOM     47  H   UNL     1      11.087 -11.331   0.583  1.00  0.00     0.167 HD
ATOM     48  C   UNL     1      11.939  -7.782   2.964  1.00  0.00     0.034 A 
ATOM     49  C   UNL     1      11.607 -13.905  -0.401  1.00  0.00     0.034 A 
ATOM     50  C   UNL     1      13.076  -8.643   3.140  1.00  0.00     0.049 A 
ATOM     51  C   UNL     1      12.790 -13.540   0.443  1.00  0.00     0.074 A 
ATOM     52  C   UNL     1      14.211  -8.416   3.898  1.00  0.00     0.029 A 
ATOM     53  N   UNL     1      13.215  -9.898   2.572  1.00  0.00    -0.354 N 
ATOM     54  N   UNL     1      12.973 -12.468   1.174  1.00  0.00    -0.248 NA
ATOM     55  C   UNL     1      13.905 -14.496   0.479  1.00  0.00     0.031 C 
ATOM     56  C   UNL     1      15.038  -9.537   3.789  1.00  0.00     0.029 A 
ATOM     57  C   UNL     1      14.416 -10.461   2.965  1.00  0.00     0.049 A 
ATOM     58  H   UNL     1      12.557 -10.326   1.977  1.00  0.00     0.167 HD
ATOM     59  C   UNL     1      14.226 -12.615   1.753  1.00  0.00     0.074 A 
ATOM     60  C   UNL     1      14.744 -13.896   1.315  1.00  0.00     0.031 C 
ATOM     61  C   UNL     1      14.897 -11.753   2.553  1.00  0.00     0.034 A 
BRANCH  48  62
ATOM     62  C   UNL     1      11.953  -6.458   3.677  1.00  0.00     0.023 A 
ATOM     63  C   UNL     1      11.280  -6.328   4.907  1.00  0.00     0.012 A 
ATOM     64  C   UNL     1      12.719  -5.382   3.185  1.00  0.00     0.148 A 
ATOM     65  C   UNL     1      11.362  -5.143   5.636  1.00  0.00     0.002 A 
ATOM     66  C   UNL     1      12.820  -4.214   3.932  1.00  0.00     0.091 A 
ATOM     67  F   UNL     1      13.340  -5.528   2.006  1.00  0.00    -0.205 F 
ATOM     68  C   UNL     1      12.139  -4.092   5.155  1.00  0.00     0.022 A 
BRANCH  66  69
ATOM     69  S   UNL     1      13.839  -2.822   3.432  1.00  0.00     0.127 S 
ATOM     70  O   UNL     1      12.829  -1.792   3.189  1.00  0.00    -0.237 OA
ATOM     71  O   UNL     1      14.661  -2.601   4.621  1.00  0.00    -0.237 OA
ATOM     72  O   UNL     1      14.572  -3.260   2.253  1.00  0.00    -0.744 OA
ENDBRANCH  66  69
ENDBRANCH  48  62
BRANCH  49  73
ATOM     73  C   UNL     1      11.504 -15.230  -1.071  1.00  0.00     0.023 A 
ATOM     74  C   UNL     1      11.245 -16.377  -0.297  1.00  0.00     0.012 A 
ATOM     75  C   UNL     1      11.558 -15.340  -2.474  1.00  0.00     0.148 A 
ATOM     76  C   UNL     1      11.034 -17.612  -0.911  1.00  0.00     0.002 A 
ATOM     77  C   UNL     1      11.294 -16.561  -3.081  1.00  0.00     0.091 A 
ATOM     78  F   UNL     1      11.820 -14.235  -3.185  1.00  0.00    -0.205 F 
ATOM     79  C   UNL     1      11.043 -17.701  -2.301  1.00  0.00     0.022 A 
BRANCH  77  80
ATOM     80  S   UNL     1      11.145 -16.738  -4.862  1.00  0.00     0.127 S 
ATOM     81  O   UNL     1      12.308 -17.563  -5.178  1.00  0.00    -0.237 OA
ATOM     82  O   UNL     1       9.854 -17.416  -4.988  1.00  0.00    -0.237 OA
ATOM     83  O   UNL     1      11.168 -15.384  -5.397  1.00  0.00    -0.744 OA
ENDBRANCH  77  80
ENDBRANCH  49  73
BRANCH  61  84
ATOM     84  C   UNL     1      16.272 -12.146   3.008  1.00  0.00     0.023 A 
ATOM     85  C   UNL     1      17.359 -11.965   2.132  1.00  0.00     0.012 A 
ATOM     86  C   UNL     1      16.500 -12.578   4.328  1.00  0.00     0.148 A 
ATOM     87  C   UNL     1      18.660 -12.215   2.564  1.00  0.00     0.002 A 
ATOM     88  C   UNL     1      17.802 -12.795   4.761  1.00  0.00     0.091 A 
ATOM     89  F   UNL     1      15.443 -12.750   5.135  1.00  0.00    -0.205 F 
ATOM     90  C   UNL     1      18.882 -12.618   3.879  1.00  0.00     0.022 A 
BRANCH  88  91
ATOM     91  S   UNL     1      18.196 -13.246   6.453  1.00  0.00     0.127 S 
ATOM     92  O   UNL     1      18.692 -14.612   6.289  1.00  0.00    -0.237 OA
ATOM     93  O   UNL     1      19.219 -12.262   6.806  1.00  0.00    -0.237 OA
ATOM     94  O   UNL     1      16.953 -13.125   7.203  1.00  0.00    -0.744 OA
ENDBRANCH  88  91
ENDBRANCH  61  84
ENDBRANCH  35  36
ENDBRANCH  27  30
ENDBRANCH  25  26
ENDBRANCH   1  25
TORSDOF 16
