REMARK SMILES C[N@@H+]1CCC[C@@H](NC(=O)N(CC(=O)NCCCNC(=O)c2ccc(-c3c4nc(c(-c5cccc(S(=O)(=O)[O-])c5F)c5ccc([nH]5)c(-c5cccc(S(=O)(=O)[O-])c5F)c5nc(c(-c6cccc(S(=O)(=O)[O-])c6F)c6ccc3[nH]6)C=C5)C=C4)cc2)C(C)(C)C)C1
REMARK SMILES IDX 16 1 15 2 14 3 12 4 13 5 11 7 10 8 8 9 7 10 9 12 6 13 1 14
REMARK SMILES IDX 2 15 3 16 88 17 4 19 5 20 84 21 85 22 86 23 87 24 17 25
REMARK SMILES IDX 18 26 19 27 20 29 21 30 22 31 83 32 23 33 82 34 24 35 25 36
REMARK SMILES IDX 26 37 76 38 27 39 81 40 75 41 77 42 28 43 80 44 74 45 73 46
REMARK SMILES IDX 29 48 61 49 41 50 60 51 42 52 45 53 59 54 78 55 43 56 44 57
REMARK SMILES IDX 58 59 79 60 46 61 30 62 31 63 39 64 32 65 34 66 40 67 33 68
REMARK SMILES IDX 35 69 36 70 37 71 38 72 62 73 63 74 71 75 64 76 66 77 72 78
REMARK SMILES IDX 65 79 67 80 68 81 69 82 70 83 47 84 48 85 56 86 49 87 51 88
REMARK SMILES IDX 57 89 50 90 52 91 53 92 54 93 55 94
REMARK H PARENT 14 6 7 11 2 18 18 28 77 47 45 58
REMARK Flexibility Score: inf
ROOT
ATOM      1  C   UNL     1       5.292  -1.151   1.633  1.00  0.00     0.042 C 
ENDROOT
BRANCH   1   2
ATOM      2  C   UNL     1       4.516  -1.412   0.358  1.00  0.00     0.117 C 
BRANCH   2   3
ATOM      3  N   UNL     1       4.807  -2.643  -0.335  1.00  0.00    -0.354 N 
ATOM      4  C   UNL     1       3.953  -3.644  -0.690  1.00  0.00     0.239 C 
ATOM      5  O   UNL     1       4.280  -4.323  -1.672  1.00  0.00    -0.273 OA
ATOM      6  H   UNL     1       5.750  -2.779  -0.584  1.00  0.00     0.163 HD
BRANCH   4   7
ATOM      7  C   UNL     1       2.573  -3.874  -0.034  1.00  0.00     0.221 C 
BRANCH   7   8
ATOM      8  N   UNL     1       2.433  -3.679   1.410  1.00  0.00    -0.311 N 
BRANCH   8   9
ATOM      9  C   UNL     1       1.796  -2.613   2.015  1.00  0.00     0.318 C 
ATOM     10  N   UNL     1       1.230  -1.565   1.377  1.00  0.00    -0.330 N 
ATOM     11  H   UNL     1       0.828  -0.962   2.043  1.00  0.00     0.165 HD
ATOM     12  O   UNL     1       1.701  -2.526   3.243  1.00  0.00    -0.249 OA
BRANCH  10  13
ATOM     13  C   UNL     1       1.006  -1.011   0.027  1.00  0.00     0.139 C 
ATOM     14  C   UNL     1      -2.660   0.049  -0.060  1.00  0.00     0.332 C 
ATOM     15  N   UNL     1      -1.244   0.109   0.301  1.00  0.00    -0.336 N 
ATOM     16  C   UNL     1      -0.678   1.402  -0.097  1.00  0.00     0.262 C 
ATOM     17  C   UNL     1      -0.503  -1.008  -0.319  1.00  0.00     0.287 C 
ATOM     18  H   UNL     1      -1.158   0.018   1.313  1.00  0.00     0.347 HD
ATOM     19  C   UNL     1       0.752   1.518   0.408  1.00  0.00     0.064 C 
ATOM     20  C   UNL     1       1.618   0.396  -0.139  1.00  0.00     0.037 C 
ENDBRANCH  10  13
ENDBRANCH   8   9
BRANCH   8  21
ATOM     21  C   UNL     1       3.006  -4.795   2.300  1.00  0.00     0.037 C 
ATOM     22  C   UNL     1       4.165  -4.288   3.181  1.00  0.00     0.034 C 
ATOM     23  C   UNL     1       1.907  -5.409   3.198  1.00  0.00     0.034 C 
ATOM     24  C   UNL     1       3.604  -6.003   1.514  1.00  0.00     0.034 C 
ENDBRANCH   8  21
ENDBRANCH   7   8
ENDBRANCH   4   7
ENDBRANCH   2   3
ENDBRANCH   1   2
BRANCH   1  25
ATOM     25  C   UNL     1       6.783  -0.997   1.420  1.00  0.00     0.118 C 
BRANCH  25  26
ATOM     26  N   UNL     1       7.109   0.240   0.724  1.00  0.00    -0.352 N 
ATOM     27  C   UNL     1       7.911   1.280   1.130  1.00  0.00     0.251 C 
ATOM     28  H   UNL     1       6.696   0.347  -0.164  1.00  0.00     0.163 HD
ATOM     29  O   UNL     1       7.892   2.338   0.508  1.00  0.00    -0.269 OA
BRANCH  27  30
ATOM     30  C   UNL     1       8.780   1.125   2.318  1.00  0.00     0.039 A 
ATOM     31  C   UNL     1       8.910   2.193   3.209  1.00  0.00     0.014 A 
ATOM     32  C   UNL     1       9.470  -0.067   2.552  1.00  0.00     0.014 A 
ATOM     33  C   UNL     1       9.688   2.043   4.360  1.00  0.00     0.010 A 
ATOM     34  C   UNL     1      10.160  -0.248   3.745  1.00  0.00     0.010 A 
ATOM     35  C   UNL     1      10.294   0.811   4.654  1.00  0.00    -0.014 A 
BRANCH  35  36
ATOM     36  C   UNL     1      11.079   0.611   5.900  1.00  0.00     0.031 A 
ATOM     37  C   UNL     1      12.537   0.242   5.825  1.00  0.00     0.074 A 
ATOM     38  C   UNL     1      10.461   0.683   7.096  1.00  0.00     0.049 A 
ATOM     39  N   UNL     1      13.373  -0.017   6.798  1.00  0.00    -0.248 NA
ATOM     40  C   UNL     1      13.130   0.120   4.482  1.00  0.00     0.031 C 
ATOM     41  C   UNL     1       9.035   0.948   7.298  1.00  0.00     0.029 A 
ATOM     42  N   UNL     1      10.949   0.514   8.368  1.00  0.00    -0.354 N 
ATOM     43  C   UNL     1      14.571  -0.367   6.187  1.00  0.00     0.074 A 
ATOM     44  C   UNL     1      14.346  -0.328   4.760  1.00  0.00     0.031 C 
ATOM     45  C   UNL     1       8.766   0.936   8.613  1.00  0.00     0.029 A 
ATOM     46  C   UNL     1       9.990   0.629   9.347  1.00  0.00     0.049 A 
ATOM     47  H   UNL     1      11.896   0.329   8.561  1.00  0.00     0.167 HD
ATOM     48  C   UNL     1      15.762  -0.664   6.760  1.00  0.00     0.034 A 
ATOM     49  C   UNL     1      10.083   0.494  10.684  1.00  0.00     0.034 A 
ATOM     50  C   UNL     1      15.993  -0.662   8.178  1.00  0.00     0.049 A 
ATOM     51  C   UNL     1      11.426   0.200  11.296  1.00  0.00     0.074 A 
ATOM     52  C   UNL     1      17.183  -0.861   8.856  1.00  0.00     0.029 A 
ATOM     53  N   UNL     1      15.015  -0.460   9.139  1.00  0.00    -0.354 N 
ATOM     54  N   UNL     1      12.583   0.029  10.704  1.00  0.00    -0.248 NA
ATOM     55  C   UNL     1      11.483   0.115  12.762  1.00  0.00     0.031 C 
ATOM     56  C   UNL     1      16.918  -0.811  10.228  1.00  0.00     0.029 A 
ATOM     57  C   UNL     1      15.570  -0.542  10.405  1.00  0.00     0.049 A 
ATOM     58  H   UNL     1      14.065  -0.284   8.950  1.00  0.00     0.167 HD
ATOM     59  C   UNL     1      13.511  -0.143  11.725  1.00  0.00     0.074 A 
ATOM     60  C   UNL     1      12.784  -0.035  12.973  1.00  0.00     0.031 C 
ATOM     61  C   UNL     1      14.843  -0.382  11.638  1.00  0.00     0.034 A 
BRANCH  48  62
ATOM     62  C   UNL     1      16.923  -0.970   5.848  1.00  0.00     0.023 A 
ATOM     63  C   UNL     1      17.494   0.062   5.074  1.00  0.00     0.012 A 
ATOM     64  C   UNL     1      17.487  -2.260   5.800  1.00  0.00     0.148 A 
ATOM     65  C   UNL     1      18.581  -0.193   4.239  1.00  0.00     0.002 A 
ATOM     66  C   UNL     1      18.602  -2.495   5.003  1.00  0.00     0.091 A 
ATOM     67  F   UNL     1      16.920  -3.233   6.527  1.00  0.00    -0.205 F 
ATOM     68  C   UNL     1      19.141  -1.467   4.213  1.00  0.00     0.022 A 
BRANCH  66  69
ATOM     69  S   UNL     1      19.449  -4.078   4.961  1.00  0.00     0.127 S 
ATOM     70  O   UNL     1      19.138  -4.543   3.610  1.00  0.00    -0.237 OA
ATOM     71  O   UNL     1      20.843  -3.684   5.164  1.00  0.00    -0.237 OA
ATOM     72  O   UNL     1      18.877  -4.871   6.040  1.00  0.00    -0.744 OA
ENDBRANCH  66  69
ENDBRANCH  48  62
BRANCH  49  73
ATOM     73  C   UNL     1       8.880   0.695  11.542  1.00  0.00     0.023 A 
ATOM     74  C   UNL     1       8.808   1.825  12.380  1.00  0.00     0.012 A 
ATOM     75  C   UNL     1       7.806  -0.214  11.521  1.00  0.00     0.148 A 
ATOM     76  C   UNL     1       7.704   2.026  13.210  1.00  0.00     0.002 A 
ATOM     77  C   UNL     1       6.684   0.021  12.307  1.00  0.00     0.091 A 
ATOM     78  F   UNL     1       7.898  -1.288  10.723  1.00  0.00    -0.205 F 
ATOM     79  C   UNL     1       6.639   1.130  13.166  1.00  0.00     0.022 A 
BRANCH  77  80
ATOM     80  S   UNL     1       5.215  -1.008  12.225  1.00  0.00     0.127 S 
ATOM     81  O   UNL     1       5.241  -1.670  13.527  1.00  0.00    -0.237 OA
ATOM     82  O   UNL     1       4.158  -0.009  12.062  1.00  0.00    -0.237 OA
ATOM     83  O   UNL     1       5.407  -1.875  11.071  1.00  0.00    -0.744 OA
ENDBRANCH  77  80
ENDBRANCH  49  73
BRANCH  61  84
ATOM     84  C   UNL     1      15.618  -0.499  12.925  1.00  0.00     0.023 A 
ATOM     85  C   UNL     1      15.454  -1.631  13.747  1.00  0.00     0.012 A 
ATOM     86  C   UNL     1      16.562   0.484  13.282  1.00  0.00     0.148 A 
ATOM     87  C   UNL     1      16.189  -1.765  14.924  1.00  0.00     0.002 A 
ATOM     88  C   UNL     1      17.330   0.318  14.427  1.00  0.00     0.091 A 
ATOM     89  F   UNL     1      16.692   1.562  12.495  1.00  0.00    -0.205 F 
ATOM     90  C   UNL     1      17.135  -0.798  15.257  1.00  0.00     0.022 A 
BRANCH  88  91
ATOM     91  S   UNL     1      18.641   1.459  14.882  1.00  0.00     0.127 S 
ATOM     92  O   UNL     1      18.065   2.125  16.049  1.00  0.00    -0.237 OA
ATOM     93  O   UNL     1      19.750   0.553  15.182  1.00  0.00    -0.237 OA
ATOM     94  O   UNL     1      18.854   2.311  13.720  1.00  0.00    -0.744 OA
ENDBRANCH  88  91
ENDBRANCH  61  84
ENDBRANCH  35  36
ENDBRANCH  27  30
ENDBRANCH  25  26
ENDBRANCH   1  25
TORSDOF 17
