REMARK SMILES CN(C)c1ccc(NC(=O)[C@H]2CC=CC[C@@H]2C(=O)NCCCNC(=O)c2ccc(-c3c4nc(c(-c5cccc(S(=O)(=O)[O-])c5F)c5ccc([nH]5)c(-c5cccc(S(=O)(=O)[O-])c5F)c5nc(c(-c6cccc(S(=O)(=O)[O-])c6F)c6ccc3[nH]6)C=C5)C=C4)cc2)cc1
REMARK SMILES IDX 21 1 20 2 19 3 17 4 18 5 16 7 11 8 12 9 13 10 15 11 14 12
REMARK SMILES IDX 9 13 8 14 10 16 7 17 4 18 5 19 90 20 6 21 89 22 2 23 1 24
REMARK SMILES IDX 3 25 22 26 23 27 24 28 25 30 26 31 27 32 88 33 28 34 87 35
REMARK SMILES IDX 29 36 30 37 31 38 81 39 32 40 86 41 80 42 82 43 33 44 85 45
REMARK SMILES IDX 79 46 78 47 34 49 66 50 46 51 65 52 47 53 50 54 64 55 83 56
REMARK SMILES IDX 48 57 49 58 63 60 84 61 51 62 35 63 36 64 44 65 37 66 39 67
REMARK SMILES IDX 45 68 38 69 40 70 41 71 42 72 43 73 67 74 68 75 76 76 69 77
REMARK SMILES IDX 71 78 77 79 70 80 72 81 73 82 74 83 75 84 52 85 53 86 61 87
REMARK SMILES IDX 54 88 56 89 62 90 55 91 57 92 58 93 59 94 60 95
REMARK H PARENT 19 6 8 15 23 29 82 48 50 59
REMARK Flexibility Score: inf
ROOT
ATOM      1  C   UNL     1      -2.563  -8.696   5.830  1.00  0.00     0.042 C 
ENDROOT
BRANCH   1   2
ATOM      2  C   UNL     1      -2.234  -7.668   4.756  1.00  0.00     0.117 C 
BRANCH   2   3
ATOM      3  N   UNL     1      -2.835  -6.397   5.100  1.00  0.00    -0.356 N 
ATOM      4  C   UNL     1      -2.222  -5.364   5.737  1.00  0.00     0.224 C 
ATOM      5  O   UNL     1      -2.903  -4.710   6.525  1.00  0.00    -0.275 OA
ATOM      6  H   UNL     1      -3.778  -6.269   4.848  1.00  0.00     0.163 HD
BRANCH   4   7
ATOM      7  C   UNL     1      -0.756  -5.062   5.403  1.00  0.00     0.095 C 
ATOM      8  C   UNL     1      -0.269  -3.798   6.160  1.00  0.00     0.095 C 
ATOM      9  C   UNL     1      -1.093  -2.577   5.730  1.00  0.00     0.041 C 
ATOM     10  C   UNL     1      -1.438  -2.540   4.264  1.00  0.00    -0.030 C 
ATOM     11  C   UNL     1      -0.605  -4.859   3.882  1.00  0.00     0.041 C 
ATOM     12  C   UNL     1      -1.184  -3.553   3.422  1.00  0.00    -0.030 C 
BRANCH   8  13
ATOM     13  C   UNL     1       1.281  -3.808   6.184  1.00  0.00     0.228 C 
ATOM     14  N   UNL     1       2.108  -3.364   5.192  1.00  0.00    -0.326 N 
ATOM     15  H   UNL     1       2.959  -3.855   5.138  1.00  0.00     0.169 HD
ATOM     16  O   UNL     1       1.838  -4.490   7.061  1.00  0.00    -0.274 OA
BRANCH  14  17
ATOM     17  C   UNL     1       1.986  -2.350   4.239  1.00  0.00     0.041 A 
ATOM     18  C   UNL     1       1.480  -0.465   2.163  1.00  0.00     0.036 A 
ATOM     19  C   UNL     1       1.050  -0.259   3.480  1.00  0.00     0.028 A 
ATOM     20  C   UNL     1       2.342  -1.560   1.976  1.00  0.00     0.028 A 
ATOM     21  C   UNL     1       1.341  -1.161   4.508  1.00  0.00     0.028 A 
ATOM     22  C   UNL     1       2.598  -2.493   2.998  1.00  0.00     0.028 A 
BRANCH  18  23
ATOM     23  N   UNL     1       1.085   0.376   1.123  1.00  0.00    -0.378 N 
ATOM     24  C   UNL     1       1.389   0.024  -0.259  1.00  0.00     0.143 C 
ATOM     25  C   UNL     1      -0.028   1.301   1.329  1.00  0.00     0.143 C 
ENDBRANCH  18  23
ENDBRANCH  14  17
ENDBRANCH   8  13
ENDBRANCH   4   7
ENDBRANCH   2   3
ENDBRANCH   1   2
BRANCH   1  26
ATOM     26  C   UNL     1      -4.061  -8.914   6.014  1.00  0.00     0.118 C 
BRANCH  26  27
ATOM     27  N   UNL     1      -4.712  -9.339   4.782  1.00  0.00    -0.352 N 
ATOM     28  C   UNL     1      -5.451 -10.470   4.540  1.00  0.00     0.251 C 
ATOM     29  H   UNL     1      -4.608  -8.730   4.016  1.00  0.00     0.163 HD
ATOM     30  O   UNL     1      -5.730 -10.783   3.389  1.00  0.00    -0.269 OA
BRANCH  28  31
ATOM     31  C   UNL     1      -5.895 -11.303   5.675  1.00  0.00     0.039 A 
ATOM     32  C   UNL     1      -5.812 -12.691   5.569  1.00  0.00     0.014 A 
ATOM     33  C   UNL     1      -6.396 -10.710   6.838  1.00  0.00     0.014 A 
ATOM     34  C   UNL     1      -6.199 -13.485   6.649  1.00  0.00     0.010 A 
ATOM     35  C   UNL     1      -6.686 -11.497   7.945  1.00  0.00     0.010 A 
ATOM     36  C   UNL     1      -6.618 -12.894   7.854  1.00  0.00    -0.014 A 
BRANCH  36  37
ATOM     37  C   UNL     1      -7.012 -13.725   9.018  1.00  0.00     0.031 A 
ATOM     38  C   UNL     1      -8.415 -13.647   9.559  1.00  0.00     0.074 A 
ATOM     39  C   UNL     1      -6.093 -14.502   9.623  1.00  0.00     0.049 A 
ATOM     40  N   UNL     1      -8.942 -14.280  10.575  1.00  0.00    -0.248 NA
ATOM     41  C   UNL     1      -9.341 -12.715   8.893  1.00  0.00     0.031 C 
ATOM     42  C   UNL     1      -4.681 -14.595   9.244  1.00  0.00     0.029 A 
ATOM     43  N   UNL     1      -6.205 -15.347  10.698  1.00  0.00    -0.354 N 
ATOM     44  C   UNL     1     -10.241 -13.801  10.689  1.00  0.00     0.074 A 
ATOM     45  C   UNL     1     -10.411 -12.790   9.670  1.00  0.00     0.031 C 
ATOM     46  C   UNL     1      -4.062 -15.458  10.065  1.00  0.00     0.029 A 
ATOM     47  C   UNL     1      -5.022 -15.955  11.045  1.00  0.00     0.049 A 
ATOM     48  H   UNL     1      -7.052 -15.502  11.175  1.00  0.00     0.167 HD
ATOM     49  C   UNL     1     -11.218 -14.189  11.543  1.00  0.00     0.034 A 
ATOM     50  C   UNL     1      -4.742 -16.814  12.045  1.00  0.00     0.034 A 
ATOM     51  C   UNL     1     -11.055 -15.222  12.530  1.00  0.00     0.049 A 
ATOM     52  C   UNL     1      -5.855 -17.262  12.952  1.00  0.00     0.074 A 
ATOM     53  C   UNL     1     -12.003 -15.749  13.387  1.00  0.00     0.029 A 
ATOM     54  N   UNL     1      -9.863 -15.877  12.798  1.00  0.00    -0.354 N 
ATOM     55  N   UNL     1      -7.119 -16.913  12.943  1.00  0.00    -0.248 NA
ATOM     56  C   UNL     1      -5.514 -18.256  13.979  1.00  0.00     0.031 C 
ATOM     57  C   UNL     1     -11.376 -16.701  14.197  1.00  0.00     0.029 A 
ATOM     58  C   UNL     1     -10.048 -16.798  13.814  1.00  0.00     0.049 A 
ATOM     59  H   UNL     1      -9.011 -15.711  12.334  1.00  0.00     0.167 HD
ATOM     60  C   UNL     1      -7.731 -17.672  13.935  1.00  0.00     0.074 A 
ATOM     61  C   UNL     1      -6.702 -18.514  14.508  1.00  0.00     0.031 C 
ATOM     62  C   UNL     1      -9.025 -17.664  14.341  1.00  0.00     0.034 A 
BRANCH  49  63
ATOM     63  C   UNL     1     -12.566 -13.526  11.413  1.00  0.00     0.023 A 
ATOM     64  C   UNL     1     -13.365 -13.782  10.279  1.00  0.00     0.012 A 
ATOM     65  C   UNL     1     -13.064 -12.692  12.432  1.00  0.00     0.148 A 
ATOM     66  C   UNL     1     -14.618 -13.186  10.141  1.00  0.00     0.002 A 
ATOM     67  C   UNL     1     -14.335 -12.143  12.312  1.00  0.00     0.091 A 
ATOM     68  F   UNL     1     -12.284 -12.443  13.494  1.00  0.00    -0.205 F 
ATOM     69  C   UNL     1     -15.107 -12.377  11.162  1.00  0.00     0.022 A 
BRANCH  67  70
ATOM     70  S   UNL     1     -15.092 -11.156  13.608  1.00  0.00     0.127 S 
ATOM     71  O   UNL     1     -15.123  -9.831  12.990  1.00  0.00    -0.237 OA
ATOM     72  O   UNL     1     -16.402 -11.792  13.751  1.00  0.00    -0.237 OA
ATOM     73  O   UNL     1     -14.224 -11.281  14.770  1.00  0.00    -0.744 OA
ENDBRANCH  67  70
ENDBRANCH  49  63
BRANCH  50  74
ATOM     74  C   UNL     1      -3.361 -17.352  12.200  1.00  0.00     0.023 A 
ATOM     75  C   UNL     1      -3.108 -18.709  11.921  1.00  0.00     0.012 A 
ATOM     76  C   UNL     1      -2.296 -16.523  12.599  1.00  0.00     0.148 A 
ATOM     77  C   UNL     1      -1.827 -19.240  12.075  1.00  0.00     0.002 A 
ATOM     78  C   UNL     1      -1.011 -17.044  12.694  1.00  0.00     0.091 A 
ATOM     79  F   UNL     1      -2.560 -15.236  12.865  1.00  0.00    -0.205 F 
ATOM     80  C   UNL     1      -0.777 -18.406  12.451  1.00  0.00     0.022 A 
BRANCH  78  81
ATOM     81  S   UNL     1       0.421 -16.018  13.043  1.00  0.00     0.127 S 
ATOM     82  O   UNL     1       0.801 -16.480  14.375  1.00  0.00    -0.237 OA
ATOM     83  O   UNL     1       1.337 -16.408  11.970  1.00  0.00    -0.237 OA
ATOM     84  O   UNL     1      -0.049 -14.642  12.960  1.00  0.00    -0.744 OA
ENDBRANCH  78  81
ENDBRANCH  50  74
BRANCH  62  85
ATOM     85  C   UNL     1      -9.420 -18.631  15.427  1.00  0.00     0.023 A 
ATOM     86  C   UNL     1      -8.977 -18.431  16.750  1.00  0.00     0.012 A 
ATOM     87  C   UNL     1     -10.284 -19.707  15.143  1.00  0.00     0.148 A 
ATOM     88  C   UNL     1      -9.354 -19.311  17.763  1.00  0.00     0.002 A 
ATOM     89  C   UNL     1     -10.700 -20.547  16.168  1.00  0.00     0.091 A 
ATOM     90  F   UNL     1     -10.681 -19.892  13.875  1.00  0.00    -0.205 F 
ATOM     91  C   UNL     1     -10.224 -20.360  17.475  1.00  0.00     0.022 A 
BRANCH  89  92
ATOM     92  S   UNL     1     -11.897 -21.860  15.908  1.00  0.00     0.127 S 
ATOM     93  O   UNL     1     -11.057 -23.053  16.007  1.00  0.00    -0.237 OA
ATOM     94  O   UNL     1     -12.817 -21.668  17.030  1.00  0.00    -0.237 OA
ATOM     95  O   UNL     1     -12.485 -21.616  14.598  1.00  0.00    -0.744 OA
ENDBRANCH  89  92
ENDBRANCH  62  85
ENDBRANCH  36  37
ENDBRANCH  28  31
ENDBRANCH  26  27
ENDBRANCH   1  26
TORSDOF 16
