REMARK SMILES COc1cc(/C=C2/N=C(c3ccccc3)OC2=O)ccc1OCC(=O)NCCCNC(=O)c1ccc(-c2c3nc(c(-c4cccc(S(=O)(=O)[O-])c4F)c4ccc([nH]4)c(-c4cccc(S(=O)(=O)[O-])c4F)c4nc(c(-c5cccc(S(=O)(=O)[O-])c5F)c5ccc2[nH]5)C=C4)C=C3)cc1
REMARK SMILES IDX 27 1 26 2 24 3 25 4 23 6 22 7 21 8 3 9 4 10 5 11 20 12 19 13
REMARK SMILES IDX 2 14 1 15 6 16 7 17 8 18 17 19 9 20 16 21 18 22 10 23 11 24
REMARK SMILES IDX 15 25 12 26 14 27 13 28 28 29 29 30 30 31 31 32 32 34 33 35
REMARK SMILES IDX 34 36 95 37 35 38 94 39 36 40 37 41 38 42 88 43 39 44 93 45
REMARK SMILES IDX 87 46 89 47 40 48 92 49 86 50 85 51 41 53 73 54 53 55 72 56
REMARK SMILES IDX 54 57 57 58 71 59 90 60 55 61 56 62 70 64 91 65 58 66 42 67
REMARK SMILES IDX 43 68 51 69 44 70 46 71 52 72 45 73 47 74 48 75 49 76 50 77
REMARK SMILES IDX 74 78 75 79 83 80 76 81 78 82 84 83 77 84 79 85 80 86 81 87
REMARK SMILES IDX 82 88 59 89 60 90 68 91 61 92 63 93 69 94 62 95 64 96 65 97
REMARK SMILES IDX 66 98 67 99
REMARK H PARENT 26 5 30 33 89 52 57 63
REMARK Flexibility Score: inf
ROOT
ATOM      1  C   UNL     1       3.394  -3.204  -1.133  1.00  0.00     0.117 C 
ENDROOT
BRANCH   1   2
ATOM      2  N   UNL     1       2.285  -2.332  -1.465  1.00  0.00    -0.353 N 
ATOM      3  C   UNL     1       2.088  -1.035  -1.088  1.00  0.00     0.257 C 
ATOM      4  O   UNL     1       1.241  -0.383  -1.704  1.00  0.00    -0.271 OA
ATOM      5  H   UNL     1       1.585  -2.725  -2.035  1.00  0.00     0.163 HD
BRANCH   3   6
ATOM      6  C   UNL     1       2.964  -0.410   0.004  1.00  0.00     0.329 C 
BRANCH   6   7
ATOM      7  O   UNL     1       3.197  -1.181   1.165  1.00  0.00    -0.480 OA
BRANCH   7   8
ATOM      8  C   UNL     1       2.217  -1.377   2.096  1.00  0.00     0.161 A 
ATOM      9  C   UNL     1       1.020  -0.676   2.280  1.00  0.00     0.161 A 
ATOM     10  C   UNL     1       0.171  -0.999   3.356  1.00  0.00     0.058 A 
ATOM     11  C   UNL     1       0.521  -2.013   4.259  1.00  0.00    -0.019 A 
ATOM     12  C   UNL     1       2.537  -2.406   2.993  1.00  0.00     0.051 A 
ATOM     13  C   UNL     1       1.700  -2.729   4.060  1.00  0.00     0.012 A 
BRANCH   9  14
ATOM     14  O   UNL     1       0.749   0.451   1.551  1.00  0.00    -0.493 OA
ATOM     15  C   UNL     1      -0.391   0.308   0.705  1.00  0.00     0.278 C 
ENDBRANCH   9  14
BRANCH  11  16
ATOM     16  C   UNL     1      -0.266  -2.255   5.471  1.00  0.00     0.044 C 
ATOM     17  C   UNL     1       0.030  -1.739   6.673  1.00  0.00     0.153 C 
ATOM     18  N   UNL     1      -0.713  -1.964   7.808  1.00  0.00    -0.205 NA
ATOM     19  C   UNL     1       1.156  -0.800   6.981  1.00  0.00     0.363 C 
ATOM     20  C   UNL     1      -0.139  -1.196   8.675  1.00  0.00     0.231 C 
ATOM     21  O   UNL     1       0.943  -0.487   8.288  1.00  0.00    -0.402 OA
ATOM     22  O   UNL     1       2.046  -0.362   6.277  1.00  0.00    -0.244 OA
BRANCH  20  23
ATOM     23  C   UNL     1      -0.513  -0.985  10.072  1.00  0.00     0.037 A 
ATOM     24  C   UNL     1      -0.843  -2.079  10.875  1.00  0.00     0.014 A 
ATOM     25  C   UNL     1      -0.575   0.317  10.584  1.00  0.00     0.014 A 
ATOM     26  C   UNL     1      -1.230  -1.867  12.200  1.00  0.00     0.001 A 
ATOM     27  C   UNL     1      -0.981   0.523  11.903  1.00  0.00     0.001 A 
ATOM     28  C   UNL     1      -1.306  -0.569  12.709  1.00  0.00     0.000 A 
ENDBRANCH  20  23
ENDBRANCH  11  16
ENDBRANCH   7   8
ENDBRANCH   6   7
ENDBRANCH   3   6
ENDBRANCH   1   2
BRANCH   1  29
ATOM     29  C   UNL     1       2.983  -4.429  -0.329  1.00  0.00     0.042 C 
BRANCH  29  30
ATOM     30  C   UNL     1       1.899  -5.285  -0.973  1.00  0.00     0.118 C 
BRANCH  30  31
ATOM     31  N   UNL     1       2.236  -5.711  -2.324  1.00  0.00    -0.352 N 
ATOM     32  C   UNL     1       2.502  -6.954  -2.838  1.00  0.00     0.251 C 
ATOM     33  H   UNL     1       2.280  -4.980  -2.982  1.00  0.00     0.163 HD
ATOM     34  O   UNL     1       2.958  -7.040  -3.976  1.00  0.00    -0.269 OA
BRANCH  32  35
ATOM     35  C   UNL     1       2.259  -8.181  -2.047  1.00  0.00     0.039 A 
ATOM     36  C   UNL     1       3.155  -9.247  -2.173  1.00  0.00     0.014 A 
ATOM     37  C   UNL     1       1.136  -8.315  -1.228  1.00  0.00     0.014 A 
ATOM     38  C   UNL     1       2.944 -10.423  -1.450  1.00  0.00     0.010 A 
ATOM     39  C   UNL     1       0.984  -9.446  -0.429  1.00  0.00     0.010 A 
ATOM     40  C   UNL     1       1.869 -10.525  -0.551  1.00  0.00    -0.014 A 
BRANCH  40  41
ATOM     41  C   UNL     1       1.655 -11.765   0.242  1.00  0.00     0.031 A 
ATOM     42  C   UNL     1       0.391 -12.569   0.080  1.00  0.00     0.074 A 
ATOM     43  C   UNL     1       2.584 -12.149   1.140  1.00  0.00     0.049 A 
ATOM     44  N   UNL     1       0.044 -13.685   0.667  1.00  0.00    -0.248 NA
ATOM     45  C   UNL     1      -0.630 -12.040  -0.841  1.00  0.00     0.031 C 
ATOM     46  C   UNL     1       3.812 -11.415   1.454  1.00  0.00     0.029 A 
ATOM     47  N   UNL     1       2.636 -13.246   1.962  1.00  0.00    -0.354 N 
ATOM     48  C   UNL     1      -1.238 -13.974   0.213  1.00  0.00     0.074 A 
ATOM     49  C   UNL     1      -1.628 -12.892  -0.663  1.00  0.00     0.031 C 
ATOM     50  C   UNL     1       4.506 -12.092   2.381  1.00  0.00     0.029 A 
ATOM     51  C   UNL     1       3.760 -13.290   2.753  1.00  0.00     0.049 A 
ATOM     52  H   UNL     1       1.935 -13.937   1.984  1.00  0.00     0.167 HD
ATOM     53  C   UNL     1      -2.012 -15.055   0.473  1.00  0.00     0.034 A 
ATOM     54  C   UNL     1       4.147 -14.193   3.676  1.00  0.00     0.034 A 
ATOM     55  C   UNL     1      -1.610 -16.146   1.320  1.00  0.00     0.049 A 
ATOM     56  C   UNL     1       3.287 -15.403   3.918  1.00  0.00     0.074 A 
ATOM     57  C   UNL     1      -2.284 -17.325   1.582  1.00  0.00     0.029 A 
ATOM     58  N   UNL     1      -0.435 -16.187   2.054  1.00  0.00    -0.354 N 
ATOM     59  N   UNL     1       2.150 -15.736   3.356  1.00  0.00    -0.248 NA
ATOM     60  C   UNL     1       3.785 -16.384   4.893  1.00  0.00     0.031 C 
ATOM     61  C   UNL     1      -1.536 -18.061   2.507  1.00  0.00     0.029 A 
ATOM     62  C   UNL     1      -0.372 -17.362   2.783  1.00  0.00     0.049 A 
ATOM     63  H   UNL     1       0.253 -15.483   2.058  1.00  0.00     0.167 HD
ATOM     64  C   UNL     1       1.815 -16.979   3.881  1.00  0.00     0.074 A 
ATOM     65  C   UNL     1       2.886 -17.351   4.783  1.00  0.00     0.031 C 
ATOM     66  C   UNL     1       0.716 -17.739   3.649  1.00  0.00     0.034 A 
BRANCH  53  67
ATOM     67  C   UNL     1      -3.360 -15.130  -0.199  1.00  0.00     0.023 A 
ATOM     68  C   UNL     1      -3.440 -15.327  -1.594  1.00  0.00     0.012 A 
ATOM     69  C   UNL     1      -4.548 -15.059   0.555  1.00  0.00     0.148 A 
ATOM     70  C   UNL     1      -4.677 -15.410  -2.232  1.00  0.00     0.002 A 
ATOM     71  C   UNL     1      -5.777 -15.193  -0.081  1.00  0.00     0.091 A 
ATOM     72  F   UNL     1      -4.455 -14.852   1.876  1.00  0.00    -0.205 F 
ATOM     73  C   UNL     1      -5.843 -15.354  -1.475  1.00  0.00     0.022 A 
BRANCH  71  74
ATOM     74  S   UNL     1      -7.335 -15.220   0.812  1.00  0.00     0.127 S 
ATOM     75  O   UNL     1      -7.949 -13.968   0.370  1.00  0.00    -0.237 OA
ATOM     76  O   UNL     1      -7.968 -16.429   0.285  1.00  0.00    -0.237 OA
ATOM     77  O   UNL     1      -6.989 -15.278   2.225  1.00  0.00    -0.744 OA
ENDBRANCH  71  74
ENDBRANCH  53  67
BRANCH  54  78
ATOM     78  C   UNL     1       5.439 -14.017   4.399  1.00  0.00     0.023 A 
ATOM     79  C   UNL     1       6.504 -14.905   4.154  1.00  0.00     0.012 A 
ATOM     80  C   UNL     1       5.618 -12.969   5.322  1.00  0.00     0.148 A 
ATOM     81  C   UNL     1       7.710 -14.779   4.845  1.00  0.00     0.002 A 
ATOM     82  C   UNL     1       6.841 -12.813   5.963  1.00  0.00     0.091 A 
ATOM     83  F   UNL     1       4.590 -12.139   5.547  1.00  0.00    -0.205 F 
ATOM     84  C   UNL     1       7.881 -13.729   5.742  1.00  0.00     0.022 A 
BRANCH  82  85
ATOM     85  S   UNL     1       7.195 -11.417   7.036  1.00  0.00     0.127 S 
ATOM     86  O   UNL     1       7.308 -12.064   8.341  1.00  0.00    -0.237 OA
ATOM     87  O   UNL     1       8.455 -10.924   6.479  1.00  0.00    -0.237 OA
ATOM     88  O   UNL     1       6.070 -10.504   6.880  1.00  0.00    -0.744 OA
ENDBRANCH  82  85
ENDBRANCH  54  78
BRANCH  66  89
ATOM     89  C   UNL     1       0.633 -19.071   4.350  1.00  0.00     0.023 A 
ATOM     90  C   UNL     1       0.449 -19.127   5.747  1.00  0.00     0.012 A 
ATOM     91  C   UNL     1       0.699 -20.272   3.615  1.00  0.00     0.148 A 
ATOM     92  C   UNL     1       0.387 -20.355   6.406  1.00  0.00     0.002 A 
ATOM     93  C   UNL     1       0.577 -21.490   4.271  1.00  0.00     0.091 A 
ATOM     94  F   UNL     1       0.889 -20.202   2.289  1.00  0.00    -0.205 F 
ATOM     95  C   UNL     1       0.440 -21.534   5.668  1.00  0.00     0.022 A 
BRANCH  93  96
ATOM     96  S   UNL     1       0.532 -23.055   3.392  1.00  0.00     0.127 S 
ATOM     97  O   UNL     1       1.840 -23.619   3.720  1.00  0.00    -0.237 OA
ATOM     98  O   UNL     1      -0.601 -23.733   4.024  1.00  0.00    -0.237 OA
ATOM     99  O   UNL     1       0.329 -22.722   1.988  1.00  0.00    -0.744 OA
ENDBRANCH  93  96
ENDBRANCH  66  89
ENDBRANCH  40  41
ENDBRANCH  32  35
ENDBRANCH  30  31
ENDBRANCH  29  30
ENDBRANCH   1  29
TORSDOF 18
