REMARK SMILES C[C@H](CNC(=O)[C@H]1CCCCC[C@@H]1[NH3+])C(=O)NCCCNC(=O)c1ccc(-c2c3nc(c(-c4cccc(S(=O)(=O)[O-])c4F)c4ccc([nH]4)c(-c4cccc(S(=O)(=O)[O-])c4F)c4nc(c(-c5cccc(S(=O)(=O)[O-])c5F)c5ccc2[nH]5)C=C4)C=C3)cc1
REMARK SMILES IDX 15 1 16 2 17 3 2 5 1 6 3 7 4 8 5 9 6 11 7 12 8 13 9 14 10 15
REMARK SMILES IDX 11 16 13 18 12 19 14 21 18 25 19 26 20 27 21 28 22 29 23 31
REMARK SMILES IDX 24 32 25 33 86 34 26 35 85 36 27 37 28 38 29 39 79 40 30 41
REMARK SMILES IDX 84 42 78 43 80 44 31 45 83 46 77 47 76 48 32 50 64 51 44 52
REMARK SMILES IDX 63 53 45 54 48 55 62 56 81 57 46 58 47 59 61 61 82 62 49 63
REMARK SMILES IDX 33 64 34 65 42 66 35 67 37 68 43 69 36 70 38 71 39 72 40 73
REMARK SMILES IDX 41 74 65 75 66 76 74 77 67 78 69 79 75 80 68 81 70 82 71 83
REMARK SMILES IDX 72 84 73 85 50 86 51 87 59 88 52 89 54 90 60 91 53 92 55 93
REMARK SMILES IDX 56 94 57 95 58 96
REMARK H PARENT 17 4 4 10 14 22 14 23 14 24 21 30 80 49 48 60
REMARK Flexibility Score: 90.00
ROOT
ATOM      1  C   UNL     1      -1.357   1.385   0.447  1.00  0.00     0.224 C 
ATOM      2  O   UNL     1      -1.516   1.068  -0.735  1.00  0.00    -0.275 OA
ATOM      3  N   UNL     1      -0.081   1.617   0.864  1.00  0.00    -0.356 N 
ATOM      4  H   UNL     1       0.606   1.405   0.191  1.00  0.00     0.163 HD
ENDROOT
BRANCH   1   5
ATOM      5  C   UNL     1      -2.560   1.519   1.375  1.00  0.00     0.094 C 
ATOM      6  C   UNL     1      -2.784   2.974   1.784  1.00  0.00     0.020 C 
BRANCH   5   7
ATOM      7  C   UNL     1      -2.427   0.566   2.564  1.00  0.00     0.129 C 
BRANCH   7   8
ATOM      8  N   UNL     1      -3.431  -0.482   2.611  1.00  0.00    -0.355 N 
ATOM      9  C   UNL     1      -3.344  -1.807   2.929  1.00  0.00     0.229 C 
ATOM     10  H   UNL     1      -4.337  -0.183   2.370  1.00  0.00     0.163 HD
ATOM     11  O   UNL     1      -4.434  -2.372   3.081  1.00  0.00    -0.275 OA
BRANCH   9  12
ATOM     12  C   UNL     1      -2.005  -2.592   2.985  1.00  0.00     0.136 C 
BRANCH  12  13
ATOM     13  C   UNL     1      -0.833  -1.974   3.762  1.00  0.00     0.020 C 
BRANCH  13  14
ATOM     14  C   UNL     1      -1.215  -1.401   5.118  1.00  0.00     0.001 C 
BRANCH  14  15
ATOM     15  C   UNL     1      -1.111  -2.401   6.262  1.00  0.00     0.000 C 
BRANCH  15  16
ATOM     16  C   UNL     1      -1.326  -3.874   5.918  1.00  0.00     0.006 CG0
ATOM     17  G   UNL     1      -2.509  -4.177   4.992  1.00  0.00     0.000 G0
ENDBRANCH  15  16
ENDBRANCH  14  15
ENDBRANCH  13  14
ENDBRANCH  12  13
BRANCH  12  18
ATOM     18  C   UNL     1      -2.263  -4.048   3.468  1.00  0.00     0.193 C 
BRANCH  18  19
ATOM     19  C   UNL     1      -2.509  -4.177   4.992  1.00  0.00     0.066 CG0
ATOM     20  G   UNL     1      -1.326  -3.874   5.918  1.00  0.00     0.000 G0
ENDBRANCH  18  19
BRANCH  18  21
ATOM     21  N   UNL     1      -1.185  -4.954   3.019  1.00  0.00    -0.354 N 
ATOM     22  H   UNL     1      -0.305  -4.676   3.454  1.00  0.00     0.344 HD
ATOM     23  H   UNL     1      -1.095  -4.899   2.005  1.00  0.00     0.344 HD
ATOM     24  H   UNL     1      -1.411  -5.911   3.289  1.00  0.00     0.344 HD
ENDBRANCH  18  21
ENDBRANCH  12  18
ENDBRANCH   9  12
ENDBRANCH   7   8
ENDBRANCH   5   7
ENDBRANCH   1   5
BRANCH   3  25
ATOM     25  C   UNL     1       0.455   2.119   2.121  1.00  0.00     0.117 C 
BRANCH  25  26
ATOM     26  C   UNL     1       1.472   1.189   2.772  1.00  0.00     0.042 C 
BRANCH  26  27
ATOM     27  C   UNL     1       2.693   0.866   1.925  1.00  0.00     0.118 C 
BRANCH  27  28
ATOM     28  N   UNL     1       3.586   2.006   1.785  1.00  0.00    -0.352 N 
ATOM     29  C   UNL     1       4.878   2.163   2.236  1.00  0.00     0.251 C 
ATOM     30  H   UNL     1       3.214   2.776   1.297  1.00  0.00     0.163 HD
ATOM     31  O   UNL     1       5.403   3.269   2.203  1.00  0.00    -0.269 OA
BRANCH  29  32
ATOM     32  C   UNL     1       5.617   1.001   2.783  1.00  0.00     0.039 A 
ATOM     33  C   UNL     1       6.349   1.154   3.964  1.00  0.00     0.014 A 
ATOM     34  C   UNL     1       5.585  -0.236   2.137  1.00  0.00     0.014 A 
ATOM     35  C   UNL     1       6.984   0.046   4.537  1.00  0.00     0.010 A 
ATOM     36  C   UNL     1       6.142  -1.353   2.753  1.00  0.00     0.010 A 
ATOM     37  C   UNL     1       6.850  -1.226   3.958  1.00  0.00    -0.014 A 
BRANCH  37  38
ATOM     38  C   UNL     1       7.430  -2.444   4.584  1.00  0.00     0.031 A 
ATOM     39  C   UNL     1       8.443  -3.265   3.830  1.00  0.00     0.074 A 
ATOM     40  C   UNL     1       6.961  -2.880   5.771  1.00  0.00     0.049 A 
ATOM     41  N   UNL     1       8.951  -4.431   4.133  1.00  0.00    -0.248 NA
ATOM     42  C   UNL     1       8.925  -2.715   2.552  1.00  0.00     0.031 C 
ATOM     43  C   UNL     1       5.937  -2.209   6.575  1.00  0.00     0.029 A 
ATOM     44  N   UNL     1       7.254  -4.013   6.489  1.00  0.00    -0.354 N 
ATOM     45  C   UNL     1       9.771  -4.776   3.065  1.00  0.00     0.074 A 
ATOM     46  C   UNL     1       9.672  -3.708   2.094  1.00  0.00     0.031 C 
ATOM     47  C   UNL     1       5.682  -2.946   7.668  1.00  0.00     0.029 A 
ATOM     48  C   UNL     1       6.489  -4.162   7.623  1.00  0.00     0.049 A 
ATOM     49  H   UNL     1       7.946  -4.659   6.218  1.00  0.00     0.167 HD
ATOM     50  C   UNL     1      10.554  -5.871   2.914  1.00  0.00     0.034 A 
ATOM     51  C   UNL     1       6.423  -5.172   8.514  1.00  0.00     0.034 A 
ATOM     52  C   UNL     1      10.682  -6.910   3.899  1.00  0.00     0.049 A 
ATOM     53  C   UNL     1       7.319  -6.368   8.335  1.00  0.00     0.074 A 
ATOM     54  C   UNL     1      11.510  -8.018   3.876  1.00  0.00     0.029 A 
ATOM     55  N   UNL     1       9.957  -6.976   5.078  1.00  0.00    -0.354 N 
ATOM     56  N   UNL     1       8.186  -6.612   7.383  1.00  0.00    -0.248 NA
ATOM     57  C   UNL     1       7.253  -7.413   9.368  1.00  0.00     0.031 C 
ATOM     58  C   UNL     1      11.264  -8.771   5.027  1.00  0.00     0.029 A 
ATOM     59  C   UNL     1      10.314  -8.109   5.788  1.00  0.00     0.049 A 
ATOM     60  H   UNL     1       9.289  -6.314   5.369  1.00  0.00     0.167 HD
ATOM     61  C   UNL     1       8.804  -7.809   7.728  1.00  0.00     0.074 A 
ATOM     62  C   UNL     1       8.215  -8.239   8.979  1.00  0.00     0.031 C 
ATOM     63  C   UNL     1       9.768  -8.492   7.065  1.00  0.00     0.034 A 
BRANCH  50  64
ATOM     64  C   UNL     1      11.367  -5.986   1.650  1.00  0.00     0.023 A 
ATOM     65  C   UNL     1      12.460  -5.120   1.440  1.00  0.00     0.012 A 
ATOM     66  C   UNL     1      11.089  -6.989   0.701  1.00  0.00     0.148 A 
ATOM     67  C   UNL     1      13.239  -5.226   0.288  1.00  0.00     0.002 A 
ATOM     68  C   UNL     1      11.900  -7.120  -0.420  1.00  0.00     0.091 A 
ATOM     69  F   UNL     1      10.035  -7.792   0.908  1.00  0.00    -0.205 F 
ATOM     70  C   UNL     1      12.966  -6.231  -0.635  1.00  0.00     0.022 A 
BRANCH  68  71
ATOM     71  S   UNL     1      11.685  -8.437  -1.623  1.00  0.00     0.127 S 
ATOM     72  O   UNL     1      11.203  -7.695  -2.787  1.00  0.00    -0.237 OA
ATOM     73  O   UNL     1      13.046  -8.958  -1.754  1.00  0.00    -0.237 OA
ATOM     74  O   UNL     1      10.732  -9.367  -1.036  1.00  0.00    -0.744 OA
ENDBRANCH  68  71
ENDBRANCH  50  64
BRANCH  51  75
ATOM     75  C   UNL     1       5.504  -5.075   9.684  1.00  0.00     0.023 A 
ATOM     76  C   UNL     1       6.042  -4.921  10.977  1.00  0.00     0.012 A 
ATOM     77  C   UNL     1       4.106  -5.111   9.523  1.00  0.00     0.148 A 
ATOM     78  C   UNL     1       5.206  -4.841  12.091  1.00  0.00     0.002 A 
ATOM     79  C   UNL     1       3.277  -4.971  10.630  1.00  0.00     0.091 A 
ATOM     80  F   UNL     1       3.613  -5.266   8.286  1.00  0.00    -0.205 F 
ATOM     81  C   UNL     1       3.825  -4.856  11.917  1.00  0.00     0.022 A 
BRANCH  79  82
ATOM     82  S   UNL     1       1.491  -4.841  10.486  1.00  0.00     0.127 S 
ATOM     83  O   UNL     1       1.051  -6.101  11.079  1.00  0.00    -0.237 OA
ATOM     84  O   UNL     1       1.210  -3.649  11.286  1.00  0.00    -0.237 OA
ATOM     85  O   UNL     1       1.220  -4.684   9.062  1.00  0.00    -0.744 OA
ENDBRANCH  79  82
ENDBRANCH  51  75
BRANCH  63  86
ATOM     86  C   UNL     1      10.317  -9.742   7.699  1.00  0.00     0.023 A 
ATOM     87  C   UNL     1       9.552 -10.924   7.720  1.00  0.00     0.012 A 
ATOM     88  C   UNL     1      11.643  -9.766   8.177  1.00  0.00     0.148 A 
ATOM     89  C   UNL     1      10.092 -12.106   8.228  1.00  0.00     0.002 A 
ATOM     90  C   UNL     1      12.191 -10.958   8.632  1.00  0.00     0.091 A 
ATOM     91  F   UNL     1      12.347  -8.624   8.163  1.00  0.00    -0.205 F 
ATOM     92  C   UNL     1      11.413 -12.126   8.670  1.00  0.00     0.022 A 
BRANCH  90  93
ATOM     93  S   UNL     1      13.913 -11.103   9.122  1.00  0.00     0.127 S 
ATOM     94  O   UNL     1      13.795 -11.328  10.562  1.00  0.00    -0.237 OA
ATOM     95  O   UNL     1      14.354 -12.269   8.356  1.00  0.00    -0.237 OA
ATOM     96  O   UNL     1      14.550  -9.850   8.739  1.00  0.00    -0.744 OA
ENDBRANCH  90  93
ENDBRANCH  63  86
ENDBRANCH  37  38
ENDBRANCH  29  32
ENDBRANCH  27  28
ENDBRANCH  26  27
ENDBRANCH  25  26
ENDBRANCH   3  25
TORSDOF 17
