REMARK SMILES Cc1cc(C(=O)NCCCNC(=O)c2ccc(-c3c4nc(c(-c5cccc(S(=O)(=O)[O-])c5F)c5ccc([nH]5)c(-c5cccc(S(=O)(=O)[O-])c5F)c5nc(c(-c6cccc(S(=O)(=O)[O-])c6F)c6ccc3[nH]6)C=C5)C=C4)cc2)ccc1NCCCC(=O)NC1CC1
REMARK SMILES IDX 5 1 6 2 7 3 4 5 1 6 2 7 3 8 79 9 78 10 77 11 80 12 81 14
REMARK SMILES IDX 82 15 83 16 84 17 85 18 86 19 87 21 88 22 89 23 8 24 9 25
REMARK SMILES IDX 10 26 11 27 12 28 13 30 14 31 15 32 76 33 16 34 75 35 17 36
REMARK SMILES IDX 18 37 19 38 69 39 20 40 74 41 68 42 70 43 21 44 73 45 67 46
REMARK SMILES IDX 66 47 22 49 54 50 34 51 53 52 35 53 38 54 52 55 71 56 36 57
REMARK SMILES IDX 37 58 51 60 72 61 39 62 23 63 24 64 32 65 25 66 27 67 33 68
REMARK SMILES IDX 26 69 28 70 29 71 30 72 31 73 55 74 56 75 64 76 57 77 59 78
REMARK SMILES IDX 65 79 58 80 60 81 61 82 62 83 63 84 40 85 41 86 49 87 42 88
REMARK SMILES IDX 44 89 50 90 43 91 45 92 46 93 47 94 48 95
REMARK H PARENT 7 4 80 13 86 20 11 29 70 48 38 59
REMARK Flexibility Score: inf
ROOT
ATOM      1  C   UNL     1      -1.835  -2.385  -0.208  1.00  0.00     0.251 C 
ATOM      2  O   UNL     1      -1.199  -3.402  -0.484  1.00  0.00    -0.269 OA
ATOM      3  N   UNL     1      -3.202  -2.474  -0.049  1.00  0.00    -0.352 N 
ATOM      4  H   UNL     1      -3.588  -3.341  -0.310  1.00  0.00     0.163 HD
ENDROOT
BRANCH   1   5
ATOM      5  C   UNL     1      -1.088  -1.110  -0.009  1.00  0.00     0.040 A 
ATOM      6  C   UNL     1       2.467  -0.102   0.832  1.00  0.00     0.046 C 
ATOM      7  C   UNL     1       0.980   0.035   0.638  1.00  0.00    -0.027 A 
ATOM      8  C   UNL     1       0.257  -1.151   0.367  1.00  0.00     0.019 A 
ATOM      9  C   UNL     1       0.317   1.278   0.622  1.00  0.00     0.037 A 
ATOM     10  C   UNL     1      -0.969   1.304   0.088  1.00  0.00     0.027 A 
ATOM     11  C   UNL     1      -1.640   0.138  -0.244  1.00  0.00     0.016 A 
BRANCH   9  12
ATOM     12  N   UNL     1       0.935   2.453   1.020  1.00  0.00    -0.385 N 
ATOM     13  H   UNL     1       1.853   2.413   1.374  1.00  0.00     0.160 HD
BRANCH  12  14
ATOM     14  C   UNL     1       0.268   3.744   0.932  1.00  0.00     0.113 C 
BRANCH  14  15
ATOM     15  C   UNL     1       1.168   4.880   1.396  1.00  0.00     0.031 C 
BRANCH  15  16
ATOM     16  C   UNL     1       2.583   4.854   0.824  1.00  0.00     0.102 C 
BRANCH  16  17
ATOM     17  C   UNL     1       2.799   5.726  -0.391  1.00  0.00     0.220 C 
ATOM     18  O   UNL     1       3.270   6.860  -0.270  1.00  0.00    -0.275 OA
ATOM     19  N   UNL     1       2.517   5.270  -1.645  1.00  0.00    -0.353 N 
ATOM     20  H   UNL     1       2.856   5.837  -2.375  1.00  0.00     0.163 HD
BRANCH  19  21
ATOM     21  C   UNL     1       1.812   4.110  -2.070  1.00  0.00     0.082 C 
ATOM     22  C   UNL     1       2.312   3.378  -3.292  1.00  0.00     0.027 C 
ATOM     23  C   UNL     1       2.315   2.702  -1.960  1.00  0.00     0.027 C 
ENDBRANCH  19  21
ENDBRANCH  16  17
ENDBRANCH  15  16
ENDBRANCH  14  15
ENDBRANCH  12  14
ENDBRANCH   9  12
ENDBRANCH   1   5
BRANCH   3  24
ATOM     24  C   UNL     1      -4.172  -1.504   0.439  1.00  0.00     0.118 C 
BRANCH  24  25
ATOM     25  C   UNL     1      -4.798  -0.670  -0.681  1.00  0.00     0.042 C 
BRANCH  25  26
ATOM     26  C   UNL     1      -6.034  -1.286  -1.299  1.00  0.00     0.118 C 
BRANCH  26  27
ATOM     27  N   UNL     1      -7.138  -0.333  -1.415  1.00  0.00    -0.352 N 
ATOM     28  C   UNL     1      -8.334  -0.505  -2.094  1.00  0.00     0.251 C 
ATOM     29  H   UNL     1      -7.018   0.530  -0.958  1.00  0.00     0.163 HD
ATOM     30  O   UNL     1      -9.177   0.386  -2.117  1.00  0.00    -0.269 OA
BRANCH  28  31
ATOM     31  C   UNL     1      -8.579  -1.833  -2.691  1.00  0.00     0.039 A 
ATOM     32  C   UNL     1      -9.522  -2.644  -2.058  1.00  0.00     0.014 A 
ATOM     33  C   UNL     1      -7.603  -2.373  -3.527  1.00  0.00     0.014 A 
ATOM     34  C   UNL     1      -9.316  -4.018  -2.035  1.00  0.00     0.010 A 
ATOM     35  C   UNL     1      -7.342  -3.724  -3.422  1.00  0.00     0.010 A 
ATOM     36  C   UNL     1      -8.154  -4.527  -2.611  1.00  0.00    -0.014 A 
BRANCH  36  37
ATOM     37  C   UNL     1      -7.715  -5.901  -2.440  1.00  0.00     0.031 A 
ATOM     38  C   UNL     1      -8.194  -6.915  -3.388  1.00  0.00     0.074 A 
ATOM     39  C   UNL     1      -6.858  -6.248  -1.454  1.00  0.00     0.049 A 
ATOM     40  N   UNL     1      -8.209  -8.180  -3.151  1.00  0.00    -0.248 NA
ATOM     41  C   UNL     1      -8.770  -6.546  -4.671  1.00  0.00     0.031 C 
ATOM     42  C   UNL     1      -6.109  -7.493  -1.331  1.00  0.00     0.029 A 
ATOM     43  N   UNL     1      -6.691  -5.623  -0.217  1.00  0.00    -0.354 N 
ATOM     44  C   UNL     1      -8.514  -8.809  -4.337  1.00  0.00     0.074 A 
ATOM     45  C   UNL     1      -8.969  -7.751  -5.206  1.00  0.00     0.031 C 
ATOM     46  C   UNL     1      -5.808  -7.688  -0.039  1.00  0.00     0.029 A 
ATOM     47  C   UNL     1      -6.492  -6.658   0.721  1.00  0.00     0.049 A 
ATOM     48  H   UNL     1      -6.708  -4.656  -0.036  1.00  0.00     0.167 HD
ATOM     49  C   UNL     1      -8.185 -10.124  -4.479  1.00  0.00     0.034 A 
ATOM     50  C   UNL     1      -7.291  -6.862   1.811  1.00  0.00     0.034 A 
ATOM     51  C   UNL     1      -7.725 -10.696  -3.198  1.00  0.00     0.049 A 
ATOM     52  C   UNL     1      -7.909  -8.255   1.859  1.00  0.00     0.074 A 
ATOM     53  C   UNL     1      -6.483 -11.001  -2.662  1.00  0.00     0.029 A 
ATOM     54  N   UNL     1      -8.623 -10.781  -2.142  1.00  0.00    -0.354 N 
ATOM     55  N   UNL     1      -7.694  -9.205   0.990  1.00  0.00    -0.248 NA
ATOM     56  C   UNL     1      -8.934  -8.622   2.834  1.00  0.00     0.031 C 
ATOM     57  C   UNL     1      -6.645 -11.249  -1.266  1.00  0.00     0.029 A 
ATOM     58  C   UNL     1      -7.986 -11.121  -0.956  1.00  0.00     0.049 A 
ATOM     59  H   UNL     1      -9.591 -10.620  -2.224  1.00  0.00     0.167 HD
ATOM     60  C   UNL     1      -8.634 -10.198   1.152  1.00  0.00     0.074 A 
ATOM     61  C   UNL     1      -9.376  -9.785   2.332  1.00  0.00     0.031 C 
ATOM     62  C   UNL     1      -8.786 -11.233   0.262  1.00  0.00     0.034 A 
BRANCH  49  63
ATOM     63  C   UNL     1      -7.981 -10.817  -5.822  1.00  0.00     0.023 A 
ATOM     64  C   UNL     1      -7.198 -11.993  -5.830  1.00  0.00     0.012 A 
ATOM     65  C   UNL     1      -8.409 -10.366  -7.094  1.00  0.00     0.148 A 
ATOM     66  C   UNL     1      -6.772 -12.610  -7.013  1.00  0.00     0.002 A 
ATOM     67  C   UNL     1      -7.931 -10.935  -8.277  1.00  0.00     0.091 A 
ATOM     68  F   UNL     1      -9.360  -9.438  -7.190  1.00  0.00    -0.205 F 
ATOM     69  C   UNL     1      -7.105 -12.058  -8.240  1.00  0.00     0.022 A 
BRANCH  67  70
ATOM     70  S   UNL     1      -8.276 -10.226  -9.900  1.00  0.00     0.127 S 
ATOM     71  O   UNL     1      -6.931 -10.053 -10.452  1.00  0.00    -0.237 OA
ATOM     72  O   UNL     1      -9.065 -11.277 -10.541  1.00  0.00    -0.237 OA
ATOM     73  O   UNL     1      -8.984  -8.974  -9.659  1.00  0.00    -0.744 OA
ENDBRANCH  67  70
ENDBRANCH  49  63
BRANCH  50  74
ATOM     74  C   UNL     1      -7.972  -5.612   2.273  1.00  0.00     0.023 A 
ATOM     75  C   UNL     1      -7.146  -4.513   2.615  1.00  0.00     0.012 A 
ATOM     76  C   UNL     1      -9.322  -5.371   1.973  1.00  0.00     0.148 A 
ATOM     77  C   UNL     1      -7.603  -3.204   2.457  1.00  0.00     0.002 A 
ATOM     78  C   UNL     1      -9.776  -4.063   1.846  1.00  0.00     0.091 A 
ATOM     79  F   UNL     1     -10.135  -6.406   1.730  1.00  0.00    -0.205 F 
ATOM     80  C   UNL     1      -8.906  -2.979   2.025  1.00  0.00     0.022 A 
BRANCH  78  81
ATOM     81  S   UNL     1     -11.467  -3.755   1.330  1.00  0.00     0.127 S 
ATOM     82  O   UNL     1     -12.183  -3.863   2.596  1.00  0.00    -0.237 OA
ATOM     83  O   UNL     1     -11.393  -2.404   0.776  1.00  0.00    -0.237 OA
ATOM     84  O   UNL     1     -11.728  -4.791   0.340  1.00  0.00    -0.744 OA
ENDBRANCH  78  81
ENDBRANCH  50  74
BRANCH  62  85
ATOM     85  C   UNL     1      -9.761 -12.402   0.417  1.00  0.00     0.023 A 
ATOM     86  C   UNL     1     -10.345 -12.735   1.656  1.00  0.00     0.012 A 
ATOM     87  C   UNL     1     -10.070 -13.278  -0.662  1.00  0.00     0.148 A 
ATOM     88  C   UNL     1     -11.294 -13.757   1.791  1.00  0.00     0.002 A 
ATOM     89  C   UNL     1     -10.989 -14.317  -0.521  1.00  0.00     0.091 A 
ATOM     90  F   UNL     1      -9.430 -13.152  -1.829  1.00  0.00    -0.205 F 
ATOM     91  C   UNL     1     -11.632 -14.536   0.697  1.00  0.00     0.022 A 
BRANCH  89  92
ATOM     92  S   UNL     1     -11.377 -15.454  -1.861  1.00  0.00     0.127 S 
ATOM     93  O   UNL     1     -10.759 -16.691  -1.383  1.00  0.00    -0.237 OA
ATOM     94  O   UNL     1     -12.840 -15.458  -1.841  1.00  0.00    -0.237 OA
ATOM     95  O   UNL     1     -10.788 -14.886  -3.064  1.00  0.00    -0.744 OA
ENDBRANCH  89  92
ENDBRANCH  62  85
ENDBRANCH  36  37
ENDBRANCH  28  31
ENDBRANCH  26  27
ENDBRANCH  25  26
ENDBRANCH  24  25
ENDBRANCH   3  24
TORSDOF 19
