REMARK SMILES Cn1ccc(-c2n[nH]c(=O)n2-c2ccc(C(=O)NCCCNC(=O)c3ccc(-c4c5nc(c(-c6cccc(S(=O)(=O)[O-])c6F)c6ccc([nH]6)c(-c6cccc(S(=O)(=O)[O-])c6F)c6nc(c(-c7cccc(S(=O)(=O)[O-])c7F)c7ccc4[nH]7)C=C6)C=C5)cc3)cc2)n1
REMARK SMILES IDX 20 1 19 2 18 3 16 4 17 5 15 7 12 8 13 9 89 10 14 11 88 12
REMARK SMILES IDX 11 13 6 14 7 15 8 16 9 17 10 19 5 20 1 21 2 22 3 23 90 24
REMARK SMILES IDX 4 25 21 26 22 27 23 28 24 30 25 31 26 32 87 33 27 34 86 35
REMARK SMILES IDX 28 36 29 37 30 38 80 39 31 40 85 41 79 42 81 43 32 44 84 45
REMARK SMILES IDX 78 46 77 47 33 49 65 50 45 51 64 52 46 53 49 54 63 55 82 56
REMARK SMILES IDX 47 57 48 58 62 60 83 61 50 62 34 63 35 64 43 65 36 66 38 67
REMARK SMILES IDX 44 68 37 69 39 70 40 71 41 72 42 73 66 74 67 75 75 76 68 77
REMARK SMILES IDX 70 78 76 79 69 80 71 81 72 82 73 83 74 84 51 85 52 86 60 87
REMARK SMILES IDX 53 88 55 89 61 90 54 91 56 92 57 93 58 94 59 95
REMARK H PARENT 18 6 8 18 22 29 81 48 49 59
REMARK Flexibility Score: inf
ROOT
ATOM      1  C   UNL     1       1.002   0.328   6.974  1.00  0.00     0.042 C 
ENDROOT
BRANCH   1   2
ATOM      2  C   UNL     1      -0.204   0.977   6.282  1.00  0.00     0.118 C 
BRANCH   2   3
ATOM      3  N   UNL     1      -0.214   2.421   6.436  1.00  0.00    -0.352 N 
ATOM      4  C   UNL     1       0.216   3.444   5.626  1.00  0.00     0.251 C 
ATOM      5  O   UNL     1      -0.069   4.593   5.958  1.00  0.00    -0.269 OA
ATOM      6  H   UNL     1      -0.606   2.726   7.286  1.00  0.00     0.163 HD
BRANCH   4   7
ATOM      7  C   UNL     1       0.949   3.235   4.346  1.00  0.00     0.039 A 
ATOM      8  C   UNL     1       2.138   2.920   1.813  1.00  0.00     0.052 A 
ATOM      9  C   UNL     1       1.597   4.153   2.175  1.00  0.00     0.028 A 
ATOM     10  C   UNL     1       2.170   1.885   2.750  1.00  0.00     0.028 A 
ATOM     11  C   UNL     1       0.977   4.296   3.423  1.00  0.00     0.016 A 
ATOM     12  C   UNL     1       1.626   2.063   4.018  1.00  0.00     0.016 A 
BRANCH   8  13
ATOM     13  N   UNL     1       2.709   2.708   0.554  1.00  0.00    -0.242 N 
ATOM     14  C   UNL     1       2.586   1.613  -0.250  1.00  0.00     0.189 A 
ATOM     15  N   UNL     1       3.500   1.502  -1.176  1.00  0.00    -0.150 NA
ATOM     16  N   UNL     1       4.267   2.624  -0.999  1.00  0.00    -0.226 N 
ATOM     17  C   UNL     1       3.791   3.392   0.064  1.00  0.00     0.348 A 
ATOM     18  H   UNL     1       5.050   2.858  -1.549  1.00  0.00     0.195 HD
ATOM     19  O   UNL     1       4.331   4.413   0.478  1.00  0.00    -0.246 OA
BRANCH  14  20
ATOM     20  C   UNL     1       1.485   0.668  -0.144  1.00  0.00     0.130 A 
ATOM     21  C   UNL     1      -1.955   0.029   0.028  1.00  0.00     0.173 C 
ATOM     22  N   UNL     1      -0.514  -0.050  -0.007  1.00  0.00    -0.275 N 
ATOM     23  C   UNL     1       0.245  -1.178  -0.099  1.00  0.00     0.109 A 
ATOM     24  N   UNL     1       0.212   1.081   0.001  1.00  0.00    -0.170 NA
ATOM     25  C   UNL     1       1.546  -0.748  -0.219  1.00  0.00     0.054 A 
ENDBRANCH  14  20
ENDBRANCH   8  13
ENDBRANCH   4   7
ENDBRANCH   2   3
ENDBRANCH   1   2
BRANCH   1  26
ATOM     26  C   UNL     1       0.729   0.034   8.439  1.00  0.00     0.118 C 
BRANCH  26  27
ATOM     27  N   UNL     1      -0.236  -1.059   8.598  1.00  0.00    -0.352 N 
ATOM     28  C   UNL     1      -0.815  -1.537   9.754  1.00  0.00     0.251 C 
ATOM     29  H   UNL     1      -0.506  -1.512   7.767  1.00  0.00     0.163 HD
ATOM     30  O   UNL     1      -1.335  -2.646   9.776  1.00  0.00    -0.269 OA
BRANCH  28  31
ATOM     31  C   UNL     1      -0.792  -0.695  10.960  1.00  0.00     0.039 A 
ATOM     32  C   UNL     1      -0.513  -1.246  12.215  1.00  0.00     0.014 A 
ATOM     33  C   UNL     1      -1.012   0.671  10.810  1.00  0.00     0.014 A 
ATOM     34  C   UNL     1      -0.372  -0.395  13.307  1.00  0.00     0.010 A 
ATOM     35  C   UNL     1      -0.716   1.517  11.846  1.00  0.00     0.010 A 
ATOM     36  C   UNL     1      -0.452   0.990  13.108  1.00  0.00    -0.014 A 
BRANCH  36  37
ATOM     37  C   UNL     1      -0.111   1.923  14.179  1.00  0.00     0.031 A 
ATOM     38  C   UNL     1       1.272   1.758  14.717  1.00  0.00     0.074 A 
ATOM     39  C   UNL     1      -0.884   3.002  14.439  1.00  0.00     0.049 A 
ATOM     40  N   UNL     1       1.626   1.492  15.931  1.00  0.00    -0.248 NA
ATOM     41  C   UNL     1       2.393   1.743  13.759  1.00  0.00     0.031 C 
ATOM     42  C   UNL     1      -2.104   3.409  13.725  1.00  0.00     0.029 A 
ATOM     43  N   UNL     1      -0.645   4.071  15.250  1.00  0.00    -0.354 N 
ATOM     44  C   UNL     1       3.021   1.536  15.930  1.00  0.00     0.074 A 
ATOM     45  C   UNL     1       3.425   1.458  14.554  1.00  0.00     0.031 C 
ATOM     46  C   UNL     1      -2.310   4.729  13.908  1.00  0.00     0.029 A 
ATOM     47  C   UNL     1      -1.349   5.218  14.876  1.00  0.00     0.049 A 
ATOM     48  H   UNL     1      -0.037   4.038  16.023  1.00  0.00     0.167 HD
ATOM     49  C   UNL     1       3.715   1.931  17.034  1.00  0.00     0.034 A 
ATOM     50  C   UNL     1      -1.100   6.493  15.266  1.00  0.00     0.034 A 
ATOM     51  C   UNL     1       2.882   1.904  18.210  1.00  0.00     0.049 A 
ATOM     52  C   UNL     1      -0.287   6.418  16.499  1.00  0.00     0.074 A 
ATOM     53  C   UNL     1       2.129   0.945  18.858  1.00  0.00     0.029 A 
ATOM     54  N   UNL     1       2.433   3.116  18.673  1.00  0.00    -0.354 N 
ATOM     55  N   UNL     1      -0.726   5.926  17.623  1.00  0.00    -0.248 NA
ATOM     56  C   UNL     1       1.157   6.496  16.367  1.00  0.00     0.031 C 
ATOM     57  C   UNL     1       0.964   1.636  19.303  1.00  0.00     0.029 A 
ATOM     58  C   UNL     1       1.106   2.985  18.972  1.00  0.00     0.049 A 
ATOM     59  H   UNL     1       2.972   3.934  18.773  1.00  0.00     0.167 HD
ATOM     60  C   UNL     1       0.349   5.197  18.113  1.00  0.00     0.074 A 
ATOM     61  C   UNL     1       1.509   5.689  17.372  1.00  0.00     0.031 C 
ATOM     62  C   UNL     1       0.147   4.060  18.842  1.00  0.00     0.034 A 
BRANCH  49  63
ATOM     63  C   UNL     1       5.005   2.732  17.014  1.00  0.00     0.023 A 
ATOM     64  C   UNL     1       5.631   2.973  18.260  1.00  0.00     0.012 A 
ATOM     65  C   UNL     1       5.470   3.493  15.916  1.00  0.00     0.148 A 
ATOM     66  C   UNL     1       6.605   3.965  18.419  1.00  0.00     0.002 A 
ATOM     67  C   UNL     1       6.496   4.420  16.061  1.00  0.00     0.091 A 
ATOM     68  F   UNL     1       4.840   3.437  14.741  1.00  0.00    -0.205 F 
ATOM     69  C   UNL     1       7.042   4.688  17.317  1.00  0.00     0.022 A 
BRANCH  67  70
ATOM     70  S   UNL     1       7.137   5.343  14.658  1.00  0.00     0.127 S 
ATOM     71  O   UNL     1       6.580   6.670  14.903  1.00  0.00    -0.237 OA
ATOM     72  O   UNL     1       8.582   5.228  14.860  1.00  0.00    -0.237 OA
ATOM     73  O   UNL     1       6.645   4.647  13.476  1.00  0.00    -0.744 OA
ENDBRANCH  67  70
ENDBRANCH  49  63
BRANCH  50  74
ATOM     74  C   UNL     1      -1.254   7.762  14.512  1.00  0.00     0.023 A 
ATOM     75  C   UNL     1      -1.236   8.989  15.208  1.00  0.00     0.012 A 
ATOM     76  C   UNL     1      -1.122   7.797  13.107  1.00  0.00     0.148 A 
ATOM     77  C   UNL     1      -1.046  10.202  14.534  1.00  0.00     0.002 A 
ATOM     78  C   UNL     1      -0.945   9.006  12.440  1.00  0.00     0.091 A 
ATOM     79  F   UNL     1      -1.066   6.642  12.431  1.00  0.00    -0.205 F 
ATOM     80  C   UNL     1      -0.891  10.210  13.151  1.00  0.00     0.022 A 
BRANCH  78  81
ATOM     81  S   UNL     1      -0.715   9.081  10.658  1.00  0.00     0.127 S 
ATOM     82  O   UNL     1      -1.582  10.200  10.286  1.00  0.00    -0.237 OA
ATOM     83  O   UNL     1       0.716   9.350  10.553  1.00  0.00    -0.237 OA
ATOM     84  O   UNL     1      -1.162   7.787  10.156  1.00  0.00    -0.744 OA
ENDBRANCH  78  81
ENDBRANCH  50  74
BRANCH  62  85
ATOM     85  C   UNL     1      -1.246   3.773  19.343  1.00  0.00     0.023 A 
ATOM     86  C   UNL     1      -2.336   3.535  18.479  1.00  0.00     0.012 A 
ATOM     87  C   UNL     1      -1.417   3.565  20.721  1.00  0.00     0.148 A 
ATOM     88  C   UNL     1      -3.573   3.123  18.982  1.00  0.00     0.002 A 
ATOM     89  C   UNL     1      -2.632   3.108  21.212  1.00  0.00     0.091 A 
ATOM     90  F   UNL     1      -0.370   3.793  21.529  1.00  0.00    -0.205 F 
ATOM     91  C   UNL     1      -3.717   2.895  20.348  1.00  0.00     0.022 A 
BRANCH  89  92
ATOM     92  S   UNL     1      -2.833   2.674  22.941  1.00  0.00     0.127 S 
ATOM     93  O   UNL     1      -3.601   3.807  23.452  1.00  0.00    -0.237 OA
ATOM     94  O   UNL     1      -3.575   1.415  22.866  1.00  0.00    -0.237 OA
ATOM     95  O   UNL     1      -1.484   2.535  23.478  1.00  0.00    -0.744 OA
ENDBRANCH  89  92
ENDBRANCH  62  85
ENDBRANCH  36  37
ENDBRANCH  28  31
ENDBRANCH  26  27
ENDBRANCH   1  26
TORSDOF 15
