REMARK SMILES COc1ccc(/C=C2/SC(=S)N(CC(=O)NCCCNC(=O)c3ccc(-c4c5nc(c(-c6cccc(S(=O)(=O)[O-])c6F)c6ccc([nH]6)c(-c6cccc(S(=O)(=O)[O-])c6F)c6nc(c(-c7cccc(S(=O)(=O)[O-])c7F)c7ccc4[nH]7)C=C6)C=C5)cc3)C2=O)cc1[N+](=O)[O-]
REMARK SMILES IDX 18 1 17 2 16 3 14 4 15 5 13 7 12 8 7 9 8 10 9 11 86 12 10 13
REMARK SMILES IDX 87 14 11 15 6 16 3 17 4 18 89 19 5 20 88 21 2 22 1 23 90 24
REMARK SMILES IDX 91 25 92 26 19 27 20 28 21 29 22 31 23 32 24 33 85 34 25 35
REMARK SMILES IDX 84 36 26 37 27 38 28 39 78 40 29 41 83 42 77 43 79 44 30 45
REMARK SMILES IDX 82 46 76 47 75 48 31 50 63 51 43 52 62 53 44 54 47 55 61 56
REMARK SMILES IDX 80 57 45 58 46 59 60 61 81 62 48 63 32 64 33 65 41 66 34 67
REMARK SMILES IDX 36 68 42 69 35 70 37 71 38 72 39 73 40 74 64 75 65 76 73 77
REMARK SMILES IDX 66 78 68 79 74 80 67 81 69 82 70 83 71 84 72 85 49 86 50 87
REMARK SMILES IDX 58 88 51 89 53 90 59 91 52 92 54 93 55 94 56 95 57 96
REMARK H PARENT 16 6 20 30 79 49 47 60
REMARK Flexibility Score: inf
ROOT
ATOM      1  C   UNL     1       7.311   4.466   4.439  1.00  0.00     0.042 C 
ENDROOT
BRANCH   1   2
ATOM      2  C   UNL     1       7.727   5.597   3.510  1.00  0.00     0.117 C 
BRANCH   2   3
ATOM      3  N   UNL     1       7.228   5.422   2.163  1.00  0.00    -0.354 N 
ATOM      4  C   UNL     1       6.305   6.158   1.481  1.00  0.00     0.240 C 
ATOM      5  O   UNL     1       6.289   6.048   0.252  1.00  0.00    -0.273 OA
ATOM      6  H   UNL     1       7.611   4.663   1.668  1.00  0.00     0.163 HD
BRANCH   4   7
ATOM      7  C   UNL     1       5.449   7.218   2.186  1.00  0.00     0.227 C 
BRANCH   7   8
ATOM      8  N   UNL     1       4.694   6.725   3.342  1.00  0.00    -0.283 N 
ATOM      9  C   UNL     1       2.155   4.382   4.549  1.00  0.00     0.029 C 
ATOM     10  C   UNL     1       3.038   5.378   4.369  1.00  0.00     0.081 C 
ATOM     11  S   UNL     1       3.572   6.410   5.642  1.00  0.00    -0.054 SA
ATOM     12  C   UNL     1       3.722   5.769   3.102  1.00  0.00     0.266 C 
ATOM     13  C   UNL     1       4.705   7.272   4.606  1.00  0.00     0.148 C 
ATOM     14  O   UNL     1       3.426   5.341   1.993  1.00  0.00    -0.268 OA
ATOM     15  S   UNL     1       5.585   8.576   5.165  1.00  0.00    -0.052 S 
BRANCH   9  16
ATOM     16  C   UNL     1       1.756   3.445   3.494  1.00  0.00    -0.017 A 
ATOM     17  C   UNL     1       1.136   1.872   1.230  1.00  0.00     0.196 A 
ATOM     18  C   UNL     1       0.180   2.728   1.796  1.00  0.00     0.054 A 
ATOM     19  C   UNL     1       2.390   1.778   1.843  1.00  0.00     0.311 A 
ATOM     20  C   UNL     1       0.484   3.508   2.920  1.00  0.00     0.012 A 
ATOM     21  C   UNL     1       2.691   2.537   2.987  1.00  0.00     0.098 A 
BRANCH  17  22
ATOM     22  O   UNL     1       0.815   1.382  -0.007  1.00  0.00    -0.490 OA
ATOM     23  C   UNL     1       0.635  -0.032  -0.071  1.00  0.00     0.278 C 
ENDBRANCH  17  22
BRANCH  19  24
ATOM     24  N   UNL     1       3.482   0.991   1.289  1.00  0.00     0.066 N 
ATOM     25  O   UNL     1       4.604   1.520   1.261  1.00  0.00    -0.258 OA
ATOM     26  O   UNL     1       3.249  -0.177   0.958  1.00  0.00    -0.258 OA
ENDBRANCH  19  24
ENDBRANCH   9  16
ENDBRANCH   7   8
ENDBRANCH   4   7
ENDBRANCH   2   3
ENDBRANCH   1   2
BRANCH   1  27
ATOM     27  C   UNL     1       7.981   3.133   4.121  1.00  0.00     0.118 C 
BRANCH  27  28
ATOM     28  N   UNL     1       9.429   3.186   4.276  1.00  0.00    -0.352 N 
ATOM     29  C   UNL     1      10.270   2.413   5.036  1.00  0.00     0.251 C 
ATOM     30  H   UNL     1       9.875   3.889   3.751  1.00  0.00     0.163 HD
ATOM     31  O   UNL     1      11.442   2.759   5.165  1.00  0.00    -0.269 OA
BRANCH  29  32
ATOM     32  C   UNL     1       9.783   1.183   5.698  1.00  0.00     0.039 A 
ATOM     33  C   UNL     1      10.289   0.852   6.959  1.00  0.00     0.014 A 
ATOM     34  C   UNL     1       8.880   0.324   5.066  1.00  0.00     0.014 A 
ATOM     35  C   UNL     1       9.867  -0.318   7.594  1.00  0.00     0.010 A 
ATOM     36  C   UNL     1       8.390  -0.792   5.738  1.00  0.00     0.010 A 
ATOM     37  C   UNL     1       8.900  -1.143   6.996  1.00  0.00    -0.014 A 
BRANCH  37  38
ATOM     38  C   UNL     1       8.455  -2.404   7.645  1.00  0.00     0.031 A 
ATOM     39  C   UNL     1       8.696  -3.727   6.961  1.00  0.00     0.074 A 
ATOM     40  C   UNL     1       7.797  -2.360   8.821  1.00  0.00     0.049 A 
ATOM     41  N   UNL     1       8.343  -4.928   7.341  1.00  0.00    -0.248 NA
ATOM     42  C   UNL     1       9.403  -3.696   5.669  1.00  0.00     0.031 C 
ATOM     43  C   UNL     1       7.446  -1.140   9.553  1.00  0.00     0.029 A 
ATOM     44  N   UNL     1       7.287  -3.369   9.598  1.00  0.00    -0.354 N 
ATOM     45  C   UNL     1       8.760  -5.786   6.329  1.00  0.00     0.074 A 
ATOM     46  C   UNL     1       9.346  -4.965   5.293  1.00  0.00     0.031 C 
ATOM     47  C   UNL     1       6.787  -1.473  10.675  1.00  0.00     0.029 A 
ATOM     48  C   UNL     1       6.640  -2.924  10.728  1.00  0.00     0.049 A 
ATOM     49  H   UNL     1       7.375  -4.322   9.370  1.00  0.00     0.167 HD
ATOM     50  C   UNL     1       8.698  -7.138   6.278  1.00  0.00     0.034 A 
ATOM     51  C   UNL     1       5.995  -3.609  11.693  1.00  0.00     0.034 A 
ATOM     52  C   UNL     1       8.151  -7.957   7.325  1.00  0.00     0.049 A 
ATOM     53  C   UNL     1       5.961  -5.113  11.618  1.00  0.00     0.074 A 
ATOM     54  C   UNL     1       8.085  -9.337   7.393  1.00  0.00     0.029 A 
ATOM     55  N   UNL     1       7.579  -7.471   8.490  1.00  0.00    -0.354 N 
ATOM     56  N   UNL     1       6.474  -5.909  10.712  1.00  0.00    -0.248 NA
ATOM     57  C   UNL     1       5.296  -5.816  12.725  1.00  0.00     0.031 C 
ATOM     58  C   UNL     1       7.455  -9.686   8.592  1.00  0.00     0.029 A 
ATOM     59  C   UNL     1       7.164  -8.524   9.287  1.00  0.00     0.049 A 
ATOM     60  H   UNL     1       7.482  -6.518   8.717  1.00  0.00     0.167 HD
ATOM     61  C   UNL     1       6.244  -7.203  11.168  1.00  0.00     0.074 A 
ATOM     62  C   UNL     1       5.564  -7.082  12.440  1.00  0.00     0.031 C 
ATOM     63  C   UNL     1       6.552  -8.386  10.582  1.00  0.00     0.034 A 
BRANCH  50  64
ATOM     64  C   UNL     1       9.297  -7.826   5.078  1.00  0.00     0.023 A 
ATOM     65  C   UNL     1      10.698  -7.840   4.915  1.00  0.00     0.012 A 
ATOM     66  C   UNL     1       8.489  -8.521   4.158  1.00  0.00     0.148 A 
ATOM     67  C   UNL     1      11.284  -8.508   3.841  1.00  0.00     0.002 A 
ATOM     68  C   UNL     1       9.083  -9.227   3.117  1.00  0.00     0.091 A 
ATOM     69  F   UNL     1       7.159  -8.485   4.321  1.00  0.00    -0.205 F 
ATOM     70  C   UNL     1      10.477  -9.210   2.950  1.00  0.00     0.022 A 
BRANCH  68  71
ATOM     71  S   UNL     1       8.145 -10.234   1.963  1.00  0.00     0.127 S 
ATOM     72  O   UNL     1       8.376  -9.532   0.702  1.00  0.00    -0.237 OA
ATOM     73  O   UNL     1       8.818 -11.528   2.072  1.00  0.00    -0.237 OA
ATOM     74  O   UNL     1       6.768 -10.218   2.438  1.00  0.00    -0.744 OA
ENDBRANCH  68  71
ENDBRANCH  50  64
BRANCH  51  75
ATOM     75  C   UNL     1       5.369  -2.897  12.845  1.00  0.00     0.023 A 
ATOM     76  C   UNL     1       5.890  -3.080  14.142  1.00  0.00     0.012 A 
ATOM     77  C   UNL     1       4.243  -2.071  12.670  1.00  0.00     0.148 A 
ATOM     78  C   UNL     1       5.264  -2.505  15.249  1.00  0.00     0.002 A 
ATOM     79  C   UNL     1       3.661  -1.451  13.771  1.00  0.00     0.091 A 
ATOM     80  F   UNL     1       3.755  -1.913  11.432  1.00  0.00    -0.205 F 
ATOM     81  C   UNL     1       4.154  -1.686  15.063  1.00  0.00     0.022 A 
BRANCH  79  82
ATOM     82  S   UNL     1       2.309  -0.281  13.606  1.00  0.00     0.127 S 
ATOM     83  O   UNL     1       1.177  -1.059  14.102  1.00  0.00    -0.237 OA
ATOM     84  O   UNL     1       2.741   0.808  14.482  1.00  0.00    -0.237 OA
ATOM     85  O   UNL     1       2.267   0.072  12.193  1.00  0.00    -0.744 OA
ENDBRANCH  79  82
ENDBRANCH  51  75
BRANCH  63  86
ATOM     86  C   UNL     1       6.231  -9.646  11.344  1.00  0.00     0.023 A 
ATOM     87  C   UNL     1       4.893 -10.044  11.530  1.00  0.00     0.012 A 
ATOM     88  C   UNL     1       7.270 -10.459  11.840  1.00  0.00     0.148 A 
ATOM     89  C   UNL     1       4.591 -11.204  12.242  1.00  0.00     0.002 A 
ATOM     90  C   UNL     1       6.963 -11.643  12.498  1.00  0.00     0.091 A 
ATOM     91  F   UNL     1       8.537 -10.056  11.669  1.00  0.00    -0.205 F 
ATOM     92  C   UNL     1       5.625 -12.008  12.717  1.00  0.00     0.022 A 
BRANCH  90  93
ATOM     93  S   UNL     1       8.230 -12.790  13.051  1.00  0.00     0.127 S 
ATOM     94  O   UNL     1       8.210 -12.582  14.498  1.00  0.00    -0.237 OA
ATOM     95  O   UNL     1       7.694 -14.079  12.613  1.00  0.00    -0.237 OA
ATOM     96  O   UNL     1       9.457 -12.386  12.377  1.00  0.00    -0.744 OA
ENDBRANCH  90  93
ENDBRANCH  63  86
ENDBRANCH  37  38
ENDBRANCH  29  32
ENDBRANCH  27  28
ENDBRANCH   1  27
TORSDOF 17
