REMARK SMILES CN(/C=C\C(=O)NCCCNC(=O)c1ccc(-c2c3nc(c(-c4cccc(S(=O)(=O)[O-])c4F)c4ccc([nH]4)c(-c4cccc(S(=O)(=O)[O-])c4F)c4nc(c(-c5cccc(S(=O)(=O)[O-])c5F)c5ccc2[nH]5)C=C4)C=C3)cc1)C[C@@H]1CCCO1
REMARK SMILES IDX 9 1 8 2 7 3 5 4 6 5 4 7 3 8 2 9 1 10 77 11 78 12 79 13 82 14
REMARK SMILES IDX 80 15 81 16 10 17 11 18 12 19 13 21 14 22 15 23 76 24 16 25
REMARK SMILES IDX 75 26 17 27 18 28 19 29 69 30 20 31 74 32 68 33 70 34 21 35
REMARK SMILES IDX 73 36 67 37 66 38 22 40 54 41 34 42 53 43 35 44 38 45 52 46
REMARK SMILES IDX 71 47 36 48 37 49 51 51 72 52 39 53 23 54 24 55 32 56 25 57
REMARK SMILES IDX 27 58 33 59 26 60 28 61 29 62 30 63 31 64 55 65 56 66 64 67
REMARK SMILES IDX 57 68 59 69 65 70 58 71 60 72 61 73 62 74 63 75 40 76 41 77
REMARK SMILES IDX 49 78 42 79 44 80 50 81 43 82 45 83 46 84 47 85 48 86
REMARK H PARENT 7 6 11 20 70 39 38 50
REMARK Flexibility Score: inf
ROOT
ATOM      1  C   UNL     1       3.594   1.959  -2.180  1.00  0.00     0.042 C 
ENDROOT
BRANCH   1   2
ATOM      2  C   UNL     1       2.202   1.363  -2.223  1.00  0.00     0.118 C 
BRANCH   2   3
ATOM      3  N   UNL     1       1.414   1.782  -3.373  1.00  0.00    -0.352 N 
ATOM      4  C   UNL     1       0.330   1.149  -3.906  1.00  0.00     0.245 C 
ATOM      5  O   UNL     1      -0.284   1.630  -4.855  1.00  0.00    -0.270 OA
ATOM      6  H   UNL     1       1.695   2.615  -3.816  1.00  0.00     0.163 HD
BRANCH   4   7
ATOM      7  C   UNL     1      -0.022  -0.188  -3.392  1.00  0.00     0.088 C 
ATOM      8  C   UNL     1      -0.326  -0.475  -2.120  1.00  0.00     0.086 C 
BRANCH   8   9
ATOM      9  N   UNL     1      -0.508   0.340  -1.005  1.00  0.00    -0.378 N 
ATOM     10  C   UNL     1      -0.123  -0.177   0.309  1.00  0.00     0.143 C 
BRANCH   9  11
ATOM     11  C   UNL     1      -1.440   1.495  -1.065  1.00  0.00     0.147 C 
BRANCH  11  12
ATOM     12  C   UNL     1      -1.100   2.729  -0.203  1.00  0.00     0.137 C 
ATOM     13  C   UNL     1      -2.277   3.701  -0.177  1.00  0.00     0.036 C 
ATOM     14  O   UNL     1       0.011   3.502  -0.707  1.00  0.00    -0.376 OA
ATOM     15  C   UNL     1      -1.608   4.995   0.196  1.00  0.00     0.031 C 
ATOM     16  C   UNL     1      -0.301   4.900  -0.558  1.00  0.00     0.160 C 
ENDBRANCH  11  12
ENDBRANCH   9  11
ENDBRANCH   8   9
ENDBRANCH   4   7
ENDBRANCH   2   3
ENDBRANCH   1   2
BRANCH   1  17
ATOM     17  C   UNL     1       3.614   3.477  -2.135  1.00  0.00     0.118 C 
BRANCH  17  18
ATOM     18  N   UNL     1       3.063   4.050  -0.910  1.00  0.00    -0.352 N 
ATOM     19  C   UNL     1       3.663   4.760   0.109  1.00  0.00     0.251 C 
ATOM     20  H   UNL     1       2.097   3.905  -0.791  1.00  0.00     0.163 HD
ATOM     21  O   UNL     1       3.008   5.144   1.072  1.00  0.00    -0.269 OA
BRANCH  19  22
ATOM     22  C   UNL     1       5.125   4.995   0.079  1.00  0.00     0.039 A 
ATOM     23  C   UNL     1       5.877   4.722   1.226  1.00  0.00     0.014 A 
ATOM     24  C   UNL     1       5.768   5.382  -1.092  1.00  0.00     0.014 A 
ATOM     25  C   UNL     1       7.272   4.693   1.148  1.00  0.00     0.010 A 
ATOM     26  C   UNL     1       7.140   5.206  -1.206  1.00  0.00     0.010 A 
ATOM     27  C   UNL     1       7.914   4.848  -0.091  1.00  0.00    -0.014 A 
BRANCH  27  28
ATOM     28  C   UNL     1       9.376   4.612  -0.266  1.00  0.00     0.031 A 
ATOM     29  C   UNL     1      10.237   5.665  -0.920  1.00  0.00     0.074 A 
ATOM     30  C   UNL     1       9.902   3.403   0.024  1.00  0.00     0.049 A 
ATOM     31  N   UNL     1      11.481   5.585  -1.315  1.00  0.00    -0.248 NA
ATOM     32  C   UNL     1       9.600   6.958  -1.224  1.00  0.00     0.031 C 
ATOM     33  C   UNL     1       9.160   2.251   0.546  1.00  0.00     0.029 A 
ATOM     34  N   UNL     1      11.184   2.926  -0.111  1.00  0.00    -0.354 N 
ATOM     35  C   UNL     1      11.745   6.775  -1.983  1.00  0.00     0.074 A 
ATOM     36  C   UNL     1      10.524   7.548  -1.968  1.00  0.00     0.031 C 
ATOM     37  C   UNL     1       9.998   1.214   0.705  1.00  0.00     0.029 A 
ATOM     38  C   UNL     1      11.331   1.609   0.265  1.00  0.00     0.049 A 
ATOM     39  H   UNL     1      11.930   3.476  -0.445  1.00  0.00     0.167 HD
ATOM     40  C   UNL     1      12.908   7.208  -2.525  1.00  0.00     0.034 A 
ATOM     41  C   UNL     1      12.416   0.808   0.257  1.00  0.00     0.034 A 
ATOM     42  C   UNL     1      14.150   6.494  -2.424  1.00  0.00     0.049 A 
ATOM     43  C   UNL     1      13.731   1.373  -0.209  1.00  0.00     0.074 A 
ATOM     44  C   UNL     1      15.413   6.907  -2.809  1.00  0.00     0.029 A 
ATOM     45  N   UNL     1      14.289   5.228  -1.878  1.00  0.00    -0.354 N 
ATOM     46  N   UNL     1      13.995   2.568  -0.678  1.00  0.00    -0.248 NA
ATOM     47  C   UNL     1      14.907   0.495  -0.111  1.00  0.00     0.031 C 
ATOM     48  C   UNL     1      16.319   5.891  -2.489  1.00  0.00     0.029 A 
ATOM     49  C   UNL     1      15.619   4.848  -1.903  1.00  0.00     0.049 A 
ATOM     50  H   UNL     1      13.552   4.681  -1.524  1.00  0.00     0.167 HD
ATOM     51  C   UNL     1      15.367   2.597  -0.899  1.00  0.00     0.074 A 
ATOM     52  C   UNL     1      15.884   1.309  -0.488  1.00  0.00     0.031 C 
ATOM     53  C   UNL     1      16.126   3.592  -1.417  1.00  0.00     0.034 A 
BRANCH  40  54
ATOM     54  C   UNL     1      12.915   8.557  -3.193  1.00  0.00     0.023 A 
ATOM     55  C   UNL     1      12.821   9.722  -2.404  1.00  0.00     0.012 A 
ATOM     56  C   UNL     1      13.076   8.678  -4.588  1.00  0.00     0.148 A 
ATOM     57  C   UNL     1      12.848  10.985  -2.993  1.00  0.00     0.002 A 
ATOM     58  C   UNL     1      13.148   9.942  -5.163  1.00  0.00     0.091 A 
ATOM     59  F   UNL     1      13.147   7.560  -5.324  1.00  0.00    -0.205 F 
ATOM     60  C   UNL     1      13.022  11.095  -4.370  1.00  0.00     0.022 A 
BRANCH  58  61
ATOM     61  S   UNL     1      13.450  10.197  -6.916  1.00  0.00     0.127 S 
ATOM     62  O   UNL     1      12.155  10.704  -7.368  1.00  0.00    -0.237 OA
ATOM     63  O   UNL     1      14.522  11.193  -6.901  1.00  0.00    -0.237 OA
ATOM     64  O   UNL     1      13.834   8.898  -7.451  1.00  0.00    -0.744 OA
ENDBRANCH  58  61
ENDBRANCH  40  54
BRANCH  41  65
ATOM     65  C   UNL     1      12.329  -0.581   0.794  1.00  0.00     0.023 A 
ATOM     66  C   UNL     1      12.947  -0.876   2.026  1.00  0.00     0.012 A 
ATOM     67  C   UNL     1      11.628  -1.598   0.120  1.00  0.00     0.148 A 
ATOM     68  C   UNL     1      12.903  -2.166   2.556  1.00  0.00     0.002 A 
ATOM     69  C   UNL     1      11.543  -2.870   0.680  1.00  0.00     0.091 A 
ATOM     70  F   UNL     1      11.056  -1.308  -1.057  1.00  0.00    -0.205 F 
ATOM     71  C   UNL     1      12.194  -3.160   1.889  1.00  0.00     0.022 A 
BRANCH  69  72
ATOM     72  S   UNL     1      10.535  -4.165  -0.052  1.00  0.00     0.127 S 
ATOM     73  O   UNL     1      11.535  -4.963  -0.755  1.00  0.00    -0.237 OA
ATOM     74  O   UNL     1       9.952  -4.809   1.127  1.00  0.00    -0.237 OA
ATOM     75  O   UNL     1       9.566  -3.468  -0.886  1.00  0.00    -0.744 OA
ENDBRANCH  69  72
ENDBRANCH  41  65
BRANCH  53  76
ATOM     76  C   UNL     1      17.606   3.354  -1.538  1.00  0.00     0.023 A 
ATOM     77  C   UNL     1      18.094   2.519  -2.561  1.00  0.00     0.012 A 
ATOM     78  C   UNL     1      18.514   4.033  -0.702  1.00  0.00     0.148 A 
ATOM     79  C   UNL     1      19.465   2.344  -2.737  1.00  0.00     0.002 A 
ATOM     80  C   UNL     1      19.881   3.888  -0.911  1.00  0.00     0.091 A 
ATOM     81  F   UNL     1      18.028   4.807   0.280  1.00  0.00    -0.205 F 
ATOM     82  C   UNL     1      20.358   3.038  -1.922  1.00  0.00     0.022 A 
BRANCH  80  83
ATOM     83  S   UNL     1      21.094   4.820   0.031  1.00  0.00     0.127 S 
ATOM     84  O   UNL     1      21.577   3.813   0.974  1.00  0.00    -0.237 OA
ATOM     85  O   UNL     1      22.061   5.206  -0.998  1.00  0.00    -0.237 OA
ATOM     86  O   UNL     1      20.367   5.937   0.619  1.00  0.00    -0.744 OA
ENDBRANCH  80  83
ENDBRANCH  53  76
ENDBRANCH  27  28
ENDBRANCH  19  22
ENDBRANCH  17  18
ENDBRANCH   1  17
TORSDOF 16
