REMARK SMILES CC(C)[C@@H](CO)NC(=O)[C@H]1CC=CC[C@H]1C(=O)NCCCNC(=O)c1ccc(-c2c3nc(c(-c4cccc(S(=O)(=O)[O-])c4F)c4ccc([nH]4)c(-c4cccc(S(=O)(=O)[O-])c4F)c4nc(c(-c5cccc(S(=O)(=O)[O-])c5F)c5ccc2[nH]5)C=C4)C=C3)cc1
REMARK SMILES IDX 19 1 18 2 16 3 17 4 15 6 10 7 11 8 12 9 14 10 13 11 8 12
REMARK SMILES IDX 7 13 9 15 4 16 2 17 1 18 3 19 5 20 6 21 20 23 21 24 22 25
REMARK SMILES IDX 23 26 24 28 25 29 26 30 87 31 27 32 86 33 28 34 29 35 30 36
REMARK SMILES IDX 80 37 31 38 85 39 79 40 81 41 32 42 84 43 78 44 77 45 33 47
REMARK SMILES IDX 65 48 45 49 64 50 46 51 49 52 63 53 82 54 47 55 48 56 62 58
REMARK SMILES IDX 83 59 50 60 34 61 35 62 43 63 36 64 38 65 44 66 37 67 39 68
REMARK SMILES IDX 40 69 41 70 42 71 66 72 67 73 75 74 68 75 70 76 76 77 69 78
REMARK SMILES IDX 71 79 72 80 73 81 74 82 51 83 52 84 60 85 53 86 55 87 61 88
REMARK SMILES IDX 54 89 56 90 57 91 58 92 59 93
REMARK H PARENT 18 5 7 14 6 22 22 27 81 46 49 57
REMARK Flexibility Score: inf
ROOT
ATOM      1  C   UNL     1      -0.904  -2.586   5.632  1.00  0.00     0.117 C 
ENDROOT
BRANCH   1   2
ATOM      2  N   UNL     1      -1.373  -1.272   6.026  1.00  0.00    -0.356 N 
ATOM      3  C   UNL     1      -2.328  -0.463   5.511  1.00  0.00     0.224 C 
ATOM      4  O   UNL     1      -2.357   0.687   5.970  1.00  0.00    -0.275 OA
ATOM      5  H   UNL     1      -0.913  -0.900   6.812  1.00  0.00     0.163 HD
BRANCH   3   6
ATOM      6  C   UNL     1      -3.357  -0.871   4.461  1.00  0.00     0.095 C 
ATOM      7  C   UNL     1      -2.923  -0.877   2.974  1.00  0.00     0.095 C 
ATOM      8  C   UNL     1      -4.215  -0.764   2.127  1.00  0.00     0.041 C 
ATOM      9  C   UNL     1      -5.324  -1.678   2.595  1.00  0.00    -0.030 C 
ATOM     10  C   UNL     1      -4.299  -2.010   4.861  1.00  0.00     0.041 C 
ATOM     11  C   UNL     1      -5.348  -2.255   3.808  1.00  0.00    -0.030 C 
BRANCH   7  12
ATOM     12  C   UNL     1      -2.181  -2.121   2.482  1.00  0.00     0.224 C 
ATOM     13  N   UNL     1      -1.306  -2.040   1.438  1.00  0.00    -0.351 N 
ATOM     14  H   UNL     1      -0.796  -2.868   1.285  1.00  0.00     0.163 HD
ATOM     15  O   UNL     1      -2.350  -3.232   2.987  1.00  0.00    -0.275 OA
BRANCH  13  16
ATOM     16  C   UNL     1      -0.974  -0.956   0.492  1.00  0.00     0.110 C 
BRANCH  16  17
ATOM     17  C   UNL     1       0.569  -0.845   0.291  1.00  0.00     0.007 C 
ATOM     18  C   UNL     1       0.944   0.341  -0.605  1.00  0.00     0.009 C 
ATOM     19  C   UNL     1       1.325  -0.716   1.614  1.00  0.00     0.009 C 
ENDBRANCH  16  17
BRANCH  16  20
ATOM     20  C   UNL     1      -1.696  -1.248  -0.846  1.00  0.00     0.181 C 
BRANCH  20  21
ATOM     21  O   UNL     1      -1.262  -2.491  -1.397  1.00  0.00    -0.394 OA
ATOM     22  H   UNL     1      -0.308  -2.453  -1.569  1.00  0.00     0.210 HD
ENDBRANCH  20  21
ENDBRANCH  16  20
ENDBRANCH  13  16
ENDBRANCH   7  12
ENDBRANCH   3   6
ENDBRANCH   1   2
BRANCH   1  23
ATOM     23  C   UNL     1       0.200  -2.467   4.590  1.00  0.00     0.042 C 
BRANCH  23  24
ATOM     24  C   UNL     1       1.575  -2.167   5.173  1.00  0.00     0.118 C 
BRANCH  24  25
ATOM     25  N   UNL     1       2.194  -3.357   5.733  1.00  0.00    -0.352 N 
ATOM     26  C   UNL     1       3.277  -4.086   5.306  1.00  0.00     0.251 C 
ATOM     27  H   UNL     1       1.767  -3.695   6.553  1.00  0.00     0.163 HD
ATOM     28  O   UNL     1       3.467  -5.197   5.801  1.00  0.00    -0.269 OA
BRANCH  26  29
ATOM     29  C   UNL     1       4.217  -3.575   4.276  1.00  0.00     0.039 A 
ATOM     30  C   UNL     1       4.809  -4.494   3.401  1.00  0.00     0.014 A 
ATOM     31  C   UNL     1       4.599  -2.233   4.216  1.00  0.00     0.014 A 
ATOM     32  C   UNL     1       5.752  -4.067   2.458  1.00  0.00     0.010 A 
ATOM     33  C   UNL     1       5.480  -1.795   3.224  1.00  0.00     0.010 A 
ATOM     34  C   UNL     1       6.085  -2.709   2.349  1.00  0.00    -0.014 A 
BRANCH  34  35
ATOM     35  C   UNL     1       7.077  -2.228   1.349  1.00  0.00     0.031 A 
ATOM     36  C   UNL     1       8.357  -1.573   1.801  1.00  0.00     0.074 A 
ATOM     37  C   UNL     1       6.794  -2.300   0.034  1.00  0.00     0.049 A 
ATOM     38  N   UNL     1       9.296  -1.011   1.084  1.00  0.00    -0.248 NA
ATOM     39  C   UNL     1       8.602  -1.521   3.252  1.00  0.00     0.031 C 
ATOM     40  C   UNL     1       5.565  -2.854  -0.536  1.00  0.00     0.029 A 
ATOM     41  N   UNL     1       7.507  -1.874  -1.061  1.00  0.00    -0.354 N 
ATOM     42  C   UNL     1      10.216  -0.500   1.992  1.00  0.00     0.074 A 
ATOM     43  C   UNL     1       9.711  -0.798   3.315  1.00  0.00     0.031 C 
ATOM     44  C   UNL     1       5.606  -2.727  -1.872  1.00  0.00     0.029 A 
ATOM     45  C   UNL     1       6.844  -2.053  -2.253  1.00  0.00     0.049 A 
ATOM     46  H   UNL     1       8.406  -1.478  -0.998  1.00  0.00     0.167 HD
ATOM     47  C   UNL     1      11.388   0.136   1.751  1.00  0.00     0.034 A 
ATOM     48  C   UNL     1       7.184  -1.702  -3.510  1.00  0.00     0.034 A 
ATOM     49  C   UNL     1      11.918   0.383   0.437  1.00  0.00     0.049 A 
ATOM     50  C   UNL     1       8.510  -1.034  -3.756  1.00  0.00     0.074 A 
ATOM     51  C   UNL     1      13.140   0.934   0.093  1.00  0.00     0.029 A 
ATOM     52  N   UNL     1      11.259   0.100  -0.749  1.00  0.00    -0.354 N 
ATOM     53  N   UNL     1       9.435  -0.696  -2.892  1.00  0.00    -0.248 NA
ATOM     54  C   UNL     1       8.856  -0.732  -5.153  1.00  0.00     0.031 C 
ATOM     55  C   UNL     1      13.211   1.004  -1.302  1.00  0.00     0.029 A 
ATOM     56  C   UNL     1      12.043   0.475  -1.827  1.00  0.00     0.049 A 
ATOM     57  H   UNL     1      10.366  -0.307  -0.816  1.00  0.00     0.167 HD
ATOM     58  C   UNL     1      10.486  -0.175  -3.640  1.00  0.00     0.074 A 
ATOM     59  C   UNL     1      10.089  -0.256  -5.030  1.00  0.00     0.031 C 
ATOM     60  C   UNL     1      11.665   0.337  -3.211  1.00  0.00     0.034 A 
BRANCH  47  61
ATOM     61  C   UNL     1      12.208   0.569   2.939  1.00  0.00     0.023 A 
ATOM     62  C   UNL     1      12.874  -0.401   3.715  1.00  0.00     0.012 A 
ATOM     63  C   UNL     1      12.370   1.933   3.251  1.00  0.00     0.148 A 
ATOM     64  C   UNL     1      13.657  -0.024   4.806  1.00  0.00     0.002 A 
ATOM     65  C   UNL     1      13.187   2.304   4.313  1.00  0.00     0.091 A 
ATOM     66  F   UNL     1      11.713   2.841   2.515  1.00  0.00    -0.205 F 
ATOM     67  C   UNL     1      13.822   1.327   5.098  1.00  0.00     0.022 A 
BRANCH  65  68
ATOM     68  S   UNL     1      13.525   4.021   4.718  1.00  0.00     0.127 S 
ATOM     69  O   UNL     1      12.719   4.205   5.923  1.00  0.00    -0.237 OA
ATOM     70  O   UNL     1      14.970   4.009   4.947  1.00  0.00    -0.237 OA
ATOM     71  O   UNL     1      13.104   4.795   3.556  1.00  0.00    -0.744 OA
ENDBRANCH  65  68
ENDBRANCH  47  61
BRANCH  48  72
ATOM     72  C   UNL     1       6.268  -2.034  -4.637  1.00  0.00     0.023 A 
ATOM     73  C   UNL     1       6.631  -3.043  -5.550  1.00  0.00     0.012 A 
ATOM     74  C   UNL     1       5.018  -1.401  -4.774  1.00  0.00     0.148 A 
ATOM     75  C   UNL     1       5.776  -3.396  -6.595  1.00  0.00     0.002 A 
ATOM     76  C   UNL     1       4.145  -1.800  -5.779  1.00  0.00     0.091 A 
ATOM     77  F   UNL     1       4.696  -0.431  -3.905  1.00  0.00    -0.205 F 
ATOM     78  C   UNL     1       4.529  -2.785  -6.702  1.00  0.00     0.022 A 
BRANCH  76  79
ATOM     79  S   UNL     1       2.462  -1.177  -5.882  1.00  0.00     0.127 S 
ATOM     80  O   UNL     1       2.549  -0.261  -7.015  1.00  0.00    -0.237 OA
ATOM     81  O   UNL     1       1.697  -2.399  -6.132  1.00  0.00    -0.237 OA
ATOM     82  O   UNL     1       2.188  -0.567  -4.586  1.00  0.00    -0.744 OA
ENDBRANCH  76  79
ENDBRANCH  48  72
BRANCH  60  83
ATOM     83  C   UNL     1      12.643   0.822  -4.248  1.00  0.00     0.023 A 
ATOM     84  C   UNL     1      12.403   2.034  -4.924  1.00  0.00     0.012 A 
ATOM     85  C   UNL     1      13.846   0.126  -4.483  1.00  0.00     0.148 A 
ATOM     86  C   UNL     1      13.333   2.534  -5.835  1.00  0.00     0.002 A 
ATOM     87  C   UNL     1      14.789   0.653  -5.357  1.00  0.00     0.091 A 
ATOM     88  F   UNL     1      14.047  -1.036  -3.843  1.00  0.00    -0.205 F 
ATOM     89  C   UNL     1      14.530   1.851  -6.042  1.00  0.00     0.022 A 
BRANCH  87  90
ATOM     90  S   UNL     1      16.397  -0.106  -5.614  1.00  0.00     0.127 S 
ATOM     91  O   UNL     1      16.260  -0.644  -6.966  1.00  0.00    -0.237 OA
ATOM     92  O   UNL     1      17.302   1.038  -5.502  1.00  0.00    -0.237 OA
ATOM     93  O   UNL     1      16.545  -1.099  -4.559  1.00  0.00    -0.744 OA
ENDBRANCH  87  90
ENDBRANCH  60  83
ENDBRANCH  34  35
ENDBRANCH  26  29
ENDBRANCH  24  25
ENDBRANCH  23  24
ENDBRANCH   1  23
TORSDOF 18
