REMARK SMILES C[C@@H](C(=O)NCCCNC(=O)c1ccc(-c2c3nc(c(-c4cccc(S(=O)(=O)[O-])c4F)c4ccc([nH]4)c(-c4cccc(S(=O)(=O)[O-])c4F)c4nc(c(-c5cccc(S(=O)(=O)[O-])c5F)c5ccc2[nH]5)C=C4)C=C3)cc1)c1ccc(C[C@@H]2CCC[C@@H]2O)cc1
REMARK SMILES IDX 6 1 5 2 3 3 4 4 2 6 1 7 75 8 76 9 87 10 77 11 86 12 78 13
REMARK SMILES IDX 79 14 80 15 81 16 84 17 82 18 83 19 85 20 7 22 8 23 9 24
REMARK SMILES IDX 10 25 11 27 12 28 13 29 74 30 14 31 73 32 15 33 16 34 17 35
REMARK SMILES IDX 67 36 18 37 72 38 66 39 68 40 19 41 71 42 65 43 64 44 20 46
REMARK SMILES IDX 52 47 32 48 51 49 33 50 36 51 50 52 69 53 34 54 35 55 49 57
REMARK SMILES IDX 70 58 37 59 21 60 22 61 30 62 23 63 25 64 31 65 24 66 26 67
REMARK SMILES IDX 27 68 28 69 29 70 53 71 54 72 62 73 55 74 57 75 63 76 56 77
REMARK SMILES IDX 58 78 59 79 60 80 61 81 38 82 39 83 47 84 40 85 42 86 48 87
REMARK SMILES IDX 41 88 43 89 44 90 45 91 46 92
REMARK H PARENT 5 5 85 21 9 26 68 45 36 56
REMARK Flexibility Score: inf
ROOT
ATOM      1  C   UNL     1     -10.633   5.011   9.640  1.00  0.00     0.117 C 
ENDROOT
BRANCH   1   2
ATOM      2  N   UNL     1     -10.455   3.667   9.122  1.00  0.00    -0.356 N 
ATOM      3  C   UNL     1     -10.325   3.223   7.837  1.00  0.00     0.227 C 
ATOM      4  O   UNL     1     -10.472   2.010   7.668  1.00  0.00    -0.274 OA
ATOM      5  H   UNL     1     -10.424   2.961   9.808  1.00  0.00     0.163 HD
BRANCH   3   6
ATOM      6  C   UNL     1      -9.962   4.210   6.708  1.00  0.00     0.105 C 
ATOM      7  C   UNL     1     -11.211   5.008   6.315  1.00  0.00     0.023 C 
BRANCH   6   8
ATOM      8  C   UNL     1      -9.272   3.558   5.499  1.00  0.00    -0.036 A 
ATOM      9  C   UNL     1      -8.416   2.458   5.662  1.00  0.00     0.005 A 
ATOM     10  C   UNL     1      -9.424   4.062   4.196  1.00  0.00     0.005 A 
ATOM     11  C   UNL     1      -7.786   1.856   4.569  1.00  0.00     0.004 A 
ATOM     12  C   UNL     1      -8.768   3.481   3.107  1.00  0.00     0.004 A 
ATOM     13  C   UNL     1      -7.918   2.386   3.285  1.00  0.00    -0.048 A 
BRANCH  13  14
ATOM     14  C   UNL     1      -7.165   1.806   2.115  1.00  0.00     0.041 C 
BRANCH  14  15
ATOM     15  C   UNL     1      -5.640   2.051   2.043  1.00  0.00     0.022 C 
ATOM     16  C   UNL     1      -4.817   1.378   3.150  1.00  0.00     0.007 C 
ATOM     17  C   UNL     1      -5.147   3.501   2.104  1.00  0.00     0.117 C 
ATOM     18  C   UNL     1      -4.488   2.463   4.181  1.00  0.00     0.003 C 
ATOM     19  C   UNL     1      -4.948   3.789   3.586  1.00  0.00     0.032 C 
BRANCH  17  20
ATOM     20  O   UNL     1      -5.995   4.429   1.462  1.00  0.00    -0.393 OA
ATOM     21  H   UNL     1      -6.868   4.415   1.883  1.00  0.00     0.210 HD
ENDBRANCH  17  20
ENDBRANCH  14  15
ENDBRANCH  13  14
ENDBRANCH   6   8
ENDBRANCH   3   6
ENDBRANCH   1   2
BRANCH   1  22
ATOM     22  C   UNL     1     -12.106   5.303   9.930  1.00  0.00     0.042 C 
BRANCH  22  23
ATOM     23  C   UNL     1     -12.736   4.388  10.976  1.00  0.00     0.118 C 
BRANCH  23  24
ATOM     24  N   UNL     1     -12.169   4.580  12.303  1.00  0.00    -0.352 N 
ATOM     25  C   UNL     1     -12.771   5.021  13.457  1.00  0.00     0.251 C 
ATOM     26  H   UNL     1     -11.212   4.362  12.386  1.00  0.00     0.163 HD
ATOM     27  O   UNL     1     -12.078   5.301  14.434  1.00  0.00    -0.269 OA
BRANCH  25  28
ATOM     28  C   UNL     1     -14.239   5.186  13.518  1.00  0.00     0.039 A 
ATOM     29  C   UNL     1     -14.764   6.357  14.072  1.00  0.00     0.014 A 
ATOM     30  C   UNL     1     -15.099   4.197  13.030  1.00  0.00     0.014 A 
ATOM     31  C   UNL     1     -16.144   6.576  14.053  1.00  0.00     0.010 A 
ATOM     32  C   UNL     1     -16.468   4.447  12.951  1.00  0.00     0.010 A 
ATOM     33  C   UNL     1     -17.003   5.646  13.446  1.00  0.00    -0.014 A 
BRANCH  33  34
ATOM     34  C   UNL     1     -18.448   5.940  13.249  1.00  0.00     0.031 A 
ATOM     35  C   UNL     1     -19.502   5.078  13.887  1.00  0.00     0.074 A 
ATOM     36  C   UNL     1     -18.806   6.920  12.392  1.00  0.00     0.049 A 
ATOM     37  N   UNL     1     -20.801   5.130  13.745  1.00  0.00    -0.248 NA
ATOM     38  C   UNL     1     -19.041   4.007  14.787  1.00  0.00     0.031 C 
ATOM     39  C   UNL     1     -17.876   7.777  11.652  1.00  0.00     0.029 A 
ATOM     40  N   UNL     1     -20.044   7.332  11.963  1.00  0.00    -0.354 N 
ATOM     41  C   UNL     1     -21.311   4.077  14.495  1.00  0.00     0.074 A 
ATOM     42  C   UNL     1     -20.180   3.398  15.090  1.00  0.00     0.031 C 
ATOM     43  C   UNL     1     -18.573   8.598  10.851  1.00  0.00     0.029 A 
ATOM     44  C   UNL     1     -19.994   8.300  10.984  1.00  0.00     0.049 A 
ATOM     45  H   UNL     1     -20.887   6.970  12.320  1.00  0.00     0.167 HD
ATOM     46  C   UNL     1     -22.603   3.717  14.678  1.00  0.00     0.034 A 
ATOM     47  C   UNL     1     -20.976   8.861  10.250  1.00  0.00     0.034 A 
ATOM     48  C   UNL     1     -23.726   4.422  14.120  1.00  0.00     0.049 A 
ATOM     49  C   UNL     1     -22.402   8.445  10.493  1.00  0.00     0.074 A 
ATOM     50  C   UNL     1     -25.073   4.208  14.358  1.00  0.00     0.029 A 
ATOM     51  N   UNL     1     -23.640   5.449  13.196  1.00  0.00    -0.354 N 
ATOM     52  N   UNL     1     -22.874   7.585  11.361  1.00  0.00    -0.248 NA
ATOM     53  C   UNL     1     -23.436   9.095   9.672  1.00  0.00     0.031 C 
ATOM     54  C   UNL     1     -25.803   5.074  13.539  1.00  0.00     0.029 A 
ATOM     55  C   UNL     1     -24.910   5.853  12.822  1.00  0.00     0.049 A 
ATOM     56  H   UNL     1     -22.801   5.834  12.855  1.00  0.00     0.167 HD
ATOM     57  C   UNL     1     -24.256   7.610  11.210  1.00  0.00     0.074 A 
ATOM     58  C   UNL     1     -24.548   8.594  10.190  1.00  0.00     0.031 C 
ATOM     59  C   UNL     1     -25.196   6.868  11.842  1.00  0.00     0.034 A 
BRANCH  46  60
ATOM     60  C   UNL     1     -22.900   2.523  15.545  1.00  0.00     0.023 A 
ATOM     61  C   UNL     1     -22.776   2.626  16.944  1.00  0.00     0.012 A 
ATOM     62  C   UNL     1     -23.427   1.345  14.979  1.00  0.00     0.148 A 
ATOM     63  C   UNL     1     -23.160   1.567  17.768  1.00  0.00     0.002 A 
ATOM     64  C   UNL     1     -23.848   0.312  15.807  1.00  0.00     0.091 A 
ATOM     65  F   UNL     1     -23.521   1.265  13.644  1.00  0.00    -0.205 F 
ATOM     66  C   UNL     1     -23.708   0.419  17.201  1.00  0.00     0.022 A 
BRANCH  64  67
ATOM     67  S   UNL     1     -24.643  -1.173  15.184  1.00  0.00     0.127 S 
ATOM     68  O   UNL     1     -23.659  -2.199  15.526  1.00  0.00    -0.237 OA
ATOM     69  O   UNL     1     -25.871  -1.217  15.977  1.00  0.00    -0.237 OA
ATOM     70  O   UNL     1     -24.843  -0.957  13.758  1.00  0.00    -0.744 OA
ENDBRANCH  64  67
ENDBRANCH  46  60
BRANCH  47  71
ATOM     71  C   UNL     1     -20.653   9.884   9.214  1.00  0.00     0.023 A 
ATOM     72  C   UNL     1     -21.087  11.213   9.387  1.00  0.00     0.012 A 
ATOM     73  C   UNL     1     -19.931   9.546   8.053  1.00  0.00     0.148 A 
ATOM     74  C   UNL     1     -20.851  12.173   8.402  1.00  0.00     0.002 A 
ATOM     75  C   UNL     1     -19.644  10.521   7.105  1.00  0.00     0.091 A 
ATOM     76  F   UNL     1     -19.538   8.274   7.894  1.00  0.00    -0.205 F 
ATOM     77  C   UNL     1     -20.122  11.830   7.266  1.00  0.00     0.022 A 
BRANCH  75  78
ATOM     78  S   UNL     1     -18.592  10.195   5.686  1.00  0.00     0.127 S 
ATOM     79  O   UNL     1     -19.565  10.135   4.599  1.00  0.00    -0.237 OA
ATOM     80  O   UNL     1     -17.724  11.373   5.673  1.00  0.00    -0.237 OA
ATOM     81  O   UNL     1     -17.900   8.950   5.993  1.00  0.00    -0.744 OA
ENDBRANCH  75  78
ENDBRANCH  47  71
BRANCH  59  82
ATOM     82  C   UNL     1     -26.638   7.097  11.475  1.00  0.00     0.023 A 
ATOM     83  C   UNL     1     -27.123   6.646  10.232  1.00  0.00     0.012 A 
ATOM     84  C   UNL     1     -27.532   7.678  12.397  1.00  0.00     0.148 A 
ATOM     85  C   UNL     1     -28.469   6.793   9.900  1.00  0.00     0.002 A 
ATOM     86  C   UNL     1     -28.881   7.775  12.080  1.00  0.00     0.091 A 
ATOM     87  F   UNL     1     -27.047   8.112  13.569  1.00  0.00    -0.205 F 
ATOM     88  C   UNL     1     -29.349   7.345  10.828  1.00  0.00     0.022 A 
BRANCH  86  89
ATOM     89  S   UNL     1     -30.108   8.383  13.243  1.00  0.00     0.127 S 
ATOM     90  O   UNL     1     -30.541   9.622  12.599  1.00  0.00    -0.237 OA
ATOM     91  O   UNL     1     -31.102   7.310  13.231  1.00  0.00    -0.237 OA
ATOM     92  O   UNL     1     -29.414   8.555  14.512  1.00  0.00    -0.744 OA
ENDBRANCH  86  89
ENDBRANCH  59  82
ENDBRANCH  33  34
ENDBRANCH  25  28
ENDBRANCH  23  24
ENDBRANCH  22  23
ENDBRANCH   1  22
TORSDOF 17
