REMARK SMILES COc1ccc(OC)c(Nc2c(-c3ccc(C(=O)NCCCNC(=O)c4ccc(-c5c6nc(c(-c7cccc(S(=O)(=O)[O-])c7F)c7ccc([nH]7)c(-c7cccc(S(=O)(=O)[O-])c7F)c7nc(c(-c8cccc(S(=O)(=O)[O-])c8F)c8ccc5[nH]8)C=C7)C=C6)cc4)cc3)nc3cnccn23)c1
REMARK SMILES IDX 20 1 19 2 17 3 18 4 16 6 13 7 14 8 90 9 15 10 89 11 12 12
REMARK SMILES IDX 11 13 97 14 91 15 92 16 96 17 93 18 95 19 94 20 10 21 9 23
REMARK SMILES IDX 3 24 4 25 98 26 5 27 6 28 2 29 1 30 7 31 8 32 21 33 22 34
REMARK SMILES IDX 23 35 24 36 25 38 26 39 27 40 88 41 28 42 87 43 29 44 30 45
REMARK SMILES IDX 31 46 81 47 32 48 86 49 80 50 82 51 33 52 85 53 79 54 78 55
REMARK SMILES IDX 34 57 66 58 46 59 65 60 47 61 50 62 64 63 83 64 48 65 49 66
REMARK SMILES IDX 63 68 84 69 51 70 35 71 36 72 44 73 37 74 39 75 45 76 38 77
REMARK SMILES IDX 40 78 41 79 42 80 43 81 67 82 68 83 76 84 69 85 71 86 77 87
REMARK SMILES IDX 70 88 72 89 73 90 74 91 75 92 52 93 53 94 61 95 54 96 56 97
REMARK SMILES IDX 62 98 55 99 57 100 58 101 59 102 60 103
REMARK H PARENT 19 5 10 22 23 37 82 56 50 67
REMARK Flexibility Score: inf
ROOT
ATOM      1  C   UNL     1      10.599  -4.037   4.630  1.00  0.00     0.118 C 
ENDROOT
BRANCH   1   2
ATOM      2  N   UNL     1       9.574  -3.144   5.138  1.00  0.00    -0.352 N 
ATOM      3  C   UNL     1       8.239  -3.031   4.846  1.00  0.00     0.251 C 
ATOM      4  O   UNL     1       7.574  -2.235   5.509  1.00  0.00    -0.269 OA
ATOM      5  H   UNL     1       9.895  -2.505   5.815  1.00  0.00     0.163 HD
BRANCH   3   6
ATOM      6  C   UNL     1       7.558  -3.857   3.808  1.00  0.00     0.039 A 
ATOM      7  C   UNL     1       6.131  -5.403   1.935  1.00  0.00     0.004 A 
ATOM      8  C   UNL     1       5.467  -4.837   3.027  1.00  0.00     0.011 A 
ATOM      9  C   UNL     1       7.497  -5.180   1.771  1.00  0.00     0.011 A 
ATOM     10  C   UNL     1       6.180  -4.075   3.960  1.00  0.00     0.014 A 
ATOM     11  C   UNL     1       8.193  -4.383   2.680  1.00  0.00     0.014 A 
BRANCH   7  12
ATOM     12  C   UNL     1       5.437  -6.156   0.918  1.00  0.00     0.114 A 
ATOM     13  C   UNL     1       4.365  -5.683   0.171  1.00  0.00     0.143 A 
ATOM     14  N   UNL     1       4.216  -6.625  -0.824  1.00  0.00    -0.283 N 
ATOM     15  N   UNL     1       5.799  -7.432   0.545  1.00  0.00    -0.225 NA
ATOM     16  C   UNL     1       5.020  -7.686  -0.481  1.00  0.00     0.157 A 
ATOM     17  C   UNL     1       3.440  -6.691  -1.967  1.00  0.00     0.115 A 
ATOM     18  C   UNL     1       4.926  -8.891  -1.253  1.00  0.00     0.158 A 
ATOM     19  C   UNL     1       3.437  -7.842  -2.665  1.00  0.00     0.129 A 
ATOM     20  N   UNL     1       4.150  -8.977  -2.303  1.00  0.00    -0.259 NA
BRANCH  13  21
ATOM     21  N   UNL     1       3.711  -4.502   0.206  1.00  0.00    -0.336 N 
ATOM     22  H   UNL     1       4.245  -3.738  -0.108  1.00  0.00     0.168 HD
BRANCH  21  23
ATOM     23  C   UNL     1       2.388  -4.158   0.613  1.00  0.00     0.086 A 
ATOM     24  C   UNL     1       0.915  -2.149   0.796  1.00  0.00     0.121 A 
ATOM     25  C   UNL     1      -0.110  -2.946   1.261  1.00  0.00     0.050 A 
ATOM     26  C   UNL     1       2.131  -2.750   0.465  1.00  0.00     0.076 A 
ATOM     27  C   UNL     1       0.092  -4.314   1.382  1.00  0.00     0.052 A 
ATOM     28  C   UNL     1       1.321  -4.950   1.079  1.00  0.00     0.142 A 
BRANCH  24  29
ATOM     29  O   UNL     1       0.629  -0.815   0.766  1.00  0.00    -0.497 OA
ATOM     30  C   UNL     1       1.356  -0.026  -0.166  1.00  0.00     0.278 C 
ENDBRANCH  24  29
BRANCH  28  31
ATOM     31  O   UNL     1       1.137  -6.262   1.381  1.00  0.00    -0.495 OA
ATOM     32  C   UNL     1       2.106  -7.271   1.354  1.00  0.00     0.278 C 
ENDBRANCH  28  31
ENDBRANCH  21  23
ENDBRANCH  13  21
ENDBRANCH   7  12
ENDBRANCH   3   6
ENDBRANCH   1   2
BRANCH   1  33
ATOM     33  C   UNL     1      11.432  -3.361   3.544  1.00  0.00     0.042 C 
BRANCH  33  34
ATOM     34  C   UNL     1      12.478  -2.410   4.106  1.00  0.00     0.118 C 
BRANCH  34  35
ATOM     35  N   UNL     1      13.539  -3.127   4.802  1.00  0.00    -0.352 N 
ATOM     36  C   UNL     1      14.892  -3.121   4.561  1.00  0.00     0.251 C 
ATOM     37  H   UNL     1      13.245  -3.697   5.550  1.00  0.00     0.163 HD
ATOM     38  O   UNL     1      15.613  -3.958   5.086  1.00  0.00    -0.269 OA
BRANCH  36  39
ATOM     39  C   UNL     1      15.461  -2.100   3.658  1.00  0.00     0.039 A 
ATOM     40  C   UNL     1      16.411  -2.480   2.705  1.00  0.00     0.014 A 
ATOM     41  C   UNL     1      15.050  -0.769   3.757  1.00  0.00     0.014 A 
ATOM     42  C   UNL     1      16.909  -1.529   1.812  1.00  0.00     0.010 A 
ATOM     43  C   UNL     1      15.482   0.154   2.816  1.00  0.00     0.010 A 
ATOM     44  C   UNL     1      16.425  -0.213   1.843  1.00  0.00    -0.014 A 
BRANCH  44  45
ATOM     45  C   UNL     1      16.888   0.825   0.890  1.00  0.00     0.031 A 
ATOM     46  C   UNL     1      17.566   2.058   1.417  1.00  0.00     0.074 A 
ATOM     47  C   UNL     1      16.565   0.729  -0.414  1.00  0.00     0.049 A 
ATOM     48  N   UNL     1      17.872   3.164   0.793  1.00  0.00    -0.248 NA
ATOM     49  C   UNL     1      17.904   2.062   2.851  1.00  0.00     0.031 C 
ATOM     50  C   UNL     1      15.850  -0.391  -1.028  1.00  0.00     0.029 A 
ATOM     51  N   UNL     1      16.751   1.613  -1.447  1.00  0.00    -0.354 N 
ATOM     52  C   UNL     1      18.379   4.016   1.766  1.00  0.00     0.074 A 
ATOM     53  C   UNL     1      18.317   3.308   3.025  1.00  0.00     0.031 C 
ATOM     54  C   UNL     1      15.637  -0.118  -2.324  1.00  0.00     0.029 A 
ATOM     55  C   UNL     1      16.159   1.213  -2.622  1.00  0.00     0.049 A 
ATOM     56  H   UNL     1      17.257   2.453  -1.356  1.00  0.00     0.167 HD
ATOM     57  C   UNL     1      18.865   5.271   1.621  1.00  0.00     0.034 A 
ATOM     58  C   UNL     1      16.021   1.857  -3.798  1.00  0.00     0.034 A 
ATOM     59  C   UNL     1      18.958   5.949   0.357  1.00  0.00     0.049 A 
ATOM     60  C   UNL     1      16.608   3.233  -3.951  1.00  0.00     0.074 A 
ATOM     61  C   UNL     1      19.531   7.176   0.080  1.00  0.00     0.029 A 
ATOM     62  N   UNL     1      18.450   5.463  -0.838  1.00  0.00    -0.354 N 
ATOM     63  N   UNL     1      17.217   3.971  -3.055  1.00  0.00    -0.248 NA
ATOM     64  C   UNL     1      16.523   3.853  -5.281  1.00  0.00     0.031 C 
ATOM     65  C   UNL     1      19.333   7.450  -1.276  1.00  0.00     0.029 A 
ATOM     66  C   UNL     1      18.681   6.372  -1.854  1.00  0.00     0.049 A 
ATOM     67  H   UNL     1      17.992   4.598  -0.947  1.00  0.00     0.167 HD
ATOM     68  C   UNL     1      17.625   5.122  -3.719  1.00  0.00     0.074 A 
ATOM     69  C   UNL     1      17.195   4.982  -5.096  1.00  0.00     0.031 C 
ATOM     70  C   UNL     1      18.295   6.194  -3.231  1.00  0.00     0.034 A 
BRANCH  57  71
ATOM     71  C   UNL     1      19.350   5.980   2.859  1.00  0.00     0.023 A 
ATOM     72  C   UNL     1      20.505   5.524   3.528  1.00  0.00     0.012 A 
ATOM     73  C   UNL     1      18.673   7.115   3.349  1.00  0.00     0.148 A 
ATOM     74  C   UNL     1      20.946   6.151   4.693  1.00  0.00     0.002 A 
ATOM     75  C   UNL     1      19.151   7.767   4.479  1.00  0.00     0.091 A 
ATOM     76  F   UNL     1      17.565   7.523   2.715  1.00  0.00    -0.205 F 
ATOM     77  C   UNL     1      20.275   7.276   5.163  1.00  0.00     0.022 A 
BRANCH  75  78
ATOM     78  S   UNL     1      18.406   9.275   5.108  1.00  0.00     0.127 S 
ATOM     79  O   UNL     1      17.721   8.790   6.305  1.00  0.00    -0.237 OA
ATOM     80  O   UNL     1      19.578  10.111   5.372  1.00  0.00    -0.237 OA
ATOM     81  O   UNL     1      17.541   9.767   4.045  1.00  0.00    -0.744 OA
ENDBRANCH  75  78
ENDBRANCH  57  71
BRANCH  58  82
ATOM     82  C   UNL     1      15.332   1.175  -4.928  1.00  0.00     0.023 A 
ATOM     83  C   UNL     1      16.089   0.703  -6.018  1.00  0.00     0.012 A 
ATOM     84  C   UNL     1      13.946   0.925  -4.893  1.00  0.00     0.148 A 
ATOM     85  C   UNL     1      15.475   0.012  -7.063  1.00  0.00     0.002 A 
ATOM     86  C   UNL     1      13.350   0.188  -5.910  1.00  0.00     0.091 A 
ATOM     87  F   UNL     1      13.246   1.383  -3.846  1.00  0.00    -0.205 F 
ATOM     88  C   UNL     1      14.110  -0.255  -7.004  1.00  0.00     0.022 A 
BRANCH  86  89
ATOM     89  S   UNL     1      11.629  -0.324  -5.853  1.00  0.00     0.127 S 
ATOM     90  O   UNL     1      11.066   0.390  -6.997  1.00  0.00    -0.237 OA
ATOM     91  O   UNL     1      11.743  -1.772  -6.025  1.00  0.00    -0.237 OA
ATOM     92  O   UNL     1      11.132   0.091  -4.548  1.00  0.00    -0.744 OA
ENDBRANCH  86  89
ENDBRANCH  58  82
BRANCH  70  93
ATOM     93  C   UNL     1      18.675   7.291  -4.190  1.00  0.00     0.023 A 
ATOM     94  C   UNL     1      17.701   8.189  -4.665  1.00  0.00     0.012 A 
ATOM     95  C   UNL     1      20.031   7.501  -4.514  1.00  0.00     0.148 A 
ATOM     96  C   UNL     1      18.070   9.274  -5.460  1.00  0.00     0.002 A 
ATOM     97  C   UNL     1      20.396   8.613  -5.261  1.00  0.00     0.091 A 
ATOM     98  F   UNL     1      20.937   6.622  -4.065  1.00  0.00    -0.205 F 
ATOM     99  C   UNL     1      19.416   9.495  -5.744  1.00  0.00     0.022 A 
BRANCH  97 100
ATOM    100  S   UNL     1      22.112   9.036  -5.584  1.00  0.00     0.127 S 
ATOM    101  O   UNL     1      22.201   8.834  -7.030  1.00  0.00    -0.237 OA
ATOM    102  O   UNL     1      22.169  10.434  -5.159  1.00  0.00    -0.237 OA
ATOM    103  O   UNL     1      22.913   8.123  -4.781  1.00  0.00    -0.744 OA
ENDBRANCH  97 100
ENDBRANCH  70  93
ENDBRANCH  44  45
ENDBRANCH  36  39
ENDBRANCH  34  35
ENDBRANCH  33  34
ENDBRANCH   1  33
TORSDOF 18
