REMARK SMILES Cc1ccc(O)c(C[C@H](NC=O)C(=O)NCCCNC(=O)c2ccc(-c3c4nc(c(-c5cccc(S(=O)(=O)[O-])c5F)c5ccc([nH]5)c(-c5cccc(S(=O)(=O)[O-])c5F)c5nc(c(-c6cccc(S(=O)(=O)[O-])c6F)c6ccc3[nH]6)C=C5)C=C4)cc2)n1
REMARK SMILES IDX 17 1 16 2 15 3 13 4 14 5 9 7 8 8 7 9 1 10 2 11 3 12 85 13
REMARK SMILES IDX 4 14 5 15 6 16 10 18 11 19 12 21 18 22 19 23 20 24 21 26
REMARK SMILES IDX 22 27 23 28 84 29 24 30 83 31 25 32 26 33 27 34 77 35 28 36
REMARK SMILES IDX 82 37 76 38 78 39 29 40 81 41 75 42 74 43 30 45 62 46 42 47
REMARK SMILES IDX 61 48 43 49 46 50 60 51 79 52 44 53 45 54 59 56 80 57 47 58
REMARK SMILES IDX 31 59 32 60 40 61 33 62 35 63 41 64 34 65 36 66 37 67 38 68
REMARK SMILES IDX 39 69 63 70 64 71 72 72 65 73 67 74 73 75 66 76 68 77 69 78
REMARK SMILES IDX 70 79 71 80 48 81 49 82 57 83 50 84 52 85 58 86 51 87 53 88
REMARK SMILES IDX 54 89 55 90 56 91
REMARK H PARENT 15 6 6 17 10 20 19 25 78 44 46 55
REMARK Flexibility Score: inf
ROOT
ATOM      1  C   UNL     1      -1.337  -5.167   2.453  1.00  0.00     0.042 C 
ENDROOT
BRANCH   1   2
ATOM      2  C   UNL     1      -0.673  -5.051   1.098  1.00  0.00     0.117 C 
BRANCH   2   3
ATOM      3  N   UNL     1      -1.626  -5.150   0.002  1.00  0.00    -0.354 N 
ATOM      4  C   UNL     1      -1.623  -4.483  -1.191  1.00  0.00     0.242 C 
ATOM      5  O   UNL     1      -2.349  -4.901  -2.098  1.00  0.00    -0.273 OA
ATOM      6  H   UNL     1      -2.370  -5.780   0.139  1.00  0.00     0.163 HD
BRANCH   4   7
ATOM      7  C   UNL     1      -0.744  -3.235  -1.391  1.00  0.00     0.177 C 
BRANCH   7   8
ATOM      8  C   UNL     1       0.777  -3.486  -1.444  1.00  0.00     0.095 C 
BRANCH   8   9
ATOM      9  C   UNL     1       1.195  -4.787  -2.083  1.00  0.00     0.085 A 
ATOM     10  C   UNL     1       0.659  -8.306  -1.143  1.00  0.00     0.067 C 
ATOM     11  C   UNL     1       1.164  -7.122  -1.910  1.00  0.00     0.038 A 
ATOM     12  C   UNL     1       1.875  -7.259  -3.090  1.00  0.00     0.027 A 
ATOM     13  N   UNL     1       0.860  -5.909  -1.400  1.00  0.00    -0.254 NA
ATOM     14  C   UNL     1       2.268  -6.106  -3.770  1.00  0.00     0.050 A 
ATOM     15  C   UNL     1       1.918  -4.855  -3.266  1.00  0.00     0.137 A 
BRANCH  15  16
ATOM     16  O   UNL     1       2.288  -3.717  -3.918  1.00  0.00    -0.506 OA
ATOM     17  H   UNL     1       2.776  -3.772  -4.716  1.00  0.00     0.293 HD
ENDBRANCH  15  16
ENDBRANCH   8   9
ENDBRANCH   7   8
BRANCH   7  18
ATOM     18  N   UNL     1      -1.126  -2.270  -0.350  1.00  0.00    -0.347 N 
ATOM     19  C   UNL     1      -0.856  -0.941  -0.366  1.00  0.00     0.337 C 
ATOM     20  H   UNL     1      -1.621  -2.618   0.426  1.00  0.00     0.164 HD
ATOM     21  O   UNL     1      -1.211  -0.182   0.525  1.00  0.00    -0.279 OA
ENDBRANCH   7  18
ENDBRANCH   4   7
ENDBRANCH   2   3
ENDBRANCH   1   2
BRANCH   1  22
ATOM     22  C   UNL     1      -1.965  -6.528   2.699  1.00  0.00     0.118 C 
BRANCH  22  23
ATOM     23  N   UNL     1      -0.989  -7.613   2.735  1.00  0.00    -0.352 N 
ATOM     24  C   UNL     1      -0.728  -8.516   3.738  1.00  0.00     0.251 C 
ATOM     25  H   UNL     1      -0.439  -7.713   1.925  1.00  0.00     0.163 HD
ATOM     26  O   UNL     1       0.234  -9.275   3.650  1.00  0.00    -0.269 OA
BRANCH  24  27
ATOM     27  C   UNL     1      -1.597  -8.544   4.933  1.00  0.00     0.039 A 
ATOM     28  C   UNL     1      -1.012  -8.586   6.200  1.00  0.00     0.014 A 
ATOM     29  C   UNL     1      -2.985  -8.475   4.799  1.00  0.00     0.014 A 
ATOM     30  C   UNL     1      -1.821  -8.479   7.333  1.00  0.00     0.010 A 
ATOM     31  C   UNL     1      -3.774  -8.258   5.921  1.00  0.00     0.010 A 
ATOM     32  C   UNL     1      -3.204  -8.269   7.202  1.00  0.00    -0.014 A 
BRANCH  32  33
ATOM     33  C   UNL     1      -4.073  -8.057   8.388  1.00  0.00     0.031 A 
ATOM     34  C   UNL     1      -5.218  -8.995   8.662  1.00  0.00     0.074 A 
ATOM     35  C   UNL     1      -3.890  -6.970   9.165  1.00  0.00     0.049 A 
ATOM     36  N   UNL     1      -6.118  -8.942   9.609  1.00  0.00    -0.248 NA
ATOM     37  C   UNL     1      -5.398 -10.124   7.732  1.00  0.00     0.031 C 
ATOM     38  C   UNL     1      -2.876  -5.935   8.950  1.00  0.00     0.029 A 
ATOM     39  N   UNL     1      -4.571  -6.538  10.276  1.00  0.00    -0.354 N 
ATOM     40  C   UNL     1      -6.990  -9.996   9.364  1.00  0.00     0.074 A 
ATOM     41  C   UNL     1      -6.535 -10.651   8.159  1.00  0.00     0.031 C 
ATOM     42  C   UNL     1      -2.996  -4.995   9.901  1.00  0.00     0.029 A 
ATOM     43  C   UNL     1      -4.115  -5.338  10.772  1.00  0.00     0.049 A 
ATOM     44  H   UNL     1      -5.316  -7.039  10.680  1.00  0.00     0.167 HD
ATOM     45  C   UNL     1      -8.057 -10.402  10.091  1.00  0.00     0.034 A 
ATOM     46  C   UNL     1      -4.557  -4.591  11.803  1.00  0.00     0.034 A 
ATOM     47  C   UNL     1      -8.478  -9.777  11.315  1.00  0.00     0.049 A 
ATOM     48  C   UNL     1      -5.714  -5.093  12.624  1.00  0.00     0.074 A 
ATOM     49  C   UNL     1      -9.479 -10.175  12.182  1.00  0.00     0.029 A 
ATOM     50  N   UNL     1      -7.933  -8.615  11.838  1.00  0.00    -0.354 N 
ATOM     51  N   UNL     1      -6.417  -6.189  12.476  1.00  0.00    -0.248 NA
ATOM     52  C   UNL     1      -6.115  -4.274  13.777  1.00  0.00     0.031 C 
ATOM     53  C   UNL     1      -9.564  -9.233  13.212  1.00  0.00     0.029 A 
ATOM     54  C   UNL     1      -8.587  -8.272  13.008  1.00  0.00     0.049 A 
ATOM     55  H   UNL     1      -7.190  -8.109  11.437  1.00  0.00     0.167 HD
ATOM     56  C   UNL     1      -7.317  -6.211  13.535  1.00  0.00     0.074 A 
ATOM     57  C   UNL     1      -7.055  -5.029  14.330  1.00  0.00     0.031 C 
ATOM     58  C   UNL     1      -8.283  -7.120  13.817  1.00  0.00     0.034 A 
BRANCH  45  59
ATOM     59  C   UNL     1      -8.822 -11.607   9.608  1.00  0.00     0.023 A 
ATOM     60  C   UNL     1      -8.231 -12.886   9.676  1.00  0.00     0.012 A 
ATOM     61  C   UNL     1     -10.147 -11.482   9.147  1.00  0.00     0.148 A 
ATOM     62  C   UNL     1      -8.933 -14.016   9.260  1.00  0.00     0.002 A 
ATOM     63  C   UNL     1     -10.858 -12.619   8.781  1.00  0.00     0.091 A 
ATOM     64  F   UNL     1     -10.684 -10.256   9.069  1.00  0.00    -0.205 F 
ATOM     65  C   UNL     1     -10.249 -13.884   8.824  1.00  0.00     0.022 A 
BRANCH  63  66
ATOM     66  S   UNL     1     -12.584 -12.566   8.288  1.00  0.00     0.127 S 
ATOM     67  O   UNL     1     -12.496 -12.913   6.870  1.00  0.00    -0.237 OA
ATOM     68  O   UNL     1     -13.175 -13.604   9.134  1.00  0.00    -0.237 OA
ATOM     69  O   UNL     1     -13.043 -11.214   8.572  1.00  0.00    -0.744 OA
ENDBRANCH  63  66
ENDBRANCH  45  59
BRANCH  46  70
ATOM     70  C   UNL     1      -3.872  -3.313  12.149  1.00  0.00     0.023 A 
ATOM     71  C   UNL     1      -3.128  -3.223  13.342  1.00  0.00     0.012 A 
ATOM     72  C   UNL     1      -3.940  -2.195  11.297  1.00  0.00     0.148 A 
ATOM     73  C   UNL     1      -2.498  -2.030  13.700  1.00  0.00     0.002 A 
ATOM     74  C   UNL     1      -3.262  -1.028  11.630  1.00  0.00     0.091 A 
ATOM     75  F   UNL     1      -4.660  -2.298  10.171  1.00  0.00    -0.205 F 
ATOM     76  C   UNL     1      -2.557  -0.937  12.840  1.00  0.00     0.022 A 
BRANCH  74  77
ATOM     77  S   UNL     1      -3.173   0.384  10.524  1.00  0.00     0.127 S 
ATOM     78  O   UNL     1      -3.989   1.368  11.231  1.00  0.00    -0.237 OA
ATOM     79  O   UNL     1      -1.737   0.666  10.513  1.00  0.00    -0.237 OA
ATOM     80  O   UNL     1      -3.704  -0.082   9.250  1.00  0.00    -0.744 OA
ENDBRANCH  74  77
ENDBRANCH  46  70
BRANCH  58  81
ATOM     81  C   UNL     1      -9.103  -6.906  15.062  1.00  0.00     0.023 A 
ATOM     82  C   UNL     1     -10.050  -5.865  15.114  1.00  0.00     0.012 A 
ATOM     83  C   UNL     1      -8.984  -7.788  16.154  1.00  0.00     0.148 A 
ATOM     84  C   UNL     1     -10.840  -5.682  16.249  1.00  0.00     0.002 A 
ATOM     85  C   UNL     1      -9.812  -7.634  17.259  1.00  0.00     0.091 A 
ATOM     86  F   UNL     1      -8.066  -8.763  16.092  1.00  0.00    -0.205 F 
ATOM     87  C   UNL     1     -10.730  -6.573  17.314  1.00  0.00     0.022 A 
BRANCH  85  88
ATOM     88  S   UNL     1      -9.812  -8.792  18.632  1.00  0.00     0.127 S 
ATOM     89  O   UNL     1      -9.200  -7.994  19.694  1.00  0.00    -0.237 OA
ATOM     90  O   UNL     1     -11.240  -9.057  18.813  1.00  0.00    -0.237 OA
ATOM     91  O   UNL     1      -9.035  -9.942  18.190  1.00  0.00    -0.744 OA
ENDBRANCH  85  88
ENDBRANCH  58  81
ENDBRANCH  32  33
ENDBRANCH  24  27
ENDBRANCH  22  23
ENDBRANCH   1  22
TORSDOF 17
