REMARK SMILES O=C(NCCCNC(=O)c1ccc(-c2c3nc(c(-c4cccc(S(=O)(=O)[O-])c4F)c4ccc([nH]4)c(-c4cccc(S(=O)(=O)[O-])c4F)c4nc(c(-c5cccc(S(=O)(=O)[O-])c5F)c5ccc2[nH]5)C=C4)C=C3)cc1)C1=Cc2cc(Cl)cc(Cl)c2O[C@@H]1C(F)(F)F
REMARK SMILES IDX 6 1 5 2 4 3 3 4 1 5 2 6 73 8 74 9 84 10 75 11 83 12 76 13
REMARK SMILES IDX 82 14 77 15 80 16 78 17 79 18 81 19 85 20 86 21 87 22 88 23
REMARK SMILES IDX 7 24 8 25 9 27 10 28 11 29 72 30 12 31 71 32 13 33 14 34
REMARK SMILES IDX 15 35 65 36 16 37 70 38 64 39 66 40 17 41 69 42 63 43 62 44
REMARK SMILES IDX 18 46 50 47 30 48 49 49 31 50 34 51 48 52 67 53 32 54 33 55
REMARK SMILES IDX 47 57 68 58 35 59 19 60 20 61 28 62 21 63 23 64 29 65 22 66
REMARK SMILES IDX 24 67 25 68 26 69 27 70 51 71 52 72 60 73 53 74 55 75 61 76
REMARK SMILES IDX 54 77 56 78 57 79 58 80 59 81 36 82 37 83 45 84 38 85 40 86
REMARK SMILES IDX 46 87 39 88 41 89 42 90 43 91 44 92
REMARK H PARENT 3 7 7 26 66 45 34 56
REMARK Flexibility Score: inf
ROOT
ATOM      1  C   UNL     1       3.994   4.035   0.668  1.00  0.00     0.118 C 
ENDROOT
BRANCH   1   2
ATOM      2  C   UNL     1       4.178   2.851  -0.271  1.00  0.00     0.042 C 
BRANCH   2   3
ATOM      3  C   UNL     1       3.530   1.588   0.272  1.00  0.00     0.118 C 
BRANCH   3   4
ATOM      4  N   UNL     1       2.536   1.003  -0.631  1.00  0.00    -0.352 N 
ATOM      5  O   UNL     1       1.316  -0.688  -1.535  1.00  0.00    -0.270 OA
ATOM      6  C   UNL     1       2.345  -0.309  -0.993  1.00  0.00     0.251 C 
ATOM      7  H   UNL     1       1.913   1.646  -1.041  1.00  0.00     0.163 HD
BRANCH   6   8
ATOM      8  C   UNL     1       3.394  -1.269  -0.600  1.00  0.00     0.067 C 
ATOM      9  C   UNL     1       4.617  -1.087  -1.115  1.00  0.00     0.025 C 
ATOM     10  C   UNL     1       3.135  -2.086   0.624  1.00  0.00     0.314 C 
ATOM     11  C   UNL     1       5.686  -1.142  -0.106  1.00  0.00     0.020 A 
ATOM     12  O   UNL     1       4.135  -1.867   1.647  1.00  0.00    -0.474 OA
ATOM     13  C   UNL     1       6.896  -0.518  -0.433  1.00  0.00     0.032 A 
ATOM     14  C   UNL     1       5.354  -1.366   1.248  1.00  0.00     0.146 A 
ATOM     15  C   UNL     1       7.710  -0.019   0.583  1.00  0.00     0.043 A 
ATOM     16  C   UNL     1       6.202  -0.882   2.253  1.00  0.00     0.085 A 
ATOM     17  Cl  UNL     1       9.088   0.925   0.174  1.00  0.00    -0.084 Cl
ATOM     18  C   UNL     1       7.362  -0.182   1.921  1.00  0.00     0.045 A 
ATOM     19  Cl  UNL     1       5.755  -0.977   3.921  1.00  0.00    -0.080 Cl
BRANCH  10  20
ATOM     20  C   UNL     1       3.008  -3.582   0.297  1.00  0.00     0.429 C 
ATOM     21  F   UNL     1       2.643  -4.288   1.397  1.00  0.00    -0.167 F 
ATOM     22  F   UNL     1       2.068  -3.821  -0.646  1.00  0.00    -0.167 F 
ATOM     23  F   UNL     1       4.171  -4.114  -0.147  1.00  0.00    -0.167 F 
ENDBRANCH  10  20
ENDBRANCH   6   8
ENDBRANCH   3   4
ENDBRANCH   2   3
ENDBRANCH   1   2
BRANCH   1  24
ATOM     24  N   UNL     1       4.746   3.928   1.920  1.00  0.00    -0.352 N 
ATOM     25  C   UNL     1       5.707   4.763   2.461  1.00  0.00     0.251 C 
ATOM     26  H   UNL     1       4.533   3.135   2.463  1.00  0.00     0.163 HD
ATOM     27  O   UNL     1       6.278   4.450   3.494  1.00  0.00    -0.269 OA
BRANCH  25  28
ATOM     28  C   UNL     1       6.072   6.013   1.754  1.00  0.00     0.039 A 
ATOM     29  C   UNL     1       7.420   6.340   1.581  1.00  0.00     0.014 A 
ATOM     30  C   UNL     1       5.083   6.815   1.193  1.00  0.00     0.014 A 
ATOM     31  C   UNL     1       7.772   7.389   0.722  1.00  0.00     0.010 A 
ATOM     32  C   UNL     1       5.436   7.756   0.238  1.00  0.00     0.010 A 
ATOM     33  C   UNL     1       6.784   8.052  -0.021  1.00  0.00    -0.014 A 
BRANCH  33  34
ATOM     34  C   UNL     1       7.091   9.044  -1.089  1.00  0.00     0.031 A 
ATOM     35  C   UNL     1       6.419  10.394  -1.054  1.00  0.00     0.074 A 
ATOM     36  C   UNL     1       7.817   8.684  -2.167  1.00  0.00     0.049 A 
ATOM     37  N   UNL     1       6.306  11.289  -2.000  1.00  0.00    -0.248 NA
ATOM     38  C   UNL     1       5.721  10.750   0.194  1.00  0.00     0.031 C 
ATOM     39  C   UNL     1       8.464   7.384  -2.368  1.00  0.00     0.029 A 
ATOM     40  N   UNL     1       8.102   9.371  -3.322  1.00  0.00    -0.354 N 
ATOM     41  C   UNL     1       5.457  12.266  -1.493  1.00  0.00     0.074 A 
ATOM     42  C   UNL     1       5.054  11.834  -0.173  1.00  0.00     0.031 C 
ATOM     43  C   UNL     1       9.082   7.375  -3.560  1.00  0.00     0.029 A 
ATOM     44  C   UNL     1       8.835   8.644  -4.234  1.00  0.00     0.049 A 
ATOM     45  H   UNL     1       7.809  10.297  -3.484  1.00  0.00     0.167 HD
ATOM     46  C   UNL     1       5.074  13.436  -2.056  1.00  0.00     0.034 A 
ATOM     47  C   UNL     1       9.251   8.960  -5.477  1.00  0.00     0.034 A 
ATOM     48  C   UNL     1       5.566  13.910  -3.320  1.00  0.00     0.049 A 
ATOM     49  C   UNL     1       8.894  10.308  -6.043  1.00  0.00     0.074 A 
ATOM     50  C   UNL     1       5.327  15.125  -3.937  1.00  0.00     0.029 A 
ATOM     51  N   UNL     1       6.421  13.199  -4.148  1.00  0.00    -0.354 N 
ATOM     52  N   UNL     1       8.180  11.267  -5.503  1.00  0.00    -0.248 NA
ATOM     53  C   UNL     1       9.422  10.632  -7.377  1.00  0.00     0.031 C 
ATOM     54  C   UNL     1       6.046  15.150  -5.137  1.00  0.00     0.029 A 
ATOM     55  C   UNL     1       6.736  13.955  -5.262  1.00  0.00     0.049 A 
ATOM     56  H   UNL     1       6.755  12.290  -3.969  1.00  0.00     0.167 HD
ATOM     57  C   UNL     1       8.210  12.321  -6.409  1.00  0.00     0.074 A 
ATOM     58  C   UNL     1       9.021  11.887  -7.528  1.00  0.00     0.031 C 
ATOM     59  C   UNL     1       7.609  13.533  -6.327  1.00  0.00     0.034 A 
BRANCH  46  60
ATOM     60  C   UNL     1       4.136  14.314  -1.267  1.00  0.00     0.023 A 
ATOM     61  C   UNL     1       4.602  14.950  -0.097  1.00  0.00     0.012 A 
ATOM     62  C   UNL     1       2.808  14.526  -1.683  1.00  0.00     0.148 A 
ATOM     63  C   UNL     1       3.748  15.736   0.675  1.00  0.00     0.002 A 
ATOM     64  C   UNL     1       1.976  15.352  -0.935  1.00  0.00     0.091 A 
ATOM     65  F   UNL     1       2.371  13.898  -2.784  1.00  0.00    -0.205 F 
ATOM     66  C   UNL     1       2.439  15.944   0.252  1.00  0.00     0.022 A 
BRANCH  64  67
ATOM     67  S   UNL     1       0.299  15.746  -1.447  1.00  0.00     0.127 S 
ATOM     68  O   UNL     1      -0.488  14.876  -0.576  1.00  0.00    -0.237 OA
ATOM     69  O   UNL     1       0.203  17.172  -1.131  1.00  0.00    -0.237 OA
ATOM     70  O   UNL     1       0.240  15.440  -2.869  1.00  0.00    -0.744 OA
ENDBRANCH  64  67
ENDBRANCH  46  60
BRANCH  47  71
ATOM     71  C   UNL     1      10.134   8.023  -6.229  1.00  0.00     0.023 A 
ATOM     72  C   UNL     1      11.494   8.358  -6.388  1.00  0.00     0.012 A 
ATOM     73  C   UNL     1       9.664   6.801  -6.747  1.00  0.00     0.148 A 
ATOM     74  C   UNL     1      12.363   7.508  -7.072  1.00  0.00     0.002 A 
ATOM     75  C   UNL     1      10.547   5.935  -7.385  1.00  0.00     0.091 A 
ATOM     76  F   UNL     1       8.367   6.503  -6.593  1.00  0.00    -0.205 F 
ATOM     77  C   UNL     1      11.893   6.293  -7.562  1.00  0.00     0.022 A 
BRANCH  75  78
ATOM     78  S   UNL     1      10.062   4.295  -7.937  1.00  0.00     0.127 S 
ATOM     79  O   UNL     1      10.068   4.455  -9.389  1.00  0.00    -0.237 OA
ATOM     80  O   UNL     1      11.142   3.464  -7.404  1.00  0.00    -0.237 OA
ATOM     81  O   UNL     1       8.761   4.046  -7.332  1.00  0.00    -0.744 OA
ENDBRANCH  75  78
ENDBRANCH  47  71
BRANCH  59  82
ATOM     82  C   UNL     1       7.846  14.511  -7.446  1.00  0.00     0.023 A 
ATOM     83  C   UNL     1       7.181  14.342  -8.675  1.00  0.00     0.012 A 
ATOM     84  C   UNL     1       8.645  15.653  -7.238  1.00  0.00     0.148 A 
ATOM     85  C   UNL     1       7.322  15.287  -9.690  1.00  0.00     0.002 A 
ATOM     86  C   UNL     1       8.745  16.612  -8.238  1.00  0.00     0.091 A 
ATOM     87  F   UNL     1       9.285  15.781  -6.067  1.00  0.00    -0.205 F 
ATOM     88  C   UNL     1       8.091  16.428  -9.467  1.00  0.00     0.022 A 
BRANCH  86  89
ATOM     89  S   UNL     1       9.634  18.155  -8.001  1.00  0.00     0.127 S 
ATOM     90  O   UNL     1      10.828  17.939  -8.817  1.00  0.00    -0.237 OA
ATOM     91  O   UNL     1       8.696  19.141  -8.541  1.00  0.00    -0.237 OA
ATOM     92  O   UNL     1       9.868  18.267  -6.568  1.00  0.00    -0.744 OA
ENDBRANCH  86  89
ENDBRANCH  59  82
ENDBRANCH  33  34
ENDBRANCH  25  28
ENDBRANCH   1  24
TORSDOF 14
