REMARK SMILES CC(C)[C@@H](CC(=O)OC(C)(C)C)C(=O)NCCCNC(=O)c1ccc(-c2c3nc(c(-c4cccc(S(=O)(=O)[O-])c4F)c4ccc([nH]4)c(-c4cccc(S(=O)(=O)[O-])c4F)c4nc(c(-c5cccc(S(=O)(=O)[O-])c5F)c5ccc2[nH]5)C=C4)C=C3)cc1
REMARK SMILES IDX 16 1 15 2 13 3 14 4 4 6 2 7 1 8 3 9 5 10 6 11 7 12 8 13 9 14
REMARK SMILES IDX 10 15 11 16 12 17 17 18 18 19 19 20 20 21 21 23 22 24 23 25
REMARK SMILES IDX 84 26 24 27 83 28 25 29 26 30 27 31 77 32 28 33 82 34 76 35
REMARK SMILES IDX 78 36 29 37 81 38 75 39 74 40 30 42 62 43 42 44 61 45 43 46
REMARK SMILES IDX 46 47 60 48 79 49 44 50 45 51 59 53 80 54 47 55 31 56 32 57
REMARK SMILES IDX 40 58 33 59 35 60 41 61 34 62 36 63 37 64 38 65 39 66 63 67
REMARK SMILES IDX 64 68 72 69 65 70 67 71 73 72 66 73 68 74 69 75 70 76 71 77
REMARK SMILES IDX 48 78 49 79 57 80 50 81 52 82 58 83 51 84 53 85 54 86 55 87
REMARK SMILES IDX 56 88
REMARK H PARENT 15 5 19 22 78 41 46 52
REMARK Flexibility Score: inf
ROOT
ATOM      1  C   UNL     1      -0.442   3.057   3.086  1.00  0.00     0.117 C 
ENDROOT
BRANCH   1   2
ATOM      2  N   UNL     1      -1.276   3.337   1.952  1.00  0.00    -0.356 N 
ATOM      3  C   UNL     1      -1.617   2.491   0.944  1.00  0.00     0.223 C 
ATOM      4  O   UNL     1      -2.516   2.847   0.177  1.00  0.00    -0.275 OA
ATOM      5  H   UNL     1      -1.644   4.249   1.898  1.00  0.00     0.163 HD
BRANCH   3   6
ATOM      6  C   UNL     1      -0.912   1.140   0.738  1.00  0.00     0.092 C 
BRANCH   6   7
ATOM      7  C   UNL     1       0.626   1.213   0.523  1.00  0.00    -0.004 C 
ATOM      8  C   UNL     1       1.165  -0.095  -0.071  1.00  0.00     0.008 C 
ATOM      9  C   UNL     1       1.021   2.368  -0.411  1.00  0.00     0.008 C 
ENDBRANCH   6   7
BRANCH   6  10
ATOM     10  C   UNL     1      -1.462   0.030   1.663  1.00  0.00     0.136 C 
BRANCH  10  11
ATOM     11  C   UNL     1      -1.158   0.025   3.152  1.00  0.00     0.307 C 
ATOM     12  O   UNL     1      -2.034   0.076   4.001  1.00  0.00    -0.252 OA
BRANCH  11  13
ATOM     13  O   UNL     1       0.172  -0.088   3.405  1.00  0.00    -0.460 OA
BRANCH  13  14
ATOM     14  C   UNL     1       0.710  -0.119   4.766  1.00  0.00     0.104 C 
ATOM     15  C   UNL     1       0.266   1.046   5.664  1.00  0.00     0.056 C 
ATOM     16  C   UNL     1       0.377  -1.452   5.435  1.00  0.00     0.056 C 
ATOM     17  C   UNL     1       2.232  -0.001   4.579  1.00  0.00     0.056 C 
ENDBRANCH  13  14
ENDBRANCH  11  13
ENDBRANCH  10  11
ENDBRANCH   6  10
ENDBRANCH   3   6
ENDBRANCH   1   2
BRANCH   1  18
ATOM     18  C   UNL     1       0.687   4.032   3.326  1.00  0.00     0.042 C 
BRANCH  18  19
ATOM     19  C   UNL     1       0.323   5.161   4.273  1.00  0.00     0.118 C 
BRANCH  19  20
ATOM     20  N   UNL     1      -0.222   4.706   5.554  1.00  0.00    -0.352 N 
ATOM     21  C   UNL     1       0.285   4.712   6.832  1.00  0.00     0.251 C 
ATOM     22  H   UNL     1      -1.126   4.321   5.487  1.00  0.00     0.163 HD
ATOM     23  O   UNL     1      -0.310   4.096   7.714  1.00  0.00    -0.269 OA
BRANCH  21  24
ATOM     24  C   UNL     1       1.535   5.431   7.153  1.00  0.00     0.039 A 
ATOM     25  C   UNL     1       2.391   4.928   8.139  1.00  0.00     0.014 A 
ATOM     26  C   UNL     1       1.863   6.612   6.494  1.00  0.00     0.014 A 
ATOM     27  C   UNL     1       3.609   5.566   8.390  1.00  0.00     0.010 A 
ATOM     28  C   UNL     1       3.130   7.150   6.631  1.00  0.00     0.010 A 
ATOM     29  C   UNL     1       4.011   6.654   7.600  1.00  0.00    -0.014 A 
BRANCH  29  30
ATOM     30  C   UNL     1       5.326   7.323   7.763  1.00  0.00     0.031 A 
ATOM     31  C   UNL     1       5.379   8.809   8.018  1.00  0.00     0.074 A 
ATOM     32  C   UNL     1       6.461   6.629   7.551  1.00  0.00     0.049 A 
ATOM     33  N   UNL     1       6.413   9.609   8.032  1.00  0.00    -0.248 NA
ATOM     34  C   UNL     1       4.092   9.497   8.235  1.00  0.00     0.031 C 
ATOM     35  C   UNL     1       6.537   5.206   7.212  1.00  0.00     0.029 A 
ATOM     36  N   UNL     1       7.771   7.037   7.554  1.00  0.00    -0.354 N 
ATOM     37  C   UNL     1       5.899  10.889   8.201  1.00  0.00     0.074 A 
ATOM     38  C   UNL     1       4.459  10.769   8.232  1.00  0.00     0.031 C 
ATOM     39  C   UNL     1       7.824   4.858   7.052  1.00  0.00     0.029 A 
ATOM     40  C   UNL     1       8.661   6.038   7.232  1.00  0.00     0.049 A 
ATOM     41  H   UNL     1       8.048   7.957   7.767  1.00  0.00     0.167 HD
ATOM     42  C   UNL     1       6.563  12.059   8.355  1.00  0.00     0.034 A 
ATOM     43  C   UNL     1       9.999   6.075   7.083  1.00  0.00     0.034 A 
ATOM     44  C   UNL     1       7.995  12.161   8.384  1.00  0.00     0.049 A 
ATOM     45  C   UNL     1      10.718   7.377   7.307  1.00  0.00     0.074 A 
ATOM     46  C   UNL     1       8.773  13.277   8.633  1.00  0.00     0.029 A 
ATOM     47  N   UNL     1       8.866  11.107   8.154  1.00  0.00    -0.354 N 
ATOM     48  N   UNL     1      10.223   8.552   7.613  1.00  0.00    -0.248 NA
ATOM     49  C   UNL     1      12.183   7.352   7.198  1.00  0.00     0.031 C 
ATOM     50  C   UNL     1      10.116  12.903   8.524  1.00  0.00     0.029 A 
ATOM     51  C   UNL     1      10.174  11.547   8.246  1.00  0.00     0.049 A 
ATOM     52  H   UNL     1       8.594  10.182   7.955  1.00  0.00     0.167 HD
ATOM     53  C   UNL     1      11.316   9.396   7.774  1.00  0.00     0.074 A 
ATOM     54  C   UNL     1      12.499   8.591   7.550  1.00  0.00     0.031 C 
ATOM     55  C   UNL     1      11.339  10.719   8.070  1.00  0.00     0.034 A 
BRANCH  42  56
ATOM     56  C   UNL     1       5.745  13.309   8.558  1.00  0.00     0.023 A 
ATOM     57  C   UNL     1       5.009  13.479   9.749  1.00  0.00     0.012 A 
ATOM     58  C   UNL     1       5.737  14.334   7.592  1.00  0.00     0.148 A 
ATOM     59  C   UNL     1       4.243  14.625   9.957  1.00  0.00     0.002 A 
ATOM     60  C   UNL     1       5.014  15.497   7.829  1.00  0.00     0.091 A 
ATOM     61  F   UNL     1       6.425  14.148   6.456  1.00  0.00    -0.205 F 
ATOM     62  C   UNL     1       4.255  15.638   9.002  1.00  0.00     0.022 A 
BRANCH  60  63
ATOM     63  S   UNL     1       5.031  16.897   6.703  1.00  0.00     0.127 S 
ATOM     64  O   UNL     1       3.665  16.872   6.182  1.00  0.00    -0.237 OA
ATOM     65  O   UNL     1       5.318  18.012   7.606  1.00  0.00    -0.237 OA
ATOM     66  O   UNL     1       6.075  16.617   5.728  1.00  0.00    -0.744 OA
ENDBRANCH  60  63
ENDBRANCH  42  56
BRANCH  43  67
ATOM     67  C   UNL     1      10.750   4.826   6.769  1.00  0.00     0.023 A 
ATOM     68  C   UNL     1      11.582   4.257   7.754  1.00  0.00     0.012 A 
ATOM     69  C   UNL     1      10.629   4.187   5.521  1.00  0.00     0.148 A 
ATOM     70  C   UNL     1      12.309   3.096   7.488  1.00  0.00     0.002 A 
ATOM     71  C   UNL     1      11.311   3.000   5.282  1.00  0.00     0.091 A 
ATOM     72  F   UNL     1       9.836   4.747   4.596  1.00  0.00    -0.205 F 
ATOM     73  C   UNL     1      12.167   2.463   6.256  1.00  0.00     0.022 A 
BRANCH  71  74
ATOM     74  S   UNL     1      11.088   2.044   3.777  1.00  0.00     0.127 S 
ATOM     75  O   UNL     1      12.388   2.199   3.129  1.00  0.00    -0.237 OA
ATOM     76  O   UNL     1      10.819   0.708   4.308  1.00  0.00    -0.237 OA
ATOM     77  O   UNL     1       9.960   2.654   3.086  1.00  0.00    -0.744 OA
ENDBRANCH  71  74
ENDBRANCH  43  67
BRANCH  55  78
ATOM     78  C   UNL     1      12.686  11.376   8.219  1.00  0.00     0.023 A 
ATOM     79  C   UNL     1      13.488  11.607   7.085  1.00  0.00     0.012 A 
ATOM     80  C   UNL     1      13.119  11.833   9.479  1.00  0.00     0.148 A 
ATOM     81  C   UNL     1      14.719  12.251   7.208  1.00  0.00     0.002 A 
ATOM     82  C   UNL     1      14.320  12.521   9.586  1.00  0.00     0.091 A 
ATOM     83  F   UNL     1      12.347  11.588  10.548  1.00  0.00    -0.205 F 
ATOM     84  C   UNL     1      15.128  12.719   8.455  1.00  0.00     0.022 A 
BRANCH  82  85
ATOM     85  S   UNL     1      14.879  13.249  11.130  1.00  0.00     0.127 S 
ATOM     86  O   UNL     1      16.011  12.390  11.472  1.00  0.00    -0.237 OA
ATOM     87  O   UNL     1      15.243  14.605  10.719  1.00  0.00    -0.237 OA
ATOM     88  O   UNL     1      13.745  13.178  12.043  1.00  0.00    -0.744 OA
ENDBRANCH  82  85
ENDBRANCH  55  78
ENDBRANCH  29  30
ENDBRANCH  21  24
ENDBRANCH  19  20
ENDBRANCH  18  19
ENDBRANCH   1  18
TORSDOF 18
