REMARK SMILES Cc1ccc([C@@H]2[C@H](C(=O)NCCCNC(=O)c3ccc(-c4c5nc(c(-c6cccc(S(=O)(=O)[O-])c6F)c6ccc([nH]6)c(-c6cccc(S(=O)(=O)[O-])c6F)c6nc(c(-c7cccc(S(=O)(=O)[O-])c7F)c7ccc4[nH]7)C=C6)C=C5)cc3)c3ccccc3C(=O)N2c2ccccc2)cc1
REMARK SMILES IDX 13 1 12 2 11 3 10 4 8 5 9 6 7 8 6 9 88 10 80 11 86 12 81 13
REMARK SMILES IDX 85 14 87 15 82 16 84 17 83 18 5 19 1 20 2 21 3 22 96 23 4 24
REMARK SMILES IDX 95 25 89 26 90 27 94 28 91 29 93 30 92 31 14 32 15 33 16 35
REMARK SMILES IDX 17 36 18 37 79 38 19 39 78 40 20 41 21 42 22 43 72 44 23 45
REMARK SMILES IDX 77 46 71 47 73 48 24 49 76 50 70 51 69 52 25 54 57 55 37 56
REMARK SMILES IDX 56 57 38 58 41 59 55 60 74 61 39 62 40 63 54 65 75 66 42 67
REMARK SMILES IDX 26 68 27 69 35 70 28 71 30 72 36 73 29 74 31 75 32 76 33 77
REMARK SMILES IDX 34 78 58 79 59 80 67 81 60 82 62 83 68 84 61 85 63 86 64 87
REMARK SMILES IDX 65 88 66 89 43 90 44 91 52 92 45 93 47 94 53 95 46 96 48 97
REMARK SMILES IDX 49 98 50 99 51 100
REMARK H PARENT 10 7 14 34 73 53 41 64
REMARK Flexibility Score: inf
ROOT
ATOM      1  C   UNL     1      -4.249  -4.738   6.647  1.00  0.00     0.118 C 
ENDROOT
BRANCH   1   2
ATOM      2  C   UNL     1      -3.932  -3.281   6.349  1.00  0.00     0.042 C 
BRANCH   2   3
ATOM      3  C   UNL     1      -2.551  -3.040   5.762  1.00  0.00     0.117 C 
BRANCH   3   4
ATOM      4  N   UNL     1      -2.622  -2.871   4.319  1.00  0.00    -0.355 N 
ATOM      5  C   UNL     1      -1.998  -1.803   3.721  1.00  0.00     0.230 C 
ATOM      6  O   UNL     1      -0.784  -1.853   3.524  1.00  0.00    -0.274 OA
ATOM      7  H   UNL     1      -3.117  -3.522   3.771  1.00  0.00     0.163 HD
BRANCH   5   8
ATOM      8  C   UNL     1      -2.841  -0.602   3.267  1.00  0.00     0.137 C 
ATOM      9  C   UNL     1      -2.852  -0.482   1.704  1.00  0.00     0.138 C 
ATOM     10  N   UNL     1      -3.878  -1.383   1.151  1.00  0.00    -0.300 N 
ATOM     11  C   UNL     1      -4.290  -0.523   3.774  1.00  0.00    -0.020 A 
ATOM     12  C   UNL     1      -5.156  -0.863   1.414  1.00  0.00     0.259 C 
ATOM     13  C   UNL     1      -4.567  -0.330   5.134  1.00  0.00     0.005 A 
ATOM     14  C   UNL     1      -5.382  -0.608   2.876  1.00  0.00     0.044 A 
ATOM     15  O   UNL     1      -6.038  -0.701   0.582  1.00  0.00    -0.269 OA
ATOM     16  C   UNL     1      -5.888  -0.321   5.595  1.00  0.00     0.000 A 
ATOM     17  C   UNL     1      -6.702  -0.548   3.337  1.00  0.00     0.014 A 
ATOM     18  C   UNL     1      -6.952  -0.431   4.701  1.00  0.00     0.001 A 
BRANCH   9  19
ATOM     19  C   UNL     1      -1.538  -0.207   0.980  1.00  0.00    -0.024 A 
ATOM     20  C   UNL     1       2.529   0.344  -0.362  1.00  0.00     0.044 C 
ATOM     21  C   UNL     1       1.071   0.255  -0.023  1.00  0.00    -0.051 A 
ATOM     22  C   UNL     1       0.270  -0.761  -0.549  1.00  0.00     0.004 A 
ATOM     23  C   UNL     1       0.517   1.128   0.911  1.00  0.00     0.004 A 
ATOM     24  C   UNL     1      -1.042  -0.948  -0.095  1.00  0.00     0.006 A 
ATOM     25  C   UNL     1      -0.767   0.895   1.407  1.00  0.00     0.006 A 
ENDBRANCH   9  19
BRANCH  10  26
ATOM     26  C   UNL     1      -3.773  -2.833   1.166  1.00  0.00     0.045 A 
ATOM     27  C   UNL     1      -4.944  -3.615   1.274  1.00  0.00     0.026 A 
ATOM     28  C   UNL     1      -2.558  -3.526   1.190  1.00  0.00     0.026 A 
ATOM     29  C   UNL     1      -4.897  -4.997   1.483  1.00  0.00     0.002 A 
ATOM     30  C   UNL     1      -2.508  -4.919   1.348  1.00  0.00     0.002 A 
ATOM     31  C   UNL     1      -3.675  -5.651   1.521  1.00  0.00     0.000 A 
ENDBRANCH  10  26
ENDBRANCH   5   8
ENDBRANCH   3   4
ENDBRANCH   2   3
ENDBRANCH   1   2
BRANCH   1  32
ATOM     32  N   UNL     1      -4.377  -4.987   8.078  1.00  0.00    -0.352 N 
ATOM     33  C   UNL     1      -4.957  -6.048   8.745  1.00  0.00     0.251 C 
ATOM     34  H   UNL     1      -3.990  -4.292   8.658  1.00  0.00     0.163 HD
ATOM     35  O   UNL     1      -5.103  -5.981   9.965  1.00  0.00    -0.269 OA
BRANCH  33  36
ATOM     36  C   UNL     1      -5.271  -7.286   8.002  1.00  0.00     0.039 A 
ATOM     37  C   UNL     1      -4.740  -8.488   8.482  1.00  0.00     0.014 A 
ATOM     38  C   UNL     1      -5.867  -7.233   6.746  1.00  0.00     0.014 A 
ATOM     39  C   UNL     1      -4.576  -9.561   7.611  1.00  0.00     0.010 A 
ATOM     40  C   UNL     1      -5.622  -8.252   5.854  1.00  0.00     0.010 A 
ATOM     41  C   UNL     1      -4.921  -9.385   6.274  1.00  0.00    -0.014 A 
BRANCH  41  42
ATOM     42  C   UNL     1      -4.568 -10.309   5.214  1.00  0.00     0.031 A 
ATOM     43  C   UNL     1      -5.474 -11.414   4.872  1.00  0.00     0.074 A 
ATOM     44  C   UNL     1      -3.478 -10.045   4.463  1.00  0.00     0.049 A 
ATOM     45  N   UNL     1      -5.095 -12.498   4.290  1.00  0.00    -0.248 NA
ATOM     46  C   UNL     1      -6.896 -11.375   5.186  1.00  0.00     0.031 C 
ATOM     47  C   UNL     1      -3.135 -10.612   3.166  1.00  0.00     0.029 A 
ATOM     48  N   UNL     1      -2.334  -9.336   4.844  1.00  0.00    -0.354 N 
ATOM     49  C   UNL     1      -6.236 -13.168   3.909  1.00  0.00     0.074 A 
ATOM     50  C   UNL     1      -7.326 -12.472   4.556  1.00  0.00     0.031 C 
ATOM     51  C   UNL     1      -1.813 -10.478   2.977  1.00  0.00     0.029 A 
ATOM     52  C   UNL     1      -1.251  -9.979   4.222  1.00  0.00     0.049 A 
ATOM     53  H   UNL     1      -2.296  -8.546   5.430  1.00  0.00     0.167 HD
ATOM     54  C   UNL     1      -6.161 -14.126   2.943  1.00  0.00     0.034 A 
ATOM     55  C   UNL     1      -0.209 -10.536   4.907  1.00  0.00     0.034 A 
ATOM     56  C   UNL     1      -4.785 -14.282   2.462  1.00  0.00     0.049 A 
ATOM     57  C   UNL     1      -0.037 -12.016   4.616  1.00  0.00     0.074 A 
ATOM     58  C   UNL     1      -4.105 -13.723   1.391  1.00  0.00     0.029 A 
ATOM     59  N   UNL     1      -3.820 -14.844   3.288  1.00  0.00    -0.354 N 
ATOM     60  N   UNL     1      -0.897 -12.734   3.947  1.00  0.00    -0.248 NA
ATOM     61  C   UNL     1       1.098 -12.810   5.077  1.00  0.00     0.031 C 
ATOM     62  C   UNL     1      -2.715 -13.892   1.613  1.00  0.00     0.029 A 
ATOM     63  C   UNL     1      -2.547 -14.575   2.804  1.00  0.00     0.049 A 
ATOM     64  H   UNL     1      -4.012 -15.361   4.103  1.00  0.00     0.167 HD
ATOM     65  C   UNL     1      -0.535 -14.057   3.984  1.00  0.00     0.074 A 
ATOM     66  C   UNL     1       0.764 -14.037   4.636  1.00  0.00     0.031 C 
ATOM     67  C   UNL     1      -1.367 -15.045   3.524  1.00  0.00     0.034 A 
BRANCH  54  68
ATOM     68  C   UNL     1      -7.376 -14.620   2.185  1.00  0.00     0.023 A 
ATOM     69  C   UNL     1      -7.212 -14.926   0.816  1.00  0.00     0.012 A 
ATOM     70  C   UNL     1      -8.685 -14.738   2.703  1.00  0.00     0.148 A 
ATOM     71  C   UNL     1      -8.292 -15.214  -0.022  1.00  0.00     0.002 A 
ATOM     72  C   UNL     1      -9.775 -14.954   1.852  1.00  0.00     0.091 A 
ATOM     73  F   UNL     1      -8.875 -14.699   4.028  1.00  0.00    -0.205 F 
ATOM     74  C   UNL     1      -9.580 -15.188   0.487  1.00  0.00     0.022 A 
BRANCH  72  75
ATOM     75  S   UNL     1     -11.480 -14.814   2.416  1.00  0.00     0.127 S 
ATOM     76  O   UNL     1     -12.096 -14.013   1.355  1.00  0.00    -0.237 OA
ATOM     77  O   UNL     1     -11.918 -16.206   2.455  1.00  0.00    -0.237 OA
ATOM     78  O   UNL     1     -11.413 -14.130   3.703  1.00  0.00    -0.744 OA
ENDBRANCH  72  75
ENDBRANCH  54  68
BRANCH  55  79
ATOM     79  C   UNL     1       0.070  -9.868   6.213  1.00  0.00     0.023 A 
ATOM     80  C   UNL     1       0.432  -8.499   6.163  1.00  0.00     0.012 A 
ATOM     81  C   UNL     1      -0.399 -10.399   7.427  1.00  0.00     0.148 A 
ATOM     82  C   UNL     1       0.182  -7.649   7.241  1.00  0.00     0.002 A 
ATOM     83  C   UNL     1      -0.635  -9.544   8.504  1.00  0.00     0.091 A 
ATOM     84  F   UNL     1      -0.682 -11.706   7.492  1.00  0.00    -0.205 F 
ATOM     85  C   UNL     1      -0.389  -8.166   8.398  1.00  0.00     0.022 A 
BRANCH  83  86
ATOM     86  S   UNL     1      -1.384 -10.151  10.022  1.00  0.00     0.127 S 
ATOM     87  O   UNL     1      -0.207 -10.530  10.797  1.00  0.00    -0.237 OA
ATOM     88  O   UNL     1      -2.092  -8.973  10.521  1.00  0.00    -0.237 OA
ATOM     89  O   UNL     1      -2.257 -11.232   9.589  1.00  0.00    -0.744 OA
ENDBRANCH  83  86
ENDBRANCH  55  79
BRANCH  67  90
ATOM     90  C   UNL     1      -1.173 -16.544   3.700  1.00  0.00     0.023 A 
ATOM     91  C   UNL     1      -0.315 -17.091   4.671  1.00  0.00     0.012 A 
ATOM     92  C   UNL     1      -1.974 -17.469   2.975  1.00  0.00     0.148 A 
ATOM     93  C   UNL     1      -0.216 -18.473   4.883  1.00  0.00     0.002 A 
ATOM     94  C   UNL     1      -1.960 -18.829   3.272  1.00  0.00     0.091 A 
ATOM     95  F   UNL     1      -2.746 -17.042   1.965  1.00  0.00    -0.205 F 
ATOM     96  C   UNL     1      -1.059 -19.341   4.204  1.00  0.00     0.022 A 
BRANCH  94  97
ATOM     97  S   UNL     1      -3.207 -19.936   2.595  1.00  0.00     0.127 S 
ATOM     98  O   UNL     1      -2.542 -20.451   1.401  1.00  0.00    -0.237 OA
ATOM     99  O   UNL     1      -3.375 -20.918   3.668  1.00  0.00    -0.237 OA
ATOM    100  O   UNL     1      -4.375 -19.094   2.372  1.00  0.00    -0.744 OA
ENDBRANCH  94  97
ENDBRANCH  67  90
ENDBRANCH  41  42
ENDBRANCH  33  36
ENDBRANCH   1  32
TORSDOF 15
