REMARK SMILES CCCC[C@H]([NH3+])C(=O)Nc1snc(C)c1C(=O)NCCCNC(=O)c1ccc(-c2c3nc(c(-c4cccc(S(=O)(=O)[O-])c4F)c4ccc([nH]4)c(-c4cccc(S(=O)(=O)[O-])c4F)c4nc(c(-c5cccc(S(=O)(=O)[O-])c5F)c5ccc2[nH]5)C=C4)C=C3)cc1
REMARK SMILES IDX 19 1 18 2 16 3 17 4 15 6 10 7 11 8 12 9 13 10 14 11 9 12
REMARK SMILES IDX 7 13 8 14 5 16 4 17 3 18 2 19 1 20 6 21 20 25 21 26 22 27
REMARK SMILES IDX 23 28 24 30 25 31 26 32 87 33 27 34 86 35 28 36 29 37 30 38
REMARK SMILES IDX 80 39 31 40 85 41 79 42 81 43 32 44 84 45 78 46 77 47 33 49
REMARK SMILES IDX 65 50 45 51 64 52 46 53 49 54 63 55 82 56 47 57 48 58 62 60
REMARK SMILES IDX 83 61 50 62 34 63 35 64 43 65 36 66 38 67 44 68 37 69 39 70
REMARK SMILES IDX 40 71 41 72 42 73 66 74 67 75 75 76 68 77 70 78 76 79 69 80
REMARK SMILES IDX 71 81 72 82 73 83 74 84 51 85 52 86 60 87 53 88 55 89 61 90
REMARK SMILES IDX 54 91 56 92 57 93 58 94 59 95
REMARK H PARENT 18 5 9 15 6 22 6 23 6 24 22 29 81 48 49 59
REMARK Flexibility Score: inf
ROOT
ATOM      1  C   UNL     1       0.703  -3.624   0.267  1.00  0.00     0.118 C 
ENDROOT
BRANCH   1   2
ATOM      2  N   UNL     1       1.893  -3.780  -0.549  1.00  0.00    -0.352 N 
ATOM      3  C   UNL     1       2.041  -3.585  -1.903  1.00  0.00     0.256 C 
ATOM      4  O   UNL     1       2.972  -2.864  -2.258  1.00  0.00    -0.269 OA
ATOM      5  H   UNL     1       2.704  -4.063  -0.069  1.00  0.00     0.163 HD
BRANCH   3   6
ATOM      6  C   UNL     1       1.299  -4.391  -2.870  1.00  0.00     0.097 A 
ATOM      7  C   UNL     1       0.067  -5.003  -2.752  1.00  0.00     0.129 A 
ATOM      8  S   UNL     1       0.041  -6.341  -3.820  1.00  0.00    -0.017 S 
ATOM      9  N   UNL     1       1.202  -5.740  -4.827  1.00  0.00    -0.195 NA
ATOM     10  C   UNL     1       1.795  -4.711  -4.210  1.00  0.00     0.066 A 
ATOM     11  C   UNL     1       2.891  -4.039  -4.972  1.00  0.00     0.069 C 
BRANCH   7  12
ATOM     12  N   UNL     1      -1.081  -4.881  -2.022  1.00  0.00    -0.311 N 
ATOM     13  C   UNL     1      -1.844  -3.781  -1.751  1.00  0.00     0.283 C 
ATOM     14  O   UNL     1      -2.841  -3.990  -1.039  1.00  0.00    -0.268 OA
ATOM     15  H   UNL     1      -1.412  -5.720  -1.628  1.00  0.00     0.171 HD
BRANCH  13  16
ATOM     16  C   UNL     1      -1.660  -2.371  -2.368  1.00  0.00     0.271 C 
BRANCH  16  17
ATOM     17  C   UNL     1      -2.386  -2.137  -3.701  1.00  0.00     0.075 C 
BRANCH  17  18
ATOM     18  C   UNL     1      -2.313  -3.233  -4.768  1.00  0.00     0.006 C 
BRANCH  18  19
ATOM     19  C   UNL     1      -3.175  -4.485  -4.549  1.00  0.00    -0.003 C 
ATOM     20  C   UNL     1      -4.576  -4.243  -4.012  1.00  0.00     0.004 C 
ENDBRANCH  18  19
ENDBRANCH  17  18
ENDBRANCH  16  17
BRANCH  16  21
ATOM     21  N   UNL     1      -0.274  -1.904  -2.438  1.00  0.00    -0.347 N 
ATOM     22  H   UNL     1       0.239  -2.463  -3.119  1.00  0.00     0.345 HD
ATOM     23  H   UNL     1       0.164  -2.000  -1.521  1.00  0.00     0.345 HD
ATOM     24  H   UNL     1      -0.259  -0.924  -2.721  1.00  0.00     0.345 HD
ENDBRANCH  16  21
ENDBRANCH  13  16
ENDBRANCH   7  12
ENDBRANCH   3   6
ENDBRANCH   1   2
BRANCH   1  25
ATOM     25  C   UNL     1       0.174  -4.891   0.937  1.00  0.00     0.042 C 
BRANCH  25  26
ATOM     26  C   UNL     1      -0.314  -4.689   2.379  1.00  0.00     0.118 C 
BRANCH  26  27
ATOM     27  N   UNL     1      -1.462  -3.781   2.540  1.00  0.00    -0.352 N 
ATOM     28  C   UNL     1      -1.693  -2.880   3.584  1.00  0.00     0.251 C 
ATOM     29  H   UNL     1      -2.145  -3.812   1.832  1.00  0.00     0.163 HD
ATOM     30  O   UNL     1      -2.800  -2.475   3.866  1.00  0.00    -0.269 OA
BRANCH  28  31
ATOM     31  C   UNL     1      -0.501  -2.378   4.296  1.00  0.00     0.039 A 
ATOM     32  C   UNL     1      -0.335  -2.439   5.678  1.00  0.00     0.014 A 
ATOM     33  C   UNL     1       0.540  -2.001   3.464  1.00  0.00     0.014 A 
ATOM     34  C   UNL     1       0.950  -2.252   6.192  1.00  0.00     0.010 A 
ATOM     35  C   UNL     1       1.817  -2.076   3.937  1.00  0.00     0.010 A 
ATOM     36  C   UNL     1       2.035  -2.126   5.304  1.00  0.00    -0.014 A 
BRANCH  36  37
ATOM     37  C   UNL     1       3.422  -2.205   5.749  1.00  0.00     0.031 A 
ATOM     38  C   UNL     1       3.709  -3.386   6.607  1.00  0.00     0.074 A 
ATOM     39  C   UNL     1       4.409  -1.435   5.233  1.00  0.00     0.049 A 
ATOM     40  N   UNL     1       3.838  -3.399   7.893  1.00  0.00    -0.248 NA
ATOM     41  C   UNL     1       3.644  -4.729   6.009  1.00  0.00     0.031 C 
ATOM     42  C   UNL     1       4.336  -0.470   4.124  1.00  0.00     0.029 A 
ATOM     43  N   UNL     1       5.740  -1.454   5.505  1.00  0.00    -0.354 N 
ATOM     44  C   UNL     1       4.172  -4.712   8.217  1.00  0.00     0.074 A 
ATOM     45  C   UNL     1       3.768  -5.505   7.089  1.00  0.00     0.031 C 
ATOM     46  C   UNL     1       5.578  -0.210   3.660  1.00  0.00     0.029 A 
ATOM     47  C   UNL     1       6.539  -0.817   4.558  1.00  0.00     0.049 A 
ATOM     48  H   UNL     1       6.111  -1.885   6.309  1.00  0.00     0.167 HD
ATOM     49  C   UNL     1       5.033  -4.975   9.243  1.00  0.00     0.034 A 
ATOM     50  C   UNL     1       7.894  -0.808   4.513  1.00  0.00     0.034 A 
ATOM     51  C   UNL     1       5.252  -3.787  10.040  1.00  0.00     0.049 A 
ATOM     52  C   UNL     1       8.363  -1.150   5.875  1.00  0.00     0.074 A 
ATOM     53  C   UNL     1       4.444  -2.905  10.731  1.00  0.00     0.029 A 
ATOM     54  N   UNL     1       6.439  -3.125   9.832  1.00  0.00    -0.354 N 
ATOM     55  N   UNL     1       8.174  -0.382   6.910  1.00  0.00    -0.248 NA
ATOM     56  C   UNL     1       8.631  -2.547   6.166  1.00  0.00     0.031 C 
ATOM     57  C   UNL     1       5.001  -1.617  10.466  1.00  0.00     0.029 A 
ATOM     58  C   UNL     1       6.166  -1.790   9.716  1.00  0.00     0.049 A 
ATOM     59  H   UNL     1       7.331  -3.540   9.777  1.00  0.00     0.167 HD
ATOM     60  C   UNL     1       7.814  -1.262   7.921  1.00  0.00     0.074 A 
ATOM     61  C   UNL     1       8.225  -2.581   7.438  1.00  0.00     0.031 C 
ATOM     62  C   UNL     1       6.950  -0.881   8.908  1.00  0.00     0.034 A 
BRANCH  49  63
ATOM     63  C   UNL     1       6.011  -6.136   9.309  1.00  0.00     0.023 A 
ATOM     64  C   UNL     1       6.779  -6.250  10.493  1.00  0.00     0.012 A 
ATOM     65  C   UNL     1       6.422  -6.929   8.213  1.00  0.00     0.148 A 
ATOM     66  C   UNL     1       7.939  -7.030  10.553  1.00  0.00     0.002 A 
ATOM     67  C   UNL     1       7.534  -7.761   8.299  1.00  0.00     0.091 A 
ATOM     68  F   UNL     1       5.825  -6.805   7.028  1.00  0.00    -0.205 F 
ATOM     69  C   UNL     1       8.318  -7.787   9.454  1.00  0.00     0.022 A 
BRANCH  67  70
ATOM     70  S   UNL     1       8.047  -8.799   6.922  1.00  0.00     0.127 S 
ATOM     71  O   UNL     1       9.275  -8.132   6.499  1.00  0.00    -0.237 OA
ATOM     72  O   UNL     1       8.235 -10.091   7.580  1.00  0.00    -0.237 OA
ATOM     73  O   UNL     1       6.944  -8.767   5.970  1.00  0.00    -0.744 OA
ENDBRANCH  67  70
ENDBRANCH  49  63
BRANCH  50  74
ATOM     74  C   UNL     1       8.837  -0.757   3.371  1.00  0.00     0.023 A 
ATOM     75  C   UNL     1      10.182  -0.399   3.603  1.00  0.00     0.012 A 
ATOM     76  C   UNL     1       8.513  -1.371   2.142  1.00  0.00     0.148 A 
ATOM     77  C   UNL     1      11.182  -0.698   2.670  1.00  0.00     0.002 A 
ATOM     78  C   UNL     1       9.513  -1.671   1.219  1.00  0.00     0.091 A 
ATOM     79  F   UNL     1       7.246  -1.747   1.926  1.00  0.00    -0.205 F 
ATOM     80  C   UNL     1      10.850  -1.349   1.486  1.00  0.00     0.022 A 
BRANCH  78  81
ATOM     81  S   UNL     1       9.176  -2.559  -0.308  1.00  0.00     0.127 S 
ATOM     82  O   UNL     1       9.870  -1.735  -1.298  1.00  0.00    -0.237 OA
ATOM     83  O   UNL     1       9.797  -3.854  -0.045  1.00  0.00    -0.237 OA
ATOM     84  O   UNL     1       7.725  -2.571  -0.444  1.00  0.00    -0.744 OA
ENDBRANCH  78  81
ENDBRANCH  50  74
BRANCH  62  85
ATOM     85  C   UNL     1       6.619   0.586   9.034  1.00  0.00     0.023 A 
ATOM     86  C   UNL     1       5.965   1.322   8.023  1.00  0.00     0.012 A 
ATOM     87  C   UNL     1       6.848   1.200  10.276  1.00  0.00     0.148 A 
ATOM     88  C   UNL     1       5.573   2.648   8.241  1.00  0.00     0.002 A 
ATOM     89  C   UNL     1       6.416   2.499  10.505  1.00  0.00     0.091 A 
ATOM     90  F   UNL     1       7.472   0.489  11.227  1.00  0.00    -0.205 F 
ATOM     91  C   UNL     1       5.787   3.232   9.487  1.00  0.00     0.022 A 
BRANCH  89  92
ATOM     92  S   UNL     1       6.565   3.253  12.125  1.00  0.00     0.127 S 
ATOM     93  O   UNL     1       7.714   4.138  11.945  1.00  0.00    -0.237 OA
ATOM     94  O   UNL     1       5.280   3.938  12.275  1.00  0.00    -0.237 OA
ATOM     95  O   UNL     1       6.759   2.150  13.060  1.00  0.00    -0.744 OA
ENDBRANCH  89  92
ENDBRANCH  62  85
ENDBRANCH  36  37
ENDBRANCH  28  31
ENDBRANCH  26  27
ENDBRANCH  25  26
ENDBRANCH   1  25
TORSDOF 19
