REMARK SMILES NS(=O)(=O)c1ccc(C#Cc2cc(Cl)cc3c2O[C@H](C(F)(F)F)C(C(=O)NCCCNC(=O)c2ccc(-c4c5nc(c(-c6cccc(S(=O)(=O)[O-])c6F)c6ccc([nH]6)c(-c6cccc(S(=O)(=O)[O-])c6F)c6nc(c(-c7cccc(S(=O)(=O)[O-])c7F)c7ccc4[nH]7)C=C6)C=C5)cc2)=C3)cc1
REMARK SMILES IDX 28 1 27 2 25 3 26 4 24 6 11 7 12 8 17 9 13 10 16 11 18 12
REMARK SMILES IDX 14 13 15 14 97 15 19 16 10 17 9 18 8 19 5 20 6 21 99 22 7 23
REMARK SMILES IDX 98 24 2 25 3 26 4 27 1 28 20 31 21 32 22 33 23 34 29 35
REMARK SMILES IDX 30 36 31 37 32 38 33 40 34 41 35 42 96 43 36 44 95 45 37 46
REMARK SMILES IDX 38 47 39 48 89 49 40 50 94 51 88 52 90 53 41 54 93 55 87 56
REMARK SMILES IDX 86 57 42 59 74 60 54 61 73 62 55 63 58 64 72 65 91 66 56 67
REMARK SMILES IDX 57 68 71 70 92 71 59 72 43 73 44 74 52 75 45 76 47 77 53 78
REMARK SMILES IDX 46 79 48 80 49 81 50 82 51 83 75 84 76 85 84 86 77 87 79 88
REMARK SMILES IDX 85 89 78 90 80 91 81 92 82 93 83 94 60 95 61 96 69 97 62 98
REMARK SMILES IDX 64 99 70 100 63 101 65 102 66 103 67 104 68 105
REMARK H PARENT 27 5 1 29 1 30 31 39 90 58 58 69
REMARK Flexibility Score: inf
ROOT
ATOM      1  C   UNL     1      -0.344  12.740  -0.692  1.00  0.00     0.118 C 
ENDROOT
BRANCH   1   2
ATOM      2  N   UNL     1       0.250  13.640   0.287  1.00  0.00    -0.352 N 
ATOM      3  C   UNL     1       1.136  13.548   1.307  1.00  0.00     0.251 C 
ATOM      4  O   UNL     1       1.406  14.606   1.882  1.00  0.00    -0.270 OA
ATOM      5  H   UNL     1      -0.081  14.561   0.178  1.00  0.00     0.163 HD
BRANCH   3   6
ATOM      6  C   UNL     1       1.780  12.280   1.753  1.00  0.00     0.067 C 
ATOM      7  C   UNL     1       3.357   8.693   3.265  1.00  0.00     0.069 A 
ATOM      8  C   UNL     1       4.352   8.730   4.240  1.00  0.00     0.041 A 
ATOM      9  C   UNL     1       2.811   9.894   2.793  1.00  0.00     0.143 A 
ATOM     10  C   UNL     1       4.773   9.962   4.747  1.00  0.00     0.043 A 
ATOM     11  C   UNL     1       3.222  11.128   3.308  1.00  0.00     0.020 A 
ATOM     12  O   UNL     1       1.828   9.801   1.848  1.00  0.00    -0.474 OA
ATOM     13  Cl  UNL     1       5.997  10.007   5.957  1.00  0.00    -0.084 Cl
ATOM     14  C   UNL     1       4.210  11.158   4.293  1.00  0.00     0.032 A 
ATOM     15  C   UNL     1       2.574  12.350   2.838  1.00  0.00     0.025 C 
ATOM     16  C   UNL     1       1.598  10.975   1.040  1.00  0.00     0.314 C 
BRANCH   7  17
ATOM     17  C   UNL     1       2.896   7.442   2.740  1.00  0.00    -0.058 C 
ATOM     18  C   UNL     1       2.460   6.438   2.239  1.00  0.00    -0.062 C 
BRANCH  18  19
ATOM     19  C   UNL     1       1.953   5.268   1.590  1.00  0.00     0.025 A 
ATOM     20  C   UNL     1       1.092   2.997   0.216  1.00  0.00     0.082 A 
ATOM     21  C   UNL     1       0.470   4.227  -0.021  1.00  0.00     0.023 A 
ATOM     22  C   UNL     1       2.108   2.886   1.169  1.00  0.00     0.023 A 
ATOM     23  C   UNL     1       0.907   5.365   0.665  1.00  0.00     0.018 A 
ATOM     24  C   UNL     1       2.537   4.026   1.855  1.00  0.00     0.018 A 
BRANCH  20  25
ATOM     25  S   UNL     1       0.600   1.606  -0.758  1.00  0.00     0.238 S 
ATOM     26  O   UNL     1       1.302   1.672  -2.019  1.00  0.00    -0.207 OA
ATOM     27  O   UNL     1      -0.830   1.449  -0.659  1.00  0.00    -0.207 OA
BRANCH  25  28
ATOM     28  N   UNL     1       1.244   0.270   0.039  1.00  0.00    -0.225 NA
ATOM     29  H   UNL     1       1.000  -0.580  -0.470  1.00  0.00     0.137 HD
ATOM     30  H   UNL     1       0.865   0.222   0.984  1.00  0.00     0.137 HD
ENDBRANCH  25  28
ENDBRANCH  20  25
ENDBRANCH  18  19
ENDBRANCH   7  17
BRANCH  16  31
ATOM     31  C   UNL     1       2.441  10.896  -0.250  1.00  0.00     0.429 C 
ATOM     32  F   UNL     1       1.985   9.909  -1.059  1.00  0.00    -0.167 F 
ATOM     33  F   UNL     1       2.393  12.040  -0.976  1.00  0.00    -0.167 F 
ATOM     34  F   UNL     1       3.748  10.652  -0.004  1.00  0.00    -0.167 F 
ENDBRANCH  16  31
ENDBRANCH   3   6
ENDBRANCH   1   2
BRANCH   1  35
ATOM     35  C   UNL     1      -1.808  12.467  -0.401  1.00  0.00     0.042 C 
BRANCH  35  36
ATOM     36  C   UNL     1      -2.694  13.583  -0.927  1.00  0.00     0.118 C 
BRANCH  36  37
ATOM     37  N   UNL     1      -2.623  13.700  -2.386  1.00  0.00    -0.352 N 
ATOM     38  C   UNL     1      -3.573  13.446  -3.348  1.00  0.00     0.251 C 
ATOM     39  H   UNL     1      -1.756  14.010  -2.734  1.00  0.00     0.163 HD
ATOM     40  O   UNL     1      -3.244  13.378  -4.527  1.00  0.00    -0.269 OA
BRANCH  38  41
ATOM     41  C   UNL     1      -4.971  13.232  -2.936  1.00  0.00     0.039 A 
ATOM     42  C   UNL     1      -5.507  14.009  -1.912  1.00  0.00     0.014 A 
ATOM     43  C   UNL     1      -5.725  12.213  -3.519  1.00  0.00     0.014 A 
ATOM     44  C   UNL     1      -6.674  13.600  -1.293  1.00  0.00     0.010 A 
ATOM     45  C   UNL     1      -6.978  11.901  -2.987  1.00  0.00     0.010 A 
ATOM     46  C   UNL     1      -7.429  12.544  -1.824  1.00  0.00    -0.014 A 
BRANCH  46  47
ATOM     47  C   UNL     1      -8.681  12.143  -1.135  1.00  0.00     0.031 A 
ATOM     48  C   UNL     1      -8.861  10.745  -0.607  1.00  0.00     0.074 A 
ATOM     49  C   UNL     1      -9.637  13.073  -0.935  1.00  0.00     0.049 A 
ATOM     50  N   UNL     1      -9.888  10.239   0.027  1.00  0.00    -0.248 NA
ATOM     51  C   UNL     1      -7.760   9.787  -0.810  1.00  0.00     0.031 C 
ATOM     52  C   UNL     1      -9.573  14.462  -1.400  1.00  0.00     0.029 A 
ATOM     53  N   UNL     1     -10.836  13.001  -0.277  1.00  0.00    -0.354 N 
ATOM     54  C   UNL     1      -9.579   8.904   0.254  1.00  0.00     0.074 A 
ATOM     55  C   UNL     1      -8.270   8.669  -0.311  1.00  0.00     0.031 C 
ATOM     56  C   UNL     1     -10.656  15.123  -0.970  1.00  0.00     0.029 A 
ATOM     57  C   UNL     1     -11.530  14.188  -0.274  1.00  0.00     0.049 A 
ATOM     58  H   UNL     1     -11.169  12.180   0.152  1.00  0.00     0.167 HD
ATOM     59  C   UNL     1     -10.316   7.965   0.889  1.00  0.00     0.034 A 
ATOM     60  C   UNL     1     -12.749  14.492   0.207  1.00  0.00     0.034 A 
ATOM     61  C   UNL     1     -11.597   8.214   1.490  1.00  0.00     0.049 A 
ATOM     62  C   UNL     1     -13.552  13.426   0.885  1.00  0.00     0.074 A 
ATOM     63  C   UNL     1     -12.395   7.331   2.196  1.00  0.00     0.029 A 
ATOM     64  N   UNL     1     -12.268   9.425   1.456  1.00  0.00    -0.354 N 
ATOM     65  N   UNL     1     -13.214  12.186   1.139  1.00  0.00    -0.248 NA
ATOM     66  C   UNL     1     -14.894  13.796   1.352  1.00  0.00     0.031 C 
ATOM     67  C   UNL     1     -13.564   8.001   2.563  1.00  0.00     0.029 A 
ATOM     68  C   UNL     1     -13.477   9.309   2.116  1.00  0.00     0.049 A 
ATOM     69  H   UNL     1     -11.934  10.245   1.026  1.00  0.00     0.167 HD
ATOM     70  C   UNL     1     -14.293  11.630   1.812  1.00  0.00     0.074 A 
ATOM     71  C   UNL     1     -15.291  12.672   1.938  1.00  0.00     0.031 C 
ATOM     72  C   UNL     1     -14.443  10.365   2.270  1.00  0.00     0.034 A 
BRANCH  59  73
ATOM     73  C   UNL     1      -9.756   6.574   1.009  1.00  0.00     0.023 A 
ATOM     74  C   UNL     1      -8.766   6.303   1.973  1.00  0.00     0.012 A 
ATOM     75  C   UNL     1     -10.303   5.515   0.256  1.00  0.00     0.148 A 
ATOM     76  C   UNL     1      -8.326   4.997   2.186  1.00  0.00     0.002 A 
ATOM     77  C   UNL     1      -9.881   4.214   0.494  1.00  0.00     0.091 A 
ATOM     78  F   UNL     1     -11.239   5.803  -0.659  1.00  0.00    -0.205 F 
ATOM     79  C   UNL     1      -8.892   3.953   1.457  1.00  0.00     0.022 A 
BRANCH  77  80
ATOM     80  S   UNL     1     -10.577   2.793  -0.356  1.00  0.00     0.127 S 
ATOM     81  O   UNL     1      -9.412   2.286  -1.081  1.00  0.00    -0.237 OA
ATOM     82  O   UNL     1     -11.016   1.954   0.758  1.00  0.00    -0.237 OA
ATOM     83  O   UNL     1     -11.648   3.309  -1.198  1.00  0.00    -0.744 OA
ENDBRANCH  77  80
ENDBRANCH  59  73
BRANCH  60  84
ATOM     84  C   UNL     1     -13.255  15.883   0.067  1.00  0.00     0.023 A 
ATOM     85  C   UNL     1     -13.284  16.724   1.193  1.00  0.00     0.012 A 
ATOM     86  C   UNL     1     -13.615  16.398  -1.195  1.00  0.00     0.148 A 
ATOM     87  C   UNL     1     -13.668  18.059   1.067  1.00  0.00     0.002 A 
ATOM     88  C   UNL     1     -13.961  17.736  -1.320  1.00  0.00     0.091 A 
ATOM     89  F   UNL     1     -13.566  15.574  -2.251  1.00  0.00    -0.205 F 
ATOM     90  C   UNL     1     -13.995  18.567  -0.189  1.00  0.00     0.022 A 
BRANCH  88  91
ATOM     91  S   UNL     1     -14.313  18.503  -2.905  1.00  0.00     0.127 S 
ATOM     92  O   UNL     1     -15.704  18.915  -2.732  1.00  0.00    -0.237 OA
ATOM     93  O   UNL     1     -13.343  19.597  -2.928  1.00  0.00    -0.237 OA
ATOM     94  O   UNL     1     -14.088  17.469  -3.906  1.00  0.00    -0.744 OA
ENDBRANCH  88  91
ENDBRANCH  60  84
BRANCH  72  95
ATOM     95  C   UNL     1     -15.720  10.015   2.979  1.00  0.00     0.023 A 
ATOM     96  C   UNL     1     -16.882   9.759   2.228  1.00  0.00     0.012 A 
ATOM     97  C   UNL     1     -15.724   9.800   4.371  1.00  0.00     0.148 A 
ATOM     98  C   UNL     1     -18.035   9.290   2.855  1.00  0.00     0.002 A 
ATOM     99  C   UNL     1     -16.866   9.302   4.984  1.00  0.00     0.091 A 
ATOM    100  F   UNL     1     -14.601  10.055   5.058  1.00  0.00    -0.205 F 
ATOM    101  C   UNL     1     -18.022   9.048   4.228  1.00  0.00     0.022 A 
BRANCH  99 102
ATOM    102  S   UNL     1     -16.930   8.903   6.733  1.00  0.00     0.127 S 
ATOM    103  O   UNL     1     -17.938   9.847   7.216  1.00  0.00    -0.237 OA
ATOM    104  O   UNL     1     -17.361   7.506   6.715  1.00  0.00    -0.237 OA
ATOM    105  O   UNL     1     -15.585   9.122   7.250  1.00  0.00    -0.744 OA
ENDBRANCH  99 102
ENDBRANCH  72  95
ENDBRANCH  46  47
ENDBRANCH  38  41
ENDBRANCH  36  37
ENDBRANCH  35  36
ENDBRANCH   1  35
TORSDOF 18
