REMARK SMILES O=C(NCCCNC(=O)c1ccc(-c2c3nc(c(-c4cccc(S(=O)(=O)[O-])c4F)c4ccc([nH]4)c(-c4cccc(S(=O)(=O)[O-])c4F)c4nc(c(-c5cccc(S(=O)(=O)[O-])c5F)c5ccc2[nH]5)C=C4)C=C3)cc1)c1ccc(NC(=O)c2cc(F)cc(Br)c2)cc1
REMARK SMILES IDX 5 1 4 2 3 3 1 4 2 5 73 7 74 8 89 9 75 10 88 11 76 12 77 13
REMARK SMILES IDX 78 14 79 16 80 17 81 18 87 19 82 20 85 21 83 22 84 23 86 24
REMARK SMILES IDX 6 25 7 26 8 27 9 29 10 30 11 31 72 32 12 33 71 34 13 35
REMARK SMILES IDX 14 36 15 37 65 38 16 39 70 40 64 41 66 42 17 43 69 44 63 45
REMARK SMILES IDX 62 46 18 48 50 49 30 50 49 51 31 52 34 53 48 54 67 55 32 56
REMARK SMILES IDX 33 57 47 59 68 60 35 61 19 62 20 63 28 64 21 65 23 66 29 67
REMARK SMILES IDX 22 68 24 69 25 70 26 71 27 72 51 73 52 74 60 75 53 76 55 77
REMARK SMILES IDX 61 78 54 79 56 80 57 81 58 82 59 83 36 84 37 85 45 86 38 87
REMARK SMILES IDX 40 88 46 89 39 90 41 91 42 92 43 93 44 94
REMARK H PARENT 3 6 77 15 7 28 66 47 34 58
REMARK Flexibility Score: inf
ROOT
ATOM      1  C   UNL     1       4.667   1.450  -2.147  1.00  0.00     0.042 C 
ENDROOT
BRANCH   1   2
ATOM      2  C   UNL     1       4.245   1.189  -0.716  1.00  0.00     0.118 C 
BRANCH   2   3
ATOM      3  N   UNL     1       2.815   0.925  -0.564  1.00  0.00    -0.352 N 
ATOM      4  O   UNL     1       0.953  -0.265  -0.072  1.00  0.00    -0.269 OA
ATOM      5  C   UNL     1       2.176  -0.167  -0.020  1.00  0.00     0.251 C 
ATOM      6  H   UNL     1       2.221   1.634  -0.899  1.00  0.00     0.163 HD
BRANCH   5   7
ATOM      7  C   UNL     1       2.970  -1.233   0.624  1.00  0.00     0.039 A 
ATOM      8  C   UNL     1       4.031  -0.894   1.452  1.00  0.00     0.016 A 
ATOM      9  C   UNL     1       2.704  -2.577   0.362  1.00  0.00     0.016 A 
ATOM     10  C   UNL     1       4.934  -1.871   1.849  1.00  0.00     0.027 A 
ATOM     11  C   UNL     1       3.554  -3.567   0.881  1.00  0.00     0.027 A 
ATOM     12  C   UNL     1       4.692  -3.221   1.626  1.00  0.00     0.041 A 
BRANCH  12  13
ATOM     13  N   UNL     1       5.516  -4.267   2.092  1.00  0.00    -0.322 N 
ATOM     14  C   UNL     1       6.640  -4.303   2.893  1.00  0.00     0.255 C 
ATOM     15  H   UNL     1       5.229  -5.157   1.783  1.00  0.00     0.170 HD
ATOM     16  O   UNL     1       7.220  -5.367   3.101  1.00  0.00    -0.269 OA
BRANCH  14  17
ATOM     17  C   UNL     1       7.193  -3.092   3.521  1.00  0.00     0.044 A 
ATOM     18  C   UNL     1       8.431  -2.622   3.076  1.00  0.00     0.053 A 
ATOM     19  C   UNL     1       6.457  -2.383   4.480  1.00  0.00     0.029 A 
ATOM     20  C   UNL     1       8.883  -1.391   3.533  1.00  0.00     0.125 A 
ATOM     21  C   UNL     1       6.917  -1.131   4.892  1.00  0.00     0.021 A 
ATOM     22  F   UNL     1      10.046  -0.906   3.081  1.00  0.00    -0.207 F 
ATOM     23  C   UNL     1       8.127  -0.626   4.417  1.00  0.00     0.055 A 
ATOM     24  Br  UNL     1       5.834  -0.061   6.012  1.00  0.00    -0.051 Br
ENDBRANCH  14  17
ENDBRANCH  12  13
ENDBRANCH   5   7
ENDBRANCH   2   3
ENDBRANCH   1   2
BRANCH   1  25
ATOM     25  C   UNL     1       4.118   2.742  -2.720  1.00  0.00     0.118 C 
BRANCH  25  26
ATOM     26  N   UNL     1       4.644   3.929  -2.053  1.00  0.00    -0.352 N 
ATOM     27  C   UNL     1       5.508   4.899  -2.503  1.00  0.00     0.251 C 
ATOM     28  H   UNL     1       4.328   4.055  -1.129  1.00  0.00     0.163 HD
ATOM     29  O   UNL     1       5.955   5.724  -1.710  1.00  0.00    -0.269 OA
BRANCH  27  30
ATOM     30  C   UNL     1       5.921   4.939  -3.924  1.00  0.00     0.039 A 
ATOM     31  C   UNL     1       7.249   5.240  -4.243  1.00  0.00     0.014 A 
ATOM     32  C   UNL     1       5.005   4.681  -4.944  1.00  0.00     0.014 A 
ATOM     33  C   UNL     1       7.672   5.191  -5.575  1.00  0.00     0.010 A 
ATOM     34  C   UNL     1       5.450   4.521  -6.250  1.00  0.00     0.010 A 
ATOM     35  C   UNL     1       6.785   4.785  -6.585  1.00  0.00    -0.014 A 
BRANCH  35  36
ATOM     36  C   UNL     1       7.213   4.630  -7.999  1.00  0.00     0.031 A 
ATOM     37  C   UNL     1       6.534   5.431  -9.079  1.00  0.00     0.074 A 
ATOM     38  C   UNL     1       8.120   3.688  -8.325  1.00  0.00     0.049 A 
ATOM     39  N   UNL     1       6.665   5.344 -10.377  1.00  0.00    -0.248 NA
ATOM     40  C   UNL     1       5.545   6.434  -8.645  1.00  0.00     0.031 C 
ATOM     41  C   UNL     1       8.786   2.786  -7.382  1.00  0.00     0.029 A 
ATOM     42  N   UNL     1       8.615   3.309  -9.549  1.00  0.00    -0.354 N 
ATOM     43  C   UNL     1       5.744   6.237 -10.912  1.00  0.00     0.074 A 
ATOM     44  C   UNL     1       5.035   6.831  -9.801  1.00  0.00     0.031 C 
ATOM     45  C   UNL     1       9.606   1.967  -8.059  1.00  0.00     0.029 A 
ATOM     46  C   UNL     1       9.504   2.261  -9.484  1.00  0.00     0.049 A 
ATOM     47  H   UNL     1       8.357   3.745 -10.392  1.00  0.00     0.167 HD
ATOM     48  C   UNL     1       5.533   6.564 -12.208  1.00  0.00     0.034 A 
ATOM     49  C   UNL     1      10.162   1.610 -10.464  1.00  0.00     0.034 A 
ATOM     50  C   UNL     1       6.296   6.035 -13.304  1.00  0.00     0.049 A 
ATOM     51  C   UNL     1       9.966   2.048 -11.890  1.00  0.00     0.074 A 
ATOM     52  C   UNL     1       6.231   6.377 -14.643  1.00  0.00     0.029 A 
ATOM     53  N   UNL     1       7.275   5.061 -13.186  1.00  0.00    -0.354 N 
ATOM     54  N   UNL     1       9.200   3.002 -12.361  1.00  0.00    -0.248 NA
ATOM     55  C   UNL     1      10.749   1.344 -12.916  1.00  0.00     0.031 C 
ATOM     56  C   UNL     1       7.174   5.609 -15.335  1.00  0.00     0.029 A 
ATOM     57  C   UNL     1       7.826   4.792 -14.426  1.00  0.00     0.049 A 
ATOM     58  H   UNL     1       7.539   4.625 -12.343  1.00  0.00     0.167 HD
ATOM     59  C   UNL     1       9.434   3.037 -13.731  1.00  0.00     0.074 A 
ATOM     60  C   UNL     1      10.427   2.020 -14.011  1.00  0.00     0.031 C 
ATOM     61  C   UNL     1       8.862   3.824 -14.675  1.00  0.00     0.034 A 
BRANCH  48  62
ATOM     62  C   UNL     1       4.488   7.607 -12.502  1.00  0.00     0.023 A 
ATOM     63  C   UNL     1       4.758   8.957 -12.196  1.00  0.00     0.012 A 
ATOM     64  C   UNL     1       3.268   7.269 -13.119  1.00  0.00     0.148 A 
ATOM     65  C   UNL     1       3.819   9.950 -12.468  1.00  0.00     0.002 A 
ATOM     66  C   UNL     1       2.352   8.271 -13.424  1.00  0.00     0.091 A 
ATOM     67  F   UNL     1       3.017   5.978 -13.378  1.00  0.00    -0.205 F 
ATOM     68  C   UNL     1       2.622   9.609 -13.091  1.00  0.00     0.022 A 
BRANCH  66  69
ATOM     69  S   UNL     1       0.814   7.939 -14.290  1.00  0.00     0.127 S 
ATOM     70  O   UNL     1      -0.161   8.025 -13.204  1.00  0.00    -0.237 OA
ATOM     71  O   UNL     1       0.753   9.040 -15.252  1.00  0.00    -0.237 OA
ATOM     72  O   UNL     1       0.973   6.622 -14.890  1.00  0.00    -0.744 OA
ENDBRANCH  66  69
ENDBRANCH  48  62
BRANCH  49  73
ATOM     73  C   UNL     1      11.137   0.538 -10.119  1.00  0.00     0.023 A 
ATOM     74  C   UNL     1      12.515   0.797 -10.262  1.00  0.00     0.012 A 
ATOM     75  C   UNL     1      10.723  -0.710  -9.617  1.00  0.00     0.148 A 
ATOM     76  C   UNL     1      13.460  -0.176  -9.937  1.00  0.00     0.002 A 
ATOM     77  C   UNL     1      11.672  -1.657  -9.247  1.00  0.00     0.091 A 
ATOM     78  F   UNL     1       9.408  -0.947  -9.503  1.00  0.00    -0.205 F 
ATOM     79  C   UNL     1      13.041  -1.398  -9.420  1.00  0.00     0.022 A 
BRANCH  77  80
ATOM     80  S   UNL     1      11.216  -3.202  -8.450  1.00  0.00     0.127 S 
ATOM     81  O   UNL     1      11.319  -4.152  -9.553  1.00  0.00    -0.237 OA
ATOM     82  O   UNL     1      12.250  -3.336  -7.422  1.00  0.00    -0.237 OA
ATOM     83  O   UNL     1       9.878  -2.978  -7.919  1.00  0.00    -0.744 OA
ENDBRANCH  77  80
ENDBRANCH  49  73
BRANCH  61  84
ATOM     84  C   UNL     1       9.312   3.644 -16.099  1.00  0.00     0.023 A 
ATOM     85  C   UNL     1       8.859   2.530 -16.833  1.00  0.00     0.012 A 
ATOM     86  C   UNL     1      10.106   4.618 -16.734  1.00  0.00     0.148 A 
ATOM     87  C   UNL     1       9.210   2.377 -18.173  1.00  0.00     0.002 A 
ATOM     88  C   UNL     1      10.418   4.479 -18.081  1.00  0.00     0.091 A 
ATOM     89  F   UNL     1      10.544   5.659 -16.011  1.00  0.00    -0.205 F 
ATOM     90  C   UNL     1       9.977   3.356 -18.800  1.00  0.00     0.022 A 
BRANCH  88  91
ATOM     91  S   UNL     1      11.326   5.738 -18.986  1.00  0.00     0.127 S 
ATOM     92  O   UNL     1      12.659   5.144 -19.068  1.00  0.00    -0.237 OA
ATOM     93  O   UNL     1      10.604   5.793 -20.258  1.00  0.00    -0.237 OA
ATOM     94  O   UNL     1      11.224   6.951 -18.186  1.00  0.00    -0.744 OA
ENDBRANCH  88  91
ENDBRANCH  61  84
ENDBRANCH  35  36
ENDBRANCH  27  30
ENDBRANCH  25  26
ENDBRANCH   1  25
TORSDOF 15
