REMARK SMILES Cc1[nH]c(=O)sc1S(=O)(=O)NC1(CC(=O)NCCCNC(=O)c2ccc(-c3c4nc(c(-c5cccc(S(=O)(=O)[O-])c5F)c5ccc([nH]5)c(-c5cccc(S(=O)(=O)[O-])c5F)c5nc(c(-c6cccc(S(=O)(=O)[O-])c6F)c6ccc3[nH]6)C=C5)C=C4)cc2)CCC1
REMARK SMILES IDX 17 1 16 2 14 3 15 4 13 6 12 7 86 8 88 9 87 10 11 11 8 13
REMARK SMILES IDX 9 14 10 15 7 16 1 17 2 18 3 19 4 20 6 22 5 23 18 24 19 25
REMARK SMILES IDX 20 26 21 27 22 29 23 30 24 31 85 32 25 33 84 34 26 35 27 36
REMARK SMILES IDX 28 37 78 38 29 39 83 40 77 41 79 42 30 43 82 44 76 45 75 46
REMARK SMILES IDX 31 48 63 49 43 50 62 51 44 52 47 53 61 54 80 55 45 56 46 57
REMARK SMILES IDX 60 59 81 60 48 61 32 62 33 63 41 64 34 65 36 66 42 67 35 68
REMARK SMILES IDX 37 69 38 70 39 71 40 72 64 73 65 74 73 75 66 76 68 77 74 78
REMARK SMILES IDX 67 79 69 80 70 81 71 82 72 83 49 84 50 85 58 86 51 87 53 88
REMARK SMILES IDX 59 89 52 90 54 91 55 92 56 93 57 94
REMARK H PARENT 16 5 11 12 3 21 20 28 79 47 47 58
REMARK Flexibility Score: inf
ROOT
ATOM      1  C   UNL     1      -1.405   2.879  -4.154  1.00  0.00     0.117 C 
ENDROOT
BRANCH   1   2
ATOM      2  N   UNL     1      -0.011   3.138  -4.456  1.00  0.00    -0.356 N 
ATOM      3  C   UNL     1       1.060   2.300  -4.426  1.00  0.00     0.221 C 
ATOM      4  O   UNL     1       2.157   2.708  -4.806  1.00  0.00    -0.275 OA
ATOM      5  H   UNL     1       0.192   4.063  -4.724  1.00  0.00     0.163 HD
BRANCH   3   6
ATOM      6  C   UNL     1       0.901   0.861  -4.020  1.00  0.00     0.123 C 
BRANCH   6   7
ATOM      7  C   UNL     1       0.862   0.519  -2.521  1.00  0.00     0.042 C 
ATOM      8  C   UNL     1       0.926  -1.046  -2.383  1.00  0.00     0.024 C 
ATOM      9  C   UNL     1      -0.541   0.426  -1.853  1.00  0.00     0.024 C 
ATOM     10  C   UNL     1      -0.549  -1.087  -1.998  1.00  0.00     0.004 C 
BRANCH   7  11
ATOM     11  N   UNL     1       1.992   1.162  -1.745  1.00  0.00    -0.204 NA
ATOM     12  H   UNL     1       2.241   0.459  -1.049  1.00  0.00     0.142 HD
BRANCH  11  13
ATOM     13  S   UNL     1       2.064   2.635  -0.881  1.00  0.00     0.252 S 
ATOM     14  O   UNL     1       1.506   3.627  -1.774  1.00  0.00    -0.206 OA
ATOM     15  O   UNL     1       3.446   2.692  -0.456  1.00  0.00    -0.206 OA
BRANCH  13  16
ATOM     16  C   UNL     1       1.061   2.547   0.530  1.00  0.00     0.158 A 
ATOM     17  C   UNL     1       1.583   0.109   1.156  1.00  0.00     0.067 C 
ATOM     18  C   UNL     1       0.931   1.443   1.289  1.00  0.00     0.046 A 
ATOM     19  N   UNL     1       0.030   1.614   2.317  1.00  0.00    -0.315 N 
ATOM     20  C   UNL     1      -0.565   2.851   2.428  1.00  0.00     0.305 A 
ATOM     21  H   UNL     1      -0.179   0.885   2.944  1.00  0.00     0.170 HD
ATOM     22  S   UNL     1       0.069   3.863   1.141  1.00  0.00    -0.061 S 
ATOM     23  O   UNL     1      -1.410   3.167   3.232  1.00  0.00    -0.257 OA
ENDBRANCH  13  16
ENDBRANCH  11  13
ENDBRANCH   7  11
ENDBRANCH   6   7
ENDBRANCH   3   6
ENDBRANCH   1   2
BRANCH   1  24
ATOM     24  C   UNL     1      -1.781   3.205  -2.704  1.00  0.00     0.042 C 
BRANCH  24  25
ATOM     25  C   UNL     1      -2.010   4.674  -2.485  1.00  0.00     0.118 C 
BRANCH  25  26
ATOM     26  N   UNL     1      -3.286   5.135  -3.052  1.00  0.00    -0.352 N 
ATOM     27  C   UNL     1      -3.876   6.382  -2.909  1.00  0.00     0.251 C 
ATOM     28  H   UNL     1      -3.780   4.481  -3.596  1.00  0.00     0.163 HD
ATOM     29  O   UNL     1      -5.069   6.545  -3.133  1.00  0.00    -0.269 OA
BRANCH  27  30
ATOM     30  C   UNL     1      -3.017   7.503  -2.492  1.00  0.00     0.039 A 
ATOM     31  C   UNL     1      -3.438   8.553  -1.675  1.00  0.00     0.014 A 
ATOM     32  C   UNL     1      -1.698   7.430  -2.907  1.00  0.00     0.014 A 
ATOM     33  C   UNL     1      -2.487   9.498  -1.293  1.00  0.00     0.010 A 
ATOM     34  C   UNL     1      -0.749   8.070  -2.188  1.00  0.00     0.010 A 
ATOM     35  C   UNL     1      -1.139   9.239  -1.580  1.00  0.00    -0.014 A 
BRANCH  35  36
ATOM     36  C   UNL     1      -0.044  10.126  -1.247  1.00  0.00     0.031 A 
ATOM     37  C   UNL     1       0.093  10.345   0.205  1.00  0.00     0.074 A 
ATOM     38  C   UNL     1       0.900  10.463  -2.157  1.00  0.00     0.049 A 
ATOM     39  N   UNL     1      -0.229  11.407   0.862  1.00  0.00    -0.248 NA
ATOM     40  C   UNL     1       0.415   9.186   1.051  1.00  0.00     0.031 C 
ATOM     41  C   UNL     1       1.060   9.991  -3.546  1.00  0.00     0.029 A 
ATOM     42  N   UNL     1       2.024  11.201  -1.978  1.00  0.00    -0.354 N 
ATOM     43  C   UNL     1       0.129  11.133   2.176  1.00  0.00     0.074 A 
ATOM     44  C   UNL     1       0.243   9.703   2.269  1.00  0.00     0.031 C 
ATOM     45  C   UNL     1       2.317  10.249  -3.974  1.00  0.00     0.029 A 
ATOM     46  C   UNL     1       2.989  11.049  -2.971  1.00  0.00     0.049 A 
ATOM     47  H   UNL     1       2.148  11.798  -1.206  1.00  0.00     0.167 HD
ATOM     48  C   UNL     1       0.610  12.119   2.982  1.00  0.00     0.034 A 
ATOM     49  C   UNL     1       4.264  11.512  -2.930  1.00  0.00     0.034 A 
ATOM     50  C   UNL     1       0.387  13.421   2.394  1.00  0.00     0.049 A 
ATOM     51  C   UNL     1       4.285  12.595  -1.917  1.00  0.00     0.074 A 
ATOM     52  C   UNL     1      -0.723  14.128   1.975  1.00  0.00     0.029 A 
ATOM     53  N   UNL     1       1.463  14.002   1.764  1.00  0.00    -0.354 N 
ATOM     54  N   UNL     1       3.614  13.707  -2.043  1.00  0.00    -0.248 NA
ATOM     55  C   UNL     1       4.651  12.233  -0.557  1.00  0.00     0.031 C 
ATOM     56  C   UNL     1      -0.315  14.770   0.767  1.00  0.00     0.029 A 
ATOM     57  C   UNL     1       1.037  14.488   0.556  1.00  0.00     0.049 A 
ATOM     58  H   UNL     1       2.380  14.060   2.120  1.00  0.00     0.167 HD
ATOM     59  C   UNL     1       3.073  13.928  -0.782  1.00  0.00     0.074 A 
ATOM     60  C   UNL     1       3.829  13.048   0.112  1.00  0.00     0.031 C 
ATOM     61  C   UNL     1       1.872  14.562  -0.627  1.00  0.00     0.034 A 
BRANCH  48  62
ATOM     62  C   UNL     1       1.627  11.920   4.082  1.00  0.00     0.023 A 
ATOM     63  C   UNL     1       1.893  13.036   4.905  1.00  0.00     0.012 A 
ATOM     64  C   UNL     1       2.513  10.822   4.189  1.00  0.00     0.148 A 
ATOM     65  C   UNL     1       3.015  13.085   5.739  1.00  0.00     0.002 A 
ATOM     66  C   UNL     1       3.583  10.843   5.077  1.00  0.00     0.091 A 
ATOM     67  F   UNL     1       2.421   9.793   3.345  1.00  0.00    -0.205 F 
ATOM     68  C   UNL     1       3.858  11.985   5.828  1.00  0.00     0.022 A 
BRANCH  66  69
ATOM     69  S   UNL     1       4.683   9.433   5.266  1.00  0.00     0.127 S 
ATOM     70  O   UNL     1       5.893   9.919   4.609  1.00  0.00    -0.237 OA
ATOM     71  O   UNL     1       4.772   9.319   6.722  1.00  0.00    -0.237 OA
ATOM     72  O   UNL     1       4.006   8.315   4.621  1.00  0.00    -0.744 OA
ENDBRANCH  66  69
ENDBRANCH  48  62
BRANCH  49  73
ATOM     73  C   UNL     1       5.509  10.898  -3.457  1.00  0.00     0.023 A 
ATOM     74  C   UNL     1       6.666  11.685  -3.632  1.00  0.00     0.012 A 
ATOM     75  C   UNL     1       5.651   9.493  -3.514  1.00  0.00     0.148 A 
ATOM     76  C   UNL     1       7.923  11.094  -3.826  1.00  0.00     0.002 A 
ATOM     77  C   UNL     1       6.901   8.910  -3.712  1.00  0.00     0.091 A 
ATOM     78  F   UNL     1       4.576   8.729  -3.280  1.00  0.00    -0.205 F 
ATOM     79  C   UNL     1       8.042   9.708  -3.857  1.00  0.00     0.022 A 
BRANCH  77  80
ATOM     80  S   UNL     1       7.141   7.128  -3.737  1.00  0.00     0.127 S 
ATOM     81  O   UNL     1       7.913   6.946  -4.967  1.00  0.00    -0.237 OA
ATOM     82  O   UNL     1       7.894   6.908  -2.506  1.00  0.00    -0.237 OA
ATOM     83  O   UNL     1       5.804   6.553  -3.777  1.00  0.00    -0.744 OA
ENDBRANCH  77  80
ENDBRANCH  49  73
BRANCH  61  84
ATOM     84  C   UNL     1       1.238  15.191  -1.849  1.00  0.00     0.023 A 
ATOM     85  C   UNL     1       0.765  14.425  -2.937  1.00  0.00     0.012 A 
ATOM     86  C   UNL     1       0.939  16.562  -1.814  1.00  0.00     0.148 A 
ATOM     87  C   UNL     1       0.027  15.012  -3.970  1.00  0.00     0.002 A 
ATOM     88  C   UNL     1       0.170  17.136  -2.821  1.00  0.00     0.091 A 
ATOM     89  F   UNL     1       1.381  17.277  -0.768  1.00  0.00    -0.205 F 
ATOM     90  C   UNL     1      -0.281  16.367  -3.905  1.00  0.00     0.022 A 
BRANCH  88  91
ATOM     91  S   UNL     1      -0.369  18.845  -2.739  1.00  0.00     0.127 S 
ATOM     92  O   UNL     1       0.398  19.459  -3.822  1.00  0.00    -0.237 OA
ATOM     93  O   UNL     1      -1.805  18.732  -2.996  1.00  0.00    -0.237 OA
ATOM     94  O   UNL     1      -0.036  19.312  -1.399  1.00  0.00    -0.744 OA
ENDBRANCH  88  91
ENDBRANCH  61  84
ENDBRANCH  35  36
ENDBRANCH  27  30
ENDBRANCH  25  26
ENDBRANCH  24  25
ENDBRANCH   1  24
TORSDOF 17
