REMARK SMILES C=CCn1nc(C(=O)NCCCNC(=O)c2ccc(-c3c4nc(c(-c5cccc(S(=O)(=O)[O-])c5F)c5ccc([nH]5)c(-c5cccc(S(=O)(=O)[O-])c5F)c5nc(c(-c6cccc(S(=O)(=O)[O-])c6F)c6ccc3[nH]6)C=C5)C=C4)cc2)c2c1CC[C@@H]([NH+]1CCC(C(C)(C)O)CC1)C2
REMARK SMILES IDX 11 1 10 2 9 3 7 4 8 5 6 7 4 8 5 9 80 10 79 11 81 12 94 13
REMARK SMILES IDX 82 14 83 15 3 16 2 17 1 18 84 19 85 20 93 21 86 23 92 24
REMARK SMILES IDX 87 25 88 26 89 27 90 28 91 29 12 31 13 32 14 33 15 35 16 36
REMARK SMILES IDX 17 37 78 38 18 39 77 40 19 41 20 42 21 43 71 44 22 45 76 46
REMARK SMILES IDX 70 47 72 48 23 49 75 50 69 51 68 52 24 54 56 55 36 56 55 57
REMARK SMILES IDX 37 58 40 59 54 60 73 61 38 62 39 63 53 65 74 66 41 67 25 68
REMARK SMILES IDX 26 69 34 70 27 71 29 72 35 73 28 74 30 75 31 76 32 77 33 78
REMARK SMILES IDX 57 79 58 80 66 81 59 82 61 83 67 84 60 85 62 86 63 87 64 88
REMARK SMILES IDX 65 89 42 90 43 91 51 92 44 93 46 94 52 95 45 96 47 97 48 98
REMARK SMILES IDX 49 99 50 100
REMARK H PARENT 9 6 84 22 91 30 13 34 72 53 40 64
REMARK Flexibility Score: inf
ROOT
ATOM      1  C   UNL     1      -3.428  -7.421  -1.561  1.00  0.00     0.042 C 
ENDROOT
BRANCH   1   2
ATOM      2  C   UNL     1      -3.232  -7.468  -0.034  1.00  0.00     0.118 C 
BRANCH   2   3
ATOM      3  N   UNL     1      -1.900  -7.048   0.394  1.00  0.00    -0.351 N 
ATOM      4  C   UNL     1      -1.311  -5.873   0.832  1.00  0.00     0.272 C 
ATOM      5  O   UNL     1      -0.180  -6.025   1.308  1.00  0.00    -0.267 OA
ATOM      6  H   UNL     1      -1.254  -7.791   0.362  1.00  0.00     0.163 HD
BRANCH   4   7
ATOM      7  C   UNL     1      -1.933  -4.521   0.772  1.00  0.00     0.153 A 
ATOM      8  N   UNL     1      -2.017  -2.377   1.023  1.00  0.00    -0.265 N 
ATOM      9  N   UNL     1      -1.354  -3.483   1.430  1.00  0.00    -0.167 NA
ATOM     10  C   UNL     1      -3.202  -2.696   0.427  1.00  0.00     0.043 A 
ATOM     11  C   UNL     1      -3.048  -4.010   0.059  1.00  0.00     0.012 A 
ATOM     12  C   UNL     1      -4.327  -1.813   0.034  1.00  0.00     0.062 C 
ATOM     13  C   UNL     1      -3.898  -4.607  -0.971  1.00  0.00     0.105 C 
ATOM     14  C   UNL     1      -5.277  -2.550  -0.939  1.00  0.00     0.072 C 
ATOM     15  C   UNL     1      -4.665  -3.628  -1.866  1.00  0.00     0.189 C 
BRANCH   8  16
ATOM     16  C   UNL     1      -1.426  -1.044   1.174  1.00  0.00     0.171 C 
BRANCH  16  17
ATOM     17  C   UNL     1       0.063  -0.992   0.934  1.00  0.00    -0.011 C 
ATOM     18  C   UNL     1       0.695  -0.180   0.073  1.00  0.00     0.006 C 
ENDBRANCH  16  17
ENDBRANCH   8  16
BRANCH  15  19
ATOM     19  N   UNL     1      -3.899  -3.393  -3.106  1.00  0.00    -0.332 N 
ATOM     20  C   UNL     1      -2.637  -2.680  -3.070  1.00  0.00     0.262 C 
ATOM     21  C   UNL     1      -4.654  -3.006  -4.282  1.00  0.00     0.262 C 
ATOM     22  H   UNL     1      -3.623  -4.371  -3.192  1.00  0.00     0.348 HD
ATOM     23  C   UNL     1      -2.810  -1.175  -2.977  1.00  0.00     0.068 C 
ATOM     24  C   UNL     1      -5.085  -1.555  -4.220  1.00  0.00     0.068 C 
ATOM     25  C   UNL     1      -3.986  -0.554  -3.775  1.00  0.00     0.031 C 
BRANCH  25  26
ATOM     26  C   UNL     1      -4.621   0.695  -3.062  1.00  0.00     0.062 C 
ATOM     27  C   UNL     1      -3.585   1.642  -2.450  1.00  0.00     0.042 C 
ATOM     28  C   UNL     1      -5.533   1.457  -4.028  1.00  0.00     0.042 C 
BRANCH  26  29
ATOM     29  O   UNL     1      -5.453   0.275  -1.978  1.00  0.00    -0.390 OA
ATOM     30  H   UNL     1      -4.921  -0.216  -1.333  1.00  0.00     0.211 HD
ENDBRANCH  26  29
ENDBRANCH  25  26
ENDBRANCH  15  19
ENDBRANCH   4   7
ENDBRANCH   2   3
ENDBRANCH   1   2
BRANCH   1  31
ATOM     31  C   UNL     1      -3.683  -8.724  -2.268  1.00  0.00     0.118 C 
BRANCH  31  32
ATOM     32  N   UNL     1      -5.029  -9.232  -2.004  1.00  0.00    -0.352 N 
ATOM     33  C   UNL     1      -5.522 -10.483  -2.325  1.00  0.00     0.251 C 
ATOM     34  H   UNL     1      -5.650  -8.618  -1.550  1.00  0.00     0.163 HD
ATOM     35  O   UNL     1      -6.717 -10.676  -2.453  1.00  0.00    -0.269 OA
BRANCH  33  36
ATOM     36  C   UNL     1      -4.541 -11.562  -2.530  1.00  0.00     0.039 A 
ATOM     37  C   UNL     1      -4.650 -12.417  -3.626  1.00  0.00     0.014 A 
ATOM     38  C   UNL     1      -3.442 -11.614  -1.675  1.00  0.00     0.014 A 
ATOM     39  C   UNL     1      -3.581 -13.256  -3.914  1.00  0.00     0.010 A 
ATOM     40  C   UNL     1      -2.325 -12.310  -2.062  1.00  0.00     0.010 A 
ATOM     41  C   UNL     1      -2.399 -13.164  -3.155  1.00  0.00    -0.014 A 
BRANCH  41  42
ATOM     42  C   UNL     1      -1.183 -13.828  -3.617  1.00  0.00     0.031 A 
ATOM     43  C   UNL     1      -0.860 -13.536  -5.039  1.00  0.00     0.074 A 
ATOM     44  C   UNL     1      -0.335 -14.493  -2.802  1.00  0.00     0.049 A 
ATOM     45  N   UNL     1      -1.036 -14.320  -6.051  1.00  0.00    -0.248 NA
ATOM     46  C   UNL     1      -0.515 -12.155  -5.418  1.00  0.00     0.031 C 
ATOM     47  C   UNL     1      -0.385 -14.574  -1.336  1.00  0.00     0.029 A 
ATOM     48  N   UNL     1       0.833 -15.133  -3.094  1.00  0.00    -0.354 N 
ATOM     49  C   UNL     1      -0.532 -13.625  -7.149  1.00  0.00     0.074 A 
ATOM     50  C   UNL     1      -0.490 -12.247  -6.750  1.00  0.00     0.031 C 
ATOM     51  C   UNL     1       0.810 -14.987  -0.863  1.00  0.00     0.029 A 
ATOM     52  C   UNL     1       1.642 -15.375  -1.984  1.00  0.00     0.049 A 
ATOM     53  H   UNL     1       1.083 -15.400  -4.008  1.00  0.00     0.167 HD
ATOM     54  C   UNL     1       0.116 -14.298  -8.143  1.00  0.00     0.034 A 
ATOM     55  C   UNL     1       2.915 -15.839  -1.985  1.00  0.00     0.034 A 
ATOM     56  C   UNL     1      -0.110 -15.720  -8.005  1.00  0.00     0.049 A 
ATOM     57  C   UNL     1       3.119 -16.521  -3.277  1.00  0.00     0.074 A 
ATOM     58  C   UNL     1      -1.191 -16.572  -8.048  1.00  0.00     0.029 A 
ATOM     59  N   UNL     1       0.902 -16.381  -7.357  1.00  0.00    -0.354 N 
ATOM     60  N   UNL     1       2.522 -17.632  -3.604  1.00  0.00    -0.248 NA
ATOM     61  C   UNL     1       3.724 -15.784  -4.375  1.00  0.00     0.031 C 
ATOM     62  C   UNL     1      -0.881 -17.626  -7.137  1.00  0.00     0.029 A 
ATOM     63  C   UNL     1       0.403 -17.419  -6.628  1.00  0.00     0.049 A 
ATOM     64  H   UNL     1       1.855 -16.140  -7.411  1.00  0.00     0.167 HD
ATOM     65  C   UNL     1       2.254 -17.477  -4.953  1.00  0.00     0.074 A 
ATOM     66  C   UNL     1       3.170 -16.433  -5.402  1.00  0.00     0.031 C 
ATOM     67  C   UNL     1       1.101 -17.974  -5.487  1.00  0.00     0.034 A 
BRANCH  54  68
ATOM     68  C   UNL     1       1.348 -13.804  -8.902  1.00  0.00     0.023 A 
ATOM     69  C   UNL     1       1.923 -14.716  -9.823  1.00  0.00     0.012 A 
ATOM     70  C   UNL     1       2.138 -12.682  -8.560  1.00  0.00     0.148 A 
ATOM     71  C   UNL     1       3.240 -14.585 -10.280  1.00  0.00     0.002 A 
ATOM     72  C   UNL     1       3.426 -12.522  -9.063  1.00  0.00     0.091 A 
ATOM     73  F   UNL     1       1.705 -11.796  -7.667  1.00  0.00    -0.205 F 
ATOM     74  C   UNL     1       3.996 -13.489  -9.893  1.00  0.00     0.022 A 
BRANCH  72  75
ATOM     75  S   UNL     1       4.447 -11.105  -8.627  1.00  0.00     0.127 S 
ATOM     76  O   UNL     1       5.509 -11.739  -7.851  1.00  0.00    -0.237 OA
ATOM     77  O   UNL     1       4.848 -10.616  -9.947  1.00  0.00    -0.237 OA
ATOM     78  O   UNL     1       3.579 -10.198  -7.888  1.00  0.00    -0.744 OA
ENDBRANCH  72  75
ENDBRANCH  54  68
BRANCH  55  79
ATOM     79  C   UNL     1       4.039 -15.631  -1.044  1.00  0.00     0.023 A 
ATOM     80  C   UNL     1       5.129 -16.526  -1.059  1.00  0.00     0.012 A 
ATOM     81  C   UNL     1       4.194 -14.404  -0.366  1.00  0.00     0.148 A 
ATOM     82  C   UNL     1       6.354 -16.186  -0.473  1.00  0.00     0.002 A 
ATOM     83  C   UNL     1       5.414 -14.069   0.215  1.00  0.00     0.091 A 
ATOM     84  F   UNL     1       3.178 -13.530  -0.377  1.00  0.00    -0.205 F 
ATOM     85  C   UNL     1       6.501 -14.951   0.149  1.00  0.00     0.022 A 
BRANCH  83  86
ATOM     86  S   UNL     1       5.698 -12.477   1.000  1.00  0.00     0.127 S 
ATOM     87  O   UNL     1       6.305 -12.872   2.272  1.00  0.00    -0.237 OA
ATOM     88  O   UNL     1       6.612 -11.838   0.057  1.00  0.00    -0.237 OA
ATOM     89  O   UNL     1       4.385 -11.860   1.127  1.00  0.00    -0.744 OA
ENDBRANCH  83  86
ENDBRANCH  55  79
BRANCH  67  90
ATOM     90  C   UNL     1       0.395 -19.067  -4.735  1.00  0.00     0.023 A 
ATOM     91  C   UNL     1      -0.189 -18.889  -3.465  1.00  0.00     0.012 A 
ATOM     92  C   UNL     1       0.203 -20.282  -5.412  1.00  0.00     0.148 A 
ATOM     93  C   UNL     1      -0.936 -19.915  -2.879  1.00  0.00     0.002 A 
ATOM     94  C   UNL     1      -0.586 -21.276  -4.853  1.00  0.00     0.091 A 
ATOM     95  F   UNL     1       0.782 -20.437  -6.613  1.00  0.00    -0.205 F 
ATOM     96  C   UNL     1      -1.149 -21.102  -3.580  1.00  0.00     0.022 A 
BRANCH  94  97
ATOM     97  S   UNL     1      -0.996 -22.756  -5.776  1.00  0.00     0.127 S 
ATOM     98  O   UNL     1      -0.112 -23.749  -5.170  1.00  0.00    -0.237 OA
ATOM     99  O   UNL     1      -2.417 -22.934  -5.471  1.00  0.00    -0.237 OA
ATOM    100  O   UNL     1      -0.726 -22.442  -7.174  1.00  0.00    -0.744 OA
ENDBRANCH  94  97
ENDBRANCH  67  90
ENDBRANCH  41  42
ENDBRANCH  33  36
ENDBRANCH  31  32
ENDBRANCH   1  31
TORSDOF 18
