REMARK SMILES O=C(NCCCNC(=O)[C@H](c1c[nH]c2cc(F)ccc12)[NH+]1CCN(c2ccccc2)CC1)c1ccc(-c2c3nc(c(-c4cccc(S(=O)(=O)[O-])c4F)c4ccc([nH]4)c(-c4cccc(S(=O)(=O)[O-])c4F)c4nc(c(-c5cccc(S(=O)(=O)[O-])c5F)c5ccc2[nH]5)C=C4)C=C3)cc1
REMARK SMILES IDX 4 1 3 2 1 3 2 4 33 6 34 7 95 8 35 9 94 10 36 11 37 12 38 13
REMARK SMILES IDX 88 14 39 15 93 16 87 17 89 18 40 19 92 20 86 21 85 22 41 24
REMARK SMILES IDX 73 25 53 26 72 27 54 28 57 29 71 30 90 31 55 32 56 33 70 35
REMARK SMILES IDX 91 36 58 37 42 38 43 39 51 40 44 41 46 42 52 43 45 44 47 45
REMARK SMILES IDX 48 46 49 47 50 48 74 49 75 50 83 51 76 52 78 53 84 54 77 55
REMARK SMILES IDX 79 56 80 57 81 58 82 59 59 60 60 61 68 62 61 63 63 64 69 65
REMARK SMILES IDX 62 66 64 67 65 68 66 69 67 70 5 71 6 72 7 73 8 74 9 76 10 77
REMARK SMILES IDX 21 78 22 79 32 80 23 82 31 83 24 84 25 85 26 86 30 87 27 88
REMARK SMILES IDX 29 89 28 90 11 91 12 92 20 93 13 94 14 95 19 96 15 98 18 99
REMARK SMILES IDX 16 100 17 101
REMARK H PARENT 3 5 89 23 57 34 7 75 21 81 13 97
REMARK Flexibility Score: inf
ROOT
ATOM      1  C   UNL     1      10.094   2.347  -2.841  1.00  0.00     0.118 C 
ENDROOT
BRANCH   1   2
ATOM      2  N   UNL     1      11.454   2.690  -3.225  1.00  0.00    -0.352 N 
ATOM      3  O   UNL     1      13.379   3.848  -3.104  1.00  0.00    -0.269 OA
ATOM      4  C   UNL     1      12.405   3.391  -2.520  1.00  0.00     0.251 C 
ATOM      5  H   UNL     1      11.734   2.376  -4.115  1.00  0.00     0.163 HD
BRANCH   4   6
ATOM      6  C   UNL     1      12.231   3.588  -1.063  1.00  0.00     0.039 A 
ATOM      7  C   UNL     1      11.697   2.563  -0.284  1.00  0.00     0.014 A 
ATOM      8  C   UNL     1      12.616   4.791  -0.466  1.00  0.00     0.014 A 
ATOM      9  C   UNL     1      11.376   2.799   1.041  1.00  0.00     0.010 A 
ATOM     10  C   UNL     1      12.427   4.973   0.909  1.00  0.00     0.010 A 
ATOM     11  C   UNL     1      11.785   3.985   1.670  1.00  0.00    -0.014 A 
BRANCH  11  12
ATOM     12  C   UNL     1      11.628   4.076   3.144  1.00  0.00     0.031 A 
ATOM     13  C   UNL     1      10.795   5.143   3.793  1.00  0.00     0.074 A 
ATOM     14  C   UNL     1      12.224   3.125   3.894  1.00  0.00     0.049 A 
ATOM     15  N   UNL     1      10.509   5.295   5.061  1.00  0.00    -0.248 NA
ATOM     16  C   UNL     1      10.216   6.177   2.921  1.00  0.00     0.031 C 
ATOM     17  C   UNL     1      13.106   2.075   3.370  1.00  0.00     0.029 A 
ATOM     18  N   UNL     1      12.170   2.866   5.237  1.00  0.00    -0.354 N 
ATOM     19  C   UNL     1       9.747   6.454   5.147  1.00  0.00     0.074 A 
ATOM     20  C   UNL     1       9.625   6.975   3.802  1.00  0.00     0.031 C 
ATOM     21  C   UNL     1      13.462   1.255   4.367  1.00  0.00     0.029 A 
ATOM     22  C   UNL     1      12.905   1.765   5.611  1.00  0.00     0.049 A 
ATOM     23  H   UNL     1      11.656   3.414   5.873  1.00  0.00     0.167 HD
ATOM     24  C   UNL     1       9.188   7.018   6.245  1.00  0.00     0.034 A 
ATOM     25  C   UNL     1      13.133   1.233   6.826  1.00  0.00     0.034 A 
ATOM     26  C   UNL     1       9.304   6.477   7.576  1.00  0.00     0.049 A 
ATOM     27  C   UNL     1      12.477   1.865   8.015  1.00  0.00     0.074 A 
ATOM     28  C   UNL     1       8.751   6.956   8.751  1.00  0.00     0.029 A 
ATOM     29  N   UNL     1      10.027   5.341   7.912  1.00  0.00    -0.354 N 
ATOM     30  N   UNL     1      11.673   2.899   8.058  1.00  0.00    -0.248 NA
ATOM     31  C   UNL     1      12.737   1.245   9.319  1.00  0.00     0.031 C 
ATOM     32  C   UNL     1       9.155   6.122   9.799  1.00  0.00     0.029 A 
ATOM     33  C   UNL     1       9.934   5.104   9.275  1.00  0.00     0.049 A 
ATOM     34  H   UNL     1      10.531   4.784   7.276  1.00  0.00     0.167 HD
ATOM     35  C   UNL     1      11.317   3.047   9.391  1.00  0.00     0.074 A 
ATOM     36  C   UNL     1      11.959   1.966  10.114  1.00  0.00     0.031 C 
ATOM     37  C   UNL     1      10.551   4.003   9.970  1.00  0.00     0.034 A 
BRANCH  24  38
ATOM     38  C   UNL     1       8.364   8.267   6.055  1.00  0.00     0.023 A 
ATOM     39  C   UNL     1       7.097   8.176   5.444  1.00  0.00     0.012 A 
ATOM     40  C   UNL     1       8.803   9.511   6.550  1.00  0.00     0.148 A 
ATOM     41  C   UNL     1       6.292   9.306   5.302  1.00  0.00     0.002 A 
ATOM     42  C   UNL     1       7.977  10.625   6.444  1.00  0.00     0.091 A 
ATOM     43  F   UNL     1      10.017   9.582   7.114  1.00  0.00    -0.205 F 
ATOM     44  C   UNL     1       6.727  10.527   5.811  1.00  0.00     0.022 A 
BRANCH  42  45
ATOM     45  S   UNL     1       8.406  12.227   7.136  1.00  0.00     0.127 S 
ATOM     46  O   UNL     1       8.584  13.032   5.928  1.00  0.00    -0.237 OA
ATOM     47  O   UNL     1       7.212  12.553   7.916  1.00  0.00    -0.237 OA
ATOM     48  O   UNL     1       9.611  12.015   7.926  1.00  0.00    -0.744 OA
ENDBRANCH  42  45
ENDBRANCH  24  38
BRANCH  25  49
ATOM     49  C   UNL     1      14.014   0.039   6.960  1.00  0.00     0.023 A 
ATOM     50  C   UNL     1      13.474  -1.194   7.371  1.00  0.00     0.012 A 
ATOM     51  C   UNL     1      15.385   0.117   6.644  1.00  0.00     0.148 A 
ATOM     52  C   UNL     1      14.291  -2.318   7.497  1.00  0.00     0.002 A 
ATOM     53  C   UNL     1      16.177  -1.021   6.705  1.00  0.00     0.091 A 
ATOM     54  F   UNL     1      15.885   1.304   6.270  1.00  0.00    -0.205 F 
ATOM     55  C   UNL     1      15.638  -2.236   7.152  1.00  0.00     0.022 A 
BRANCH  53  56
ATOM     56  S   UNL     1      17.876  -1.028   6.125  1.00  0.00     0.127 S 
ATOM     57  O   UNL     1      18.620  -1.038   7.381  1.00  0.00    -0.237 OA
ATOM     58  O   UNL     1      17.933  -2.277   5.363  1.00  0.00    -0.237 OA
ATOM     59  O   UNL     1      18.013   0.172   5.310  1.00  0.00    -0.744 OA
ENDBRANCH  53  56
ENDBRANCH  25  49
BRANCH  37  60
ATOM     60  C   UNL     1      10.350   3.903  11.459  1.00  0.00     0.023 A 
ATOM     61  C   UNL     1      11.424   4.171  12.331  1.00  0.00     0.012 A 
ATOM     62  C   UNL     1       9.091   3.566  11.992  1.00  0.00     0.148 A 
ATOM     63  C   UNL     1      11.261   4.058  13.711  1.00  0.00     0.002 A 
ATOM     64  C   UNL     1       8.922   3.508  13.370  1.00  0.00     0.091 A 
ATOM     65  F   UNL     1       8.088   3.293  11.145  1.00  0.00    -0.205 F 
ATOM     66  C   UNL     1      10.009   3.736  14.230  1.00  0.00     0.022 A 
BRANCH  64  67
ATOM     67  S   UNL     1       7.325   3.193  14.127  1.00  0.00     0.127 S 
ATOM     68  O   UNL     1       7.488   1.821  14.606  1.00  0.00    -0.237 OA
ATOM     69  O   UNL     1       7.277   4.206  15.182  1.00  0.00    -0.237 OA
ATOM     70  O   UNL     1       6.339   3.375  13.071  1.00  0.00    -0.744 OA
ENDBRANCH  64  67
ENDBRANCH  37  60
ENDBRANCH  11  12
ENDBRANCH   4   6
ENDBRANCH   1   2
BRANCH   1  71
ATOM     71  C   UNL     1       9.076   3.184  -3.592  1.00  0.00     0.042 C 
BRANCH  71  72
ATOM     72  C   UNL     1       8.974   2.800  -5.061  1.00  0.00     0.118 C 
BRANCH  72  73
ATOM     73  N   UNL     1       8.395   1.479  -5.216  1.00  0.00    -0.351 N 
ATOM     74  C   UNL     1       7.066   1.133  -5.249  1.00  0.00     0.283 C 
ATOM     75  H   UNL     1       9.035   0.737  -5.310  1.00  0.00     0.163 HD
ATOM     76  O   UNL     1       6.819  -0.058  -5.048  1.00  0.00    -0.268 OA
BRANCH  74  77
ATOM     77  C   UNL     1       5.998   2.240  -5.519  1.00  0.00     0.307 C 
BRANCH  77  78
ATOM     78  N   UNL     1       4.807   1.797  -6.300  1.00  0.00    -0.318 N 
ATOM     79  C   UNL     1       4.172   0.509  -5.986  1.00  0.00     0.284 C 
ATOM     80  C   UNL     1       3.739   2.812  -6.417  1.00  0.00     0.284 C 
ATOM     81  H   UNL     1       5.287   1.653  -7.188  1.00  0.00     0.349 HD
ATOM     82  C   UNL     1       3.313   0.487  -4.717  1.00  0.00     0.178 C 
ATOM     83  C   UNL     1       2.707   2.886  -5.257  1.00  0.00     0.178 C 
ATOM     84  N   UNL     1       2.313   1.560  -4.748  1.00  0.00    -0.360 N 
BRANCH  84  85
ATOM     85  C   UNL     1       1.278   1.527  -3.821  1.00  0.00     0.037 A 
ATOM     86  C   UNL     1       1.455   1.112  -2.494  1.00  0.00     0.026 A 
ATOM     87  C   UNL     1      -0.014   1.890  -4.223  1.00  0.00     0.026 A 
ATOM     88  C   UNL     1       0.376   1.039  -1.608  1.00  0.00     0.002 A 
ATOM     89  C   UNL     1      -1.099   1.805  -3.349  1.00  0.00     0.002 A 
ATOM     90  C   UNL     1      -0.904   1.374  -2.040  1.00  0.00     0.000 A 
ENDBRANCH  84  85
ENDBRANCH  77  78
BRANCH  77  91
ATOM     91  C   UNL     1       5.712   3.058  -4.277  1.00  0.00     0.044 A 
ATOM     92  C   UNL     1       5.368   2.618  -3.009  1.00  0.00     0.094 A 
ATOM     93  C   UNL     1       5.858   4.493  -4.163  1.00  0.00     0.009 A 
ATOM     94  N   UNL     1       5.152   3.703  -2.202  1.00  0.00    -0.361 N 
ATOM     95  C   UNL     1       5.489   4.857  -2.866  1.00  0.00     0.049 A 
ATOM     96  C   UNL     1       6.297   5.511  -5.041  1.00  0.00     0.014 A 
ATOM     97  H   UNL     1       4.806   3.662  -1.282  1.00  0.00     0.166 HD
ATOM     98  C   UNL     1       5.505   6.181  -2.413  1.00  0.00     0.065 A 
ATOM     99  C   UNL     1       6.360   6.835  -4.592  1.00  0.00     0.040 A 
ATOM    100  C   UNL     1       5.958   7.152  -3.302  1.00  0.00     0.125 A 
ATOM    101  F   UNL     1       6.014   8.429  -2.900  1.00  0.00    -0.207 F 
ENDBRANCH  77  91
ENDBRANCH  74  77
ENDBRANCH  72  73
ENDBRANCH  71  72
ENDBRANCH   1  71
TORSDOF 16
