REMARK SMILES CN(C)c1ccc(-c2nnc([C@H]3CC[N@@H+](Cc4ccc(C(=O)NCCCNC(=O)c5ccc(-c6c7nc(c(-c8cccc(S(=O)(=O)[O-])c8F)c8ccc([nH]8)c(-c8cccc(S(=O)(=O)[O-])c8F)c8nc(c(-c9cccc(S(=O)(=O)[O-])c9F)c9ccc6[nH]9)C=C8)C=C7)cc5)cc4)C3)o2)cc1
REMARK SMILES IDX 24 1 23 2 21 3 22 4 20 6 17 7 18 8 94 9 19 10 93 11 16 12
REMARK SMILES IDX 15 13 12 14 13 15 95 16 14 17 11 19 8 20 9 21 96 22 10 23
REMARK SMILES IDX 7 24 4 25 5 26 98 27 6 28 97 29 2 30 1 31 3 32 25 33 26 34
REMARK SMILES IDX 27 35 28 36 29 38 30 39 31 40 92 41 32 42 91 43 33 44 34 45
REMARK SMILES IDX 35 46 85 47 36 48 90 49 84 50 86 51 37 52 89 53 83 54 82 55
REMARK SMILES IDX 38 57 70 58 50 59 69 60 51 61 54 62 68 63 87 64 52 65 53 66
REMARK SMILES IDX 67 68 88 69 55 70 39 71 40 72 48 73 41 74 43 75 49 76 42 77
REMARK SMILES IDX 44 78 45 79 46 80 47 81 71 82 72 83 80 84 73 85 75 86 81 87
REMARK SMILES IDX 74 88 76 89 77 90 78 91 79 92 56 93 57 94 65 95 58 96 60 97
REMARK SMILES IDX 66 98 59 99 61 100 62 101 63 102 64 103
REMARK H PARENT 23 5 15 18 27 37 86 56 54 67
REMARK Flexibility Score: inf
ROOT
ATOM      1  C   UNL     1      -0.054  -9.575 -10.806  1.00  0.00     0.118 C 
ENDROOT
BRANCH   1   2
ATOM      2  N   UNL     1       0.320 -10.981 -10.809  1.00  0.00    -0.352 N 
ATOM      3  C   UNL     1       1.395 -11.653 -10.279  1.00  0.00     0.251 C 
ATOM      4  O   UNL     1       1.376 -12.884 -10.321  1.00  0.00    -0.269 OA
ATOM      5  H   UNL     1      -0.320 -11.562 -11.280  1.00  0.00     0.163 HD
BRANCH   3   6
ATOM      6  C   UNL     1       2.547 -10.983  -9.611  1.00  0.00     0.039 A 
ATOM      7  C   UNL     1       4.721  -9.840  -8.190  1.00  0.00     0.006 A 
ATOM      8  C   UNL     1       4.234 -11.108  -7.851  1.00  0.00     0.010 A 
ATOM      9  C   UNL     1       4.169  -9.200  -9.309  1.00  0.00     0.010 A 
ATOM     10  C   UNL     1       3.160 -11.670  -8.551  1.00  0.00     0.014 A 
ATOM     11  C   UNL     1       3.096  -9.768 -10.018  1.00  0.00     0.014 A 
BRANCH   7  12
ATOM     12  C   UNL     1       5.808  -9.187  -7.357  1.00  0.00     0.299 C 
BRANCH  12  13
ATOM     13  N   UNL     1       5.386  -8.307  -6.252  1.00  0.00    -0.330 N 
ATOM     14  C   UNL     1       3.276  -7.124  -6.204  1.00  0.00     0.138 C 
ATOM     15  C   UNL     1       3.100  -8.529  -5.646  1.00  0.00     0.081 C 
ATOM     16  C   UNL     1       4.728  -7.064  -6.685  1.00  0.00     0.276 C 
ATOM     17  C   UNL     1       4.508  -8.924  -5.255  1.00  0.00     0.263 C 
ATOM     18  H   UNL     1       6.287  -8.101  -5.820  1.00  0.00     0.348 HD
BRANCH  14  19
ATOM     19  C   UNL     1       2.251  -6.832  -7.221  1.00  0.00     0.225 A 
ATOM     20  C   UNL     1       1.446  -6.257  -9.077  1.00  0.00     0.247 A 
ATOM     21  N   UNL     1       0.420  -6.555  -8.307  1.00  0.00    -0.108 NA
ATOM     22  O   UNL     1       2.648  -6.401  -8.454  1.00  0.00    -0.420 OA
ATOM     23  N   UNL     1       0.944  -6.933  -7.100  1.00  0.00    -0.112 NA
BRANCH  20  24
ATOM     24  C   UNL     1       1.444  -5.880 -10.466  1.00  0.00     0.039 A 
ATOM     25  C   UNL     1       1.115  -5.559 -13.204  1.00  0.00     0.036 A 
ATOM     26  C   UNL     1       0.125  -5.120 -12.319  1.00  0.00     0.027 A 
ATOM     27  C   UNL     1       2.309  -6.085 -12.707  1.00  0.00     0.027 A 
ATOM     28  C   UNL     1       0.287  -5.276 -10.959  1.00  0.00     0.016 A 
ATOM     29  C   UNL     1       2.482  -6.234 -11.338  1.00  0.00     0.016 A 
BRANCH  25  30
ATOM     30  N   UNL     1       0.862  -5.446 -14.562  1.00  0.00    -0.378 N 
ATOM     31  C   UNL     1       1.399  -6.496 -15.427  1.00  0.00     0.143 C 
ATOM     32  C   UNL     1       0.806  -4.044 -14.968  1.00  0.00     0.143 C 
ENDBRANCH  25  30
ENDBRANCH  20  24
ENDBRANCH  14  19
ENDBRANCH  12  13
ENDBRANCH   7  12
ENDBRANCH   3   6
ENDBRANCH   1   2
BRANCH   1  33
ATOM     33  C   UNL     1       0.100  -8.953 -12.192  1.00  0.00     0.042 C 
BRANCH  33  34
ATOM     34  C   UNL     1      -1.107  -9.059 -13.127  1.00  0.00     0.118 C 
BRANCH  34  35
ATOM     35  N   UNL     1      -2.174  -8.111 -12.814  1.00  0.00    -0.352 N 
ATOM     36  C   UNL     1      -2.749  -7.079 -13.529  1.00  0.00     0.251 C 
ATOM     37  H   UNL     1      -2.558  -8.231 -11.916  1.00  0.00     0.163 HD
ATOM     38  O   UNL     1      -3.562  -6.364 -12.938  1.00  0.00    -0.269 OA
BRANCH  36  39
ATOM     39  C   UNL     1      -2.422  -6.765 -14.954  1.00  0.00     0.039 A 
ATOM     40  C   UNL     1      -2.518  -5.430 -15.386  1.00  0.00     0.014 A 
ATOM     41  C   UNL     1      -2.070  -7.730 -15.895  1.00  0.00     0.014 A 
ATOM     42  C   UNL     1      -2.142  -5.055 -16.691  1.00  0.00     0.010 A 
ATOM     43  C   UNL     1      -1.635  -7.351 -17.176  1.00  0.00     0.010 A 
ATOM     44  C   UNL     1      -1.631  -6.003 -17.585  1.00  0.00    -0.014 A 
BRANCH  44  45
ATOM     45  C   UNL     1      -1.155  -5.633 -18.961  1.00  0.00     0.031 A 
ATOM     46  C   UNL     1      -1.921  -6.130 -20.139  1.00  0.00     0.074 A 
ATOM     47  C   UNL     1      -0.004  -4.961 -19.195  1.00  0.00     0.049 A 
ATOM     48  N   UNL     1      -1.604  -6.052 -21.400  1.00  0.00    -0.248 NA
ATOM     49  C   UNL     1      -3.168  -6.858 -19.861  1.00  0.00     0.031 C 
ATOM     50  C   UNL     1       0.895  -4.543 -18.151  1.00  0.00     0.029 A 
ATOM     51  N   UNL     1       0.659  -4.549 -20.329  1.00  0.00    -0.354 N 
ATOM     52  C   UNL     1      -2.576  -6.774 -22.067  1.00  0.00     0.074 A 
ATOM     53  C   UNL     1      -3.481  -7.302 -21.069  1.00  0.00     0.031 C 
ATOM     54  C   UNL     1       1.971  -3.916 -18.631  1.00  0.00     0.029 A 
ATOM     55  C   UNL     1       1.883  -3.947 -20.074  1.00  0.00     0.049 A 
ATOM     56  H   UNL     1       0.298  -4.670 -21.236  1.00  0.00     0.167 HD
ATOM     57  C   UNL     1      -2.705  -6.962 -23.398  1.00  0.00     0.034 A 
ATOM     58  C   UNL     1       2.865  -3.512 -20.887  1.00  0.00     0.034 A 
ATOM     59  C   UNL     1      -1.815  -6.407 -24.380  1.00  0.00     0.049 A 
ATOM     60  C   UNL     1       2.666  -3.687 -22.357  1.00  0.00     0.074 A 
ATOM     61  C   UNL     1      -1.927  -6.457 -25.756  1.00  0.00     0.029 A 
ATOM     62  N   UNL     1      -0.645  -5.717 -24.096  1.00  0.00    -0.354 N 
ATOM     63  N   UNL     1       1.663  -4.261 -22.971  1.00  0.00    -0.248 NA
ATOM     64  C   UNL     1       3.705  -3.155 -23.246  1.00  0.00     0.031 C 
ATOM     65  C   UNL     1      -0.810  -5.822 -26.307  1.00  0.00     0.029 A 
ATOM     66  C   UNL     1      -0.023  -5.338 -25.274  1.00  0.00     0.049 A 
ATOM     67  H   UNL     1      -0.307  -5.525 -23.192  1.00  0.00     0.167 HD
ATOM     68  C   UNL     1       1.931  -4.136 -24.323  1.00  0.00     0.074 A 
ATOM     69  C   UNL     1       3.183  -3.414 -24.437  1.00  0.00     0.031 C 
ATOM     70  C   UNL     1       1.204  -4.589 -25.370  1.00  0.00     0.034 A 
BRANCH  57  71
ATOM     71  C   UNL     1      -3.871  -7.787 -23.855  1.00  0.00     0.023 A 
ATOM     72  C   UNL     1      -5.182  -7.285 -23.720  1.00  0.00     0.012 A 
ATOM     73  C   UNL     1      -3.667  -9.053 -24.433  1.00  0.00     0.148 A 
ATOM     74  C   UNL     1      -6.276  -8.050 -24.116  1.00  0.00     0.002 A 
ATOM     75  C   UNL     1      -4.758  -9.784 -24.877  1.00  0.00     0.091 A 
ATOM     76  F   UNL     1      -2.413  -9.521 -24.520  1.00  0.00    -0.205 F 
ATOM     77  C   UNL     1      -6.063  -9.293 -24.705  1.00  0.00     0.022 A 
BRANCH  75  78
ATOM     78  S   UNL     1      -4.590 -11.356 -25.726  1.00  0.00     0.127 S 
ATOM     79  O   UNL     1      -5.184 -12.278 -24.763  1.00  0.00    -0.237 OA
ATOM     80  O   UNL     1      -5.379 -11.134 -26.934  1.00  0.00    -0.237 OA
ATOM     81  O   UNL     1      -3.158 -11.537 -25.957  1.00  0.00    -0.744 OA
ENDBRANCH  75  78
ENDBRANCH  57  71
BRANCH  58  82
ATOM     82  C   UNL     1       4.099  -2.866 -20.338  1.00  0.00     0.023 A 
ATOM     83  C   UNL     1       4.316  -1.490 -20.548  1.00  0.00     0.012 A 
ATOM     84  C   UNL     1       5.040  -3.593 -19.581  1.00  0.00     0.148 A 
ATOM     85  C   UNL     1       5.457  -0.859 -20.045  1.00  0.00     0.002 A 
ATOM     86  C   UNL     1       6.143  -2.947 -19.030  1.00  0.00     0.091 A 
ATOM     87  F   UNL     1       4.830  -4.904 -19.396  1.00  0.00    -0.205 F 
ATOM     88  C   UNL     1       6.364  -1.584 -19.277  1.00  0.00     0.022 A 
BRANCH  86  89
ATOM     89  S   UNL     1       7.279  -3.768 -17.905  1.00  0.00     0.127 S 
ATOM     90  O   UNL     1       8.472  -3.912 -18.733  1.00  0.00    -0.237 OA
ATOM     91  O   UNL     1       7.392  -2.793 -16.820  1.00  0.00    -0.237 OA
ATOM     92  O   UNL     1       6.617  -5.011 -17.522  1.00  0.00    -0.744 OA
ENDBRANCH  86  89
ENDBRANCH  58  82
BRANCH  70  93
ATOM     93  C   UNL     1       1.716  -4.260 -26.741  1.00  0.00     0.023 A 
ATOM     94  C   UNL     1       2.845  -4.923 -27.256  1.00  0.00     0.012 A 
ATOM     95  C   UNL     1       1.029  -3.325 -27.536  1.00  0.00     0.148 A 
ATOM     96  C   UNL     1       3.301  -4.637 -28.541  1.00  0.00     0.002 A 
ATOM     97  C   UNL     1       1.454  -3.087 -28.833  1.00  0.00     0.091 A 
ATOM     98  F   UNL     1      -0.026  -2.689 -27.006  1.00  0.00    -0.205 F 
ATOM     99  C   UNL     1       2.598  -3.731 -29.333  1.00  0.00     0.022 A 
BRANCH  97 100
ATOM    100  S   UNL     1       0.552  -2.017 -29.955  1.00  0.00     0.127 S 
ATOM    101  O   UNL     1       1.476  -0.893 -30.101  1.00  0.00    -0.237 OA
ATOM    102  O   UNL     1       0.421  -2.860 -31.143  1.00  0.00    -0.237 OA
ATOM    103  O   UNL     1      -0.707  -1.704 -29.291  1.00  0.00    -0.744 OA
ENDBRANCH  97 100
ENDBRANCH  70  93
ENDBRANCH  44  45
ENDBRANCH  36  39
ENDBRANCH  34  35
ENDBRANCH  33  34
ENDBRANCH   1  33
TORSDOF 18
