REMARK SMILES [NH3+][C@H](CCC(=O)NCCCNC(=O)c1ccc(-c2c3nc(c(-c4cccc(S(=O)(=O)[O-])c4F)c4ccc([nH]4)c(-c4cccc(S(=O)(=O)[O-])c4F)c4nc(c(-c5cccc(S(=O)(=O)[O-])c5F)c5ccc2[nH]5)C=C4)C=C3)cc1)c1nccc2[nH]ccc12
REMARK SMILES IDX 9 1 8 2 7 3 5 4 6 5 4 7 3 8 2 9 1 10 77 14 78 15 85 16 79 17
REMARK SMILES IDX 81 18 84 19 80 20 82 21 83 22 10 24 11 25 12 26 13 28 14 29
REMARK SMILES IDX 15 30 76 31 16 32 75 33 17 34 18 35 19 36 69 37 20 38 74 39
REMARK SMILES IDX 68 40 70 41 21 42 73 43 67 44 66 45 22 47 54 48 34 49 53 50
REMARK SMILES IDX 35 51 38 52 52 53 71 54 36 55 37 56 51 58 72 59 39 60 23 61
REMARK SMILES IDX 24 62 32 63 25 64 27 65 33 66 26 67 28 68 29 69 30 70 31 71
REMARK SMILES IDX 55 72 56 73 64 74 57 75 59 76 65 77 58 78 60 79 61 80 62 81
REMARK SMILES IDX 63 82 40 83 41 84 49 85 42 86 44 87 50 88 43 89 45 90 46 91
REMARK SMILES IDX 47 92 48 93
REMARK H PARENT 7 6 1 11 1 12 1 13 82 23 11 27 70 46 38 57
REMARK Flexibility Score: inf
ROOT
ATOM      1  C   UNL     1       0.282   2.527   2.619  1.00  0.00     0.042 C 
ENDROOT
BRANCH   1   2
ATOM      2  C   UNL     1      -0.355   2.652   1.252  1.00  0.00     0.117 C 
BRANCH   2   3
ATOM      3  N   UNL     1       0.550   2.917   0.171  1.00  0.00    -0.356 N 
ATOM      4  C   UNL     1       0.567   2.353  -1.066  1.00  0.00     0.220 C 
ATOM      5  O   UNL     1       1.295   2.900  -1.904  1.00  0.00    -0.275 OA
ATOM      6  H   UNL     1       1.246   3.591   0.347  1.00  0.00     0.163 HD
BRANCH   4   7
ATOM      7  C   UNL     1      -0.309   1.168  -1.490  1.00  0.00     0.106 C 
BRANCH   7   8
ATOM      8  C   UNL     1      -0.150  -0.216  -0.843  1.00  0.00     0.082 C 
BRANCH   8   9
ATOM      9  C   UNL     1      -1.178  -0.744   0.208  1.00  0.00     0.232 C 
BRANCH   9  10
ATOM     10  N   UNL     1      -0.533  -0.759   1.548  1.00  0.00    -0.350 N 
ATOM     11  H   UNL     1      -1.198  -1.103   2.241  1.00  0.00     0.345 HD
ATOM     12  H   UNL     1      -0.242   0.187   1.796  1.00  0.00     0.345 HD
ATOM     13  H   UNL     1       0.282  -1.371   1.527  1.00  0.00     0.345 HD
ENDBRANCH   9  10
BRANCH   9  14
ATOM     14  C   UNL     1      -2.605  -0.136   0.232  1.00  0.00     0.107 A 
ATOM     15  N   UNL     1      -2.709   1.226   0.343  1.00  0.00    -0.254 NA
ATOM     16  C   UNL     1      -3.727  -0.816   0.773  1.00  0.00     0.027 A 
ATOM     17  C   UNL     1      -3.372   1.738   1.409  1.00  0.00     0.114 A 
ATOM     18  C   UNL     1      -4.303  -0.266   1.925  1.00  0.00     0.049 A 
ATOM     19  C   UNL     1      -4.838  -1.497   0.173  1.00  0.00     0.030 A 
ATOM     20  C   UNL     1      -3.986   0.996   2.396  1.00  0.00     0.047 A 
ATOM     21  N   UNL     1      -5.307  -1.124   2.305  1.00  0.00    -0.361 N 
ATOM     22  C   UNL     1      -5.820  -1.636   1.135  1.00  0.00     0.083 A 
ATOM     23  H   UNL     1      -5.598  -1.329   3.222  1.00  0.00     0.166 HD
ENDBRANCH   9  14
ENDBRANCH   8   9
ENDBRANCH   7   8
ENDBRANCH   4   7
ENDBRANCH   2   3
ENDBRANCH   1   2
BRANCH   1  24
ATOM     24  C   UNL     1       0.198   3.810   3.415  1.00  0.00     0.118 C 
BRANCH  24  25
ATOM     25  N   UNL     1      -1.153   4.081   3.908  1.00  0.00    -0.352 N 
ATOM     26  C   UNL     1      -1.600   4.261   5.194  1.00  0.00     0.251 C 
ATOM     27  H   UNL     1      -1.847   4.145   3.213  1.00  0.00     0.163 HD
ATOM     28  O   UNL     1      -2.817   4.284   5.413  1.00  0.00    -0.269 OA
BRANCH  26  29
ATOM     29  C   UNL     1      -0.640   4.413   6.310  1.00  0.00     0.039 A 
ATOM     30  C   UNL     1      -0.961   3.922   7.578  1.00  0.00     0.014 A 
ATOM     31  C   UNL     1       0.584   5.052   6.109  1.00  0.00     0.014 A 
ATOM     32  C   UNL     1      -0.039   4.046   8.620  1.00  0.00     0.010 A 
ATOM     33  C   UNL     1       1.558   5.022   7.093  1.00  0.00     0.010 A 
ATOM     34  C   UNL     1       1.237   4.583   8.380  1.00  0.00    -0.014 A 
BRANCH  34  35
ATOM     35  C   UNL     1       2.219   4.785   9.473  1.00  0.00     0.031 A 
ATOM     36  C   UNL     1       2.732   6.175   9.769  1.00  0.00     0.074 A 
ATOM     37  C   UNL     1       2.684   3.725  10.161  1.00  0.00     0.049 A 
ATOM     38  N   UNL     1       3.588   6.562  10.678  1.00  0.00    -0.248 NA
ATOM     39  C   UNL     1       2.256   7.271   8.904  1.00  0.00     0.031 C 
ATOM     40  C   UNL     1       2.340   2.325   9.898  1.00  0.00     0.029 A 
ATOM     41  N   UNL     1       3.555   3.658  11.217  1.00  0.00    -0.354 N 
ATOM     42  C   UNL     1       3.778   7.923  10.466  1.00  0.00     0.074 A 
ATOM     43  C   UNL     1       3.005   8.286   9.303  1.00  0.00     0.031 C 
ATOM     44  C   UNL     1       2.965   1.542  10.792  1.00  0.00     0.029 A 
ATOM     45  C   UNL     1       3.776   2.379  11.670  1.00  0.00     0.049 A 
ATOM     46  H   UNL     1       3.983   4.452  11.614  1.00  0.00     0.167 HD
ATOM     47  C   UNL     1       4.493   8.808  11.199  1.00  0.00     0.034 A 
ATOM     48  C   UNL     1       4.539   1.937  12.688  1.00  0.00     0.034 A 
ATOM     49  C   UNL     1       5.213   8.449  12.387  1.00  0.00     0.049 A 
ATOM     50  C   UNL     1       5.266   2.946  13.533  1.00  0.00     0.074 A 
ATOM     51  C   UNL     1       5.903   9.270  13.259  1.00  0.00     0.029 A 
ATOM     52  N   UNL     1       5.337   7.155  12.869  1.00  0.00    -0.354 N 
ATOM     53  N   UNL     1       5.312   4.251  13.406  1.00  0.00    -0.248 NA
ATOM     54  C   UNL     1       6.007   2.428  14.691  1.00  0.00     0.031 C 
ATOM     55  C   UNL     1       6.471   8.466  14.253  1.00  0.00     0.029 A 
ATOM     56  C   UNL     1       6.093   7.152  14.026  1.00  0.00     0.049 A 
ATOM     57  H   UNL     1       4.944   6.356  12.449  1.00  0.00     0.167 HD
ATOM     58  C   UNL     1       6.045   4.714  14.492  1.00  0.00     0.074 A 
ATOM     59  C   UNL     1       6.406   3.549  15.275  1.00  0.00     0.031 C 
ATOM     60  C   UNL     1       6.396   5.984  14.812  1.00  0.00     0.034 A 
BRANCH  47  61
ATOM     61  C   UNL     1       4.486  10.251  10.760  1.00  0.00     0.023 A 
ATOM     62  C   UNL     1       3.299  11.009  10.851  1.00  0.00     0.012 A 
ATOM     63  C   UNL     1       5.661  10.868  10.291  1.00  0.00     0.148 A 
ATOM     64  C   UNL     1       3.270  12.341  10.441  1.00  0.00     0.002 A 
ATOM     65  C   UNL     1       5.638  12.212   9.935  1.00  0.00     0.091 A 
ATOM     66  F   UNL     1       6.774  10.129  10.187  1.00  0.00    -0.205 F 
ATOM     67  C   UNL     1       4.441  12.945   9.993  1.00  0.00     0.022 A 
BRANCH  65  68
ATOM     68  S   UNL     1       7.111  13.106   9.429  1.00  0.00     0.127 S 
ATOM     69  O   UNL     1       6.825  13.370   8.019  1.00  0.00    -0.237 OA
ATOM     70  O   UNL     1       7.063  14.286  10.292  1.00  0.00    -0.237 OA
ATOM     71  O   UNL     1       8.232  12.212   9.680  1.00  0.00    -0.744 OA
ENDBRANCH  65  68
ENDBRANCH  47  61
BRANCH  48  72
ATOM     72  C   UNL     1       4.584   0.482  13.012  1.00  0.00     0.023 A 
ATOM     73  C   UNL     1       3.983   0.013  14.197  1.00  0.00     0.012 A 
ATOM     74  C   UNL     1       5.197  -0.439  12.142  1.00  0.00     0.148 A 
ATOM     75  C   UNL     1       4.029  -1.342  14.530  1.00  0.00     0.002 A 
ATOM     76  C   UNL     1       5.188  -1.794  12.451  1.00  0.00     0.091 A 
ATOM     77  F   UNL     1       5.766   0.028  11.022  1.00  0.00    -0.205 F 
ATOM     78  C   UNL     1       4.623  -2.245  13.653  1.00  0.00     0.022 A 
BRANCH  76  79
ATOM     79  S   UNL     1       5.812  -3.043  11.321  1.00  0.00     0.127 S 
ATOM     80  O   UNL     1       7.003  -3.513  12.024  1.00  0.00    -0.237 OA
ATOM     81  O   UNL     1       4.701  -3.995  11.283  1.00  0.00    -0.237 OA
ATOM     82  O   UNL     1       6.052  -2.351  10.063  1.00  0.00    -0.744 OA
ENDBRANCH  76  79
ENDBRANCH  48  72
BRANCH  60  83
ATOM     83  C   UNL     1       7.156   6.190  16.095  1.00  0.00     0.023 A 
ATOM     84  C   UNL     1       8.490   5.753  16.211  1.00  0.00     0.012 A 
ATOM     85  C   UNL     1       6.553   6.867  17.173  1.00  0.00     0.148 A 
ATOM     86  C   UNL     1       9.195   5.940  17.399  1.00  0.00     0.002 A 
ATOM     87  C   UNL     1       7.280   7.103  18.332  1.00  0.00     0.091 A 
ATOM     88  F   UNL     1       5.277   7.261  17.050  1.00  0.00    -0.205 F 
ATOM     89  C   UNL     1       8.594   6.624  18.454  1.00  0.00     0.022 A 
BRANCH  87  90
ATOM     90  S   UNL     1       6.620   8.068  19.694  1.00  0.00     0.127 S 
ATOM     91  O   UNL     1       6.323   7.029  20.679  1.00  0.00    -0.237 OA
ATOM     92  O   UNL     1       7.751   8.931  20.040  1.00  0.00    -0.237 OA
ATOM     93  O   UNL     1       5.465   8.776  19.160  1.00  0.00    -0.744 OA
ENDBRANCH  87  90
ENDBRANCH  60  83
ENDBRANCH  34  35
ENDBRANCH  26  29
ENDBRANCH  24  25
ENDBRANCH   1  24
TORSDOF 17
