REMARK SMILES C[C@@H]1C(C(=O)NCCCNC(=O)c2ccc(-c3c4nc(c(-c5cccc(S(=O)(=O)[O-])c5F)c5ccc([nH]5)c(-c5cccc(S(=O)(=O)[O-])c5F)c5nc(c(-c6cccc(S(=O)(=O)[O-])c6F)c6ccc3[nH]6)C=C5)C=C4)cc2)=NC2=C1C(=O)C[C@H](c1ccccc1)C2
REMARK SMILES IDX 9 1 8 2 7 3 6 4 4 5 5 6 3 8 1 9 2 10 78 11 76 12 77 13 79 14
REMARK SMILES IDX 89 15 80 16 81 17 82 18 83 19 84 20 88 21 85 22 87 23 86 24
REMARK SMILES IDX 10 25 11 26 12 28 13 29 14 30 75 31 15 32 74 33 16 34 17 35
REMARK SMILES IDX 18 36 68 37 19 38 73 39 67 40 69 41 20 42 72 43 66 44 65 45
REMARK SMILES IDX 21 47 53 48 33 49 52 50 34 51 37 52 51 53 70 54 35 55 36 56
REMARK SMILES IDX 50 58 71 59 38 60 22 61 23 62 31 63 24 64 26 65 32 66 25 67
REMARK SMILES IDX 27 68 28 69 29 70 30 71 54 72 55 73 63 74 56 75 58 76 64 77
REMARK SMILES IDX 57 78 59 79 60 80 61 81 62 82 39 83 40 84 48 85 41 86 43 87
REMARK SMILES IDX 49 88 42 89 44 90 45 91 46 92 47 93
REMARK H PARENT 6 7 10 27 69 46 37 57
REMARK Flexibility Score: inf
ROOT
ATOM      1  C   UNL     1       4.454  -1.403   0.876  1.00  0.00     0.118 C 
ENDROOT
BRANCH   1   2
ATOM      2  C   UNL     1       3.070  -1.628   0.280  1.00  0.00     0.042 C 
BRANCH   2   3
ATOM      3  C   UNL     1       2.182  -0.387   0.414  1.00  0.00     0.118 C 
BRANCH   3   4
ATOM      4  N   UNL     1       2.308   0.563  -0.682  1.00  0.00    -0.351 N 
ATOM      5  C   UNL     1       1.276   1.318  -1.213  1.00  0.00     0.266 C 
ATOM      6  O   UNL     1       1.337   2.540  -1.245  1.00  0.00    -0.268 OA
ATOM      7  H   UNL     1       3.201   0.678  -1.079  1.00  0.00     0.163 HD
BRANCH   5   8
ATOM      8  C   UNL     1       0.170   0.601  -1.973  1.00  0.00     0.113 C 
ATOM      9  C   UNL     1      -1.748  -0.226  -0.664  1.00  0.00     0.020 C 
ATOM     10  C   UNL     1      -0.500  -0.633  -1.440  1.00  0.00     0.076 C 
ATOM     11  C   UNL     1      -0.795  -1.147  -2.803  1.00  0.00     0.026 C 
ATOM     12  N   UNL     1      -0.238   0.985  -3.158  1.00  0.00    -0.251 NA
ATOM     13  C   UNL     1      -0.798  -0.153  -3.695  1.00  0.00     0.049 C 
ATOM     14  C   UNL     1      -0.230  -2.431  -3.268  1.00  0.00     0.161 C 
ATOM     15  C   UNL     1      -0.679  -0.456  -5.160  1.00  0.00     0.065 C 
ATOM     16  O   UNL     1      -0.425  -3.442  -2.595  1.00  0.00    -0.294 OA
ATOM     17  C   UNL     1       0.705  -2.429  -4.489  1.00  0.00     0.089 C 
ATOM     18  C   UNL     1       0.686  -1.142  -5.379  1.00  0.00     0.033 C 
BRANCH  18  19
ATOM     19  C   UNL     1       1.883  -0.180  -5.239  1.00  0.00    -0.044 A 
ATOM     20  C   UNL     1       1.729   1.211  -5.433  1.00  0.00     0.004 A 
ATOM     21  C   UNL     1       3.186  -0.633  -4.983  1.00  0.00     0.004 A 
ATOM     22  C   UNL     1       2.784   2.111  -5.269  1.00  0.00     0.000 A 
ATOM     23  C   UNL     1       4.252   0.268  -4.837  1.00  0.00     0.000 A 
ATOM     24  C   UNL     1       4.049   1.639  -4.961  1.00  0.00     0.000 A 
ENDBRANCH  18  19
ENDBRANCH   5   8
ENDBRANCH   3   4
ENDBRANCH   2   3
ENDBRANCH   1   2
BRANCH   1  25
ATOM     25  N   UNL     1       4.411  -1.152   2.320  1.00  0.00    -0.352 N 
ATOM     26  C   UNL     1       5.460  -0.962   3.206  1.00  0.00     0.251 C 
ATOM     27  H   UNL     1       3.511  -1.114   2.716  1.00  0.00     0.163 HD
ATOM     28  O   UNL     1       5.269  -0.949   4.401  1.00  0.00    -0.269 OA
BRANCH  26  29
ATOM     29  C   UNL     1       6.821  -0.823   2.650  1.00  0.00     0.039 A 
ATOM     30  C   UNL     1       7.869  -1.582   3.176  1.00  0.00     0.014 A 
ATOM     31  C   UNL     1       7.013  -0.010   1.539  1.00  0.00     0.014 A 
ATOM     32  C   UNL     1       9.087  -1.608   2.499  1.00  0.00     0.010 A 
ATOM     33  C   UNL     1       8.164  -0.145   0.799  1.00  0.00     0.010 A 
ATOM     34  C   UNL     1       9.219  -0.919   1.286  1.00  0.00    -0.014 A 
BRANCH  34  35
ATOM     35  C   UNL     1      10.416  -1.093   0.464  1.00  0.00     0.031 A 
ATOM     36  C   UNL     1      10.776  -2.497   0.099  1.00  0.00     0.074 A 
ATOM     37  C   UNL     1      11.033  -0.062  -0.153  1.00  0.00     0.049 A 
ATOM     38  N   UNL     1      11.876  -3.121   0.366  1.00  0.00    -0.248 NA
ATOM     39  C   UNL     1       9.773  -3.330  -0.580  1.00  0.00     0.031 C 
ATOM     40  C   UNL     1      10.619   1.346  -0.184  1.00  0.00     0.029 A 
ATOM     41  N   UNL     1      12.061  -0.096  -1.048  1.00  0.00    -0.354 N 
ATOM     42  C   UNL     1      11.790  -4.361  -0.271  1.00  0.00     0.074 A 
ATOM     43  C   UNL     1      10.424  -4.490  -0.708  1.00  0.00     0.031 C 
ATOM     44  C   UNL     1      11.170   1.944  -1.260  1.00  0.00     0.029 A 
ATOM     45  C   UNL     1      12.106   1.021  -1.873  1.00  0.00     0.049 A 
ATOM     46  H   UNL     1      12.706  -0.838  -1.104  1.00  0.00     0.167 HD
ATOM     47  C   UNL     1      12.898  -5.104  -0.555  1.00  0.00     0.034 A 
ATOM     48  C   UNL     1      12.814   1.160  -3.017  1.00  0.00     0.034 A 
ATOM     49  C   UNL     1      14.065  -4.591   0.115  1.00  0.00     0.049 A 
ATOM     50  C   UNL     1      13.900   0.154  -2.993  1.00  0.00     0.074 A 
ATOM     51  C   UNL     1      14.416  -4.354   1.428  1.00  0.00     0.029 A 
ATOM     52  N   UNL     1      14.972  -3.898  -0.650  1.00  0.00    -0.354 N 
ATOM     53  N   UNL     1      14.899   0.192  -2.155  1.00  0.00    -0.248 NA
ATOM     54  C   UNL     1      13.669  -1.131  -3.631  1.00  0.00     0.031 C 
ATOM     55  C   UNL     1      15.180  -3.152   1.385  1.00  0.00     0.029 A 
ATOM     56  C   UNL     1      15.295  -2.766   0.047  1.00  0.00     0.049 A 
ATOM     57  H   UNL     1      15.323  -4.165  -1.530  1.00  0.00     0.167 HD
ATOM     58  C   UNL     1      15.114  -1.137  -1.815  1.00  0.00     0.074 A 
ATOM     59  C   UNL     1      14.425  -1.906  -2.849  1.00  0.00     0.031 C 
ATOM     60  C   UNL     1      15.566  -1.488  -0.573  1.00  0.00     0.034 A 
BRANCH  47  61
ATOM     61  C   UNL     1      13.043  -6.116  -1.669  1.00  0.00     0.023 A 
ATOM     62  C   UNL     1      14.206  -6.925  -1.665  1.00  0.00     0.012 A 
ATOM     63  C   UNL     1      12.259  -6.132  -2.842  1.00  0.00     0.148 A 
ATOM     64  C   UNL     1      14.598  -7.662  -2.787  1.00  0.00     0.002 A 
ATOM     65  C   UNL     1      12.610  -6.933  -3.926  1.00  0.00     0.091 A 
ATOM     66  F   UNL     1      11.244  -5.274  -2.977  1.00  0.00    -0.205 F 
ATOM     67  C   UNL     1      13.794  -7.673  -3.917  1.00  0.00     0.022 A 
BRANCH  65  68
ATOM     68  S   UNL     1      11.569  -7.038  -5.387  1.00  0.00     0.127 S 
ATOM     69  O   UNL     1      12.294  -6.191  -6.328  1.00  0.00    -0.237 OA
ATOM     70  O   UNL     1      11.608  -8.471  -5.685  1.00  0.00    -0.237 OA
ATOM     71  O   UNL     1      10.261  -6.556  -4.960  1.00  0.00    -0.744 OA
ENDBRANCH  65  68
ENDBRANCH  47  61
BRANCH  48  72
ATOM     72  C   UNL     1      12.508   1.988  -4.204  1.00  0.00     0.023 A 
ATOM     73  C   UNL     1      13.546   2.374  -5.072  1.00  0.00     0.012 A 
ATOM     74  C   UNL     1      11.174   2.207  -4.617  1.00  0.00     0.148 A 
ATOM     75  C   UNL     1      13.265   2.945  -6.319  1.00  0.00     0.002 A 
ATOM     76  C   UNL     1      10.899   2.789  -5.851  1.00  0.00     0.091 A 
ATOM     77  F   UNL     1      10.173   1.762  -3.845  1.00  0.00    -0.205 F 
ATOM     78  C   UNL     1      11.944   3.150  -6.710  1.00  0.00     0.022 A 
BRANCH  76  79
ATOM     79  S   UNL     1       9.214   3.070  -6.414  1.00  0.00     0.127 S 
ATOM     80  O   UNL     1       9.306   4.403  -7.010  1.00  0.00    -0.237 OA
ATOM     81  O   UNL     1       9.030   1.981  -7.369  1.00  0.00    -0.237 OA
ATOM     82  O   UNL     1       8.384   3.009  -5.215  1.00  0.00    -0.744 OA
ENDBRANCH  76  79
ENDBRANCH  48  72
BRANCH  60  83
ATOM     83  C   UNL     1      16.095  -0.413   0.345  1.00  0.00     0.023 A 
ATOM     84  C   UNL     1      15.306   0.683   0.751  1.00  0.00     0.012 A 
ATOM     85  C   UNL     1      17.336  -0.620   0.974  1.00  0.00     0.148 A 
ATOM     86  C   UNL     1      15.752   1.563   1.739  1.00  0.00     0.002 A 
ATOM     87  C   UNL     1      17.752   0.226   1.996  1.00  0.00     0.091 A 
ATOM     88  F   UNL     1      18.083  -1.665   0.585  1.00  0.00    -0.205 F 
ATOM     89  C   UNL     1      16.968   1.326   2.374  1.00  0.00     0.022 A 
BRANCH  87  90
ATOM     90  S   UNL     1      19.235  -0.129   2.943  1.00  0.00     0.127 S 
ATOM     91  O   UNL     1      20.233   0.704   2.277  1.00  0.00    -0.237 OA
ATOM     92  O   UNL     1      18.871   0.313   4.291  1.00  0.00    -0.237 OA
ATOM     93  O   UNL     1      19.432  -1.570   2.831  1.00  0.00    -0.744 OA
ENDBRANCH  87  90
ENDBRANCH  60  83
ENDBRANCH  34  35
ENDBRANCH  26  29
ENDBRANCH   1  25
TORSDOF 14
