REMARK SMILES CC(C)Cc1ccc([C@@H](C)C(=O)NCCCNC(=O)c2ccc(-c3c4nc(c(-c5cccc(S(=O)(=O)[O-])c5F)c5ccc([nH]5)c(-c5cccc(S(=O)(=O)[O-])c5F)c5nc(c(-c6cccc(S(=O)(=O)[O-])c6F)c6ccc3[nH]6)C=C5)C=C4)cc2)cc1
REMARK SMILES IDX 15 1 14 2 13 3 11 4 12 5 9 7 10 8 8 9 5 10 6 11 84 12 7 13
REMARK SMILES IDX 83 14 4 15 2 16 1 17 3 18 16 19 17 20 18 21 19 23 20 24
REMARK SMILES IDX 21 25 82 26 22 27 81 28 23 29 24 30 25 31 75 32 26 33 80 34
REMARK SMILES IDX 74 35 76 36 27 37 79 38 73 39 72 40 28 42 60 43 40 44 59 45
REMARK SMILES IDX 41 46 44 47 58 48 77 49 42 50 43 51 57 53 78 54 45 55 29 56
REMARK SMILES IDX 30 57 38 58 31 59 33 60 39 61 32 62 34 63 35 64 36 65 37 66
REMARK SMILES IDX 61 67 62 68 70 69 63 70 65 71 71 72 64 73 66 74 67 75 68 76
REMARK SMILES IDX 69 77 46 78 47 79 55 80 48 81 50 82 56 83 49 84 51 85 52 86
REMARK SMILES IDX 53 87 54 88
REMARK H PARENT 13 6 17 22 76 41 44 52
REMARK Flexibility Score: inf
ROOT
ATOM      1  C   UNL     1      -4.047  -0.497   5.348  1.00  0.00     0.042 C 
ENDROOT
BRANCH   1   2
ATOM      2  C   UNL     1      -3.678  -1.882   5.871  1.00  0.00     0.117 C 
BRANCH   2   3
ATOM      3  N   UNL     1      -4.186  -2.954   5.038  1.00  0.00    -0.356 N 
ATOM      4  C   UNL     1      -3.588  -3.725   4.089  1.00  0.00     0.227 C 
ATOM      5  O   UNL     1      -4.306  -4.570   3.538  1.00  0.00    -0.274 OA
ATOM      6  H   UNL     1      -5.136  -3.162   5.185  1.00  0.00     0.163 HD
BRANCH   4   7
ATOM      7  C   UNL     1      -2.106  -3.617   3.708  1.00  0.00     0.105 C 
ATOM      8  C   UNL     1      -1.139  -3.942   4.848  1.00  0.00     0.023 C 
BRANCH   7   9
ATOM      9  C   UNL     1      -1.774  -2.380   2.893  1.00  0.00    -0.036 A 
ATOM     10  C   UNL     1      -1.204  -0.113   1.302  1.00  0.00    -0.048 A 
ATOM     11  C   UNL     1      -1.093  -0.054   2.693  1.00  0.00     0.004 A 
ATOM     12  C   UNL     1      -1.619  -1.307   0.706  1.00  0.00     0.004 A 
ATOM     13  C   UNL     1      -1.342  -1.182   3.474  1.00  0.00     0.005 A 
ATOM     14  C   UNL     1      -1.913  -2.422   1.495  1.00  0.00     0.005 A 
BRANCH  10  15
ATOM     15  C   UNL     1      -0.792   1.079   0.468  1.00  0.00     0.038 C 
BRANCH  15  16
ATOM     16  C   UNL     1       0.736   1.289   0.500  1.00  0.00    -0.013 C 
ATOM     17  C   UNL     1       1.485   0.137  -0.176  1.00  0.00     0.008 C 
ATOM     18  C   UNL     1       1.105   2.614  -0.162  1.00  0.00     0.008 C 
ENDBRANCH  15  16
ENDBRANCH  10  15
ENDBRANCH   7   9
ENDBRANCH   4   7
ENDBRANCH   2   3
ENDBRANCH   1   2
BRANCH   1  19
ATOM     19  C   UNL     1      -5.479  -0.079   5.660  1.00  0.00     0.118 C 
BRANCH  19  20
ATOM     20  N   UNL     1      -5.702   0.111   7.089  1.00  0.00    -0.352 N 
ATOM     21  C   UNL     1      -5.947   1.251   7.815  1.00  0.00     0.251 C 
ATOM     22  H   UNL     1      -5.671  -0.716   7.622  1.00  0.00     0.163 HD
ATOM     23  O   UNL     1      -5.877   1.204   9.041  1.00  0.00    -0.269 OA
BRANCH  21  24
ATOM     24  C   UNL     1      -6.283   2.529   7.147  1.00  0.00     0.039 A 
ATOM     25  C   UNL     1      -5.759   3.720   7.664  1.00  0.00     0.014 A 
ATOM     26  C   UNL     1      -7.142   2.572   6.047  1.00  0.00     0.014 A 
ATOM     27  C   UNL     1      -6.034   4.936   7.033  1.00  0.00     0.010 A 
ATOM     28  C   UNL     1      -7.354   3.773   5.374  1.00  0.00     0.010 A 
ATOM     29  C   UNL     1      -6.800   4.968   5.857  1.00  0.00    -0.014 A 
BRANCH  29  30
ATOM     30  C   UNL     1      -6.999   6.226   5.091  1.00  0.00     0.031 A 
ATOM     31  C   UNL     1      -8.379   6.790   4.890  1.00  0.00     0.074 A 
ATOM     32  C   UNL     1      -5.942   6.800   4.482  1.00  0.00     0.049 A 
ATOM     33  N   UNL     1      -8.753   7.816   4.170  1.00  0.00    -0.248 NA
ATOM     34  C   UNL     1      -9.488   6.096   5.565  1.00  0.00     0.031 C 
ATOM     35  C   UNL     1      -4.564   6.307   4.541  1.00  0.00     0.029 A 
ATOM     36  N   UNL     1      -5.865   7.900   3.664  1.00  0.00    -0.354 N 
ATOM     37  C   UNL     1     -10.138   7.870   4.274  1.00  0.00     0.074 A 
ATOM     38  C   UNL     1     -10.541   6.758   5.107  1.00  0.00     0.031 C 
ATOM     39  C   UNL     1      -3.782   7.096   3.787  1.00  0.00     0.029 A 
ATOM     40  C   UNL     1      -4.605   8.125   3.161  1.00  0.00     0.049 A 
ATOM     41  H   UNL     1      -6.638   8.473   3.458  1.00  0.00     0.167 HD
ATOM     42  C   UNL     1     -10.994   8.777   3.745  1.00  0.00     0.034 A 
ATOM     43  C   UNL     1      -4.163   9.040   2.276  1.00  0.00     0.034 A 
ATOM     44  C   UNL     1     -10.585   9.903   2.948  1.00  0.00     0.049 A 
ATOM     45  C   UNL     1      -5.132  10.040   1.711  1.00  0.00     0.074 A 
ATOM     46  C   UNL     1     -11.364  10.933   2.451  1.00  0.00     0.029 A 
ATOM     47  N   UNL     1      -9.289  10.139   2.515  1.00  0.00    -0.354 N 
ATOM     48  N   UNL     1      -6.412  10.177   1.957  1.00  0.00    -0.248 NA
ATOM     49  C   UNL     1      -4.593  11.029   0.765  1.00  0.00     0.031 C 
ATOM     50  C   UNL     1     -10.544  11.775   1.692  1.00  0.00     0.029 A 
ATOM     51  C   UNL     1      -9.250  11.284   1.737  1.00  0.00     0.049 A 
ATOM     52  H   UNL     1      -8.511   9.575   2.730  1.00  0.00     0.167 HD
ATOM     53  C   UNL     1      -6.827  11.278   1.217  1.00  0.00     0.074 A 
ATOM     54  C   UNL     1      -5.655  11.790   0.537  1.00  0.00     0.031 C 
ATOM     55  C   UNL     1      -8.070  11.806   1.097  1.00  0.00     0.034 A 
BRANCH  42  56
ATOM     56  C   UNL     1     -12.461   8.620   4.050  1.00  0.00     0.023 A 
ATOM     57  C   UNL     1     -12.935   8.898   5.349  1.00  0.00     0.012 A 
ATOM     58  C   UNL     1     -13.379   8.266   3.042  1.00  0.00     0.148 A 
ATOM     59  C   UNL     1     -14.292   8.793   5.648  1.00  0.00     0.002 A 
ATOM     60  C   UNL     1     -14.737   8.205   3.337  1.00  0.00     0.091 A 
ATOM     61  F   UNL     1     -12.909   7.987   1.817  1.00  0.00    -0.205 F 
ATOM     62  C   UNL     1     -15.193   8.457   4.642  1.00  0.00     0.022 A 
BRANCH  60  63
ATOM     63  S   UNL     1     -15.987   7.857   2.095  1.00  0.00     0.127 S 
ATOM     64  O   UNL     1     -16.428   6.520   2.487  1.00  0.00    -0.237 OA
ATOM     65  O   UNL     1     -16.965   8.918   2.337  1.00  0.00    -0.237 OA
ATOM     66  O   UNL     1     -15.309   7.939   0.809  1.00  0.00    -0.744 OA
ENDBRANCH  60  63
ENDBRANCH  42  56
BRANCH  43  67
ATOM     67  C   UNL     1      -2.722   9.071   1.898  1.00  0.00     0.023 A 
ATOM     68  C   UNL     1      -1.915  10.141   2.331  1.00  0.00     0.012 A 
ATOM     69  C   UNL     1      -2.141   8.035   1.142  1.00  0.00     0.148 A 
ATOM     70  C   UNL     1      -0.561  10.192   1.995  1.00  0.00     0.002 A 
ATOM     71  C   UNL     1      -0.780   8.063   0.860  1.00  0.00     0.091 A 
ATOM     72  F   UNL     1      -2.929   7.032   0.729  1.00  0.00    -0.205 F 
ATOM     73  C   UNL     1       0.008   9.148   1.270  1.00  0.00     0.022 A 
BRANCH  71  74
ATOM     74  S   UNL     1       0.061   6.699   0.049  1.00  0.00     0.127 S 
ATOM     75  O   UNL     1       0.411   7.285  -1.241  1.00  0.00    -0.237 OA
ATOM     76  O   UNL     1       1.191   6.464   0.948  1.00  0.00    -0.237 OA
ATOM     77  O   UNL     1      -0.908   5.611   0.006  1.00  0.00    -0.744 OA
ENDBRANCH  71  74
ENDBRANCH  43  67
BRANCH  55  78
ATOM     78  C   UNL     1      -8.234  13.008   0.203  1.00  0.00     0.023 A 
ATOM     79  C   UNL     1      -8.169  12.848  -1.196  1.00  0.00     0.012 A 
ATOM     80  C   UNL     1      -8.528  14.276   0.742  1.00  0.00     0.148 A 
ATOM     81  C   UNL     1      -8.367  13.938  -2.043  1.00  0.00     0.002 A 
ATOM     82  C   UNL     1      -8.772  15.346  -0.110  1.00  0.00     0.091 A 
ATOM     83  F   UNL     1      -8.569  14.409   2.076  1.00  0.00    -0.205 F 
ATOM     84  C   UNL     1      -8.680  15.182  -1.502  1.00  0.00     0.022 A 
BRANCH  82  85
ATOM     85  S   UNL     1      -9.272  16.965   0.489  1.00  0.00     0.127 S 
ATOM     86  O   UNL     1      -8.094  17.774   0.179  1.00  0.00    -0.237 OA
ATOM     87  O   UNL     1     -10.444  17.252  -0.339  1.00  0.00    -0.237 OA
ATOM     88  O   UNL     1      -9.557  16.800   1.908  1.00  0.00    -0.744 OA
ENDBRANCH  82  85
ENDBRANCH  55  78
ENDBRANCH  29  30
ENDBRANCH  21  24
ENDBRANCH  19  20
ENDBRANCH   1  19
TORSDOF 16
