REMARK SMILES CCCc1nccn1[C@@H]1CCC[C@]([NH3+])(C(=O)NCCCNC(=O)c2ccc(-c3c4nc(c(-c5cccc(S(=O)(=O)[O-])c5F)c5ccc([nH]5)c(-c5cccc(S(=O)(=O)[O-])c5F)c5nc(c(-c6cccc(S(=O)(=O)[O-])c6F)c6ccc3[nH]6)C=C5)C=C4)cc2)C1
REMARK SMILES IDX 19 1 18 2 17 3 15 4 16 5 13 7 9 8 10 9 87 10 11 11 12 12
REMARK SMILES IDX 8 13 4 14 5 15 6 16 7 17 3 18 2 19 1 20 14 21 20 25 21 26
REMARK SMILES IDX 22 27 23 29 24 30 25 31 86 32 26 33 85 34 27 35 28 36 29 37
REMARK SMILES IDX 79 38 30 39 84 40 78 41 80 42 31 43 83 44 77 45 76 46 32 48
REMARK SMILES IDX 64 49 44 50 63 51 45 52 48 53 62 54 81 55 46 56 47 57 61 59
REMARK SMILES IDX 82 60 49 61 33 62 34 63 42 64 35 65 37 66 43 67 36 68 38 69
REMARK SMILES IDX 39 70 40 71 41 72 65 73 66 74 74 75 67 76 69 77 75 78 68 79
REMARK SMILES IDX 70 80 71 81 72 82 73 83 50 84 51 85 59 86 52 87 54 88 60 89
REMARK SMILES IDX 53 90 55 91 56 92 57 93 58 94
REMARK H PARENT 17 6 14 22 14 23 14 24 21 28 80 47 48 58
REMARK Flexibility Score: inf
ROOT
ATOM      1  C   UNL     1       3.606   0.148  -3.064  1.00  0.00     0.042 C 
ENDROOT
BRANCH   1   2
ATOM      2  C   UNL     1       3.846  -0.357  -1.640  1.00  0.00     0.118 C 
BRANCH   2   3
ATOM      3  N   UNL     1       4.697   0.506  -0.850  1.00  0.00    -0.351 N 
ATOM      4  C   UNL     1       4.446   1.344   0.193  1.00  0.00     0.281 C 
ATOM      5  O   UNL     1       5.445   1.877   0.692  1.00  0.00    -0.268 OA
ATOM      6  H   UNL     1       5.643   0.483  -1.120  1.00  0.00     0.163 HD
BRANCH   4   7
ATOM      7  C   UNL     1       3.006   1.645   0.769  1.00  0.00     0.175 C 
ATOM      8  C   UNL     1       1.037   0.637   2.067  1.00  0.00     0.095 C 
ATOM      9  C   UNL     1       0.039   1.252   1.071  1.00  0.00     0.026 C 
ATOM     10  C   UNL     1       2.453   0.419   1.516  1.00  0.00     0.104 C 
ATOM     11  C   UNL     1       0.607   2.391   0.223  1.00  0.00     0.009 C 
ATOM     12  C   UNL     1       2.021   2.132  -0.308  1.00  0.00     0.079 C 
BRANCH   8  13
ATOM     13  N   UNL     1       0.462  -0.518   2.767  1.00  0.00    -0.332 N 
ATOM     14  C   UNL     1       0.276  -1.838   2.388  1.00  0.00     0.108 A 
ATOM     15  N   UNL     1      -0.369  -2.498   3.338  1.00  0.00    -0.242 NA
ATOM     16  C   UNL     1      -0.563  -1.623   4.364  1.00  0.00     0.131 A 
ATOM     17  C   UNL     1      -0.066  -0.392   4.037  1.00  0.00     0.107 A 
BRANCH  14  18
ATOM     18  C   UNL     1       0.762  -2.539   1.154  1.00  0.00     0.075 C 
BRANCH  18  19
ATOM     19  C   UNL     1      -0.145  -2.384  -0.067  1.00  0.00     0.005 C 
ATOM     20  C   UNL     1       0.520  -1.619  -1.198  1.00  0.00     0.004 C 
ENDBRANCH  18  19
ENDBRANCH  14  18
ENDBRANCH   8  13
BRANCH   7  21
ATOM     21  N   UNL     1       3.165   2.725   1.784  1.00  0.00    -0.345 N 
ATOM     22  H   UNL     1       2.255   2.952   2.184  1.00  0.00     0.345 HD
ATOM     23  H   UNL     1       3.557   3.554   1.338  1.00  0.00     0.345 HD
ATOM     24  H   UNL     1       3.792   2.407   2.523  1.00  0.00     0.345 HD
ENDBRANCH   7  21
ENDBRANCH   4   7
ENDBRANCH   2   3
ENDBRANCH   1   2
BRANCH   1  25
ATOM     25  C   UNL     1       4.746  -0.206  -4.010  1.00  0.00     0.118 C 
BRANCH  25  26
ATOM     26  N   UNL     1       4.798  -1.638  -4.307  1.00  0.00    -0.352 N 
ATOM     27  C   UNL     1       5.706  -2.320  -5.097  1.00  0.00     0.251 C 
ATOM     28  H   UNL     1       4.095  -2.188  -3.891  1.00  0.00     0.163 HD
ATOM     29  O   UNL     1       5.451  -3.440  -5.503  1.00  0.00    -0.269 OA
BRANCH  27  30
ATOM     30  C   UNL     1       6.971  -1.653  -5.466  1.00  0.00     0.039 A 
ATOM     31  C   UNL     1       7.421  -1.696  -6.788  1.00  0.00     0.014 A 
ATOM     32  C   UNL     1       7.673  -0.939  -4.497  1.00  0.00     0.014 A 
ATOM     33  C   UNL     1       8.517  -0.918  -7.152  1.00  0.00     0.010 A 
ATOM     34  C   UNL     1       8.688  -0.087  -4.879  1.00  0.00     0.010 A 
ATOM     35  C   UNL     1       9.123  -0.076  -6.204  1.00  0.00    -0.014 A 
BRANCH  35  36
ATOM     36  C   UNL     1      10.066   0.955  -6.651  1.00  0.00     0.031 A 
ATOM     37  C   UNL     1       9.537   1.827  -7.739  1.00  0.00     0.074 A 
ATOM     38  C   UNL     1      11.215   1.272  -6.014  1.00  0.00     0.049 A 
ATOM     39  N   UNL     1       9.940   1.891  -8.965  1.00  0.00    -0.248 NA
ATOM     40  C   UNL     1       8.319   2.610  -7.474  1.00  0.00     0.031 C 
ATOM     41  C   UNL     1      11.698   0.723  -4.742  1.00  0.00     0.029 A 
ATOM     42  N   UNL     1      12.129   2.251  -6.289  1.00  0.00    -0.354 N 
ATOM     43  C   UNL     1       9.194   2.916  -9.551  1.00  0.00     0.074 A 
ATOM     44  C   UNL     1       8.082   3.149  -8.672  1.00  0.00     0.031 C 
ATOM     45  C   UNL     1      12.649   1.535  -4.233  1.00  0.00     0.029 A 
ATOM     46  C   UNL     1      12.971   2.548  -5.220  1.00  0.00     0.049 A 
ATOM     47  H   UNL     1      12.186   2.705  -7.161  1.00  0.00     0.167 HD
ATOM     48  C   UNL     1       9.727   3.680 -10.546  1.00  0.00     0.034 A 
ATOM     49  C   UNL     1      13.872   3.554  -5.131  1.00  0.00     0.034 A 
ATOM     50  C   UNL     1      10.949   3.093 -11.035  1.00  0.00     0.049 A 
ATOM     51  C   UNL     1      14.206   3.982  -6.503  1.00  0.00     0.074 A 
ATOM     52  C   UNL     1      11.325   2.024 -11.814  1.00  0.00     0.029 A 
ATOM     53  N   UNL     1      12.060   3.527 -10.362  1.00  0.00    -0.354 N 
ATOM     54  N   UNL     1      14.882   3.242  -7.335  1.00  0.00    -0.248 NA
ATOM     55  C   UNL     1      13.555   5.149  -7.083  1.00  0.00     0.031 C 
ATOM     56  C   UNL     1      12.669   1.722 -11.446  1.00  0.00     0.029 A 
ATOM     57  C   UNL     1      13.084   2.631 -10.473  1.00  0.00     0.049 A 
ATOM     58  H   UNL     1      12.114   4.374  -9.863  1.00  0.00     0.167 HD
ATOM     59  C   UNL     1      14.358   3.577  -8.568  1.00  0.00     0.074 A 
ATOM     60  C   UNL     1      13.723   4.873  -8.378  1.00  0.00     0.031 C 
ATOM     61  C   UNL     1      14.175   2.623  -9.523  1.00  0.00     0.034 A 
BRANCH  48  62
ATOM     62  C   UNL     1       9.486   5.170 -10.776  1.00  0.00     0.023 A 
ATOM     63  C   UNL     1      10.191   5.763 -11.855  1.00  0.00     0.012 A 
ATOM     64  C   UNL     1       8.890   6.060  -9.855  1.00  0.00     0.148 A 
ATOM     65  C   UNL     1      10.371   7.147 -11.960  1.00  0.00     0.002 A 
ATOM     66  C   UNL     1       9.019   7.441  -9.996  1.00  0.00     0.091 A 
ATOM     67  F   UNL     1       8.289   5.595  -8.761  1.00  0.00    -0.205 F 
ATOM     68  C   UNL     1       9.787   7.989 -11.025  1.00  0.00     0.022 A 
BRANCH  66  69
ATOM     69  S   UNL     1       8.257   8.585  -8.834  1.00  0.00     0.127 S 
ATOM     70  O   UNL     1       9.424   9.098  -8.122  1.00  0.00    -0.237 OA
ATOM     71  O   UNL     1       7.610   9.538  -9.736  1.00  0.00    -0.237 OA
ATOM     72  O   UNL     1       7.329   7.785  -8.044  1.00  0.00    -0.744 OA
ENDBRANCH  66  69
ENDBRANCH  48  62
BRANCH  49  73
ATOM     73  C   UNL     1      14.464   4.240  -3.965  1.00  0.00     0.023 A 
ATOM     74  C   UNL     1      15.738   4.833  -4.083  1.00  0.00     0.012 A 
ATOM     75  C   UNL     1      13.673   4.566  -2.844  1.00  0.00     0.148 A 
ATOM     76  C   UNL     1      16.187   5.769  -3.147  1.00  0.00     0.002 A 
ATOM     77  C   UNL     1      14.123   5.501  -1.917  1.00  0.00     0.091 A 
ATOM     78  F   UNL     1      12.450   4.027  -2.745  1.00  0.00    -0.205 F 
ATOM     79  C   UNL     1      15.374   6.114  -2.073  1.00  0.00     0.022 A 
BRANCH  77  80
ATOM     80  S   UNL     1      13.117   6.043  -0.528  1.00  0.00     0.127 S 
ATOM     81  O   UNL     1      14.056   5.927   0.589  1.00  0.00    -0.237 OA
ATOM     82  O   UNL     1      12.789   7.413  -0.914  1.00  0.00    -0.237 OA
ATOM     83  O   UNL     1      11.994   5.116  -0.469  1.00  0.00    -0.744 OA
ENDBRANCH  77  80
ENDBRANCH  49  73
BRANCH  61  84
ATOM     84  C   UNL     1      15.027   1.392  -9.449  1.00  0.00     0.023 A 
ATOM     85  C   UNL     1      14.938   0.456  -8.400  1.00  0.00     0.012 A 
ATOM     86  C   UNL     1      15.879   1.129 -10.533  1.00  0.00     0.148 A 
ATOM     87  C   UNL     1      15.704  -0.712  -8.427  1.00  0.00     0.002 A 
ATOM     88  C   UNL     1      16.596  -0.056 -10.582  1.00  0.00     0.091 A 
ATOM     89  F   UNL     1      15.963   2.044 -11.512  1.00  0.00    -0.205 F 
ATOM     90  C   UNL     1      16.522  -0.976  -9.525  1.00  0.00     0.022 A 
BRANCH  88  91
ATOM     91  S   UNL     1      17.553  -0.493 -12.034  1.00  0.00     0.127 S 
ATOM     92  O   UNL     1      18.911  -0.143 -11.624  1.00  0.00    -0.237 OA
ATOM     93  O   UNL     1      17.301  -1.929 -12.159  1.00  0.00    -0.237 OA
ATOM     94  O   UNL     1      16.996   0.300 -13.124  1.00  0.00    -0.744 OA
ENDBRANCH  88  91
ENDBRANCH  61  84
ENDBRANCH  35  36
ENDBRANCH  27  30
ENDBRANCH  25  26
ENDBRANCH   1  25
TORSDOF 17
