REMARK SMILES O=C(NCCCNC(=O)c1cnccc1C(=O)N1CCC(Cc2ccccc2)CC1)c1ccc(-c2c3nc(c(-c4cccc(S(=O)(=O)[O-])c4F)c4ccc([nH]4)c(-c4cccc(S(=O)(=O)[O-])c4F)c4nc(c(-c5cccc(S(=O)(=O)[O-])c5F)c5ccc2[nH]5)C=C4)C=C3)cc1
REMARK SMILES IDX 5 1 4 2 3 3 1 4 2 5 31 7 32 8 93 9 33 10 92 11 34 12 35 13
REMARK SMILES IDX 36 14 86 15 37 16 91 17 85 18 87 19 38 20 90 21 84 22 83 23
REMARK SMILES IDX 39 25 71 26 51 27 70 28 52 29 55 30 69 31 88 32 53 33 54 34
REMARK SMILES IDX 68 36 89 37 56 38 40 39 41 40 49 41 42 42 44 43 50 44 43 45
REMARK SMILES IDX 45 46 46 47 47 48 48 49 72 50 73 51 81 52 74 53 76 54 82 55
REMARK SMILES IDX 75 56 77 57 78 58 79 59 80 60 57 61 58 62 66 63 59 64 61 65
REMARK SMILES IDX 67 66 60 67 62 68 63 69 64 70 65 71 6 72 7 73 8 74 9 76
REMARK SMILES IDX 10 77 11 78 15 79 12 80 14 81 13 82 16 83 17 84 18 85 19 86
REMARK SMILES IDX 30 87 20 88 29 89 21 90 22 91 23 92 24 93 28 94 25 95 27 96
REMARK SMILES IDX 26 97
REMARK H PARENT 3 6 87 24 55 35 7 75
REMARK Flexibility Score: inf
ROOT
ATOM      1  C   UNL     1       5.546  -0.911   1.630  1.00  0.00     0.042 C 
ENDROOT
BRANCH   1   2
ATOM      2  C   UNL     1       4.886  -0.933   0.252  1.00  0.00     0.118 C 
BRANCH   2   3
ATOM      3  N   UNL     1       3.431  -0.912   0.253  1.00  0.00    -0.352 N 
ATOM      4  O   UNL     1       1.339  -0.097   0.124  1.00  0.00    -0.269 OA
ATOM      5  C   UNL     1       2.532   0.078  -0.074  1.00  0.00     0.251 C 
ATOM      6  H   UNL     1       3.015  -1.757   0.538  1.00  0.00     0.163 HD
BRANCH   5   7
ATOM      7  C   UNL     1       3.020   1.353  -0.635  1.00  0.00     0.039 A 
ATOM      8  C   UNL     1       4.019   1.356  -1.606  1.00  0.00     0.014 A 
ATOM      9  C   UNL     1       2.492   2.556  -0.163  1.00  0.00     0.014 A 
ATOM     10  C   UNL     1       4.661   2.542  -1.922  1.00  0.00     0.010 A 
ATOM     11  C   UNL     1       3.053   3.762  -0.585  1.00  0.00     0.010 A 
ATOM     12  C   UNL     1       4.183   3.760  -1.417  1.00  0.00    -0.014 A 
BRANCH  12  13
ATOM     13  C   UNL     1       4.867   5.019  -1.797  1.00  0.00     0.031 A 
ATOM     14  C   UNL     1       5.492   5.902  -0.753  1.00  0.00     0.074 A 
ATOM     15  C   UNL     1       4.931   5.349  -3.101  1.00  0.00     0.049 A 
ATOM     16  N   UNL     1       6.103   7.048  -0.907  1.00  0.00    -0.248 NA
ATOM     17  C   UNL     1       5.411   5.452   0.647  1.00  0.00     0.031 C 
ATOM     18  C   UNL     1       4.336   4.574  -4.194  1.00  0.00     0.029 A 
ATOM     19  N   UNL     1       5.521   6.412  -3.732  1.00  0.00    -0.354 N 
ATOM     20  C   UNL     1       6.426   7.484   0.373  1.00  0.00     0.074 A 
ATOM     21  C   UNL     1       5.945   6.479   1.295  1.00  0.00     0.031 C 
ATOM     22  C   UNL     1       4.616   5.170  -5.361  1.00  0.00     0.029 A 
ATOM     23  C   UNL     1       5.348   6.402  -5.096  1.00  0.00     0.049 A 
ATOM     24  H   UNL     1       6.019   7.115  -3.256  1.00  0.00     0.167 HD
ATOM     25  C   UNL     1       7.077   8.613   0.741  1.00  0.00     0.034 A 
ATOM     26  C   UNL     1       5.716   7.297  -6.032  1.00  0.00     0.034 A 
ATOM     27  C   UNL     1       7.599   9.576  -0.191  1.00  0.00     0.049 A 
ATOM     28  C   UNL     1       6.470   8.518  -5.598  1.00  0.00     0.074 A 
ATOM     29  C   UNL     1       8.324  10.724   0.073  1.00  0.00     0.029 A 
ATOM     30  N   UNL     1       7.453   9.502  -1.569  1.00  0.00    -0.354 N 
ATOM     31  N   UNL     1       6.851   8.863  -4.392  1.00  0.00    -0.248 NA
ATOM     32  C   UNL     1       6.865   9.462  -6.651  1.00  0.00     0.031 C 
ATOM     33  C   UNL     1       8.609  11.350  -1.146  1.00  0.00     0.029 A 
ATOM     34  C   UNL     1       8.073  10.584  -2.170  1.00  0.00     0.049 A 
ATOM     35  H   UNL     1       6.979   8.785  -2.049  1.00  0.00     0.167 HD
ATOM     36  C   UNL     1       7.549  10.053  -4.540  1.00  0.00     0.074 A 
ATOM     37  C   UNL     1       7.559  10.356  -5.958  1.00  0.00     0.031 C 
ATOM     38  C   UNL     1       8.113  10.836  -3.588  1.00  0.00     0.034 A 
BRANCH  25  39
ATOM     39  C   UNL     1       7.292   8.851   2.213  1.00  0.00     0.023 A 
ATOM     40  C   UNL     1       8.262   8.100   2.907  1.00  0.00     0.012 A 
ATOM     41  C   UNL     1       6.573   9.850   2.899  1.00  0.00     0.148 A 
ATOM     42  C   UNL     1       8.492   8.317   4.266  1.00  0.00     0.002 A 
ATOM     43  C   UNL     1       6.835  10.087   4.245  1.00  0.00     0.091 A 
ATOM     44  F   UNL     1       5.635  10.537   2.232  1.00  0.00    -0.205 F 
ATOM     45  C   UNL     1       7.787   9.316   4.931  1.00  0.00     0.022 A 
BRANCH  43  46
ATOM     46  S   UNL     1       6.024  11.403   5.162  1.00  0.00     0.127 S 
ATOM     47  O   UNL     1       5.020  10.659   5.920  1.00  0.00    -0.237 OA
ATOM     48  O   UNL     1       7.119  11.943   5.969  1.00  0.00    -0.237 OA
ATOM     49  O   UNL     1       5.507  12.323   4.159  1.00  0.00    -0.744 OA
ENDBRANCH  43  46
ENDBRANCH  25  39
BRANCH  26  50
ATOM     50  C   UNL     1       5.404   7.024  -7.462  1.00  0.00     0.023 A 
ATOM     51  C   UNL     1       6.446   6.684  -8.344  1.00  0.00     0.012 A 
ATOM     52  C   UNL     1       4.074   7.004  -7.927  1.00  0.00     0.148 A 
ATOM     53  C   UNL     1       6.170   6.339  -9.667  1.00  0.00     0.002 A 
ATOM     54  C   UNL     1       3.802   6.601  -9.228  1.00  0.00     0.091 A 
ATOM     55  F   UNL     1       3.097   7.346  -7.074  1.00  0.00    -0.205 F 
ATOM     56  C   UNL     1       4.849   6.282 -10.104  1.00  0.00     0.022 A 
BRANCH  54  57
ATOM     57  S   UNL     1       2.124   6.346  -9.818  1.00  0.00     0.127 S 
ATOM     58  O   UNL     1       1.933   7.505 -10.686  1.00  0.00    -0.237 OA
ATOM     59  O   UNL     1       2.237   5.064 -10.516  1.00  0.00    -0.237 OA
ATOM     60  O   UNL     1       1.293   6.301  -8.622  1.00  0.00    -0.744 OA
ENDBRANCH  54  57
ENDBRANCH  26  50
BRANCH  38  61
ATOM     61  C   UNL     1       8.809  12.086  -4.049  1.00  0.00     0.023 A 
ATOM     62  C   UNL     1       8.044  13.201  -4.444  1.00  0.00     0.012 A 
ATOM     63  C   UNL     1      10.213  12.181  -4.017  1.00  0.00     0.148 A 
ATOM     64  C   UNL     1       8.669  14.387  -4.824  1.00  0.00     0.002 A 
ATOM     65  C   UNL     1      10.827  13.380  -4.356  1.00  0.00     0.091 A 
ATOM     66  F   UNL     1      10.921  11.099  -3.660  1.00  0.00    -0.205 F 
ATOM     67  C   UNL     1      10.058  14.481  -4.768  1.00  0.00     0.022 A 
BRANCH  65  68
ATOM     68  S   UNL     1      12.604  13.613  -4.227  1.00  0.00     0.127 S 
ATOM     69  O   UNL     1      13.017  13.538  -5.627  1.00  0.00    -0.237 OA
ATOM     70  O   UNL     1      12.703  14.946  -3.632  1.00  0.00    -0.237 OA
ATOM     71  O   UNL     1      13.084  12.536  -3.371  1.00  0.00    -0.744 OA
ENDBRANCH  65  68
ENDBRANCH  38  61
ENDBRANCH  12  13
ENDBRANCH   5   7
ENDBRANCH   2   3
ENDBRANCH   1   2
BRANCH   1  72
ATOM     72  C   UNL     1       5.450  -2.189   2.454  1.00  0.00     0.118 C 
BRANCH  72  73
ATOM     73  N   UNL     1       5.773  -3.394   1.706  1.00  0.00    -0.352 N 
ATOM     74  C   UNL     1       6.003  -4.661   2.157  1.00  0.00     0.253 C 
ATOM     75  H   UNL     1       5.835  -3.278   0.731  1.00  0.00     0.163 HD
ATOM     76  O   UNL     1       6.269  -5.560   1.362  1.00  0.00    -0.269 OA
BRANCH  74  77
ATOM     77  C   UNL     1       6.027  -4.971   3.582  1.00  0.00     0.070 A 
ATOM     78  C   UNL     1       7.281  -5.331   4.070  1.00  0.00     0.125 A 
ATOM     79  C   UNL     1       4.957  -4.931   4.472  1.00  0.00     0.055 A 
ATOM     80  N   UNL     1       7.550  -5.588   5.371  1.00  0.00    -0.264 NA
ATOM     81  C   UNL     1       5.225  -5.182   5.830  1.00  0.00     0.035 A 
ATOM     82  C   UNL     1       6.516  -5.489   6.226  1.00  0.00     0.112 A 
BRANCH  79  83
ATOM     83  C   UNL     1       3.605  -4.399   4.182  1.00  0.00     0.254 C 
ATOM     84  O   UNL     1       3.164  -3.626   5.038  1.00  0.00    -0.269 OA
ATOM     85  N   UNL     1       2.897  -4.649   3.008  1.00  0.00    -0.339 N 
ATOM     86  C   UNL     1       2.061  -3.550   2.545  1.00  0.00     0.120 C 
ATOM     87  C   UNL     1       3.075  -5.764   2.073  1.00  0.00     0.120 C 
ATOM     88  C   UNL     1       0.759  -3.970   1.903  1.00  0.00     0.025 C 
ATOM     89  C   UNL     1       1.751  -6.196   1.417  1.00  0.00     0.025 C 
ATOM     90  C   UNL     1       1.019  -4.991   0.790  1.00  0.00    -0.003 C 
BRANCH  90  91
ATOM     91  C   UNL     1      -0.287  -5.397   0.079  1.00  0.00     0.039 C 
BRANCH  91  92
ATOM     92  C   UNL     1      -0.979  -4.224  -0.586  1.00  0.00    -0.048 A 
ATOM     93  C   UNL     1      -2.097  -3.625   0.015  1.00  0.00     0.004 A 
ATOM     94  C   UNL     1      -0.469  -3.666  -1.768  1.00  0.00     0.004 A 
ATOM     95  C   UNL     1      -2.680  -2.485  -0.544  1.00  0.00     0.000 A 
ATOM     96  C   UNL     1      -1.057  -2.528  -2.326  1.00  0.00     0.000 A 
ATOM     97  C   UNL     1      -2.159  -1.936  -1.712  1.00  0.00     0.000 A 
ENDBRANCH  91  92
ENDBRANCH  90  91
ENDBRANCH  79  83
ENDBRANCH  74  77
ENDBRANCH  72  73
ENDBRANCH   1  72
TORSDOF 16
