REMARK SMILES NS(=O)(=O)c1ccc(-n2nc(C(=O)NCCCNC(=O)c3ccc(-c4c5nc(c(-c6cccc(S(=O)(=O)[O-])c6F)c6ccc([nH]6)c(-c6cccc(S(=O)(=O)[O-])c6F)c6nc(c(-c7cccc(S(=O)(=O)[O-])c7F)c7ccc4[nH]7)C=C6)C=C5)cc3)cc2-c2cc3ccccc3s2)cc1
REMARK SMILES IDX 16 1 15 2 14 3 12 4 13 5 11 7 9 8 10 9 85 10 84 11 8 12 5 13
REMARK SMILES IDX 6 14 96 15 7 16 95 17 2 18 3 19 4 20 1 21 86 24 87 25 94 26
REMARK SMILES IDX 88 27 93 28 89 29 92 30 90 31 91 32 17 33 18 34 19 35 20 37
REMARK SMILES IDX 21 38 22 39 83 40 23 41 82 42 24 43 25 44 26 45 76 46 27 47
REMARK SMILES IDX 81 48 75 49 77 50 28 51 80 52 74 53 73 54 29 56 61 57 41 58
REMARK SMILES IDX 60 59 42 60 45 61 59 62 78 63 43 64 44 65 58 67 79 68 46 69
REMARK SMILES IDX 30 70 31 71 39 72 32 73 34 74 40 75 33 76 35 77 36 78 37 79
REMARK SMILES IDX 38 80 62 81 63 82 71 83 64 84 66 85 72 86 65 87 67 88 68 89
REMARK SMILES IDX 69 90 70 91 47 92 48 93 56 94 49 95 51 96 57 97 50 98 52 99
REMARK SMILES IDX 53 100 54 101 55 102
REMARK H PARENT 14 6 1 22 1 23 18 36 77 55 45 66
REMARK Flexibility Score: inf
ROOT
ATOM      1  C   UNL     1       3.439   8.736   8.106  1.00  0.00     0.042 C 
ENDROOT
BRANCH   1   2
ATOM      2  C   UNL     1       2.161   7.896   8.232  1.00  0.00     0.118 C 
BRANCH   2   3
ATOM      3  N   UNL     1       1.062   8.423   7.433  1.00  0.00    -0.351 N 
ATOM      4  C   UNL     1       0.607   8.073   6.172  1.00  0.00     0.271 C 
ATOM      5  O   UNL     1      -0.482   8.528   5.824  1.00  0.00    -0.267 OA
ATOM      6  H   UNL     1       0.558   9.151   7.862  1.00  0.00     0.163 HD
BRANCH   4   7
ATOM      7  C   UNL     1       1.369   7.115   5.350  1.00  0.00     0.151 A 
ATOM      8  N   UNL     1       1.671   5.356   4.155  1.00  0.00    -0.231 N 
ATOM      9  N   UNL     1       0.788   6.357   4.401  1.00  0.00    -0.162 NA
ATOM     10  C   UNL     1       2.792   5.482   4.944  1.00  0.00     0.085 A 
ATOM     11  C   UNL     1       2.733   6.780   5.417  1.00  0.00     0.066 A 
BRANCH   8  12
ATOM     12  C   UNL     1       1.398   4.435   3.123  1.00  0.00     0.065 A 
ATOM     13  C   UNL     1       0.850   2.725   1.005  1.00  0.00     0.082 A 
ATOM     14  C   UNL     1       1.330   2.205   2.214  1.00  0.00     0.024 A 
ATOM     15  C   UNL     1       0.639   4.096   0.849  1.00  0.00     0.024 A 
ATOM     16  C   UNL     1       1.634   3.067   3.271  1.00  0.00     0.030 A 
ATOM     17  C   UNL     1       0.883   4.948   1.921  1.00  0.00     0.030 A 
BRANCH  13  18
ATOM     18  S   UNL     1       0.534   1.685  -0.385  1.00  0.00     0.238 S 
ATOM     19  O   UNL     1       1.269   2.182  -1.517  1.00  0.00    -0.207 OA
ATOM     20  O   UNL     1      -0.884   1.389  -0.433  1.00  0.00    -0.207 OA
BRANCH  18  21
ATOM     21  N   UNL     1       1.278   0.226   0.004  1.00  0.00    -0.225 NA
ATOM     22  H   UNL     1       1.141  -0.439  -0.757  1.00  0.00     0.137 HD
ATOM     23  H   UNL     1       0.866  -0.148   0.860  1.00  0.00     0.137 HD
ENDBRANCH  18  21
ENDBRANCH  13  18
ENDBRANCH   8  12
BRANCH  10  24
ATOM     24  C   UNL     1       3.763   4.528   5.405  1.00  0.00     0.054 A 
ATOM     25  C   UNL     1       5.130   4.765   5.491  1.00  0.00     0.031 A 
ATOM     26  S   UNL     1       3.342   3.603   6.815  1.00  0.00    -0.134 S 
ATOM     27  C   UNL     1       5.415   5.104   6.878  1.00  0.00    -0.007 A 
ATOM     28  C   UNL     1       4.417   4.612   7.729  1.00  0.00     0.035 A 
ATOM     29  C   UNL     1       6.412   5.938   7.436  1.00  0.00     0.009 A 
ATOM     30  C   UNL     1       4.347   4.961   9.088  1.00  0.00     0.019 A 
ATOM     31  C   UNL     1       6.320   6.332   8.777  1.00  0.00     0.001 A 
ATOM     32  C   UNL     1       5.290   5.863   9.586  1.00  0.00     0.001 A 
ENDBRANCH  10  24
ENDBRANCH   4   7
ENDBRANCH   2   3
ENDBRANCH   1   2
BRANCH   1  33
ATOM     33  C   UNL     1       3.491   9.860   9.118  1.00  0.00     0.118 C 
BRANCH  33  34
ATOM     34  N   UNL     1       3.684   9.400  10.505  1.00  0.00    -0.352 N 
ATOM     35  C   UNL     1       3.760  10.173  11.659  1.00  0.00     0.251 C 
ATOM     36  H   UNL     1       3.769   8.427  10.630  1.00  0.00     0.163 HD
ATOM     37  O   UNL     1       4.257   9.726  12.686  1.00  0.00    -0.269 OA
BRANCH  35  38
ATOM     38  C   UNL     1       3.211  11.540  11.608  1.00  0.00     0.039 A 
ATOM     39  C   UNL     1       3.811  12.646  12.214  1.00  0.00     0.014 A 
ATOM     40  C   UNL     1       2.087  11.697  10.812  1.00  0.00     0.014 A 
ATOM     41  C   UNL     1       3.298  13.909  11.919  1.00  0.00     0.010 A 
ATOM     42  C   UNL     1       1.839  12.915  10.263  1.00  0.00     0.010 A 
ATOM     43  C   UNL     1       2.323  14.029  10.913  1.00  0.00    -0.014 A 
BRANCH  43  44
ATOM     44  C   UNL     1       1.834  15.305  10.422  1.00  0.00     0.031 A 
ATOM     45  C   UNL     1       2.920  16.202   9.976  1.00  0.00     0.074 A 
ATOM     46  C   UNL     1       0.525  15.562  10.193  1.00  0.00     0.049 A 
ATOM     47  N   UNL     1       3.451  17.157  10.661  1.00  0.00    -0.248 NA
ATOM     48  C   UNL     1       3.658  15.864   8.750  1.00  0.00     0.031 C 
ATOM     49  C   UNL     1      -0.626  14.646  10.260  1.00  0.00     0.029 A 
ATOM     50  N   UNL     1      -0.046  16.703   9.730  1.00  0.00    -0.354 N 
ATOM     51  C   UNL     1       4.381  17.738   9.809  1.00  0.00     0.074 A 
ATOM     52  C   UNL     1       4.657  16.750   8.802  1.00  0.00     0.031 C 
ATOM     53  C   UNL     1      -1.690  15.201   9.636  1.00  0.00     0.029 A 
ATOM     54  C   UNL     1      -1.361  16.569   9.292  1.00  0.00     0.049 A 
ATOM     55  H   UNL     1       0.434  17.563   9.706  1.00  0.00     0.167 HD
ATOM     56  C   UNL     1       4.578  19.086   9.832  1.00  0.00     0.034 A 
ATOM     57  C   UNL     1      -2.109  17.519   8.674  1.00  0.00     0.034 A 
ATOM     58  C   UNL     1       3.952  19.672  11.000  1.00  0.00     0.049 A 
ATOM     59  C   UNL     1      -1.498  18.824   9.016  1.00  0.00     0.074 A 
ATOM     60  C   UNL     1       4.046  19.475  12.364  1.00  0.00     0.029 A 
ATOM     61  N   UNL     1       2.747  20.303  10.793  1.00  0.00    -0.354 N 
ATOM     62  N   UNL     1      -1.474  19.303  10.229  1.00  0.00    -0.248 NA
ATOM     63  C   UNL     1      -0.503  19.364   8.106  1.00  0.00     0.031 C 
ATOM     64  C   UNL     1       2.703  19.555  12.840  1.00  0.00     0.029 A 
ATOM     65  C   UNL     1       1.876  19.892  11.766  1.00  0.00     0.049 A 
ATOM     66  H   UNL     1       2.546  20.940  10.070  1.00  0.00     0.167 HD
ATOM     67  C   UNL     1      -0.189  19.811  10.365  1.00  0.00     0.074 A 
ATOM     68  C   UNL     1       0.322  19.919   8.998  1.00  0.00     0.031 C 
ATOM     69  C   UNL     1       0.443  19.805  11.576  1.00  0.00     0.034 A 
BRANCH  56  70
ATOM     70  C   UNL     1       4.938  19.942   8.635  1.00  0.00     0.023 A 
ATOM     71  C   UNL     1       5.161  21.316   8.887  1.00  0.00     0.012 A 
ATOM     72  C   UNL     1       4.801  19.560   7.281  1.00  0.00     0.148 A 
ATOM     73  C   UNL     1       5.160  22.264   7.860  1.00  0.00     0.002 A 
ATOM     74  C   UNL     1       4.873  20.496   6.256  1.00  0.00     0.091 A 
ATOM     75  F   UNL     1       4.477  18.308   6.959  1.00  0.00    -0.205 F 
ATOM     76  C   UNL     1       5.016  21.854   6.542  1.00  0.00     0.022 A 
BRANCH  74  77
ATOM     77  S   UNL     1       4.734  20.019   4.527  1.00  0.00     0.127 S 
ATOM     78  O   UNL     1       3.432  20.578   4.176  1.00  0.00    -0.237 OA
ATOM     79  O   UNL     1       5.885  20.703   3.939  1.00  0.00    -0.237 OA
ATOM     80  O   UNL     1       4.830  18.564   4.508  1.00  0.00    -0.744 OA
ENDBRANCH  74  77
ENDBRANCH  56  70
BRANCH  57  81
ATOM     81  C   UNL     1      -3.133  17.401   7.608  1.00  0.00     0.023 A 
ATOM     82  C   UNL     1      -4.023  18.470   7.368  1.00  0.00     0.012 A 
ATOM     83  C   UNL     1      -3.025  16.394   6.626  1.00  0.00     0.148 A 
ATOM     84  C   UNL     1      -4.747  18.555   6.171  1.00  0.00     0.002 A 
ATOM     85  C   UNL     1      -3.742  16.486   5.435  1.00  0.00     0.091 A 
ATOM     86  F   UNL     1      -2.147  15.400   6.821  1.00  0.00    -0.205 F 
ATOM     87  C   UNL     1      -4.595  17.572   5.199  1.00  0.00     0.022 A 
BRANCH  85  88
ATOM     88  S   UNL     1      -3.561  15.286   4.108  1.00  0.00     0.127 S 
ATOM     89  O   UNL     1      -4.953  14.923   3.841  1.00  0.00    -0.237 OA
ATOM     90  O   UNL     1      -2.926  16.085   3.064  1.00  0.00    -0.237 OA
ATOM     91  O   UNL     1      -2.750  14.208   4.659  1.00  0.00    -0.744 OA
ENDBRANCH  85  88
ENDBRANCH  57  81
BRANCH  69  92
ATOM     92  C   UNL     1      -0.376  19.472  12.801  1.00  0.00     0.023 A 
ATOM     93  C   UNL     1      -0.977  18.212  13.009  1.00  0.00     0.012 A 
ATOM     94  C   UNL     1      -0.398  20.411  13.845  1.00  0.00     0.148 A 
ATOM     95  C   UNL     1      -1.601  17.905  14.223  1.00  0.00     0.002 A 
ATOM     96  C   UNL     1      -0.977  20.087  15.065  1.00  0.00     0.091 A 
ATOM     97  F   UNL     1       0.178  21.604  13.632  1.00  0.00    -0.205 F 
ATOM     98  C   UNL     1      -1.589  18.839  15.256  1.00  0.00     0.022 A 
BRANCH  96  99
ATOM     99  S   UNL     1      -0.883  21.203  16.466  1.00  0.00     0.127 S 
ATOM    100  O   UNL     1      -2.250  21.712  16.542  1.00  0.00    -0.237 OA
ATOM    101  O   UNL     1      -0.502  20.304  17.557  1.00  0.00    -0.237 OA
ATOM    102  O   UNL     1       0.135  22.189  16.126  1.00  0.00    -0.744 OA
ENDBRANCH  96  99
ENDBRANCH  69  92
ENDBRANCH  43  44
ENDBRANCH  35  38
ENDBRANCH  33  34
ENDBRANCH   1  33
TORSDOF 17
