REMARK SMILES O=C(NCCCNC(=O)c1ccc([C@H]2CCC[N@@H+](CCN3CCCC3=O)C2)cc1)c1ccc(-c2c3nc(c(-c4cccc(S(=O)(=O)[O-])c4F)c4ccc([nH]4)c(-c4cccc(S(=O)(=O)[O-])c4F)c4nc(c(-c5cccc(S(=O)(=O)[O-])c5F)c5ccc2[nH]5)C=C4)C=C3)cc1
REMARK SMILES IDX 5 1 4 2 3 3 1 4 2 5 30 7 31 8 92 9 32 10 91 11 33 12 34 13
REMARK SMILES IDX 35 14 85 15 36 16 90 17 84 18 86 19 37 20 89 21 83 22 82 23
REMARK SMILES IDX 38 25 70 26 50 27 69 28 51 29 54 30 68 31 87 32 52 33 53 34
REMARK SMILES IDX 67 36 88 37 55 38 39 39 40 40 48 41 41 42 43 43 49 44 42 45
REMARK SMILES IDX 44 46 45 47 46 48 47 49 71 50 72 51 80 52 73 53 75 54 81 55
REMARK SMILES IDX 74 56 76 57 77 58 78 59 79 60 56 61 57 62 65 63 58 64 60 65
REMARK SMILES IDX 66 66 59 67 61 68 62 69 63 70 64 71 6 72 7 73 8 74 9 76
REMARK SMILES IDX 10 77 11 78 29 79 12 80 28 81 13 82 14 83 15 84 27 85 16 86
REMARK SMILES IDX 18 87 17 88 19 90 20 91 21 92 22 93 25 94 23 95 24 96 26 97
REMARK H PARENT 3 6 86 24 54 35 7 75 18 89
REMARK Flexibility Score: inf
ROOT
ATOM      1  C   UNL     1      12.118   9.814  10.203  1.00  0.00     0.042 C 
ENDROOT
BRANCH   1   2
ATOM      2  C   UNL     1      13.455  10.209  10.816  1.00  0.00     0.118 C 
BRANCH   2   3
ATOM      3  N   UNL     1      14.387  10.769   9.846  1.00  0.00    -0.352 N 
ATOM      4  O   UNL     1      15.584  12.346   8.780  1.00  0.00    -0.269 OA
ATOM      5  C   UNL     1      14.947  12.024   9.779  1.00  0.00     0.251 C 
ATOM      6  H   UNL     1      14.658  10.154   9.127  1.00  0.00     0.163 HD
BRANCH   5   7
ATOM      7  C   UNL     1      14.755  12.988  10.887  1.00  0.00     0.039 A 
ATOM      8  C   UNL     1      14.834  12.572  12.216  1.00  0.00     0.014 A 
ATOM      9  C   UNL     1      14.499  14.331  10.593  1.00  0.00     0.014 A 
ATOM     10  C   UNL     1      14.483  13.445  13.238  1.00  0.00     0.010 A 
ATOM     11  C   UNL     1      14.254  15.237  11.631  1.00  0.00     0.010 A 
ATOM     12  C   UNL     1      14.209  14.794  12.962  1.00  0.00    -0.014 A 
BRANCH  12  13
ATOM     13  C   UNL     1      13.962  15.730  14.090  1.00  0.00     0.031 A 
ATOM     14  C   UNL     1      12.657  16.465  14.234  1.00  0.00     0.074 A 
ATOM     15  C   UNL     1      14.939  15.905  15.003  1.00  0.00     0.049 A 
ATOM     16  N   UNL     1      12.284  17.298  15.172  1.00  0.00    -0.248 NA
ATOM     17  C   UNL     1      11.640  16.245  13.193  1.00  0.00     0.031 C 
ATOM     18  C   UNL     1      16.261  15.273  14.951  1.00  0.00     0.029 A 
ATOM     19  N   UNL     1      14.979  16.660  16.147  1.00  0.00    -0.354 N 
ATOM     20  C   UNL     1      11.011  17.730  14.820  1.00  0.00     0.074 A 
ATOM     21  C   UNL     1      10.677  17.074  13.574  1.00  0.00     0.031 C 
ATOM     22  C   UNL     1      16.968  15.639  16.028  1.00  0.00     0.029 A 
ATOM     23  C   UNL     1      16.182  16.584  16.810  1.00  0.00     0.049 A 
ATOM     24  H   UNL     1      14.222  17.203  16.462  1.00  0.00     0.167 HD
ATOM     25  C   UNL     1      10.192  18.585  15.481  1.00  0.00     0.034 A 
ATOM     26  C   UNL     1      16.618  17.222  17.912  1.00  0.00     0.034 A 
ATOM     27  C   UNL     1      10.527  19.221  16.729  1.00  0.00     0.049 A 
ATOM     28  C   UNL     1      15.693  18.172  18.614  1.00  0.00     0.074 A 
ATOM     29  C   UNL     1       9.744  20.062  17.502  1.00  0.00     0.029 A 
ATOM     30  N   UNL     1      11.745  19.103  17.381  1.00  0.00    -0.354 N 
ATOM     31  N   UNL     1      14.452  18.478  18.326  1.00  0.00    -0.248 NA
ATOM     32  C   UNL     1      16.218  18.844  19.809  1.00  0.00     0.031 C 
ATOM     33  C   UNL     1      10.502  20.482  18.600  1.00  0.00     0.029 A 
ATOM     34  C   UNL     1      11.742  19.867  18.537  1.00  0.00     0.049 A 
ATOM     35  H   UNL     1      12.502  18.557  17.068  1.00  0.00     0.167 HD
ATOM     36  C   UNL     1      14.036  19.352  19.321  1.00  0.00     0.074 A 
ATOM     37  C   UNL     1      15.151  19.507  20.233  1.00  0.00     0.031 C 
ATOM     38  C   UNL     1      12.842  19.980  19.460  1.00  0.00     0.034 A 
BRANCH  25  39
ATOM     39  C   UNL     1       8.838  18.873  14.882  1.00  0.00     0.023 A 
ATOM     40  C   UNL     1       7.839  17.877  14.897  1.00  0.00     0.012 A 
ATOM     41  C   UNL     1       8.528  20.151  14.374  1.00  0.00     0.148 A 
ATOM     42  C   UNL     1       6.567  18.137  14.386  1.00  0.00     0.002 A 
ATOM     43  C   UNL     1       7.245  20.416  13.908  1.00  0.00     0.091 A 
ATOM     44  F   UNL     1       9.492  21.081  14.354  1.00  0.00    -0.205 F 
ATOM     45  C   UNL     1       6.267  19.407  13.903  1.00  0.00     0.022 A 
BRANCH  43  46
ATOM     46  S   UNL     1       6.733  22.041  13.337  1.00  0.00     0.127 S 
ATOM     47  O   UNL     1       6.546  21.803  11.906  1.00  0.00    -0.237 OA
ATOM     48  O   UNL     1       5.495  22.253  14.086  1.00  0.00    -0.237 OA
ATOM     49  O   UNL     1       7.818  22.949  13.681  1.00  0.00    -0.744 OA
ENDBRANCH  43  46
ENDBRANCH  25  39
BRANCH  26  50
ATOM     50  C   UNL     1      17.991  16.960  18.426  1.00  0.00     0.023 A 
ATOM     51  C   UNL     1      18.158  16.290  19.653  1.00  0.00     0.012 A 
ATOM     52  C   UNL     1      19.130  17.343  17.690  1.00  0.00     0.148 A 
ATOM     53  C   UNL     1      19.435  16.035  20.154  1.00  0.00     0.002 A 
ATOM     54  C   UNL     1      20.397  17.032  18.165  1.00  0.00     0.091 A 
ATOM     55  F   UNL     1      18.948  17.987  16.529  1.00  0.00    -0.205 F 
ATOM     56  C   UNL     1      20.553  16.396  19.406  1.00  0.00     0.022 A 
BRANCH  54  57
ATOM     57  S   UNL     1      21.885  17.337  17.207  1.00  0.00     0.127 S 
ATOM     58  O   UNL     1      22.527  18.395  17.983  1.00  0.00    -0.237 OA
ATOM     59  O   UNL     1      22.552  16.036  17.267  1.00  0.00    -0.237 OA
ATOM     60  O   UNL     1      21.428  17.718  15.878  1.00  0.00    -0.744 OA
ENDBRANCH  54  57
ENDBRANCH  26  50
BRANCH  38  61
ATOM     61  C   UNL     1      12.659  20.860  20.669  1.00  0.00     0.023 A 
ATOM     62  C   UNL     1      13.342  22.089  20.760  1.00  0.00     0.012 A 
ATOM     63  C   UNL     1      11.762  20.490  21.691  1.00  0.00     0.148 A 
ATOM     64  C   UNL     1      13.165  22.918  21.867  1.00  0.00     0.002 A 
ATOM     65  C   UNL     1      11.548  21.346  22.764  1.00  0.00     0.091 A 
ATOM     66  F   UNL     1      11.136  19.308  21.595  1.00  0.00    -0.205 F 
ATOM     67  C   UNL     1      12.260  22.553  22.861  1.00  0.00     0.022 A 
BRANCH  65  68
ATOM     68  S   UNL     1      10.331  21.007  24.040  1.00  0.00     0.127 S 
ATOM     69  O   UNL     1      11.182  20.730  25.197  1.00  0.00    -0.237 OA
ATOM     70  O   UNL     1       9.598  22.271  24.110  1.00  0.00    -0.237 OA
ATOM     71  O   UNL     1       9.547  19.877  23.560  1.00  0.00    -0.744 OA
ENDBRANCH  65  68
ENDBRANCH  38  61
ENDBRANCH  12  13
ENDBRANCH   5   7
ENDBRANCH   2   3
ENDBRANCH   1   2
BRANCH   1  72
ATOM     72  C   UNL     1      12.198   8.685   9.184  1.00  0.00     0.118 C 
BRANCH  72  73
ATOM     73  N   UNL     1      12.734   7.457   9.755  1.00  0.00    -0.352 N 
ATOM     74  C   UNL     1      12.129   6.245   9.975  1.00  0.00     0.251 C 
ATOM     75  H   UNL     1      13.680   7.504  10.025  1.00  0.00     0.163 HD
ATOM     76  O   UNL     1      12.695   5.390  10.650  1.00  0.00    -0.269 OA
BRANCH  74  77
ATOM     77  C   UNL     1      10.793   5.966   9.414  1.00  0.00     0.039 A 
ATOM     78  C   UNL     1       9.807   5.436  10.245  1.00  0.00     0.014 A 
ATOM     79  C   UNL     1      10.523   6.172   8.063  1.00  0.00     0.014 A 
ATOM     80  C   UNL     1       8.515   5.238   9.750  1.00  0.00     0.005 A 
ATOM     81  C   UNL     1       9.229   5.971   7.576  1.00  0.00     0.005 A 
ATOM     82  C   UNL     1       8.182   5.576   8.426  1.00  0.00    -0.039 A 
BRANCH  82  83
ATOM     83  C   UNL     1       6.718   5.525   7.964  1.00  0.00     0.074 C 
ATOM     84  C   UNL     1       5.808   6.262   8.972  1.00  0.00     0.020 C 
ATOM     85  C   UNL     1       6.487   6.143   6.560  1.00  0.00     0.270 C 
ATOM     86  C   UNL     1       4.366   6.333   8.483  1.00  0.00     0.062 C 
ATOM     87  N   UNL     1       5.082   6.235   6.144  1.00  0.00    -0.333 N 
ATOM     88  C   UNL     1       4.276   6.984   7.105  1.00  0.00     0.262 C 
ATOM     89  H   UNL     1       4.710   5.285   6.140  1.00  0.00     0.348 HD
BRANCH  87  90
ATOM     90  C   UNL     1       4.932   6.723   4.754  1.00  0.00     0.284 C 
BRANCH  90  91
ATOM     91  C   UNL     1       5.324   8.180   4.374  1.00  0.00     0.180 C 
BRANCH  91  92
ATOM     92  N   UNL     1       6.732   8.549   4.473  1.00  0.00    -0.337 N 
ATOM     93  C   UNL     1       7.137   9.878   4.871  1.00  0.00     0.120 C 
ATOM     94  C   UNL     1       7.818   7.768   4.106  1.00  0.00     0.222 C 
ATOM     95  C   UNL     1       8.608   9.947   4.497  1.00  0.00     0.031 C 
ATOM     96  C   UNL     1       9.058   8.499   4.550  1.00  0.00     0.102 C 
ATOM     97  O   UNL     1       7.802   6.654   3.606  1.00  0.00    -0.275 OA
ENDBRANCH  91  92
ENDBRANCH  90  91
ENDBRANCH  87  90
ENDBRANCH  82  83
ENDBRANCH  74  77
ENDBRANCH  72  73
ENDBRANCH   1  72
TORSDOF 17
