REMARK SMILES CC1=Nc2c(c(C)nn2-c2ccc(F)cc2)[C@H](c2ccc(C(=O)NCCCNC(=O)c3ccc(-c4c5nc(c(-c6cccc(S(=O)(=O)[O-])c6F)c6ccc([nH]6)c(-c6cccc(S(=O)(=O)[O-])c6F)c6nc(c(-c7cccc(S(=O)(=O)[O-])c7F)c7ccc4[nH]7)C=C6)C=C5)cc3)cc2)S1
REMARK SMILES IDX 26 1 25 2 24 3 22 4 23 5 21 7 18 8 19 9 95 10 20 11 94 12
REMARK SMILES IDX 17 13 1 14 2 15 3 16 96 17 4 18 5 19 9 20 6 21 8 22 7 23
REMARK SMILES IDX 10 24 11 25 16 26 12 27 15 28 13 29 14 30 27 31 28 32 29 33
REMARK SMILES IDX 30 35 31 36 32 37 93 38 33 39 92 40 34 41 35 42 36 43 86 44
REMARK SMILES IDX 37 45 91 46 85 47 87 48 38 49 90 50 84 51 83 52 39 54 71 55
REMARK SMILES IDX 51 56 70 57 52 58 55 59 69 60 88 61 53 62 54 63 68 65 89 66
REMARK SMILES IDX 56 67 40 68 41 69 49 70 42 71 44 72 50 73 43 74 45 75 46 76
REMARK SMILES IDX 47 77 48 78 72 79 73 80 81 81 74 82 76 83 82 84 75 85 77 86
REMARK SMILES IDX 78 87 79 88 80 89 57 90 58 91 66 92 59 93 61 94 67 95 60 96
REMARK SMILES IDX 62 97 63 98 64 99 65 100
REMARK H PARENT 24 6 28 34 87 53 55 64
REMARK Flexibility Score: inf
ROOT
ATOM      1  C   UNL     1       6.024  -3.500   4.120  1.00  0.00     0.042 C 
ENDROOT
BRANCH   1   2
ATOM      2  C   UNL     1       5.001  -4.513   4.647  1.00  0.00     0.118 C 
BRANCH   2   3
ATOM      3  N   UNL     1       4.637  -4.271   6.032  1.00  0.00    -0.352 N 
ATOM      4  C   UNL     1       3.509  -3.712   6.581  1.00  0.00     0.251 C 
ATOM      5  O   UNL     1       3.336  -3.809   7.793  1.00  0.00    -0.269 OA
ATOM      6  H   UNL     1       5.312  -4.557   6.689  1.00  0.00     0.163 HD
BRANCH   4   7
ATOM      7  C   UNL     1       2.462  -3.057   5.758  1.00  0.00     0.039 A 
ATOM      8  C   UNL     1       0.365  -1.853   4.283  1.00  0.00    -0.030 A 
ATOM      9  C   UNL     1       0.104  -2.559   5.471  1.00  0.00     0.006 A 
ATOM     10  C   UNL     1       1.701  -1.737   3.869  1.00  0.00     0.006 A 
ATOM     11  C   UNL     1       1.140  -3.139   6.206  1.00  0.00     0.014 A 
ATOM     12  C   UNL     1       2.734  -2.321   4.606  1.00  0.00     0.014 A 
BRANCH   8  13
ATOM     13  C   UNL     1      -0.781  -1.180   3.547  1.00  0.00     0.119 C 
ATOM     14  C   UNL     1       0.745  -0.084  -0.158  1.00  0.00     0.075 C 
ATOM     15  C   UNL     1       0.069   0.020   1.185  1.00  0.00     0.074 C 
ATOM     16  N   UNL     1       0.150   1.155   1.801  1.00  0.00    -0.227 NA
ATOM     17  S   UNL     1      -0.743  -1.437   1.740  1.00  0.00    -0.098 SA
ATOM     18  C   UNL     1      -0.338   1.245   3.061  1.00  0.00     0.161 A 
ATOM     19  C   UNL     1      -0.728   0.250   3.926  1.00  0.00     0.038 A 
ATOM     20  N   UNL     1      -0.400   2.429   3.776  1.00  0.00    -0.215 N 
ATOM     21  C   UNL     1      -0.984   0.914   5.155  1.00  0.00     0.067 A 
ATOM     22  N   UNL     1      -0.714   2.224   5.077  1.00  0.00    -0.171 NA
ATOM     23  C   UNL     1      -1.445   0.338   6.444  1.00  0.00     0.069 C 
BRANCH  20  24
ATOM     24  C   UNL     1      -0.204   3.730   3.263  1.00  0.00     0.067 A 
ATOM     25  C   UNL     1      -0.775   4.072   2.028  1.00  0.00     0.031 A 
ATOM     26  C   UNL     1       0.584   4.644   3.969  1.00  0.00     0.031 A 
ATOM     27  C   UNL     1      -0.545   5.335   1.490  1.00  0.00     0.041 A 
ATOM     28  C   UNL     1       0.855   5.888   3.394  1.00  0.00     0.041 A 
ATOM     29  C   UNL     1       0.285   6.222   2.167  1.00  0.00     0.123 A 
ATOM     30  F   UNL     1       0.542   7.418   1.622  1.00  0.00    -0.207 F 
ENDBRANCH  20  24
ENDBRANCH   8  13
ENDBRANCH   4   7
ENDBRANCH   2   3
ENDBRANCH   1   2
BRANCH   1  31
ATOM     31  C   UNL     1       7.448  -3.822   4.537  1.00  0.00     0.118 C 
BRANCH  31  32
ATOM     32  N   UNL     1       7.957  -5.034   3.886  1.00  0.00    -0.352 N 
ATOM     33  C   UNL     1       9.111  -5.739   4.162  1.00  0.00     0.251 C 
ATOM     34  H   UNL     1       7.403  -5.391   3.155  1.00  0.00     0.163 HD
ATOM     35  O   UNL     1       9.588  -6.506   3.325  1.00  0.00    -0.269 OA
BRANCH  33  36
ATOM     36  C   UNL     1       9.759  -5.559   5.468  1.00  0.00     0.039 A 
ATOM     37  C   UNL     1      11.148  -5.475   5.596  1.00  0.00     0.014 A 
ATOM     38  C   UNL     1       8.931  -5.410   6.575  1.00  0.00     0.014 A 
ATOM     39  C   UNL     1      11.686  -5.148   6.839  1.00  0.00     0.010 A 
ATOM     40  C   UNL     1       9.444  -4.889   7.731  1.00  0.00     0.010 A 
ATOM     41  C   UNL     1      10.821  -4.831   7.898  1.00  0.00    -0.014 A 
BRANCH  41  42
ATOM     42  C   UNL     1      11.327  -4.330   9.169  1.00  0.00     0.031 A 
ATOM     43  C   UNL     1      12.188  -3.126   9.049  1.00  0.00     0.074 A 
ATOM     44  C   UNL     1      10.862  -4.769  10.361  1.00  0.00     0.049 A 
ATOM     45  N   UNL     1      13.469  -3.055   9.200  1.00  0.00    -0.248 NA
ATOM     46  C   UNL     1      11.581  -1.888   8.533  1.00  0.00     0.031 C 
ATOM     47  C   UNL     1       9.752  -5.705  10.606  1.00  0.00     0.029 A 
ATOM     48  N   UNL     1      11.181  -4.357  11.617  1.00  0.00    -0.354 N 
ATOM     49  C   UNL     1      13.779  -1.703   9.068  1.00  0.00     0.074 A 
ATOM     50  C   UNL     1      12.648  -1.093   8.423  1.00  0.00     0.031 C 
ATOM     51  C   UNL     1       9.322  -5.575  11.879  1.00  0.00     0.029 A 
ATOM     52  C   UNL     1      10.248  -4.717  12.587  1.00  0.00     0.049 A 
ATOM     53  H   UNL     1      11.999  -3.849  11.822  1.00  0.00     0.167 HD
ATOM     54  C   UNL     1      14.795  -1.145   9.783  1.00  0.00     0.034 A 
ATOM     55  C   UNL     1      10.235  -4.308  13.876  1.00  0.00     0.034 A 
ATOM     56  C   UNL     1      15.594  -2.161  10.418  1.00  0.00     0.049 A 
ATOM     57  C   UNL     1      11.614  -3.883  14.195  1.00  0.00     0.074 A 
ATOM     58  C   UNL     1      16.443  -3.167  10.015  1.00  0.00     0.029 A 
ATOM     59  N   UNL     1      15.208  -2.441  11.704  1.00  0.00    -0.354 N 
ATOM     60  N   UNL     1      12.632  -4.697  14.224  1.00  0.00    -0.248 NA
ATOM     61  C   UNL     1      11.941  -2.466  14.175  1.00  0.00     0.031 C 
ATOM     62  C   UNL     1      16.311  -4.195  10.995  1.00  0.00     0.029 A 
ATOM     63  C   UNL     1      15.426  -3.761  11.985  1.00  0.00     0.049 A 
ATOM     64  H   UNL     1      14.829  -1.786  12.334  1.00  0.00     0.167 HD
ATOM     65  C   UNL     1      13.685  -3.928  13.763  1.00  0.00     0.074 A 
ATOM     66  C   UNL     1      13.253  -2.547  13.941  1.00  0.00     0.031 C 
ATOM     67  C   UNL     1      14.662  -4.479  12.987  1.00  0.00     0.034 A 
BRANCH  54  68
ATOM     68  C   UNL     1      14.831   0.281  10.299  1.00  0.00     0.023 A 
ATOM     69  C   UNL     1      16.035   0.720  10.900  1.00  0.00     0.012 A 
ATOM     70  C   UNL     1      13.698   1.107  10.478  1.00  0.00     0.148 A 
ATOM     71  C   UNL     1      16.098   1.897  11.655  1.00  0.00     0.002 A 
ATOM     72  C   UNL     1      13.787   2.322  11.149  1.00  0.00     0.091 A 
ATOM     73  F   UNL     1      12.486   0.665  10.135  1.00  0.00    -0.205 F 
ATOM     74  C   UNL     1      14.977   2.709  11.767  1.00  0.00     0.022 A 
BRANCH  72  75
ATOM     75  S   UNL     1      12.383   3.439  11.259  1.00  0.00     0.127 S 
ATOM     76  O   UNL     1      11.998   3.289  12.659  1.00  0.00    -0.237 OA
ATOM     77  O   UNL     1      12.997   4.723  10.918  1.00  0.00    -0.237 OA
ATOM     78  O   UNL     1      11.427   2.956  10.271  1.00  0.00    -0.744 OA
ENDBRANCH  72  75
ENDBRANCH  54  68
BRANCH  55  79
ATOM     79  C   UNL     1       9.118  -4.026  14.805  1.00  0.00     0.023 A 
ATOM     80  C   UNL     1       9.399  -3.915  16.184  1.00  0.00     0.012 A 
ATOM     81  C   UNL     1       7.893  -3.512  14.329  1.00  0.00     0.148 A 
ATOM     82  C   UNL     1       8.537  -3.229  17.044  1.00  0.00     0.002 A 
ATOM     83  C   UNL     1       7.041  -2.825  15.190  1.00  0.00     0.091 A 
ATOM     84  F   UNL     1       7.619  -3.605  13.021  1.00  0.00    -0.205 F 
ATOM     85  C   UNL     1       7.370  -2.664  16.542  1.00  0.00     0.022 A 
BRANCH  83  86
ATOM     86  S   UNL     1       5.541  -2.019  14.613  1.00  0.00     0.127 S 
ATOM     87  O   UNL     1       4.569  -2.419  15.633  1.00  0.00    -0.237 OA
ATOM     88  O   UNL     1       5.925  -0.612  14.653  1.00  0.00    -0.237 OA
ATOM     89  O   UNL     1       5.283  -2.573  13.290  1.00  0.00    -0.744 OA
ENDBRANCH  83  86
ENDBRANCH  55  79
BRANCH  67  90
ATOM     90  C   UNL     1      14.823  -5.976  13.020  1.00  0.00     0.023 A 
ATOM     91  C   UNL     1      13.853  -6.868  12.521  1.00  0.00     0.012 A 
ATOM     92  C   UNL     1      16.063  -6.484  13.442  1.00  0.00     0.148 A 
ATOM     93  C   UNL     1      14.113  -8.240  12.456  1.00  0.00     0.002 A 
ATOM     94  C   UNL     1      16.338  -7.839  13.325  1.00  0.00     0.091 A 
ATOM     95  F   UNL     1      16.968  -5.621  13.928  1.00  0.00    -0.205 F 
ATOM     96  C   UNL     1      15.362  -8.724  12.841  1.00  0.00     0.022 A 
BRANCH  94  97
ATOM     97  S   UNL     1      17.972  -8.491  13.673  1.00  0.00     0.127 S 
ATOM     98  O   UNL     1      17.767  -9.165  14.954  1.00  0.00    -0.237 OA
ATOM     99  O   UNL     1      18.200  -9.388  12.539  1.00  0.00    -0.237 OA
ATOM    100  O   UNL     1      18.864  -7.339  13.706  1.00  0.00    -0.744 OA
ENDBRANCH  94  97
ENDBRANCH  67  90
ENDBRANCH  41  42
ENDBRANCH  33  36
ENDBRANCH  31  32
ENDBRANCH   1  31
TORSDOF 15
