REMARK SMILES O=C(NCCCNC(=O)[C@H]1C=C[C@H](NS(=O)(=O)c2ccc(F)c(F)c2F)C1)c1ccc(-c2c3nc(c(-c4cccc(S(=O)(=O)[O-])c4F)c4ccc([nH]4)c(-c4cccc(S(=O)(=O)[O-])c4F)c4nc(c(-c5cccc(S(=O)(=O)[O-])c5F)c5ccc2[nH]5)C=C4)C=C3)cc1
REMARK SMILES IDX 5 1 4 2 3 3 1 4 2 5 28 7 29 8 90 9 30 10 89 11 31 12 32 13
REMARK SMILES IDX 33 14 83 15 34 16 88 17 82 18 84 19 35 20 87 21 81 22 80 23
REMARK SMILES IDX 36 25 68 26 48 27 67 28 49 29 52 30 66 31 85 32 50 33 51 34
REMARK SMILES IDX 65 36 86 37 53 38 37 39 38 40 46 41 39 42 41 43 47 44 40 45
REMARK SMILES IDX 42 46 43 47 44 48 45 49 69 50 70 51 78 52 71 53 73 54 79 55
REMARK SMILES IDX 72 56 74 57 75 58 76 59 77 60 54 61 55 62 63 63 56 64 58 65
REMARK SMILES IDX 64 66 57 67 59 68 60 69 61 70 62 71 6 72 7 73 8 74 9 76
REMARK SMILES IDX 10 77 11 78 27 79 12 80 13 81 14 82 15 84 16 85 17 86 18 87
REMARK SMILES IDX 19 88 25 89 20 90 23 91 26 92 21 93 24 94 22 95
REMARK H PARENT 3 6 84 24 52 35 7 75 14 83
REMARK Flexibility Score: inf
ROOT
ATOM      1  C   UNL     1       4.478  -2.118  -1.575  1.00  0.00     0.042 C 
ENDROOT
BRANCH   1   2
ATOM      2  C   UNL     1       4.423  -0.591  -1.503  1.00  0.00     0.118 C 
BRANCH   2   3
ATOM      3  N   UNL     1       3.078  -0.092  -1.246  1.00  0.00    -0.352 N 
ATOM      4  O   UNL     1       1.235   0.396  -0.078  1.00  0.00    -0.269 OA
ATOM      5  C   UNL     1       2.462   0.317  -0.091  1.00  0.00     0.251 C 
ATOM      6  H   UNL     1       2.508  -0.040  -2.048  1.00  0.00     0.163 HD
BRANCH   5   7
ATOM      7  C   UNL     1       3.237   0.662   1.122  1.00  0.00     0.039 A 
ATOM      8  C   UNL     1       4.450   1.345   1.035  1.00  0.00     0.014 A 
ATOM      9  C   UNL     1       2.686   0.389   2.380  1.00  0.00     0.014 A 
ATOM     10  C   UNL     1       5.170   1.639   2.191  1.00  0.00     0.010 A 
ATOM     11  C   UNL     1       3.372   0.756   3.543  1.00  0.00     0.010 A 
ATOM     12  C   UNL     1       4.635   1.359   3.459  1.00  0.00    -0.014 A 
BRANCH  12  13
ATOM     13  C   UNL     1       5.389   1.772   4.671  1.00  0.00     0.031 A 
ATOM     14  C   UNL     1       5.939   0.755   5.633  1.00  0.00     0.074 A 
ATOM     15  C   UNL     1       5.598   3.086   4.889  1.00  0.00     0.049 A 
ATOM     16  N   UNL     1       6.706   0.944   6.676  1.00  0.00    -0.248 NA
ATOM     17  C   UNL     1       5.576  -0.653   5.404  1.00  0.00     0.031 C 
ATOM     18  C   UNL     1       5.064   4.170   4.060  1.00  0.00     0.029 A 
ATOM     19  N   UNL     1       6.322   3.736   5.856  1.00  0.00    -0.354 N 
ATOM     20  C   UNL     1       6.889  -0.309   7.248  1.00  0.00     0.074 A 
ATOM     21  C   UNL     1       6.144  -1.252   6.443  1.00  0.00     0.031 C 
ATOM     22  C   UNL     1       5.516   5.343   4.524  1.00  0.00     0.029 A 
ATOM     23  C   UNL     1       6.342   5.103   5.703  1.00  0.00     0.049 A 
ATOM     24  H   UNL     1       6.783   3.268   6.590  1.00  0.00     0.167 HD
ATOM     25  C   UNL     1       7.627  -0.646   8.333  1.00  0.00     0.034 A 
ATOM     26  C   UNL     1       6.964   6.057   6.422  1.00  0.00     0.034 A 
ATOM     27  C   UNL     1       8.405   0.288   9.103  1.00  0.00     0.049 A 
ATOM     28  C   UNL     1       7.818   5.647   7.588  1.00  0.00     0.074 A 
ATOM     29  C   UNL     1       9.248   0.032  10.171  1.00  0.00     0.029 A 
ATOM     30  N   UNL     1       8.434   1.658   8.893  1.00  0.00    -0.354 N 
ATOM     31  N   UNL     1       8.101   4.442   8.019  1.00  0.00    -0.248 NA
ATOM     32  C   UNL     1       8.462   6.727   8.349  1.00  0.00     0.031 C 
ATOM     33  C   UNL     1       9.779   1.250  10.612  1.00  0.00     0.029 A 
ATOM     34  C   UNL     1       9.272   2.263   9.814  1.00  0.00     0.049 A 
ATOM     35  H   UNL     1       7.931   2.132   8.191  1.00  0.00     0.167 HD
ATOM     36  C   UNL     1       8.971   4.615   9.087  1.00  0.00     0.074 A 
ATOM     37  C   UNL     1       9.192   6.041   9.219  1.00  0.00     0.031 C 
ATOM     38  C   UNL     1       9.521   3.679   9.900  1.00  0.00     0.034 A 
BRANCH  25  39
ATOM     39  C   UNL     1       7.673  -2.099   8.724  1.00  0.00     0.023 A 
ATOM     40  C   UNL     1       8.456  -2.994   7.968  1.00  0.00     0.012 A 
ATOM     41  C   UNL     1       6.996  -2.569   9.866  1.00  0.00     0.148 A 
ATOM     42  C   UNL     1       8.545  -4.339   8.326  1.00  0.00     0.002 A 
ATOM     43  C   UNL     1       7.117  -3.904  10.237  1.00  0.00     0.091 A 
ATOM     44  F   UNL     1       6.234  -1.710  10.559  1.00  0.00    -0.205 F 
ATOM     45  C   UNL     1       7.884  -4.791   9.465  1.00  0.00     0.022 A 
BRANCH  43  46
ATOM     46  S   UNL     1       6.353  -4.557  11.727  1.00  0.00     0.127 S 
ATOM     47  O   UNL     1       5.169  -5.221  11.184  1.00  0.00    -0.237 OA
ATOM     48  O   UNL     1       7.381  -5.465  12.236  1.00  0.00    -0.237 OA
ATOM     49  O   UNL     1       6.098  -3.401  12.576  1.00  0.00    -0.744 OA
ENDBRANCH  43  46
ENDBRANCH  25  39
BRANCH  26  50
ATOM     50  C   UNL     1       6.866   7.482   5.998  1.00  0.00     0.023 A 
ATOM     51  C   UNL     1       7.998   8.116   5.451  1.00  0.00     0.012 A 
ATOM     52  C   UNL     1       5.652   8.190   6.074  1.00  0.00     0.148 A 
ATOM     53  C   UNL     1       7.927   9.436   5.003  1.00  0.00     0.002 A 
ATOM     54  C   UNL     1       5.573   9.485   5.574  1.00  0.00     0.091 A 
ATOM     55  F   UNL     1       4.590   7.579   6.619  1.00  0.00    -0.205 F 
ATOM     56  C   UNL     1       6.712  10.115   5.051  1.00  0.00     0.022 A 
BRANCH  54  57
ATOM     57  S   UNL     1       4.012  10.368   5.468  1.00  0.00     0.127 S 
ATOM     58  O   UNL     1       4.100  11.272   6.610  1.00  0.00    -0.237 OA
ATOM     59  O   UNL     1       4.112  11.016   4.159  1.00  0.00    -0.237 OA
ATOM     60  O   UNL     1       2.984   9.338   5.543  1.00  0.00    -0.744 OA
ENDBRANCH  54  57
ENDBRANCH  26  50
BRANCH  38  61
ATOM     61  C   UNL     1      10.423   4.166  11.002  1.00  0.00     0.023 A 
ATOM     62  C   UNL     1       9.860   4.779  12.138  1.00  0.00     0.012 A 
ATOM     63  C   UNL     1      11.815   3.963  10.942  1.00  0.00     0.148 A 
ATOM     64  C   UNL     1      10.671   5.209  13.187  1.00  0.00     0.002 A 
ATOM     65  C   UNL     1      12.614   4.357  12.010  1.00  0.00     0.091 A 
ATOM     66  F   UNL     1      12.336   3.401   9.841  1.00  0.00    -0.205 F 
ATOM     67  C   UNL     1      12.046   4.988  13.128  1.00  0.00     0.022 A 
BRANCH  65  68
ATOM     68  S   UNL     1      14.379   4.027  12.044  1.00  0.00     0.127 S 
ATOM     69  O   UNL     1      14.933   5.310  11.618  1.00  0.00    -0.237 OA
ATOM     70  O   UNL     1      14.614   3.698  13.451  1.00  0.00    -0.237 OA
ATOM     71  O   UNL     1      14.586   2.912  11.129  1.00  0.00    -0.744 OA
ENDBRANCH  65  68
ENDBRANCH  38  61
ENDBRANCH  12  13
ENDBRANCH   5   7
ENDBRANCH   2   3
ENDBRANCH   1   2
BRANCH   1  72
ATOM     72  C   UNL     1       3.501  -2.723  -2.576  1.00  0.00     0.117 C 
BRANCH  72  73
ATOM     73  N   UNL     1       3.769  -2.355  -3.949  1.00  0.00    -0.356 N 
ATOM     74  C   UNL     1       4.515  -2.939  -4.918  1.00  0.00     0.226 C 
ATOM     75  H   UNL     1       3.326  -1.523  -4.233  1.00  0.00     0.163 HD
ATOM     76  O   UNL     1       4.410  -2.449  -6.048  1.00  0.00    -0.274 OA
BRANCH  74  77
ATOM     77  C   UNL     1       5.572  -4.021  -4.635  1.00  0.00     0.103 C 
ATOM     78  C   UNL     1       5.355  -5.174  -3.707  1.00  0.00    -0.016 C 
ATOM     79  C   UNL     1       5.869  -4.774  -5.953  1.00  0.00     0.042 C 
ATOM     80  C   UNL     1       5.800  -6.328  -4.224  1.00  0.00    -0.011 C 
ATOM     81  C   UNL     1       6.396  -6.157  -5.587  1.00  0.00     0.093 C 
BRANCH  81  82
ATOM     82  N   UNL     1       7.835  -6.319  -5.402  1.00  0.00    -0.204 NA
ATOM     83  H   UNL     1       8.028  -7.301  -5.601  1.00  0.00     0.142 HD
BRANCH  82  84
ATOM     84  S   UNL     1       9.002  -5.455  -6.233  1.00  0.00     0.244 S 
ATOM     85  O   UNL     1      10.243  -6.166  -6.014  1.00  0.00    -0.207 OA
ATOM     86  O   UNL     1       8.501  -5.201  -7.561  1.00  0.00    -0.207 OA
BRANCH  84  87
ATOM     87  C   UNL     1       9.096  -3.980  -5.274  1.00  0.00     0.121 A 
ATOM     88  C   UNL     1       9.211  -4.095  -3.877  1.00  0.00     0.028 A 
ATOM     89  C   UNL     1       8.962  -2.732  -5.869  1.00  0.00     0.181 A 
ATOM     90  C   UNL     1       9.140  -2.952  -3.080  1.00  0.00     0.044 A 
ATOM     91  C   UNL     1       8.891  -1.597  -5.068  1.00  0.00     0.195 A 
ATOM     92  F   UNL     1       8.869  -2.595  -7.197  1.00  0.00    -0.202 F 
ATOM     93  C   UNL     1       8.967  -1.710  -3.683  1.00  0.00     0.161 A 
ATOM     94  F   UNL     1       8.720  -0.393  -5.630  1.00  0.00    -0.200 F 
ATOM     95  F   UNL     1       8.849  -0.622  -2.912  1.00  0.00    -0.204 F 
ENDBRANCH  84  87
ENDBRANCH  82  84
ENDBRANCH  81  82
ENDBRANCH  74  77
ENDBRANCH  72  73
ENDBRANCH   1  72
TORSDOF 16
