REMARK SMILES CC(C)C[C@H](NC(N)=O)C(=O)N[C@@H](C(=O)NCCCNC(=O)c1ccc(-c2c3nc(c(-c4cccc(S(=O)(=O)[O-])c4F)c4ccc([nH]4)c(-c4cccc(S(=O)(=O)[O-])c4F)c4nc(c(-c5cccc(S(=O)(=O)[O-])c5F)c5ccc2[nH]5)C=C4)C=C3)cc1)C(C)C
REMARK SMILES IDX 17 1 16 2 14 3 15 4 13 6 12 7 10 8 11 9 5 11 4 12 2 13 1 14
REMARK SMILES IDX 3 15 6 16 7 17 8 19 9 20 86 23 87 24 88 25 18 26 19 27 20 28
REMARK SMILES IDX 21 29 22 31 23 32 24 33 85 34 25 35 84 36 26 37 27 38 28 39
REMARK SMILES IDX 78 40 29 41 83 42 77 43 79 44 30 45 82 46 76 47 75 48 31 50
REMARK SMILES IDX 63 51 43 52 62 53 44 54 47 55 61 56 80 57 45 58 46 59 60 61
REMARK SMILES IDX 81 62 48 63 32 64 33 65 41 66 34 67 36 68 42 69 35 70 37 71
REMARK SMILES IDX 38 72 39 73 40 74 64 75 65 76 73 77 66 78 68 79 74 80 67 81
REMARK SMILES IDX 69 82 70 83 71 84 72 85 49 86 50 87 58 88 51 89 53 90 59 91
REMARK SMILES IDX 52 92 54 93 55 94 56 95 57 96
REMARK H PARENT 16 5 12 10 6 18 8 21 8 22 20 30 79 49 47 60
REMARK Flexibility Score: inf
ROOT
ATOM      1  C   UNL     1      -2.715  -1.428  -2.844  1.00  0.00     0.117 C 
ENDROOT
BRANCH   1   2
ATOM      2  N   UNL     1      -3.504  -0.958  -3.942  1.00  0.00    -0.354 N 
ATOM      3  C   UNL     1      -3.736   0.321  -4.338  1.00  0.00     0.242 C 
ATOM      4  O   UNL     1      -4.362   0.429  -5.397  1.00  0.00    -0.273 OA
ATOM      5  H   UNL     1      -3.937  -1.656  -4.484  1.00  0.00     0.163 HD
BRANCH   3   6
ATOM      6  C   UNL     1      -3.159   1.567  -3.554  1.00  0.00     0.173 C 
BRANCH   6   7
ATOM      7  N   UNL     1      -3.621   1.513  -2.156  1.00  0.00    -0.342 N 
ATOM      8  C   UNL     1      -2.969   1.328  -0.973  1.00  0.00     0.243 C 
ATOM      9  O   UNL     1      -3.661   0.882  -0.047  1.00  0.00    -0.273 OA
ATOM     10  H   UNL     1      -4.593   1.635  -2.057  1.00  0.00     0.164 HD
BRANCH   8  11
ATOM     11  C   UNL     1      -1.444   1.551  -0.723  1.00  0.00     0.173 C 
BRANCH  11  12
ATOM     12  C   UNL     1      -0.916   2.938  -1.085  1.00  0.00     0.038 C 
BRANCH  12  13
ATOM     13  C   UNL     1      -1.812   4.123  -0.697  1.00  0.00    -0.015 C 
ATOM     14  C   UNL     1      -2.182   4.217   0.778  1.00  0.00     0.007 C 
ATOM     15  C   UNL     1      -1.157   5.421  -1.176  1.00  0.00     0.007 C 
ENDBRANCH  12  13
ENDBRANCH  11  12
BRANCH  11  16
ATOM     16  N   UNL     1      -0.620   0.411  -1.157  1.00  0.00    -0.327 N 
ATOM     17  C   UNL     1       0.384   0.412  -2.075  1.00  0.00     0.312 C 
ATOM     18  H   UNL     1      -0.819  -0.455  -0.732  1.00  0.00     0.166 HD
ATOM     19  N   UNL     1       0.763  -0.837  -2.444  1.00  0.00    -0.352 N 
ATOM     20  O   UNL     1       0.905   1.385  -2.588  1.00  0.00    -0.249 OA
ATOM     21  H   UNL     1       0.340  -1.622  -2.028  1.00  0.00     0.161 HD
ATOM     22  H   UNL     1       1.461  -0.957  -3.128  1.00  0.00     0.161 HD
ENDBRANCH  11  16
ENDBRANCH   8  11
ENDBRANCH   6   7
BRANCH   6  23
ATOM     23  C   UNL     1      -3.662   2.830  -4.329  1.00  0.00     0.015 C 
ATOM     24  C   UNL     1      -3.750   4.138  -3.555  1.00  0.00     0.010 C 
ATOM     25  C   UNL     1      -2.778   3.063  -5.565  1.00  0.00     0.010 C 
ENDBRANCH   6  23
ENDBRANCH   3   6
ENDBRANCH   1   2
BRANCH   1  26
ATOM     26  C   UNL     1      -3.534  -2.155  -1.796  1.00  0.00     0.042 C 
BRANCH  26  27
ATOM     27  C   UNL     1      -3.935  -3.548  -2.250  1.00  0.00     0.118 C 
BRANCH  27  28
ATOM     28  N   UNL     1      -2.774  -4.398  -2.500  1.00  0.00    -0.352 N 
ATOM     29  C   UNL     1      -2.478  -5.640  -2.000  1.00  0.00     0.251 C 
ATOM     30  H   UNL     1      -2.106  -4.024  -3.119  1.00  0.00     0.163 HD
ATOM     31  O   UNL     1      -1.350  -6.099  -2.150  1.00  0.00    -0.269 OA
BRANCH  29  32
ATOM     32  C   UNL     1      -3.518  -6.403  -1.283  1.00  0.00     0.039 A 
ATOM     33  C   UNL     1      -3.167  -7.138  -0.150  1.00  0.00     0.014 A 
ATOM     34  C   UNL     1      -4.841  -6.387  -1.732  1.00  0.00     0.014 A 
ATOM     35  C   UNL     1      -4.159  -7.813   0.563  1.00  0.00     0.010 A 
ATOM     36  C   UNL     1      -5.838  -6.964  -0.961  1.00  0.00     0.010 A 
ATOM     37  C   UNL     1      -5.507  -7.705   0.180  1.00  0.00    -0.014 A 
BRANCH  37  38
ATOM     38  C   UNL     1      -6.586  -8.380   0.941  1.00  0.00     0.031 A 
ATOM     39  C   UNL     1      -7.460  -9.400   0.256  1.00  0.00     0.074 A 
ATOM     40  C   UNL     1      -6.834  -8.014   2.215  1.00  0.00     0.049 A 
ATOM     41  N   UNL     1      -8.490 -10.050   0.729  1.00  0.00    -0.248 NA
ATOM     42  C   UNL     1      -7.160  -9.707  -1.155  1.00  0.00     0.031 C 
ATOM     43  C   UNL     1      -6.112  -6.977   2.956  1.00  0.00     0.029 A 
ATOM     44  N   UNL     1      -7.780  -8.456   3.104  1.00  0.00    -0.354 N 
ATOM     45  C   UNL     1      -8.986 -10.799  -0.332  1.00  0.00     0.074 A 
ATOM     46  C   UNL     1      -8.167 -10.502  -1.484  1.00  0.00     0.031 C 
ATOM     47  C   UNL     1      -6.635  -6.870   4.189  1.00  0.00     0.029 A 
ATOM     48  C   UNL     1      -7.750  -7.801   4.314  1.00  0.00     0.049 A 
ATOM     49  H   UNL     1      -8.421  -9.174   2.896  1.00  0.00     0.167 HD
ATOM     50  C   UNL     1     -10.016 -11.676  -0.339  1.00  0.00     0.034 A 
ATOM     51  C   UNL     1      -8.542  -7.930   5.396  1.00  0.00     0.034 A 
ATOM     52  C   UNL     1     -10.788 -12.012   0.825  1.00  0.00     0.049 A 
ATOM     53  C   UNL     1      -9.643  -8.957   5.371  1.00  0.00     0.074 A 
ATOM     54  C   UNL     1     -11.780 -12.968   0.948  1.00  0.00     0.029 A 
ATOM     55  N   UNL     1     -10.663 -11.399   2.060  1.00  0.00    -0.354 N 
ATOM     56  N   UNL     1      -9.986  -9.778   4.408  1.00  0.00    -0.248 NA
ATOM     57  C   UNL     1     -10.442  -9.104   6.596  1.00  0.00     0.031 C 
ATOM     58  C   UNL     1     -12.282 -12.907   2.251  1.00  0.00     0.029 A 
ATOM     59  C   UNL     1     -11.569 -11.947   2.950  1.00  0.00     0.049 A 
ATOM     60  H   UNL     1     -10.025 -10.681   2.273  1.00  0.00     0.167 HD
ATOM     61  C   UNL     1     -11.002 -10.571   4.929  1.00  0.00     0.074 A 
ATOM     62  C   UNL     1     -11.206 -10.145   6.297  1.00  0.00     0.031 C 
ATOM     63  C   UNL     1     -11.711 -11.557   4.327  1.00  0.00     0.034 A 
BRANCH  50  64
ATOM     64  C   UNL     1     -10.349 -12.376  -1.629  1.00  0.00     0.023 A 
ATOM     65  C   UNL     1      -9.488 -13.373  -2.130  1.00  0.00     0.012 A 
ATOM     66  C   UNL     1     -11.567 -12.116  -2.288  1.00  0.00     0.148 A 
ATOM     67  C   UNL     1      -9.825 -14.088  -3.279  1.00  0.00     0.002 A 
ATOM     68  C   UNL     1     -11.919 -12.867  -3.402  1.00  0.00     0.091 A 
ATOM     69  F   UNL     1     -12.359 -11.149  -1.805  1.00  0.00    -0.205 F 
ATOM     70  C   UNL     1     -11.045 -13.845  -3.905  1.00  0.00     0.022 A 
BRANCH  68  71
ATOM     71  S   UNL     1     -13.504 -12.694  -4.227  1.00  0.00     0.127 S 
ATOM     72  O   UNL     1     -13.099 -12.197  -5.542  1.00  0.00    -0.237 OA
ATOM     73  O   UNL     1     -14.001 -14.070  -4.222  1.00  0.00    -0.237 OA
ATOM     74  O   UNL     1     -14.280 -11.759  -3.425  1.00  0.00    -0.744 OA
ENDBRANCH  68  71
ENDBRANCH  50  64
BRANCH  51  75
ATOM     75  C   UNL     1      -8.304  -7.106   6.615  1.00  0.00     0.023 A 
ATOM     76  C   UNL     1      -7.877  -7.729   7.805  1.00  0.00     0.012 A 
ATOM     77  C   UNL     1      -8.523  -5.715   6.613  1.00  0.00     0.148 A 
ATOM     78  C   UNL     1      -7.729  -6.995   8.982  1.00  0.00     0.002 A 
ATOM     79  C   UNL     1      -8.316  -4.979   7.773  1.00  0.00     0.091 A 
ATOM     80  F   UNL     1      -8.937  -5.139   5.475  1.00  0.00    -0.205 F 
ATOM     81  C   UNL     1      -7.943  -5.620   8.965  1.00  0.00     0.022 A 
BRANCH  79  82
ATOM     82  S   UNL     1      -8.443  -3.188   7.808  1.00  0.00     0.127 S 
ATOM     83  O   UNL     1      -9.696  -2.991   8.531  1.00  0.00    -0.237 OA
ATOM     84  O   UNL     1      -7.237  -2.813   8.548  1.00  0.00    -0.237 OA
ATOM     85  O   UNL     1      -8.442  -2.771   6.412  1.00  0.00    -0.744 OA
ENDBRANCH  79  82
ENDBRANCH  51  75
BRANCH  63  86
ATOM     86  C   UNL     1     -12.723 -12.300   5.158  1.00  0.00     0.023 A 
ATOM     87  C   UNL     1     -13.915 -11.668   5.560  1.00  0.00     0.012 A 
ATOM     88  C   UNL     1     -12.515 -13.656   5.478  1.00  0.00     0.148 A 
ATOM     89  C   UNL     1     -14.867 -12.363   6.305  1.00  0.00     0.002 A 
ATOM     90  C   UNL     1     -13.493 -14.358   6.169  1.00  0.00     0.091 A 
ATOM     91  F   UNL     1     -11.366 -14.235   5.099  1.00  0.00    -0.205 F 
ATOM     92  C   UNL     1     -14.662 -13.710   6.598  1.00  0.00     0.022 A 
BRANCH  90  93
ATOM     93  S   UNL     1     -13.361 -16.119   6.495  1.00  0.00     0.127 S 
ATOM     94  O   UNL     1     -13.112 -16.137   7.936  1.00  0.00    -0.237 OA
ATOM     95  O   UNL     1     -14.682 -16.607   6.098  1.00  0.00    -0.237 OA
ATOM     96  O   UNL     1     -12.265 -16.601   5.665  1.00  0.00    -0.744 OA
ENDBRANCH  90  93
ENDBRANCH  63  86
ENDBRANCH  37  38
ENDBRANCH  29  32
ENDBRANCH  27  28
ENDBRANCH  26  27
ENDBRANCH   1  26
TORSDOF 19
