REMARK SMILES CC(C)CCc1cc2c(cc1Cl)C=C(C(=O)NCCCNC(=O)c1ccc(-c3c4nc(c(-c5cccc(S(=O)(=O)[O-])c5F)c5ccc([nH]5)c(-c5cccc(S(=O)(=O)[O-])c5F)c5nc(c(-c6cccc(S(=O)(=O)[O-])c6F)c6ccc3[nH]6)C=C5)C=C4)cc1)[C@H](C(F)(F)F)O2
REMARK SMILES IDX 19 1 18 2 17 3 15 4 16 5 14 7 6 8 7 9 11 10 8 11 10 12 12 13
REMARK SMILES IDX 9 14 92 15 13 16 87 17 5 18 4 19 2 20 1 21 3 22 88 23 89 24
REMARK SMILES IDX 90 25 91 26 20 27 21 28 22 29 23 31 24 32 25 33 86 34 26 35
REMARK SMILES IDX 85 36 27 37 28 38 29 39 79 40 30 41 84 42 78 43 80 44 31 45
REMARK SMILES IDX 83 46 77 47 76 48 32 50 64 51 44 52 63 53 45 54 48 55 62 56
REMARK SMILES IDX 81 57 46 58 47 59 61 61 82 62 49 63 33 64 34 65 42 66 35 67
REMARK SMILES IDX 37 68 43 69 36 70 38 71 39 72 40 73 41 74 65 75 66 76 74 77
REMARK SMILES IDX 67 78 69 79 75 80 68 81 70 82 71 83 72 84 73 85 50 86 51 87
REMARK SMILES IDX 59 88 52 89 54 90 60 91 53 92 55 93 56 94 57 95 58 96
REMARK H PARENT 17 6 21 30 80 49 48 60
REMARK Flexibility Score: inf
ROOT
ATOM      1  C   UNL     1      -2.898  11.084   0.838  1.00  0.00     0.042 C 
ENDROOT
BRANCH   1   2
ATOM      2  C   UNL     1      -2.469  10.618  -0.545  1.00  0.00     0.118 C 
BRANCH   2   3
ATOM      3  N   UNL     1      -1.044  10.349  -0.597  1.00  0.00    -0.352 N 
ATOM      4  C   UNL     1      -0.244   9.263  -0.570  1.00  0.00     0.251 C 
ATOM      5  O   UNL     1       0.963   9.506  -0.674  1.00  0.00    -0.270 OA
ATOM      6  H   UNL     1      -0.523  11.180  -0.672  1.00  0.00     0.163 HD
BRANCH   4   7
ATOM      7  C   UNL     1      -0.704   7.855  -0.427  1.00  0.00     0.067 C 
ATOM      8  C   UNL     1      -0.781   2.835  -0.004  1.00  0.00    -0.026 A 
ATOM      9  C   UNL     1      -1.763   3.808  -0.270  1.00  0.00     0.052 A 
ATOM     10  C   UNL     1       0.544   3.272   0.176  1.00  0.00     0.045 A 
ATOM     11  C   UNL     1      -1.414   5.152  -0.374  1.00  0.00     0.128 A 
ATOM     12  C   UNL     1       0.902   4.601  -0.065  1.00  0.00     0.032 A 
ATOM     13  Cl  UNL     1       1.797   2.266   0.808  1.00  0.00    -0.084 Cl
ATOM     14  C   UNL     1      -0.079   5.542  -0.346  1.00  0.00     0.019 A 
ATOM     15  O   UNL     1      -2.425   6.063  -0.500  1.00  0.00    -0.475 OA
ATOM     16  C   UNL     1       0.263   6.933  -0.582  1.00  0.00     0.025 C 
ATOM     17  C   UNL     1      -2.086   7.406  -0.029  1.00  0.00     0.314 C 
BRANCH   8  18
ATOM     18  C   UNL     1      -1.221   1.389   0.090  1.00  0.00     0.037 C 
BRANCH  18  19
ATOM     19  C   UNL     1      -0.979   0.559  -1.188  1.00  0.00     0.008 C 
BRANCH  19  20
ATOM     20  C   UNL     1       0.478   0.124  -1.442  1.00  0.00    -0.017 C 
ATOM     21  C   UNL     1       1.007  -0.808  -0.348  1.00  0.00     0.007 C 
ATOM     22  C   UNL     1       0.621  -0.572  -2.798  1.00  0.00     0.007 C 
ENDBRANCH  19  20
ENDBRANCH  18  19
ENDBRANCH   8  18
BRANCH  17  23
ATOM     23  C   UNL     1      -2.359   7.566   1.481  1.00  0.00     0.429 C 
ATOM     24  F   UNL     1      -1.479   8.405   2.079  1.00  0.00    -0.167 F 
ATOM     25  F   UNL     1      -3.595   8.090   1.681  1.00  0.00    -0.167 F 
ATOM     26  F   UNL     1      -2.305   6.396   2.155  1.00  0.00    -0.167 F 
ENDBRANCH  17  23
ENDBRANCH   4   7
ENDBRANCH   2   3
ENDBRANCH   1   2
BRANCH   1  27
ATOM     27  C   UNL     1      -2.508  12.532   1.101  1.00  0.00     0.118 C 
BRANCH  27  28
ATOM     28  N   UNL     1      -3.257  13.454   0.255  1.00  0.00    -0.352 N 
ATOM     29  C   UNL     1      -4.266  14.332   0.575  1.00  0.00     0.251 C 
ATOM     30  H   UNL     1      -2.999  13.448  -0.696  1.00  0.00     0.163 HD
ATOM     31  O   UNL     1      -4.960  14.801  -0.320  1.00  0.00    -0.269 OA
BRANCH  29  32
ATOM     32  C   UNL     1      -4.513  14.689   1.988  1.00  0.00     0.039 A 
ATOM     33  C   UNL     1      -3.444  14.846   2.870  1.00  0.00     0.014 A 
ATOM     34  C   UNL     1      -5.822  14.880   2.438  1.00  0.00     0.014 A 
ATOM     35  C   UNL     1      -3.686  14.982   4.228  1.00  0.00     0.010 A 
ATOM     36  C   UNL     1      -6.057  15.149   3.790  1.00  0.00     0.010 A 
ATOM     37  C   UNL     1      -4.994  15.153   4.706  1.00  0.00    -0.014 A 
BRANCH  37  38
ATOM     38  C   UNL     1      -5.205  15.361   6.161  1.00  0.00     0.031 A 
ATOM     39  C   UNL     1      -6.042  14.407   6.970  1.00  0.00     0.074 A 
ATOM     40  C   UNL     1      -4.589  16.398   6.764  1.00  0.00     0.049 A 
ATOM     41  N   UNL     1      -6.300  14.433   8.252  1.00  0.00    -0.248 NA
ATOM     42  C   UNL     1      -6.676  13.283   6.258  1.00  0.00     0.031 C 
ATOM     43  C   UNL     1      -3.767  17.403   6.082  1.00  0.00     0.029 A 
ATOM     44  N   UNL     1      -4.538  16.773   8.082  1.00  0.00    -0.354 N 
ATOM     45  C   UNL     1      -7.158  13.367   8.492  1.00  0.00     0.074 A 
ATOM     46  C   UNL     1      -7.383  12.710   7.224  1.00  0.00     0.031 C 
ATOM     47  C   UNL     1      -3.252  18.243   6.989  1.00  0.00     0.029 A 
ATOM     48  C   UNL     1      -3.761  17.885   8.307  1.00  0.00     0.049 A 
ATOM     49  H   UNL     1      -5.013  16.293   8.799  1.00  0.00     0.167 HD
ATOM     50  C   UNL     1      -7.693  12.962   9.666  1.00  0.00     0.034 A 
ATOM     51  C   UNL     1      -3.496  18.560   9.442  1.00  0.00     0.034 A 
ATOM     52  C   UNL     1      -7.420  13.582  10.934  1.00  0.00     0.049 A 
ATOM     53  C   UNL     1      -4.098  18.085  10.729  1.00  0.00     0.074 A 
ATOM     54  C   UNL     1      -7.873  13.202  12.185  1.00  0.00     0.029 A 
ATOM     55  N   UNL     1      -6.628  14.703  11.115  1.00  0.00    -0.354 N 
ATOM     56  N   UNL     1      -4.845  17.030  10.942  1.00  0.00    -0.248 NA
ATOM     57  C   UNL     1      -3.816  18.880  11.932  1.00  0.00     0.031 C 
ATOM     58  C   UNL     1      -7.369  14.106  13.123  1.00  0.00     0.029 A 
ATOM     59  C   UNL     1      -6.586  15.036  12.457  1.00  0.00     0.049 A 
ATOM     60  H   UNL     1      -6.163  15.190  10.397  1.00  0.00     0.167 HD
ATOM     61  C   UNL     1      -5.115  17.025  12.303  1.00  0.00     0.074 A 
ATOM     62  C   UNL     1      -4.436  18.173  12.870  1.00  0.00     0.031 C 
ATOM     63  C   UNL     1      -5.870  16.154  13.012  1.00  0.00     0.034 A 
BRANCH  50  64
ATOM     64  C   UNL     1      -8.599  11.762   9.663  1.00  0.00     0.023 A 
ATOM     65  C   UNL     1      -8.039  10.472   9.601  1.00  0.00     0.012 A 
ATOM     66  C   UNL     1      -9.988  11.910   9.845  1.00  0.00     0.148 A 
ATOM     67  C   UNL     1      -8.849   9.343   9.714  1.00  0.00     0.002 A 
ATOM     68  C   UNL     1     -10.786  10.781   9.987  1.00  0.00     0.091 A 
ATOM     69  F   UNL     1     -10.497  13.150   9.892  1.00  0.00    -0.205 F 
ATOM     70  C   UNL     1     -10.218   9.498   9.919  1.00  0.00     0.022 A 
BRANCH  68  71
ATOM     71  S   UNL     1     -12.551  10.868  10.307  1.00  0.00     0.127 S 
ATOM     72  O   UNL     1     -13.099  10.245   9.102  1.00  0.00    -0.237 OA
ATOM     73  O   UNL     1     -12.681  10.065  11.522  1.00  0.00    -0.237 OA
ATOM     74  O   UNL     1     -12.865  12.281  10.468  1.00  0.00    -0.744 OA
ENDBRANCH  68  71
ENDBRANCH  50  64
BRANCH  51  75
ATOM     75  C   UNL     1      -2.592  19.739   9.389  1.00  0.00     0.023 A 
ATOM     76  C   UNL     1      -1.279  19.626   9.880  1.00  0.00     0.012 A 
ATOM     77  C   UNL     1      -2.999  20.937   8.768  1.00  0.00     0.148 A 
ATOM     78  C   UNL     1      -0.384  20.690   9.757  1.00  0.00     0.002 A 
ATOM     79  C   UNL     1      -2.091  21.975   8.610  1.00  0.00     0.091 A 
ATOM     80  F   UNL     1      -4.255  21.014   8.307  1.00  0.00    -0.205 F 
ATOM     81  C   UNL     1      -0.786  21.858   9.112  1.00  0.00     0.022 A 
BRANCH  79  82
ATOM     82  S   UNL     1      -2.482  23.474   7.700  1.00  0.00     0.127 S 
ATOM     83  O   UNL     1      -2.372  24.492   8.743  1.00  0.00    -0.237 OA
ATOM     84  O   UNL     1      -1.416  23.499   6.698  1.00  0.00    -0.237 OA
ATOM     85  O   UNL     1      -3.819  23.274   7.160  1.00  0.00    -0.744 OA
ENDBRANCH  79  82
ENDBRANCH  51  75
BRANCH  63  86
ATOM     86  C   UNL     1      -6.010  16.378  14.491  1.00  0.00     0.023 A 
ATOM     87  C   UNL     1      -6.921  17.343  14.959  1.00  0.00     0.012 A 
ATOM     88  C   UNL     1      -5.354  15.532  15.406  1.00  0.00     0.148 A 
ATOM     89  C   UNL     1      -7.180  17.462  16.323  1.00  0.00     0.002 A 
ATOM     90  C   UNL     1      -5.643  15.633  16.760  1.00  0.00     0.091 A 
ATOM     91  F   UNL     1      -4.489  14.625  14.928  1.00  0.00    -0.205 F 
ATOM     92  C   UNL     1      -6.553  16.599  17.221  1.00  0.00     0.022 A 
BRANCH  90  93
ATOM     93  S   UNL     1      -4.945  14.521  17.985  1.00  0.00     0.127 S 
ATOM     94  O   UNL     1      -4.160  15.441  18.808  1.00  0.00    -0.237 OA
ATOM     95  O   UNL     1      -6.143  13.991  18.636  1.00  0.00    -0.237 OA
ATOM     96  O   UNL     1      -4.165  13.538  17.245  1.00  0.00    -0.744 OA
ENDBRANCH  90  93
ENDBRANCH  63  86
ENDBRANCH  37  38
ENDBRANCH  29  32
ENDBRANCH  27  28
ENDBRANCH   1  27
TORSDOF 17
