REMARK SMILES CCCCc1[nH]ncc1C(=O)NCCCNC(=O)c1ccc(-c2c3nc(c(-c4cccc(S(=O)(=O)[O-])c4F)c4ccc([nH]4)c(-c4cccc(S(=O)(=O)[O-])c4F)c4nc(c(-c5cccc(S(=O)(=O)[O-])c5F)c5ccc2[nH]5)C=C4)C=C3)cc1
REMARK SMILES IDX 14 1 13 2 12 3 10 4 11 5 9 7 5 8 6 9 7 10 8 12 4 13 3 14
REMARK SMILES IDX 2 15 1 16 15 17 16 18 17 19 18 21 19 22 20 23 81 24 21 25
REMARK SMILES IDX 80 26 22 27 23 28 24 29 74 30 25 31 79 32 73 33 75 34 26 35
REMARK SMILES IDX 78 36 72 37 71 38 27 40 59 41 39 42 58 43 40 44 43 45 57 46
REMARK SMILES IDX 76 47 41 48 42 49 56 51 77 52 44 53 28 54 29 55 37 56 30 57
REMARK SMILES IDX 32 58 38 59 31 60 33 61 34 62 35 63 36 64 60 65 61 66 69 67
REMARK SMILES IDX 62 68 64 69 70 70 63 71 65 72 66 73 67 74 68 75 45 76 46 77
REMARK SMILES IDX 54 78 47 79 49 80 55 81 48 82 50 83 51 84 52 85 53 86
REMARK H PARENT 12 6 6 11 16 20 75 39 43 50
REMARK Flexibility Score: inf
ROOT
ATOM      1  C   UNL     1       1.952   1.692  -4.926  1.00  0.00     0.042 C 
ENDROOT
BRANCH   1   2
ATOM      2  C   UNL     1       1.024   2.827  -4.495  1.00  0.00     0.118 C 
BRANCH   2   3
ATOM      3  N   UNL     1      -0.263   2.738  -5.140  1.00  0.00    -0.352 N 
ATOM      4  C   UNL     1      -1.501   2.334  -4.728  1.00  0.00     0.254 C 
ATOM      5  O   UNL     1      -2.401   2.548  -5.549  1.00  0.00    -0.269 OA
ATOM      6  H   UNL     1      -0.244   3.031  -6.080  1.00  0.00     0.163 HD
BRANCH   4   7
ATOM      7  C   UNL     1      -1.834   1.736  -3.435  1.00  0.00     0.080 A 
ATOM      8  C   UNL     1      -1.168   1.097  -2.388  1.00  0.00     0.048 A 
ATOM      9  N   UNL     1      -2.149   0.685  -1.515  1.00  0.00    -0.282 N 
ATOM     10  N   UNL     1      -3.384   1.055  -1.851  1.00  0.00    -0.183 NA
ATOM     11  H   UNL     1      -1.954   0.160  -0.706  1.00  0.00     0.190 HD
ATOM     12  C   UNL     1      -3.203   1.654  -3.025  1.00  0.00     0.149 A 
BRANCH   8  13
ATOM     13  C   UNL     1       0.232   0.703  -2.058  1.00  0.00     0.056 C 
BRANCH  13  14
ATOM     14  C   UNL     1       0.887   1.629  -1.020  1.00  0.00     0.006 C 
BRANCH  14  15
ATOM     15  C   UNL     1       0.590   1.285   0.445  1.00  0.00    -0.003 C 
ATOM     16  C   UNL     1       1.109  -0.083   0.863  1.00  0.00     0.004 C 
ENDBRANCH  14  15
ENDBRANCH  13  14
ENDBRANCH   8  13
ENDBRANCH   4   7
ENDBRANCH   2   3
ENDBRANCH   1   2
BRANCH   1  17
ATOM     17  C   UNL     1       2.695   1.956  -6.231  1.00  0.00     0.118 C 
BRANCH  17  18
ATOM     18  N   UNL     1       3.699   3.003  -6.081  1.00  0.00    -0.352 N 
ATOM     19  C   UNL     1       5.067   2.944  -6.177  1.00  0.00     0.251 C 
ATOM     20  H   UNL     1       3.338   3.896  -5.878  1.00  0.00     0.163 HD
ATOM     21  O   UNL     1       5.733   3.895  -5.768  1.00  0.00    -0.269 OA
BRANCH  19  22
ATOM     22  C   UNL     1       5.748   1.761  -6.750  1.00  0.00     0.039 A 
ATOM     23  C   UNL     1       6.952   1.333  -6.179  1.00  0.00     0.014 A 
ATOM     24  C   UNL     1       5.238   1.096  -7.868  1.00  0.00     0.014 A 
ATOM     25  C   UNL     1       7.600   0.201  -6.681  1.00  0.00     0.010 A 
ATOM     26  C   UNL     1       5.845  -0.075  -8.320  1.00  0.00     0.010 A 
ATOM     27  C   UNL     1       7.029  -0.538  -7.730  1.00  0.00    -0.014 A 
BRANCH  27  28
ATOM     28  C   UNL     1       7.626  -1.821  -8.185  1.00  0.00     0.031 A 
ATOM     29  C   UNL     1       8.125  -1.980  -9.596  1.00  0.00     0.074 A 
ATOM     30  C   UNL     1       7.620  -2.879  -7.348  1.00  0.00     0.049 A 
ATOM     31  N   UNL     1       8.605  -3.046 -10.183  1.00  0.00    -0.248 NA
ATOM     32  C   UNL     1       8.055  -0.797 -10.471  1.00  0.00     0.031 C 
ATOM     33  C   UNL     1       7.087  -2.873  -5.982  1.00  0.00     0.029 A 
ATOM     34  N   UNL     1       8.041  -4.173  -7.530  1.00  0.00    -0.354 N 
ATOM     35  C   UNL     1       8.856  -2.678 -11.500  1.00  0.00     0.074 A 
ATOM     36  C   UNL     1       8.459  -1.293 -11.633  1.00  0.00     0.031 C 
ATOM     37  C   UNL     1       7.209  -4.101  -5.455  1.00  0.00     0.029 A 
ATOM     38  C   UNL     1       7.794  -4.991  -6.451  1.00  0.00     0.049 A 
ATOM     39  H   UNL     1       8.478  -4.487  -8.355  1.00  0.00     0.167 HD
ATOM     40  C   UNL     1       9.389  -3.420 -12.500  1.00  0.00     0.034 A 
ATOM     41  C   UNL     1       7.998  -6.313  -6.286  1.00  0.00     0.034 A 
ATOM     42  C   UNL     1       9.827  -4.781 -12.348  1.00  0.00     0.049 A 
ATOM     43  C   UNL     1       8.623  -7.099  -7.407  1.00  0.00     0.074 A 
ATOM     44  C   UNL     1      10.485  -5.578 -13.269  1.00  0.00     0.029 A 
ATOM     45  N   UNL     1       9.640  -5.553 -11.214  1.00  0.00    -0.354 N 
ATOM     46  N   UNL     1       9.027  -6.681  -8.582  1.00  0.00    -0.248 NA
ATOM     47  C   UNL     1       8.850  -8.532  -7.168  1.00  0.00     0.031 C 
ATOM     48  C   UNL     1      10.668  -6.843 -12.702  1.00  0.00     0.029 A 
ATOM     49  C   UNL     1      10.148  -6.825 -11.418  1.00  0.00     0.049 A 
ATOM     50  H   UNL     1       9.209  -5.244 -10.384  1.00  0.00     0.167 HD
ATOM     51  C   UNL     1       9.580  -7.791  -9.210  1.00  0.00     0.074 A 
ATOM     52  C   UNL     1       9.489  -8.891  -8.273  1.00  0.00     0.031 C 
ATOM     53  C   UNL     1      10.096  -7.897 -10.459  1.00  0.00     0.034 A 
BRANCH  40  54
ATOM     54  C   UNL     1       9.584  -2.769 -13.844  1.00  0.00     0.023 A 
ATOM     55  C   UNL     1      10.618  -1.827 -14.018  1.00  0.00     0.012 A 
ATOM     56  C   UNL     1       8.817  -3.169 -14.957  1.00  0.00     0.148 A 
ATOM     57  C   UNL     1      10.875  -1.278 -15.273  1.00  0.00     0.002 A 
ATOM     58  C   UNL     1       9.107  -2.648 -16.214  1.00  0.00     0.091 A 
ATOM     59  F   UNL     1       7.828  -4.053 -14.767  1.00  0.00    -0.205 F 
ATOM     60  C   UNL     1      10.128  -1.698 -16.372  1.00  0.00     0.022 A 
BRANCH  58  61
ATOM     61  S   UNL     1       8.258  -3.182 -17.705  1.00  0.00     0.127 S 
ATOM     62  O   UNL     1       7.545  -1.961 -18.089  1.00  0.00    -0.237 OA
ATOM     63  O   UNL     1       9.377  -3.533 -18.583  1.00  0.00    -0.237 OA
ATOM     64  O   UNL     1       7.413  -4.296 -17.315  1.00  0.00    -0.744 OA
ENDBRANCH  58  61
ENDBRANCH  40  54
BRANCH  41  65
ATOM     65  C   UNL     1       7.645  -6.975  -4.997  1.00  0.00     0.023 A 
ATOM     66  C   UNL     1       8.671  -7.470  -4.170  1.00  0.00     0.012 A 
ATOM     67  C   UNL     1       6.306  -7.113  -4.585  1.00  0.00     0.148 A 
ATOM     68  C   UNL     1       8.369  -8.129  -2.977  1.00  0.00     0.002 A 
ATOM     69  C   UNL     1       6.014  -7.716  -3.366  1.00  0.00     0.091 A 
ATOM     70  F   UNL     1       5.339  -6.650  -5.391  1.00  0.00    -0.205 F 
ATOM     71  C   UNL     1       7.043  -8.243  -2.570  1.00  0.00     0.022 A 
BRANCH  69  72
ATOM     72  S   UNL     1       4.344  -7.772  -2.706  1.00  0.00     0.127 S 
ATOM     73  O   UNL     1       3.975  -9.166  -2.943  1.00  0.00    -0.237 OA
ATOM     74  O   UNL     1       4.559  -7.423  -1.300  1.00  0.00    -0.237 OA
ATOM     75  O   UNL     1       3.597  -6.776  -3.457  1.00  0.00    -0.744 OA
ENDBRANCH  69  72
ENDBRANCH  41  65
BRANCH  53  76
ATOM     76  C   UNL     1      10.624  -9.242 -10.883  1.00  0.00     0.023 A 
ATOM     77  C   UNL     1       9.722 -10.290 -11.157  1.00  0.00     0.012 A 
ATOM     78  C   UNL     1      12.004  -9.448 -11.076  1.00  0.00     0.148 A 
ATOM     79  C   UNL     1      10.188 -11.532 -11.584  1.00  0.00     0.002 A 
ATOM     80  C   UNL     1      12.457 -10.673 -11.550  1.00  0.00     0.091 A 
ATOM     81  F   UNL     1      12.846  -8.443 -10.793  1.00  0.00    -0.205 F 
ATOM     82  C   UNL     1      11.553 -11.720 -11.791  1.00  0.00     0.022 A 
BRANCH  80  83
ATOM     83  S   UNL     1      14.184 -10.977 -11.938  1.00  0.00     0.127 S 
ATOM     84  O   UNL     1      14.574 -11.892 -10.865  1.00  0.00    -0.237 OA
ATOM     85  O   UNL     1      14.100 -11.592 -13.263  1.00  0.00    -0.237 OA
ATOM     86  O   UNL     1      14.838  -9.676 -11.915  1.00  0.00    -0.744 OA
ENDBRANCH  80  83
ENDBRANCH  53  76
ENDBRANCH  27  28
ENDBRANCH  19  22
ENDBRANCH  17  18
ENDBRANCH   1  17
TORSDOF 16
