REMARK SMILES CC(C)C[NH+]1CC[NH+]([C@H](C)[C@@H](C)C(=O)NCCCNC(=O)c2ccc(-c3c4nc(c(-c5cccc(S(=O)(=O)[O-])c5F)c5ccc([nH]5)c(-c5cccc(S(=O)(=O)[O-])c5F)c5nc(c(-c6cccc(S(=O)(=O)[O-])c6F)c6ccc3[nH]6)C=C5)C=C4)cc2)CC1
REMARK SMILES IDX 16 1 15 2 13 3 14 4 11 6 12 7 9 8 10 9 8 10 5 11 6 12 86 13
REMARK SMILES IDX 7 15 85 16 4 18 2 19 1 20 3 21 17 22 18 23 19 24 20 25 21 27
REMARK SMILES IDX 22 28 23 29 84 30 24 31 83 32 25 33 26 34 27 35 77 36 28 37
REMARK SMILES IDX 82 38 76 39 78 40 29 41 81 42 75 43 74 44 30 46 62 47 42 48
REMARK SMILES IDX 61 49 43 50 46 51 60 52 79 53 44 54 45 55 59 57 80 58 47 59
REMARK SMILES IDX 31 60 32 61 40 62 33 63 35 64 41 65 34 66 36 67 37 68 38 69
REMARK SMILES IDX 39 70 63 71 64 72 72 73 65 74 67 75 73 76 66 77 68 78 69 79
REMARK SMILES IDX 70 80 71 81 48 82 49 83 57 84 50 85 52 86 58 87 51 88 53 89
REMARK SMILES IDX 54 90 55 91 56 92
REMARK H PARENT 15 5 5 14 8 17 19 26 78 45 46 56
REMARK Flexibility Score: inf
ROOT
ATOM      1  C   UNL     1       0.523  -4.940   4.173  1.00  0.00     0.117 C 
ENDROOT
BRANCH   1   2
ATOM      2  N   UNL     1      -0.925  -5.055   4.141  1.00  0.00    -0.356 N 
ATOM      3  C   UNL     1      -1.844  -4.650   3.222  1.00  0.00     0.228 C 
ATOM      4  O   UNL     1      -3.027  -4.927   3.444  1.00  0.00    -0.275 OA
ATOM      5  H   UNL     1      -1.311  -5.507   4.926  1.00  0.00     0.163 HD
BRANCH   3   6
ATOM      6  C   UNL     1      -1.443  -3.963   1.922  1.00  0.00     0.133 C 
ATOM      7  C   UNL     1      -0.711  -4.967   1.022  1.00  0.00     0.024 C 
BRANCH   6   8
ATOM      8  C   UNL     1      -0.728  -2.604   2.170  1.00  0.00     0.193 C 
ATOM      9  C   UNL     1       0.058  -2.128   0.936  1.00  0.00     0.076 C 
BRANCH   8  10
ATOM     10  N   UNL     1      -1.646  -1.599   2.767  1.00  0.00    -0.323 N 
ATOM     11  N   UNL     1      -2.730   1.189   2.874  1.00  0.00    -0.325 N 
ATOM     12  C   UNL     1      -3.549   0.040   2.487  1.00  0.00     0.324 C 
ATOM     13  C   UNL     1      -1.730   0.770   3.853  1.00  0.00     0.324 C 
ATOM     14  H   UNL     1      -3.283   1.872   3.392  1.00  0.00     0.348 HD
ATOM     15  C   UNL     1      -2.713  -1.106   1.887  1.00  0.00     0.324 C 
ATOM     16  C   UNL     1      -0.966  -0.557   3.566  1.00  0.00     0.324 C 
ATOM     17  H   UNL     1      -2.168  -2.141   3.455  1.00  0.00     0.348 HD
BRANCH  11  18
ATOM     18  C   UNL     1      -2.381   2.102   1.780  1.00  0.00     0.265 C 
BRANCH  18  19
ATOM     19  C   UNL     1      -0.916   2.482   1.455  1.00  0.00     0.038 C 
ATOM     20  C   UNL     1      -0.158   1.359   0.764  1.00  0.00     0.013 C 
ATOM     21  C   UNL     1      -0.874   3.692   0.515  1.00  0.00     0.013 C 
ENDBRANCH  18  19
ENDBRANCH  11  18
ENDBRANCH   8  10
ENDBRANCH   6   8
ENDBRANCH   3   6
ENDBRANCH   1   2
BRANCH   1  22
ATOM     22  C   UNL     1       1.011  -3.928   5.204  1.00  0.00     0.042 C 
BRANCH  22  23
ATOM     23  C   UNL     1       0.665  -4.291   6.639  1.00  0.00     0.118 C 
BRANCH  23  24
ATOM     24  N   UNL     1       1.242  -5.567   7.031  1.00  0.00    -0.352 N 
ATOM     25  C   UNL     1       2.158  -5.863   8.006  1.00  0.00     0.251 C 
ATOM     26  H   UNL     1       0.924  -6.342   6.513  1.00  0.00     0.163 HD
ATOM     27  O   UNL     1       2.701  -6.965   7.995  1.00  0.00    -0.269 OA
BRANCH  25  28
ATOM     28  C   UNL     1       2.490  -4.881   9.063  1.00  0.00     0.039 A 
ATOM     29  C   UNL     1       3.795  -4.854   9.564  1.00  0.00     0.014 A 
ATOM     30  C   UNL     1       1.516  -4.044   9.614  1.00  0.00     0.014 A 
ATOM     31  C   UNL     1       4.122  -3.981  10.602  1.00  0.00     0.010 A 
ATOM     32  C   UNL     1       1.866  -3.108  10.583  1.00  0.00     0.010 A 
ATOM     33  C   UNL     1       3.162  -3.093  11.114  1.00  0.00    -0.014 A 
BRANCH  33  34
ATOM     34  C   UNL     1       3.493  -2.176  12.233  1.00  0.00     0.031 A 
ATOM     35  C   UNL     1       2.783  -2.303  13.556  1.00  0.00     0.074 A 
ATOM     36  C   UNL     1       4.390  -1.190  12.041  1.00  0.00     0.049 A 
ATOM     37  N   UNL     1       2.950  -1.605  14.650  1.00  0.00    -0.248 NA
ATOM     38  C   UNL     1       1.726  -3.324  13.656  1.00  0.00     0.031 C 
ATOM     39  C   UNL     1       5.066  -0.899  10.775  1.00  0.00     0.029 A 
ATOM     40  N   UNL     1       4.872  -0.239  12.903  1.00  0.00    -0.354 N 
ATOM     41  C   UNL     1       1.996  -2.071  15.548  1.00  0.00     0.074 A 
ATOM     42  C   UNL     1       1.227  -3.083  14.859  1.00  0.00     0.031 C 
ATOM     43  C   UNL     1       5.884   0.152  10.947  1.00  0.00     0.029 A 
ATOM     44  C   UNL     1       5.780   0.617  12.327  1.00  0.00     0.049 A 
ATOM     45  H   UNL     1       4.595  -0.176  13.846  1.00  0.00     0.167 HD
ATOM     46  C   UNL     1       1.798  -1.717  16.840  1.00  0.00     0.034 A 
ATOM     47  C   UNL     1       6.460   1.653  12.854  1.00  0.00     0.034 A 
ATOM     48  C   UNL     1       2.605  -0.753  17.538  1.00  0.00     0.049 A 
ATOM     49  C   UNL     1       6.299   1.959  14.318  1.00  0.00     0.074 A 
ATOM     50  C   UNL     1       2.562  -0.397  18.874  1.00  0.00     0.029 A 
ATOM     51  N   UNL     1       3.601   0.014  16.952  1.00  0.00    -0.354 N 
ATOM     52  N   UNL     1       5.521   1.381  15.201  1.00  0.00    -0.248 NA
ATOM     53  C   UNL     1       7.146   3.025  14.870  1.00  0.00     0.031 C 
ATOM     54  C   UNL     1       3.523   0.597  19.093  1.00  0.00     0.029 A 
ATOM     55  C   UNL     1       4.179   0.844  17.897  1.00  0.00     0.049 A 
ATOM     56  H   UNL     1       3.859  -0.026  16.003  1.00  0.00     0.167 HD
ATOM     57  C   UNL     1       5.808   1.988  16.418  1.00  0.00     0.074 A 
ATOM     58  C   UNL     1       6.851   2.961  16.161  1.00  0.00     0.031 C 
ATOM     59  C   UNL     1       5.250   1.772  17.635  1.00  0.00     0.034 A 
BRANCH  46  60
ATOM     60  C   UNL     1       0.702  -2.423  17.598  1.00  0.00     0.023 A 
ATOM     61  C   UNL     1       0.856  -3.783  17.940  1.00  0.00     0.012 A 
ATOM     62  C   UNL     1      -0.459  -1.738  18.004  1.00  0.00     0.148 A 
ATOM     63  C   UNL     1      -0.145  -4.460  18.634  1.00  0.00     0.002 A 
ATOM     64  C   UNL     1      -1.433  -2.408  18.737  1.00  0.00     0.091 A 
ATOM     65  F   UNL     1      -0.602  -0.452  17.651  1.00  0.00    -0.205 F 
ATOM     66  C   UNL     1      -1.284  -3.771  19.041  1.00  0.00     0.022 A 
BRANCH  64  67
ATOM     67  S   UNL     1      -2.896  -1.585  19.377  1.00  0.00     0.127 S 
ATOM     68  O   UNL     1      -3.934  -2.086  18.478  1.00  0.00    -0.237 OA
ATOM     69  O   UNL     1      -2.971  -2.104  20.744  1.00  0.00    -0.237 OA
ATOM     70  O   UNL     1      -2.621  -0.158  19.288  1.00  0.00    -0.744 OA
ENDBRANCH  64  67
ENDBRANCH  46  60
BRANCH  47  71
ATOM     71  C   UNL     1       7.426   2.405  12.007  1.00  0.00     0.023 A 
ATOM     72  C   UNL     1       8.809   2.239  12.219  1.00  0.00     0.012 A 
ATOM     73  C   UNL     1       6.987   3.237  10.959  1.00  0.00     0.148 A 
ATOM     74  C   UNL     1       9.737   2.910  11.423  1.00  0.00     0.002 A 
ATOM     75  C   UNL     1       7.917   3.859  10.134  1.00  0.00     0.091 A 
ATOM     76  F   UNL     1       5.668   3.387  10.778  1.00  0.00    -0.205 F 
ATOM     77  C   UNL     1       9.292   3.710  10.374  1.00  0.00     0.022 A 
BRANCH  75  78
ATOM     78  S   UNL     1       7.439   4.793   8.676  1.00  0.00     0.127 S 
ATOM     79  O   UNL     1       7.753   6.160   9.079  1.00  0.00    -0.237 OA
ATOM     80  O   UNL     1       8.322   4.231   7.654  1.00  0.00    -0.237 OA
ATOM     81  O   UNL     1       6.025   4.502   8.469  1.00  0.00    -0.744 OA
ENDBRANCH  75  78
ENDBRANCH  47  71
BRANCH  59  82
ATOM     82  C   UNL     1       5.773   2.583  18.792  1.00  0.00     0.023 A 
ATOM     83  C   UNL     1       5.471   3.956  18.878  1.00  0.00     0.012 A 
ATOM     84  C   UNL     1       6.517   1.973  19.821  1.00  0.00     0.148 A 
ATOM     85  C   UNL     1       5.938   4.719  19.948  1.00  0.00     0.002 A 
ATOM     86  C   UNL     1       6.937   2.729  20.909  1.00  0.00     0.091 A 
ATOM     87  F   UNL     1       6.814   0.669  19.713  1.00  0.00    -0.205 F 
ATOM     88  C   UNL     1       6.660   4.104  20.968  1.00  0.00     0.022 A 
BRANCH  86  89
ATOM     89  S   UNL     1       7.787   1.989  22.308  1.00  0.00     0.127 S 
ATOM     90  O   UNL     1       9.180   2.324  22.023  1.00  0.00    -0.237 OA
ATOM     91  O   UNL     1       7.208   2.707  23.445  1.00  0.00    -0.237 OA
ATOM     92  O   UNL     1       7.454   0.571  22.265  1.00  0.00    -0.744 OA
ENDBRANCH  86  89
ENDBRANCH  59  82
ENDBRANCH  33  34
ENDBRANCH  25  28
ENDBRANCH  23  24
ENDBRANCH  22  23
ENDBRANCH   1  22
TORSDOF 17
