REMARK SMILES CC(C)C[C@@H](C(=O)NCCCNC(=O)c1ccc(-c2c3nc(c(-c4cccc(S(=O)(=O)[O-])c4F)c4ccc([nH]4)c(-c4cccc(S(=O)(=O)[O-])c4F)c4nc(c(-c5cccc(S(=O)(=O)[O-])c5F)c5ccc2[nH]5)C=C4)C=C3)cc1)[C@@H]1CCC[C@@H](C)C1
REMARK SMILES IDX 10 1 9 2 8 3 6 4 7 5 5 7 4 8 2 9 1 10 3 11 78 12 79 13 84 14
REMARK SMILES IDX 80 15 82 16 81 17 83 18 11 19 12 20 13 21 14 23 15 24 16 25
REMARK SMILES IDX 77 26 17 27 76 28 18 29 19 30 20 31 70 32 21 33 75 34 69 35
REMARK SMILES IDX 71 36 22 37 74 38 68 39 67 40 23 42 55 43 35 44 54 45 36 46
REMARK SMILES IDX 39 47 53 48 72 49 37 50 38 51 52 53 73 54 40 55 24 56 25 57
REMARK SMILES IDX 33 58 26 59 28 60 34 61 27 62 29 63 30 64 31 65 32 66 56 67
REMARK SMILES IDX 57 68 65 69 58 70 60 71 66 72 59 73 61 74 62 75 63 76 64 77
REMARK SMILES IDX 41 78 42 79 50 80 43 81 45 82 51 83 44 84 46 85 47 86 48 87
REMARK SMILES IDX 49 88
REMARK H PARENT 8 6 12 22 71 41 39 52
REMARK Flexibility Score: inf
ROOT
ATOM      1  C   UNL     1      -1.044   1.356   1.520  1.00  0.00     0.042 C 
ENDROOT
BRANCH   1   2
ATOM      2  C   UNL     1      -1.568   0.164   2.313  1.00  0.00     0.117 C 
BRANCH   2   3
ATOM      3  N   UNL     1      -3.003   0.200   2.540  1.00  0.00    -0.356 N 
ATOM      4  C   UNL     1      -4.033  -0.521   2.031  1.00  0.00     0.223 C 
ATOM      5  O   UNL     1      -5.166  -0.241   2.435  1.00  0.00    -0.275 OA
ATOM      6  H   UNL     1      -3.283   0.883   3.192  1.00  0.00     0.163 HD
BRANCH   4   7
ATOM      7  C   UNL     1      -3.841  -1.655   1.022  1.00  0.00     0.082 C 
BRANCH   7   8
ATOM      8  C   UNL     1      -3.083  -2.836   1.682  1.00  0.00     0.016 C 
BRANCH   8   9
ATOM      9  C   UNL     1      -3.873  -3.525   2.818  1.00  0.00    -0.017 C 
ATOM     10  C   UNL     1      -4.872  -4.537   2.257  1.00  0.00     0.007 C 
ATOM     11  C   UNL     1      -2.915  -4.224   3.787  1.00  0.00     0.007 C 
ENDBRANCH   8   9
ENDBRANCH   7   8
BRANCH   7  12
ATOM     12  C   UNL     1      -3.227  -1.196  -0.338  1.00  0.00     0.002 C 
ATOM     13  C   UNL     1      -3.680   0.205  -0.801  1.00  0.00     0.004 C 
ATOM     14  C   UNL     1      -3.525  -2.198  -1.484  1.00  0.00     0.007 C 
ATOM     15  C   UNL     1      -5.137   0.257  -1.240  1.00  0.00     0.001 C 
ATOM     16  C   UNL     1      -4.984  -2.158  -1.978  1.00  0.00    -0.014 C 
ATOM     17  C   UNL     1      -5.407  -0.735  -2.361  1.00  0.00     0.003 C 
ATOM     18  C   UNL     1      -5.190  -3.100  -3.166  1.00  0.00     0.007 C 
ENDBRANCH   7  12
ENDBRANCH   4   7
ENDBRANCH   2   3
ENDBRANCH   1   2
BRANCH   1  19
ATOM     19  C   UNL     1      -1.465   2.712   2.068  1.00  0.00     0.118 C 
BRANCH  19  20
ATOM     20  N   UNL     1      -0.896   2.974   3.384  1.00  0.00    -0.352 N 
ATOM     21  C   UNL     1       0.035   3.909   3.757  1.00  0.00     0.251 C 
ATOM     22  H   UNL     1      -1.227   2.396   4.109  1.00  0.00     0.163 HD
ATOM     23  O   UNL     1       0.569   3.829   4.864  1.00  0.00    -0.269 OA
BRANCH  21  24
ATOM     24  C   UNL     1       0.407   5.002   2.833  1.00  0.00     0.039 A 
ATOM     25  C   UNL     1       1.753   5.351   2.695  1.00  0.00     0.014 A 
ATOM     26  C   UNL     1      -0.572   5.694   2.115  1.00  0.00     0.014 A 
ATOM     27  C   UNL     1       2.120   6.356   1.796  1.00  0.00     0.010 A 
ATOM     28  C   UNL     1      -0.198   6.635   1.161  1.00  0.00     0.010 A 
ATOM     29  C   UNL     1       1.150   6.988   1.002  1.00  0.00    -0.014 A 
BRANCH  29  30
ATOM     30  C   UNL     1       1.517   8.028   0.006  1.00  0.00     0.031 A 
ATOM     31  C   UNL     1       0.989   9.431   0.151  1.00  0.00     0.074 A 
ATOM     32  C   UNL     1       2.247   7.691  -1.075  1.00  0.00     0.049 A 
ATOM     33  N   UNL     1       1.135  10.455  -0.650  1.00  0.00    -0.248 NA
ATOM     34  C   UNL     1       0.161   9.714   1.336  1.00  0.00     0.031 C 
ATOM     35  C   UNL     1       2.750   6.348  -1.373  1.00  0.00     0.029 A 
ATOM     36  N   UNL     1       2.668   8.446  -2.142  1.00  0.00    -0.354 N 
ATOM     37  C   UNL     1       0.388  11.485  -0.091  1.00  0.00     0.074 A 
ATOM     38  C   UNL     1      -0.240  10.954   1.099  1.00  0.00     0.031 C 
ATOM     39  C   UNL     1       3.413   6.375  -2.540  1.00  0.00     0.029 A 
ATOM     40  C   UNL     1       3.360   7.726  -3.089  1.00  0.00     0.049 A 
ATOM     41  H   UNL     1       2.492   9.411  -2.222  1.00  0.00     0.167 HD
ATOM     42  C   UNL     1       0.261  12.767  -0.509  1.00  0.00     0.034 A 
ATOM     43  C   UNL     1       3.887   8.110  -4.268  1.00  0.00     0.034 A 
ATOM     44  C   UNL     1       0.930  13.307  -1.661  1.00  0.00     0.049 A 
ATOM     45  C   UNL     1       3.776   9.553  -4.683  1.00  0.00     0.074 A 
ATOM     46  C   UNL     1       0.944  14.614  -2.115  1.00  0.00     0.029 A 
ATOM     47  N   UNL     1       1.706  12.569  -2.542  1.00  0.00    -0.354 N 
ATOM     48  N   UNL     1       3.201  10.550  -4.056  1.00  0.00    -0.248 NA
ATOM     49  C   UNL     1       4.419   9.932  -5.950  1.00  0.00     0.031 C 
ATOM     50  C   UNL     1       1.715  14.663  -3.281  1.00  0.00     0.029 A 
ATOM     51  C   UNL     1       2.198  13.391  -3.541  1.00  0.00     0.049 A 
ATOM     52  H   UNL     1       1.880  11.603  -2.469  1.00  0.00     0.167 HD
ATOM     53  C   UNL     1       3.444  11.679  -4.830  1.00  0.00     0.074 A 
ATOM     54  C   UNL     1       4.236  11.245  -5.963  1.00  0.00     0.031 C 
ATOM     55  C   UNL     1       3.035  12.956  -4.630  1.00  0.00     0.034 A 
BRANCH  42  56
ATOM     56  C   UNL     1      -0.589  13.693   0.323  1.00  0.00     0.023 A 
ATOM     57  C   UNL     1      -0.121  14.115   1.585  1.00  0.00     0.012 A 
ATOM     58  C   UNL     1      -1.816  14.188  -0.160  1.00  0.00     0.148 A 
ATOM     59  C   UNL     1      -0.878  14.984   2.369  1.00  0.00     0.002 A 
ATOM     60  C   UNL     1      -2.543  15.090   0.609  1.00  0.00     0.091 A 
ATOM     61  F   UNL     1      -2.255  13.760  -1.352  1.00  0.00    -0.205 F 
ATOM     62  C   UNL     1      -2.082  15.479   1.877  1.00  0.00     0.022 A 
BRANCH  60  63
ATOM     63  S   UNL     1      -4.067  15.846   0.030  1.00  0.00     0.127 S 
ATOM     64  O   UNL     1      -5.066  15.162   0.851  1.00  0.00    -0.237 OA
ATOM     65  O   UNL     1      -3.861  17.255   0.371  1.00  0.00    -0.237 OA
ATOM     66  O   UNL     1      -4.133  15.571  -1.397  1.00  0.00    -0.744 OA
ENDBRANCH  60  63
ENDBRANCH  42  56
BRANCH  43  67
ATOM     67  C   UNL     1       4.636   7.128  -5.103  1.00  0.00     0.023 A 
ATOM     68  C   UNL     1       6.035   7.248  -5.218  1.00  0.00     0.012 A 
ATOM     69  C   UNL     1       3.982   6.064  -5.754  1.00  0.00     0.148 A 
ATOM     70  C   UNL     1       6.766   6.346  -5.991  1.00  0.00     0.002 A 
ATOM     71  C   UNL     1       4.723   5.136  -6.478  1.00  0.00     0.091 A 
ATOM     72  F   UNL     1       2.650   5.973  -5.643  1.00  0.00    -0.205 F 
ATOM     73  C   UNL     1       6.112   5.285  -6.612  1.00  0.00     0.022 A 
BRANCH  71  74
ATOM     74  S   UNL     1       3.982   3.666  -7.197  1.00  0.00     0.127 S 
ATOM     75  O   UNL     1       4.011   3.983  -8.623  1.00  0.00    -0.237 OA
ATOM     76  O   UNL     1       4.918   2.620  -6.780  1.00  0.00    -0.237 OA
ATOM     77  O   UNL     1       2.662   3.559  -6.596  1.00  0.00    -0.744 OA
ENDBRANCH  71  74
ENDBRANCH  43  67
BRANCH  55  78
ATOM     78  C   UNL     1       3.462  13.993  -5.635  1.00  0.00     0.023 A 
ATOM     79  C   UNL     1       2.865  14.019  -6.910  1.00  0.00     0.012 A 
ATOM     80  C   UNL     1       4.396  14.990  -5.287  1.00  0.00     0.148 A 
ATOM     81  C   UNL     1       3.211  15.004  -7.835  1.00  0.00     0.002 A 
ATOM     82  C   UNL     1       4.701  15.995  -6.196  1.00  0.00     0.091 A 
ATOM     83  F   UNL     1       4.967  14.936  -4.075  1.00  0.00    -0.205 F 
ATOM     84  C   UNL     1       4.119  15.998  -7.474  1.00  0.00     0.022 A 
BRANCH  82  85
ATOM     85  S   UNL     1       5.784  17.368  -5.783  1.00  0.00     0.127 S 
ATOM     86  O   UNL     1       6.992  17.030  -6.533  1.00  0.00    -0.237 OA
ATOM     87  O   UNL     1       5.043  18.517  -6.304  1.00  0.00    -0.237 OA
ATOM     88  O   UNL     1       5.920  17.347  -4.333  1.00  0.00    -0.744 OA
ENDBRANCH  82  85
ENDBRANCH  55  78
ENDBRANCH  29  30
ENDBRANCH  21  24
ENDBRANCH  19  20
ENDBRANCH   1  19
TORSDOF 16
