REMARK SMILES O=C(NCCCNC(=O)[C@H](c1ccccc1)N1C(=O)/C(=C/c2ccc(-c3nc4ccccc4s3)o2)SC1=S)c1ccc(-c2c3nc(c(-c4cccc(S(=O)(=O)[O-])c4F)c4ccc([nH]4)c(-c4cccc(S(=O)(=O)[O-])c4F)c4nc(c(-c5cccc(S(=O)(=O)[O-])c5F)c5ccc2[nH]5)C=C4)C=C3)cc1
REMARK SMILES IDX 5 1 4 2 3 3 1 4 2 5 39 7 40 8 101 9 41 10 100 11 42 12 43 13
REMARK SMILES IDX 44 14 94 15 45 16 99 17 93 18 95 19 46 20 98 21 92 22 91 23
REMARK SMILES IDX 47 25 79 26 59 27 78 28 60 29 63 30 77 31 96 32 61 33 62 34
REMARK SMILES IDX 76 36 97 37 64 38 48 39 49 40 57 41 50 42 52 43 58 44 51 45
REMARK SMILES IDX 53 46 54 47 55 48 56 49 80 50 81 51 89 52 82 53 84 54 90 55
REMARK SMILES IDX 83 56 85 57 86 58 87 59 88 60 65 61 66 62 74 63 67 64 69 65
REMARK SMILES IDX 75 66 68 67 70 68 71 69 72 70 73 71 6 72 7 73 8 74 9 76
REMARK SMILES IDX 10 77 17 78 18 79 37 80 19 81 20 82 36 83 38 84 21 85 22 86
REMARK SMILES IDX 23 87 35 88 24 89 25 90 26 91 27 92 34 93 28 94 33 95 29 96
REMARK SMILES IDX 32 97 30 98 31 99 11 100 12 101 16 102 13 103 15 104 14 105
REMARK H PARENT 3 6 95 24 63 35 7 75
REMARK Flexibility Score: inf
ROOT
ATOM      1  C   UNL     1       4.160   4.272  -0.870  1.00  0.00     0.042 C 
ENDROOT
BRANCH   1   2
ATOM      2  C   UNL     1       4.702   3.835  -2.212  1.00  0.00     0.118 C 
BRANCH   2   3
ATOM      3  N   UNL     1       4.553   2.396  -2.418  1.00  0.00    -0.352 N 
ATOM      4  O   UNL     1       3.508   0.497  -3.029  1.00  0.00    -0.269 OA
ATOM      5  C   UNL     1       3.646   1.705  -3.187  1.00  0.00     0.251 C 
ATOM      6  H   UNL     1       5.202   1.836  -1.933  1.00  0.00     0.163 HD
BRANCH   5   7
ATOM      7  C   UNL     1       2.842   2.438  -4.185  1.00  0.00     0.039 A 
ATOM      8  C   UNL     1       3.433   3.470  -4.912  1.00  0.00     0.014 A 
ATOM      9  C   UNL     1       1.505   2.099  -4.407  1.00  0.00     0.014 A 
ATOM     10  C   UNL     1       2.653   4.295  -5.700  1.00  0.00     0.010 A 
ATOM     11  C   UNL     1       0.756   2.832  -5.331  1.00  0.00     0.010 A 
ATOM     12  C   UNL     1       1.324   3.945  -5.971  1.00  0.00    -0.014 A 
BRANCH  12  13
ATOM     13  C   UNL     1       0.635   4.660  -7.069  1.00  0.00     0.031 A 
ATOM     14  C   UNL     1      -0.622   5.441  -6.838  1.00  0.00     0.074 A 
ATOM     15  C   UNL     1       1.191   4.583  -8.296  1.00  0.00     0.049 A 
ATOM     16  N   UNL     1      -1.329   6.115  -7.706  1.00  0.00    -0.248 NA
ATOM     17  C   UNL     1      -1.165   5.471  -5.470  1.00  0.00     0.031 C 
ATOM     18  C   UNL     1       2.394   3.808  -8.627  1.00  0.00     0.029 A 
ATOM     19  N   UNL     1       0.832   5.150  -9.489  1.00  0.00    -0.354 N 
ATOM     20  C   UNL     1      -2.427   6.602  -7.010  1.00  0.00     0.074 A 
ATOM     21  C   UNL     1      -2.286   6.164  -5.638  1.00  0.00     0.031 C 
ATOM     22  C   UNL     1       2.688   3.970  -9.922  1.00  0.00     0.029 A 
ATOM     23  C   UNL     1       1.647   4.780 -10.534  1.00  0.00     0.049 A 
ATOM     24  H   UNL     1       0.066   5.761  -9.590  1.00  0.00     0.167 HD
ATOM     25  C   UNL     1      -3.454   7.345  -7.485  1.00  0.00     0.034 A 
ATOM     26  C   UNL     1       1.542   5.017 -11.854  1.00  0.00     0.034 A 
ATOM     27  C   UNL     1      -3.555   7.796  -8.849  1.00  0.00     0.049 A 
ATOM     28  C   UNL     1       0.392   5.847 -12.335  1.00  0.00     0.074 A 
ATOM     29  C   UNL     1      -4.507   8.633  -9.405  1.00  0.00     0.029 A 
ATOM     30  N   UNL     1      -2.697   7.431  -9.874  1.00  0.00    -0.354 N 
ATOM     31  N   UNL     1      -0.550   6.429 -11.634  1.00  0.00    -0.248 NA
ATOM     32  C   UNL     1       0.296   6.067 -13.782  1.00  0.00     0.031 C 
ATOM     33  C   UNL     1      -4.249   8.737 -10.775  1.00  0.00     0.029 A 
ATOM     34  C   UNL     1      -3.116   7.995 -11.067  1.00  0.00     0.049 A 
ATOM     35  H   UNL     1      -1.905   6.854  -9.769  1.00  0.00     0.167 HD
ATOM     36  C   UNL     1      -1.347   7.095 -12.554  1.00  0.00     0.074 A 
ATOM     37  C   UNL     1      -0.748   6.879 -13.857  1.00  0.00     0.031 C 
ATOM     38  C   UNL     1      -2.486   7.798 -12.346  1.00  0.00     0.034 A 
BRANCH  25  39
ATOM     39  C   UNL     1      -4.559   7.735  -6.540  1.00  0.00     0.023 A 
ATOM     40  C   UNL     1      -4.347   8.755  -5.592  1.00  0.00     0.012 A 
ATOM     41  C   UNL     1      -5.845   7.175  -6.681  1.00  0.00     0.148 A 
ATOM     42  C   UNL     1      -5.397   9.206  -4.792  1.00  0.00     0.002 A 
ATOM     43  C   UNL     1      -6.895   7.659  -5.910  1.00  0.00     0.091 A 
ATOM     44  F   UNL     1      -6.018   6.193  -7.576  1.00  0.00    -0.205 F 
ATOM     45  C   UNL     1      -6.672   8.669  -4.960  1.00  0.00     0.022 A 
BRANCH  43  46
ATOM     46  S   UNL     1      -8.589   7.094  -6.110  1.00  0.00     0.127 S 
ATOM     47  O   UNL     1      -8.840   6.452  -4.820  1.00  0.00    -0.237 OA
ATOM     48  O   UNL     1      -9.307   8.352  -6.314  1.00  0.00    -0.237 OA
ATOM     49  O   UNL     1      -8.585   6.197  -7.256  1.00  0.00    -0.744 OA
ENDBRANCH  43  46
ENDBRANCH  25  39
BRANCH  26  50
ATOM     50  C   UNL     1       2.536   4.437 -12.798  1.00  0.00     0.023 A 
ATOM     51  C   UNL     1       3.399   5.286 -13.515  1.00  0.00     0.012 A 
ATOM     52  C   UNL     1       2.644   3.042 -12.970  1.00  0.00     0.148 A 
ATOM     53  C   UNL     1       4.324   4.757 -14.416  1.00  0.00     0.002 A 
ATOM     54  C   UNL     1       3.613   2.520 -13.816  1.00  0.00     0.091 A 
ATOM     55  F   UNL     1       1.804   2.248 -12.290  1.00  0.00    -0.205 F 
ATOM     56  C   UNL     1       4.439   3.376 -14.558  1.00  0.00     0.022 A 
BRANCH  54  57
ATOM     57  S   UNL     1       3.922   0.755 -13.932  1.00  0.00     0.127 S 
ATOM     58  O   UNL     1       3.284   0.423 -15.203  1.00  0.00    -0.237 OA
ATOM     59  O   UNL     1       5.384   0.700 -13.943  1.00  0.00    -0.237 OA
ATOM     60  O   UNL     1       3.315   0.178 -12.741  1.00  0.00    -0.744 OA
ENDBRANCH  54  57
ENDBRANCH  26  50
BRANCH  38  61
ATOM     61  C   UNL     1      -3.150   8.394 -13.555  1.00  0.00     0.023 A 
ATOM     62  C   UNL     1      -3.814   7.553 -14.470  1.00  0.00     0.012 A 
ATOM     63  C   UNL     1      -3.164   9.787 -13.755  1.00  0.00     0.148 A 
ATOM     64  C   UNL     1      -4.453   8.088 -15.587  1.00  0.00     0.002 A 
ATOM     65  C   UNL     1      -3.848  10.317 -14.841  1.00  0.00     0.091 A 
ATOM     66  F   UNL     1      -2.510  10.565 -12.880  1.00  0.00    -0.205 F 
ATOM     67  C   UNL     1      -4.481   9.469 -15.765  1.00  0.00     0.022 A 
BRANCH  65  68
ATOM     68  S   UNL     1      -4.019  12.085 -15.103  1.00  0.00     0.127 S 
ATOM     69  O   UNL     1      -3.209  12.288 -16.302  1.00  0.00    -0.237 OA
ATOM     70  O   UNL     1      -5.461  12.227 -15.308  1.00  0.00    -0.237 OA
ATOM     71  O   UNL     1      -3.512  12.723 -13.896  1.00  0.00    -0.744 OA
ENDBRANCH  65  68
ENDBRANCH  38  61
ENDBRANCH  12  13
ENDBRANCH   5   7
ENDBRANCH   2   3
ENDBRANCH   1   2
BRANCH   1  72
ATOM     72  C   UNL     1       4.966   3.701   0.269  1.00  0.00     0.117 C 
BRANCH  72  73
ATOM     73  N   UNL     1       6.230   4.362   0.469  1.00  0.00    -0.354 N 
ATOM     74  C   UNL     1       6.752   4.866   1.622  1.00  0.00     0.247 C 
ATOM     75  H   UNL     1       6.792   4.462  -0.333  1.00  0.00     0.163 HD
ATOM     76  O   UNL     1       7.976   5.049   1.631  1.00  0.00    -0.272 OA
BRANCH  74  77
ATOM     77  C   UNL     1       5.897   5.170   2.887  1.00  0.00     0.211 C 
BRANCH  77  78
ATOM     78  N   UNL     1       4.726   6.052   2.605  1.00  0.00    -0.276 N 
ATOM     79  C   UNL     1       3.416   5.610   2.538  1.00  0.00     0.267 C 
ATOM     80  C   UNL     1       4.899   7.405   2.327  1.00  0.00     0.149 C 
ATOM     81  O   UNL     1       2.980   4.514   2.834  1.00  0.00    -0.268 OA
ATOM     82  C   UNL     1       2.517   6.675   2.008  1.00  0.00     0.084 C 
ATOM     83  S   UNL     1       3.382   8.135   1.822  1.00  0.00    -0.054 SA
ATOM     84  S   UNL     1       6.287   8.335   2.399  1.00  0.00    -0.052 S 
ATOM     85  C   UNL     1       1.230   6.418   1.741  1.00  0.00     0.068 C 
BRANCH  85  86
ATOM     86  C   UNL     1       0.323   7.359   1.185  1.00  0.00     0.129 A 
ATOM     87  C   UNL     1       0.398   8.078  -0.001  1.00  0.00     0.051 A 
ATOM     88  O   UNL     1      -0.882   7.659   1.777  1.00  0.00    -0.454 OA
ATOM     89  C   UNL     1      -0.796   8.819  -0.128  1.00  0.00     0.054 A 
ATOM     90  C   UNL     1      -1.563   8.552   0.991  1.00  0.00     0.163 A 
BRANCH  90  91
ATOM     91  C   UNL     1      -2.850   9.104   1.305  1.00  0.00     0.160 A 
ATOM     92  N   UNL     1      -3.607   9.646   0.377  1.00  0.00    -0.233 NA
ATOM     93  S   UNL     1      -3.462   9.176   2.904  1.00  0.00    -0.111 S 
ATOM     94  C   UNL     1      -4.748  10.176   0.947  1.00  0.00     0.082 A 
ATOM     95  C   UNL     1      -4.833  10.056   2.336  1.00  0.00     0.055 A 
ATOM     96  C   UNL     1      -5.786  10.829   0.254  1.00  0.00     0.030 A 
ATOM     97  C   UNL     1      -5.906  10.602   3.060  1.00  0.00     0.021 A 
ATOM     98  C   UNL     1      -6.859  11.374   0.964  1.00  0.00     0.002 A 
ATOM     99  C   UNL     1      -6.912  11.270   2.351  1.00  0.00     0.002 A 
ENDBRANCH  90  91
ENDBRANCH  85  86
ENDBRANCH  77  78
BRANCH  77 100
ATOM    100  C   UNL     1       5.771   3.972   3.839  1.00  0.00    -0.016 A 
ATOM    101  C   UNL     1       5.096   2.776   3.543  1.00  0.00     0.006 A 
ATOM    102  C   UNL     1       6.440   4.024   5.077  1.00  0.00     0.006 A 
ATOM    103  C   UNL     1       5.043   1.708   4.442  1.00  0.00     0.000 A 
ATOM    104  C   UNL     1       6.404   2.950   5.973  1.00  0.00     0.000 A 
ATOM    105  C   UNL     1       5.697   1.795   5.660  1.00  0.00     0.000 A 
ENDBRANCH  77 100
ENDBRANCH  74  77
ENDBRANCH  72  73
ENDBRANCH   1  72
TORSDOF 17
