REMARK SMILES O=C(CN(CC(F)(F)F)C(=O)CC[C@H]1CCC[NH2+]C1)NCCCNC(=O)c1ccc(-c2c3nc(c(-c4cccc(S(=O)(=O)[O-])c4F)c4ccc([nH]4)c(-c4cccc(S(=O)(=O)[O-])c4F)c4nc(c(-c5cccc(S(=O)(=O)[O-])c5F)c5ccc2[nH]5)C=C4)C=C3)cc1
REMARK SMILES IDX 21 1 20 2 1 3 2 4 3 6 4 7 5 8 6 9 7 10 8 11 9 12 10 13 11 14
REMARK SMILES IDX 12 15 13 16 14 17 15 18 19 19 16 20 18 21 17 22 22 25 23 26
REMARK SMILES IDX 24 27 25 28 26 30 27 31 28 32 89 33 29 34 88 35 30 36 31 37
REMARK SMILES IDX 32 38 82 39 33 40 87 41 81 42 83 43 34 44 86 45 80 46 79 47
REMARK SMILES IDX 35 49 67 50 47 51 66 52 48 53 51 54 65 55 84 56 49 57 50 58
REMARK SMILES IDX 64 60 85 61 52 62 36 63 37 64 45 65 38 66 40 67 46 68 39 69
REMARK SMILES IDX 41 70 42 71 43 72 44 73 68 74 69 75 77 76 70 77 72 78 78 79
REMARK SMILES IDX 71 80 73 81 74 82 75 83 76 84 53 85 54 86 62 87 55 88 57 89
REMARK SMILES IDX 63 90 56 91 58 92 59 93 60 94 61 95
REMARK H PARENT 20 5 18 23 18 24 24 29 83 48 51 59
REMARK Flexibility Score: inf
ROOT
ATOM      1  C   UNL     1       9.591  -4.289   3.309  1.00  0.00     0.117 C 
ENDROOT
BRANCH   1   2
ATOM      2  N   UNL     1       9.696  -2.869   3.003  1.00  0.00    -0.354 N 
ATOM      3  O   UNL     1      11.378  -3.072   1.460  1.00  0.00    -0.273 OA
ATOM      4  C   UNL     1      10.472  -2.402   1.956  1.00  0.00     0.239 C 
ATOM      5  H   UNL     1       9.201  -2.222   3.557  1.00  0.00     0.163 HD
BRANCH   4   6
ATOM      6  C   UNL     1      10.280  -0.914   1.559  1.00  0.00     0.219 C 
BRANCH   6   7
ATOM      7  N   UNL     1       8.898  -0.426   1.395  1.00  0.00    -0.324 N 
BRANCH   7   8
ATOM      8  C   UNL     1       8.612   0.959   1.813  1.00  0.00     0.235 C 
BRANCH   8   9
ATOM      9  C   UNL     1       8.619   2.078   0.763  1.00  0.00     0.406 C 
ATOM     10  F   UNL     1       8.030   1.713  -0.394  1.00  0.00    -0.169 F 
ATOM     11  F   UNL     1       7.924   3.143   1.240  1.00  0.00    -0.169 F 
ATOM     12  F   UNL     1       9.868   2.501   0.487  1.00  0.00    -0.169 F 
ENDBRANCH   8   9
ENDBRANCH   7   8
BRANCH   7  13
ATOM     13  C   UNL     1       8.034  -1.166   0.588  1.00  0.00     0.223 C 
ATOM     14  O   UNL     1       8.415  -2.185   0.010  1.00  0.00    -0.275 OA
BRANCH  13  15
ATOM     15  C   UNL     1       6.567  -0.749   0.467  1.00  0.00     0.101 C 
BRANCH  15  16
ATOM     16  C   UNL     1       5.598  -1.420   1.460  1.00  0.00     0.019 C 
BRANCH  16  17
ATOM     17  C   UNL     1       5.430  -0.807   2.881  1.00  0.00     0.045 C 
ATOM     18  C   UNL     1       6.626  -1.146   3.776  1.00  0.00     0.015 C 
ATOM     19  C   UNL     1       5.039   0.682   2.859  1.00  0.00     0.264 C 
ATOM     20  C   UNL     1       6.828  -0.253   4.992  1.00  0.00     0.062 C 
ATOM     21  N   UNL     1       5.126   1.317   4.170  1.00  0.00    -0.346 N 
ATOM     22  C   UNL     1       6.453   1.204   4.761  1.00  0.00     0.260 C 
ATOM     23  H   UNL     1       4.896   2.306   4.070  1.00  0.00     0.346 HD
ATOM     24  H   UNL     1       4.471   0.839   4.788  1.00  0.00     0.346 HD
ENDBRANCH  16  17
ENDBRANCH  15  16
ENDBRANCH  13  15
ENDBRANCH   7  13
ENDBRANCH   6   7
ENDBRANCH   4   6
ENDBRANCH   1   2
BRANCH   1  25
ATOM     25  C   UNL     1       9.945  -4.657   4.749  1.00  0.00     0.042 C 
BRANCH  25  26
ATOM     26  C   UNL     1       8.940  -4.217   5.812  1.00  0.00     0.118 C 
BRANCH  26  27
ATOM     27  N   UNL     1       7.652  -4.896   5.721  1.00  0.00    -0.352 N 
ATOM     28  C   UNL     1       6.948  -5.623   6.655  1.00  0.00     0.251 C 
ATOM     29  H   UNL     1       7.212  -4.823   4.844  1.00  0.00     0.163 HD
ATOM     30  O   UNL     1       5.920  -6.201   6.305  1.00  0.00    -0.269 OA
BRANCH  28  31
ATOM     31  C   UNL     1       7.409  -5.745   8.061  1.00  0.00     0.039 A 
ATOM     32  C   UNL     1       7.290  -6.985   8.701  1.00  0.00     0.014 A 
ATOM     33  C   UNL     1       7.920  -4.655   8.769  1.00  0.00     0.014 A 
ATOM     34  C   UNL     1       7.753  -7.149  10.012  1.00  0.00     0.010 A 
ATOM     35  C   UNL     1       8.448  -4.838  10.050  1.00  0.00     0.010 A 
ATOM     36  C   UNL     1       8.376  -6.087  10.687  1.00  0.00    -0.014 A 
BRANCH  36  37
ATOM     37  C   UNL     1       8.985  -6.274  12.034  1.00  0.00     0.031 A 
ATOM     38  C   UNL     1       8.491  -5.489  13.221  1.00  0.00     0.074 A 
ATOM     39  C   UNL     1      10.050  -7.091  12.176  1.00  0.00     0.049 A 
ATOM     40  N   UNL     1       8.946  -5.474  14.449  1.00  0.00    -0.248 NA
ATOM     41  C   UNL     1       7.352  -4.585  12.996  1.00  0.00     0.031 C 
ATOM     42  C   UNL     1      10.677  -7.858  11.097  1.00  0.00     0.029 A 
ATOM     43  N   UNL     1      10.813  -7.390  13.279  1.00  0.00    -0.354 N 
ATOM     44  C   UNL     1       8.177  -4.538  15.132  1.00  0.00     0.074 A 
ATOM     45  C   UNL     1       7.244  -3.985  14.174  1.00  0.00     0.031 C 
ATOM     46  C   UNL     1      11.723  -8.538  11.590  1.00  0.00     0.029 A 
ATOM     47  C   UNL     1      11.870  -8.230  13.009  1.00  0.00     0.049 A 
ATOM     48  H   UNL     1      10.622  -7.037  14.178  1.00  0.00     0.167 HD
ATOM     49  C   UNL     1       8.224  -4.187  16.440  1.00  0.00     0.034 A 
ATOM     50  C   UNL     1      12.856  -8.690  13.805  1.00  0.00     0.034 A 
ATOM     51  C   UNL     1       9.129  -4.761  17.401  1.00  0.00     0.049 A 
ATOM     52  C   UNL     1      12.873  -8.300  15.258  1.00  0.00     0.074 A 
ATOM     53  C   UNL     1       9.193  -4.530  18.765  1.00  0.00     0.029 A 
ATOM     54  N   UNL     1      10.136  -5.665  17.103  1.00  0.00    -0.354 N 
ATOM     55  N   UNL     1      12.041  -7.530  15.916  1.00  0.00    -0.248 NA
ATOM     56  C   UNL     1      13.946  -8.870  16.087  1.00  0.00     0.031 C 
ATOM     57  C   UNL     1      10.262  -5.267  19.285  1.00  0.00     0.029 A 
ATOM     58  C   UNL     1      10.838  -5.989  18.253  1.00  0.00     0.049 A 
ATOM     59  H   UNL     1      10.326  -6.023  16.206  1.00  0.00     0.167 HD
ATOM     60  C   UNL     1      12.465  -7.555  17.240  1.00  0.00     0.074 A 
ATOM     61  C   UNL     1      13.616  -8.431  17.294  1.00  0.00     0.031 C 
ATOM     62  C   UNL     1      11.952  -6.901  18.311  1.00  0.00     0.034 A 
BRANCH  49  63
ATOM     63  C   UNL     1       7.238  -3.155  16.926  1.00  0.00     0.023 A 
ATOM     64  C   UNL     1       5.870  -3.484  17.021  1.00  0.00     0.012 A 
ATOM     65  C   UNL     1       7.671  -1.883  17.353  1.00  0.00     0.148 A 
ATOM     66  C   UNL     1       4.945  -2.555  17.494  1.00  0.00     0.002 A 
ATOM     67  C   UNL     1       6.751  -0.979  17.869  1.00  0.00     0.091 A 
ATOM     68  F   UNL     1       8.973  -1.581  17.242  1.00  0.00    -0.205 F 
ATOM     69  C   UNL     1       5.386  -1.308  17.928  1.00  0.00     0.022 A 
BRANCH  67  70
ATOM     70  S   UNL     1       7.225   0.623  18.529  1.00  0.00     0.127 S 
ATOM     71  O   UNL     1       6.668   1.531  17.529  1.00  0.00    -0.237 OA
ATOM     72  O   UNL     1       6.540   0.640  19.820  1.00  0.00    -0.237 OA
ATOM     73  O   UNL     1       8.682   0.607  18.614  1.00  0.00    -0.744 OA
ENDBRANCH  67  70
ENDBRANCH  49  63
BRANCH  50  74
ATOM     74  C   UNL     1      13.889  -9.614  13.254  1.00  0.00     0.023 A 
ATOM     75  C   UNL     1      13.908 -10.960  13.669  1.00  0.00     0.012 A 
ATOM     76  C   UNL     1      14.839  -9.172  12.314  1.00  0.00     0.148 A 
ATOM     77  C   UNL     1      14.876 -11.841  13.185  1.00  0.00     0.002 A 
ATOM     78  C   UNL     1      15.765 -10.068  11.792  1.00  0.00     0.091 A 
ATOM     79  F   UNL     1      14.811  -7.885  11.940  1.00  0.00    -0.205 F 
ATOM     80  C   UNL     1      15.798 -11.398  12.240  1.00  0.00     0.022 A 
BRANCH  78  81
ATOM     81  S   UNL     1      16.905  -9.621  10.479  1.00  0.00     0.127 S 
ATOM     82  O   UNL     1      18.189  -9.658  11.172  1.00  0.00    -0.237 OA
ATOM     83  O   UNL     1      16.692 -10.701   9.515  1.00  0.00    -0.237 OA
ATOM     84  O   UNL     1      16.476  -8.308  10.014  1.00  0.00    -0.744 OA
ENDBRANCH  78  81
ENDBRANCH  50  74
BRANCH  62  85
ATOM     85  C   UNL     1      12.597  -7.137  19.653  1.00  0.00     0.023 A 
ATOM     86  C   UNL     1      13.875  -6.611  19.927  1.00  0.00     0.012 A 
ATOM     87  C   UNL     1      11.901  -7.823  20.669  1.00  0.00     0.148 A 
ATOM     88  C   UNL     1      14.465  -6.795  21.177  1.00  0.00     0.002 A 
ATOM     89  C   UNL     1      12.473  -7.957  21.929  1.00  0.00     0.091 A 
ATOM     90  F   UNL     1      10.694  -8.332  20.385  1.00  0.00    -0.205 F 
ATOM     91  C   UNL     1      13.760  -7.456  22.181  1.00  0.00     0.022 A 
BRANCH  89  92
ATOM     92  S   UNL     1      11.601  -8.705  23.310  1.00  0.00     0.127 S 
ATOM     93  O   UNL     1      12.339  -9.954  23.486  1.00  0.00    -0.237 OA
ATOM     94  O   UNL     1      11.805  -7.721  24.373  1.00  0.00    -0.237 OA
ATOM     95  O   UNL     1      10.217  -8.853  22.881  1.00  0.00    -0.744 OA
ENDBRANCH  89  92
ENDBRANCH  62  85
ENDBRANCH  36  37
ENDBRANCH  28  31
ENDBRANCH  26  27
ENDBRANCH  25  26
ENDBRANCH   1  25
TORSDOF 20
