REMARK SMILES C[NH2+][C@@]1(C(=O)NCCCNC(=O)c2ccc(-c3c4nc(c(-c5cccc(S(=O)(=O)[O-])c5F)c5ccc([nH]5)c(-c5cccc(S(=O)(=O)[O-])c5F)c5nc(c(-c6cccc(S(=O)(=O)[O-])c6F)c6ccc3[nH]6)C=C5)C=C4)cc2)CC[C@H](Sc2ccc(C)c(C)c2)C1
REMARK SMILES IDX 8 1 7 2 6 3 4 4 5 5 3 7 76 8 88 9 77 10 78 11 2 12 1 13
REMARK SMILES IDX 79 16 80 17 81 18 87 19 82 20 85 21 83 22 86 23 84 24 9 25
REMARK SMILES IDX 10 26 11 27 12 29 13 30 14 31 75 32 15 33 74 34 16 35 17 36
REMARK SMILES IDX 18 37 68 38 19 39 73 40 67 41 69 42 20 43 72 44 66 45 65 46
REMARK SMILES IDX 21 48 53 49 33 50 52 51 34 52 37 53 51 54 70 55 35 56 36 57
REMARK SMILES IDX 50 59 71 60 38 61 22 62 23 63 31 64 24 65 26 66 32 67 25 68
REMARK SMILES IDX 27 69 28 70 29 71 30 72 54 73 55 74 63 75 56 76 58 77 64 78
REMARK SMILES IDX 57 79 59 80 60 81 61 82 62 83 39 84 40 85 48 86 41 87 43 88
REMARK SMILES IDX 49 89 42 90 44 91 45 92 46 93 47 94
REMARK H PARENT 6 6 2 14 2 15 10 28 69 47 37 58
REMARK Flexibility Score: inf
ROOT
ATOM      1  C   UNL     1      -4.496  -1.513   3.155  1.00  0.00     0.042 C 
ENDROOT
BRANCH   1   2
ATOM      2  C   UNL     1      -3.781  -0.251   2.721  1.00  0.00     0.118 C 
BRANCH   2   3
ATOM      3  N   UNL     1      -2.433  -0.182   3.221  1.00  0.00    -0.351 N 
ATOM      4  C   UNL     1      -1.233  -0.293   2.597  1.00  0.00     0.281 C 
ATOM      5  O   UNL     1      -0.270  -0.370   3.378  1.00  0.00    -0.268 OA
ATOM      6  H   UNL     1      -2.370  -0.025   4.191  1.00  0.00     0.163 HD
BRANCH   4   7
ATOM      7  C   UNL     1      -1.021  -0.356   1.011  1.00  0.00     0.176 C 
ATOM      8  C   UNL     1      -1.691   0.810   0.261  1.00  0.00     0.080 C 
ATOM      9  C   UNL     1      -1.630  -1.646   0.423  1.00  0.00     0.094 C 
ATOM     10  C   UNL     1      -2.895   0.259  -0.510  1.00  0.00     0.022 C 
ATOM     11  C   UNL     1      -2.688  -1.246  -0.632  1.00  0.00     0.058 C 
BRANCH   7  12
ATOM     12  N   UNL     1       0.461  -0.346   0.878  1.00  0.00    -0.336 N 
ATOM     13  C   UNL     1       1.088  -0.111  -0.398  1.00  0.00     0.331 C 
ATOM     14  H   UNL     1       0.805   0.378   1.508  1.00  0.00     0.346 HD
ATOM     15  H   UNL     1       0.712  -1.315   1.077  1.00  0.00     0.346 HD
ENDBRANCH   7  12
BRANCH  11  16
ATOM     16  S   UNL     1      -4.093  -2.452  -0.545  1.00  0.00    -0.122 SA
BRANCH  16  17
ATOM     17  C   UNL     1      -5.655  -1.589  -0.528  1.00  0.00     0.008 A 
ATOM     18  C   UNL     1      -5.959  -0.478  -1.306  1.00  0.00     0.015 A 
ATOM     19  C   UNL     1      -6.691  -2.155   0.237  1.00  0.00     0.018 A 
ATOM     20  C   UNL     1      -7.245   0.083  -1.278  1.00  0.00     0.005 A 
ATOM     21  C   UNL     1      -7.986  -1.600   0.286  1.00  0.00    -0.047 A 
ATOM     22  C   UNL     1      -8.270  -0.466  -0.489  1.00  0.00    -0.048 A 
ATOM     23  C   UNL     1      -9.033  -2.272   1.128  1.00  0.00     0.044 C 
ATOM     24  C   UNL     1      -9.644   0.144  -0.575  1.00  0.00     0.044 C 
ENDBRANCH  16  17
ENDBRANCH  11  16
ENDBRANCH   4   7
ENDBRANCH   2   3
ENDBRANCH   1   2
BRANCH   1  25
ATOM     25  C   UNL     1      -5.175  -1.410   4.505  1.00  0.00     0.118 C 
BRANCH  25  26
ATOM     26  N   UNL     1      -6.248  -0.419   4.549  1.00  0.00    -0.352 N 
ATOM     27  C   UNL     1      -7.610  -0.511   4.715  1.00  0.00     0.251 C 
ATOM     28  H   UNL     1      -5.930   0.506   4.436  1.00  0.00     0.163 HD
ATOM     29  O   UNL     1      -8.275   0.521   4.634  1.00  0.00    -0.269 OA
BRANCH  27  30
ATOM     30  C   UNL     1      -8.300  -1.807   4.930  1.00  0.00     0.039 A 
ATOM     31  C   UNL     1      -9.617  -1.951   4.469  1.00  0.00     0.014 A 
ATOM     32  C   UNL     1      -7.690  -2.884   5.564  1.00  0.00     0.014 A 
ATOM     33  C   UNL     1     -10.252  -3.196   4.514  1.00  0.00     0.010 A 
ATOM     34  C   UNL     1      -8.266  -4.146   5.510  1.00  0.00     0.010 A 
ATOM     35  C   UNL     1      -9.558  -4.310   4.996  1.00  0.00    -0.014 A 
BRANCH  35  36
ATOM     36  C   UNL     1     -10.195  -5.641   5.103  1.00  0.00     0.031 A 
ATOM     37  C   UNL     1     -10.490  -6.181   6.473  1.00  0.00     0.074 A 
ATOM     38  C   UNL     1     -10.414  -6.386   4.004  1.00  0.00     0.049 A 
ATOM     39  N   UNL     1     -10.981  -7.341   6.814  1.00  0.00    -0.248 NA
ATOM     40  C   UNL     1     -10.158  -5.309   7.615  1.00  0.00     0.031 C 
ATOM     41  C   UNL     1     -10.102  -5.988   2.632  1.00  0.00     0.029 A 
ATOM     42  N   UNL     1     -10.921  -7.654   3.874  1.00  0.00    -0.354 N 
ATOM     43  C   UNL     1     -10.987  -7.350   8.202  1.00  0.00     0.074 A 
ATOM     44  C   UNL     1     -10.407  -6.103   8.643  1.00  0.00     0.031 C 
ATOM     45  C   UNL     1     -10.419  -6.993   1.798  1.00  0.00     0.029 A 
ATOM     46  C   UNL     1     -10.934  -8.114   2.578  1.00  0.00     0.049 A 
ATOM     47  H   UNL     1     -11.245  -8.185   4.637  1.00  0.00     0.167 HD
ATOM     48  C   UNL     1     -11.463  -8.299   9.039  1.00  0.00     0.034 A 
ATOM     49  C   UNL     1     -11.315  -9.310   2.084  1.00  0.00     0.034 A 
ATOM     50  C   UNL     1     -12.055  -9.527   8.591  1.00  0.00     0.049 A 
ATOM     51  C   UNL     1     -11.852 -10.347   3.037  1.00  0.00     0.074 A 
ATOM     52  C   UNL     1     -12.635 -10.528   9.347  1.00  0.00     0.029 A 
ATOM     53  N   UNL     1     -12.126  -9.928   7.266  1.00  0.00    -0.354 N 
ATOM     54  N   UNL     1     -12.004 -10.275   4.338  1.00  0.00    -0.248 NA
ATOM     55  C   UNL     1     -12.308 -11.616   2.450  1.00  0.00     0.031 C 
ATOM     56  C   UNL     1     -13.024 -11.553   8.479  1.00  0.00     0.029 A 
ATOM     57  C   UNL     1     -12.727 -11.169   7.181  1.00  0.00     0.049 A 
ATOM     58  H   UNL     1     -11.797  -9.405   6.499  1.00  0.00     0.167 HD
ATOM     59  C   UNL     1     -12.614 -11.466   4.718  1.00  0.00     0.074 A 
ATOM     60  C   UNL     1     -12.816 -12.235   3.507  1.00  0.00     0.031 C 
ATOM     61  C   UNL     1     -12.968 -11.890   5.957  1.00  0.00     0.034 A 
BRANCH  48  62
ATOM     62  C   UNL     1     -11.383  -8.021  10.515  1.00  0.00     0.023 A 
ATOM     63  C   UNL     1     -12.193  -7.016  11.084  1.00  0.00     0.012 A 
ATOM     64  C   UNL     1     -10.518  -8.763  11.340  1.00  0.00     0.148 A 
ATOM     65  C   UNL     1     -12.111  -6.724  12.444  1.00  0.00     0.002 A 
ATOM     66  C   UNL     1     -10.479  -8.501  12.704  1.00  0.00     0.091 A 
ATOM     67  F   UNL     1      -9.736  -9.694  10.776  1.00  0.00    -0.205 F 
ATOM     68  C   UNL     1     -11.262  -7.472  13.255  1.00  0.00     0.022 A 
BRANCH  66  69
ATOM     69  S   UNL     1      -9.478  -9.459  13.844  1.00  0.00     0.127 S 
ATOM     70  O   UNL     1      -8.472  -8.477  14.249  1.00  0.00    -0.237 OA
ATOM     71  O   UNL     1     -10.448  -9.802  14.886  1.00  0.00    -0.237 OA
ATOM     72  O   UNL     1      -8.973 -10.592  13.085  1.00  0.00    -0.744 OA
ENDBRANCH  66  69
ENDBRANCH  48  62
BRANCH  49  73
ATOM     73  C   UNL     1     -11.267  -9.573   0.617  1.00  0.00     0.023 A 
ATOM     74  C   UNL     1     -12.472  -9.707  -0.102  1.00  0.00     0.012 A 
ATOM     75  C   UNL     1     -10.043  -9.696  -0.070  1.00  0.00     0.148 A 
ATOM     76  C   UNL     1     -12.461 -10.001  -1.466  1.00  0.00     0.002 A 
ATOM     77  C   UNL     1     -10.039  -9.938  -1.440  1.00  0.00     0.091 A 
ATOM     78  F   UNL     1      -8.908  -9.572   0.630  1.00  0.00    -0.205 F 
ATOM     79  C   UNL     1     -11.246 -10.109  -2.136  1.00  0.00     0.022 A 
BRANCH  77  80
ATOM     80  S   UNL     1      -8.528  -9.986  -2.410  1.00  0.00     0.127 S 
ATOM     81  O   UNL     1      -8.473 -11.391  -2.807  1.00  0.00    -0.237 OA
ATOM     82  O   UNL     1      -8.839  -9.052  -3.494  1.00  0.00    -0.237 OA
ATOM     83  O   UNL     1      -7.470  -9.541  -1.516  1.00  0.00    -0.744 OA
ENDBRANCH  77  80
ENDBRANCH  49  73
BRANCH  61  84
ATOM     84  C   UNL     1     -13.661 -13.222   6.071  1.00  0.00     0.023 A 
ATOM     85  C   UNL     1     -12.941 -14.415   5.869  1.00  0.00     0.012 A 
ATOM     86  C   UNL     1     -15.011 -13.286   6.472  1.00  0.00     0.148 A 
ATOM     87  C   UNL     1     -13.563 -15.652   6.034  1.00  0.00     0.002 A 
ATOM     88  C   UNL     1     -15.607 -14.521   6.689  1.00  0.00     0.091 A 
ATOM     89  F   UNL     1     -15.682 -12.138   6.643  1.00  0.00    -0.205 F 
ATOM     90  C   UNL     1     -14.889 -15.705   6.457  1.00  0.00     0.022 A 
BRANCH  88  91
ATOM     91  S   UNL     1     -17.274 -14.683   7.338  1.00  0.00     0.127 S 
ATOM     92  O   UNL     1     -18.001 -15.176   6.170  1.00  0.00    -0.237 OA
ATOM     93  O   UNL     1     -17.095 -15.667   8.407  1.00  0.00    -0.237 OA
ATOM     94  O   UNL     1     -17.659 -13.355   7.798  1.00  0.00    -0.744 OA
ENDBRANCH  88  91
ENDBRANCH  61  84
ENDBRANCH  35  36
ENDBRANCH  27  30
ENDBRANCH  25  26
ENDBRANCH   1  25
TORSDOF 16
