REMARK SMILES O=C(NCCCNC(=O)[C@H]1CC[C@@H](CN2CC(=O)N3CCCC[C@H]3C2=O)O1)c1ccc(-c2c3nc(c(-c4cccc(S(=O)(=O)[O-])c4F)c4ccc([nH]4)c(-c4cccc(S(=O)(=O)[O-])c4F)c4nc(c(-c5cccc(S(=O)(=O)[O-])c5F)c5ccc2[nH]5)C=C4)C=C3)cc1
REMARK SMILES IDX 4 1 3 2 1 3 2 4 28 6 29 7 90 8 30 9 89 10 31 11 32 12 33 13
REMARK SMILES IDX 83 14 34 15 88 16 82 17 84 18 35 19 87 20 81 21 80 22 36 24
REMARK SMILES IDX 68 25 48 26 67 27 49 28 52 29 66 30 85 31 50 32 51 33 65 35
REMARK SMILES IDX 86 36 53 37 37 38 38 39 46 40 39 41 41 42 47 43 40 44 42 45
REMARK SMILES IDX 43 46 44 47 45 48 69 49 70 50 78 51 71 52 73 53 79 54 72 55
REMARK SMILES IDX 74 56 75 57 76 58 77 59 54 60 55 61 63 62 56 63 58 64 64 65
REMARK SMILES IDX 57 66 59 67 60 68 61 69 62 70 5 71 6 72 7 73 8 74 9 76 10 77
REMARK SMILES IDX 11 78 27 79 12 80 13 81 14 82 15 83 16 84 25 85 17 86 24 87
REMARK SMILES IDX 26 88 18 89 19 90 23 91 20 92 22 93 21 94
REMARK H PARENT 3 5 84 23 52 34 7 75
REMARK Flexibility Score: inf
ROOT
ATOM      1  C   UNL     1       2.691  -1.847   7.700  1.00  0.00     0.118 C 
ENDROOT
BRANCH   1   2
ATOM      2  N   UNL     1       3.016  -1.974   9.117  1.00  0.00    -0.352 N 
ATOM      3  O   UNL     1       3.338  -1.350  11.246  1.00  0.00    -0.269 OA
ATOM      4  C   UNL     1       2.767  -1.143  10.179  1.00  0.00     0.251 C 
ATOM      5  H   UNL     1       3.498  -2.800   9.351  1.00  0.00     0.163 HD
BRANCH   4   6
ATOM      6  C   UNL     1       1.843  -0.004  10.021  1.00  0.00     0.039 A 
ATOM      7  C   UNL     1       0.657  -0.153   9.299  1.00  0.00     0.014 A 
ATOM      8  C   UNL     1       2.162   1.224  10.604  1.00  0.00     0.014 A 
ATOM      9  C   UNL     1      -0.119   0.959   9.008  1.00  0.00     0.010 A 
ATOM     10  C   UNL     1       1.322   2.320  10.399  1.00  0.00     0.010 A 
ATOM     11  C   UNL     1       0.197   2.205   9.568  1.00  0.00    -0.014 A 
BRANCH  11  12
ATOM     12  C   UNL     1      -0.695   3.363   9.327  1.00  0.00     0.031 A 
ATOM     13  C   UNL     1      -0.190   4.591   8.625  1.00  0.00     0.074 A 
ATOM     14  C   UNL     1      -1.963   3.304   9.777  1.00  0.00     0.049 A 
ATOM     15  N   UNL     1      -0.809   5.718   8.395  1.00  0.00    -0.248 NA
ATOM     16  C   UNL     1       1.195   4.555   8.126  1.00  0.00     0.031 C 
ATOM     17  C   UNL     1      -2.547   2.169  10.497  1.00  0.00     0.029 A 
ATOM     18  N   UNL     1      -2.981   4.218   9.716  1.00  0.00    -0.354 N 
ATOM     19  C   UNL     1       0.120   6.545   7.776  1.00  0.00     0.074 A 
ATOM     20  C   UNL     1       1.348   5.788   7.664  1.00  0.00     0.031 C 
ATOM     21  C   UNL     1      -3.819   2.451  10.807  1.00  0.00     0.029 A 
ATOM     22  C   UNL     1      -4.121   3.808  10.367  1.00  0.00     0.049 A 
ATOM     23  H   UNL     1      -2.905   5.084   9.252  1.00  0.00     0.167 HD
ATOM     24  C   UNL     1      -0.043   7.815   7.335  1.00  0.00     0.034 A 
ATOM     25  C   UNL     1      -5.271   4.461  10.616  1.00  0.00     0.034 A 
ATOM     26  C   UNL     1      -1.283   8.540   7.420  1.00  0.00     0.049 A 
ATOM     27  C   UNL     1      -5.433   5.858  10.097  1.00  0.00     0.074 A 
ATOM     28  C   UNL     1      -1.573   9.807   6.946  1.00  0.00     0.029 A 
ATOM     29  N   UNL     1      -2.438   8.065   8.025  1.00  0.00    -0.354 N 
ATOM     30  N   UNL     1      -4.580   6.585   9.418  1.00  0.00    -0.248 NA
ATOM     31  C   UNL     1      -6.721   6.517  10.351  1.00  0.00     0.031 C 
ATOM     32  C   UNL     1      -2.898  10.105   7.282  1.00  0.00     0.029 A 
ATOM     33  C   UNL     1      -3.441   9.015   7.944  1.00  0.00     0.049 A 
ATOM     34  H   UNL     1      -2.530   7.182   8.449  1.00  0.00     0.167 HD
ATOM     35  C   UNL     1      -5.235   7.776   9.134  1.00  0.00     0.074 A 
ATOM     36  C   UNL     1      -6.563   7.666   9.706  1.00  0.00     0.031 C 
ATOM     37  C   UNL     1      -4.774   8.864   8.471  1.00  0.00     0.034 A 
BRANCH  24  38
ATOM     38  C   UNL     1       1.143   8.493   6.698  1.00  0.00     0.023 A 
ATOM     39  C   UNL     1       1.568   8.099   5.413  1.00  0.00     0.012 A 
ATOM     40  C   UNL     1       1.810   9.549   7.351  1.00  0.00     0.148 A 
ATOM     41  C   UNL     1       2.659   8.719   4.804  1.00  0.00     0.002 A 
ATOM     42  C   UNL     1       2.871  10.189   6.720  1.00  0.00     0.091 A 
ATOM     43  F   UNL     1       1.411   9.895   8.583  1.00  0.00    -0.205 F 
ATOM     44  C   UNL     1       3.304   9.769   5.452  1.00  0.00     0.022 A 
BRANCH  42  45
ATOM     45  S   UNL     1       3.711  11.600   7.451  1.00  0.00     0.127 S 
ATOM     46  O   UNL     1       4.933  10.983   7.964  1.00  0.00    -0.237 OA
ATOM     47  O   UNL     1       3.910  12.478   6.297  1.00  0.00    -0.237 OA
ATOM     48  O   UNL     1       2.797  12.126   8.456  1.00  0.00    -0.744 OA
ENDBRANCH  42  45
ENDBRANCH  24  38
BRANCH  25  49
ATOM     49  C   UNL     1      -6.353   3.763  11.363  1.00  0.00     0.023 A 
ATOM     50  C   UNL     1      -7.506   3.340  10.678  1.00  0.00     0.012 A 
ATOM     51  C   UNL     1      -6.196   3.428  12.723  1.00  0.00     0.148 A 
ATOM     52  C   UNL     1      -8.491   2.604  11.337  1.00  0.00     0.002 A 
ATOM     53  C   UNL     1      -7.152   2.645  13.357  1.00  0.00     0.091 A 
ATOM     54  F   UNL     1      -5.091   3.847  13.356  1.00  0.00    -0.205 F 
ATOM     55  C   UNL     1      -8.308   2.244  12.670  1.00  0.00     0.022 A 
BRANCH  53  56
ATOM     56  S   UNL     1      -6.927   2.008  15.022  1.00  0.00     0.127 S 
ATOM     57  O   UNL     1      -7.938   2.756  15.766  1.00  0.00    -0.237 OA
ATOM     58  O   UNL     1      -7.220   0.586  14.842  1.00  0.00    -0.237 OA
ATOM     59  O   UNL     1      -5.543   2.296  15.372  1.00  0.00    -0.744 OA
ENDBRANCH  53  56
ENDBRANCH  25  49
BRANCH  37  60
ATOM     60  C   UNL     1      -5.722  10.017   8.284  1.00  0.00     0.023 A 
ATOM     61  C   UNL     1      -6.013  10.868   9.367  1.00  0.00     0.012 A 
ATOM     62  C   UNL     1      -6.245  10.309   7.009  1.00  0.00     0.148 A 
ATOM     63  C   UNL     1      -6.828  11.985   9.187  1.00  0.00     0.002 A 
ATOM     64  C   UNL     1      -7.018  11.448   6.828  1.00  0.00     0.091 A 
ATOM     65  F   UNL     1      -5.971   9.471   5.998  1.00  0.00    -0.205 F 
ATOM     66  C   UNL     1      -7.319  12.282   7.917  1.00  0.00     0.022 A 
BRANCH  64  67
ATOM     67  S   UNL     1      -7.611  11.961   5.212  1.00  0.00     0.127 S 
ATOM     68  O   UNL     1      -9.043  11.684   5.318  1.00  0.00    -0.237 OA
ATOM     69  O   UNL     1      -7.264  13.382   5.190  1.00  0.00    -0.237 OA
ATOM     70  O   UNL     1      -6.888  11.148   4.242  1.00  0.00    -0.744 OA
ENDBRANCH  64  67
ENDBRANCH  37  60
ENDBRANCH  11  12
ENDBRANCH   4   6
ENDBRANCH   1   2
BRANCH   1  71
ATOM     71  C   UNL     1       3.927  -1.543   6.867  1.00  0.00     0.042 C 
BRANCH  71  72
ATOM     72  C   UNL     1       4.916  -2.696   6.875  1.00  0.00     0.117 C 
BRANCH  72  73
ATOM     73  N   UNL     1       4.494  -3.783   6.021  1.00  0.00    -0.354 N 
ATOM     74  C   UNL     1       4.993  -4.283   4.864  1.00  0.00     0.249 C 
ATOM     75  H   UNL     1       3.689  -4.250   6.342  1.00  0.00     0.163 HD
ATOM     76  O   UNL     1       4.315  -5.167   4.323  1.00  0.00    -0.272 OA
BRANCH  74  77
ATOM     77  C   UNL     1       6.362  -3.903   4.262  1.00  0.00     0.207 C 
ATOM     78  C   UNL     1       6.885  -2.483   4.324  1.00  0.00     0.045 C 
ATOM     79  O   UNL     1       7.371  -4.766   4.800  1.00  0.00    -0.363 OA
ATOM     80  C   UNL     1       8.039  -2.528   5.306  1.00  0.00     0.037 C 
ATOM     81  C   UNL     1       8.432  -3.993   5.361  1.00  0.00     0.139 C 
BRANCH  81  82
ATOM     82  C   UNL     1       8.822  -4.529   6.754  1.00  0.00     0.152 C 
BRANCH  82  83
ATOM     83  N   UNL     1       7.710  -4.764   7.694  1.00  0.00    -0.329 N 
ATOM     84  C   UNL     1       7.026  -6.055   7.620  1.00  0.00     0.219 C 
ATOM     85  C   UNL     1       7.619  -4.021   8.863  1.00  0.00     0.245 C 
ATOM     86  C   UNL     1       5.637  -6.125   8.255  1.00  0.00     0.242 C 
ATOM     87  C   UNL     1       6.497  -4.423   9.849  1.00  0.00     0.174 C 
ATOM     88  O   UNL     1       8.417  -3.126   9.141  1.00  0.00    -0.272 OA
ATOM     89  O   UNL     1       4.847  -7.023   7.967  1.00  0.00    -0.273 OA
ATOM     90  N   UNL     1       5.408  -5.230   9.290  1.00  0.00    -0.329 N 
ATOM     91  C   UNL     1       7.035  -5.111  11.106  1.00  0.00     0.035 C 
ATOM     92  C   UNL     1       4.264  -5.431  10.173  1.00  0.00     0.120 C 
ATOM     93  C   UNL     1       5.893  -5.366  12.102  1.00  0.00     0.004 C 
ATOM     94  C   UNL     1       4.724  -6.122  11.456  1.00  0.00     0.022 C 
ENDBRANCH  82  83
ENDBRANCH  81  82
ENDBRANCH  74  77
ENDBRANCH  72  73
ENDBRANCH  71  72
ENDBRANCH   1  71
TORSDOF 15
