REMARK SMILES NC(=[NH2+])N1CCC[C@H]1C(=O)NCCCNC(=O)c1ccc(-c2c3nc(c(-c4cccc(S(=O)(=O)[O-])c4F)c4ccc([nH]4)c(-c4cccc(S(=O)(=O)[O-])c4F)c4nc(c(-c5cccc(S(=O)(=O)[O-])c5F)c5ccc2[nH]5)C=C4)C=C3)cc1
REMARK SMILES IDX 14 1 13 2 12 3 11 4 9 5 10 6 8 8 4 9 5 10 6 11 7 12 2 13
REMARK SMILES IDX 3 14 1 17 15 20 16 21 17 23 18 24 19 25 80 26 20 27 79 28
REMARK SMILES IDX 21 29 22 30 23 31 73 32 24 33 78 34 72 35 74 36 25 37 77 38
REMARK SMILES IDX 71 39 70 40 26 42 58 43 38 44 57 45 39 46 42 47 56 48 75 49
REMARK SMILES IDX 40 50 41 51 55 53 76 54 43 55 27 56 28 57 36 58 29 59 31 60
REMARK SMILES IDX 37 61 30 62 32 63 33 64 34 65 35 66 59 67 60 68 68 69 61 70
REMARK SMILES IDX 63 71 69 72 62 73 64 74 65 75 66 76 67 77 44 78 45 79 53 80
REMARK SMILES IDX 46 81 48 82 54 83 47 84 49 85 50 86 51 87 52 88
REMARK H PARENT 11 7 3 15 3 16 1 18 1 19 15 22 74 41 42 52
REMARK Flexibility Score: inf
ROOT
ATOM      1  C   UNL     1       0.237   5.156  -1.408  1.00  0.00     0.118 C 
ENDROOT
BRANCH   1   2
ATOM      2  C   UNL     1      -0.032   3.815  -0.735  1.00  0.00     0.042 C 
BRANCH   2   3
ATOM      3  C   UNL     1      -1.472   3.341  -0.895  1.00  0.00     0.117 C 
BRANCH   3   4
ATOM      4  N   UNL     1      -1.755   2.908  -2.252  1.00  0.00    -0.353 N 
ATOM      5  C   UNL     1      -1.891   1.663  -2.783  1.00  0.00     0.257 C 
ATOM      6  O   UNL     1      -2.064   1.609  -4.008  1.00  0.00    -0.271 OA
ATOM      7  H   UNL     1      -1.869   3.642  -2.898  1.00  0.00     0.163 HD
BRANCH   5   8
ATOM      8  C   UNL     1      -1.950   0.369  -1.957  1.00  0.00     0.237 C 
ATOM      9  N   UNL     1      -1.077   0.294  -0.781  1.00  0.00    -0.253 N 
ATOM     10  C   UNL     1      -1.851  -0.056   0.414  1.00  0.00     0.201 C 
ATOM     11  C   UNL     1      -3.161  -0.605  -0.128  1.00  0.00     0.042 C 
ATOM     12  C   UNL     1      -3.367   0.170  -1.414  1.00  0.00     0.055 C 
BRANCH   9  13
ATOM     13  C   UNL     1       0.282   0.281  -0.756  1.00  0.00     0.341 C 
ATOM     14  N   UNL     1       0.936   0.070   0.334  1.00  0.00    -0.291 N 
ATOM     15  H   UNL     1       1.921   0.065   0.325  1.00  0.00     0.256 HD
ATOM     16  H   UNL     1       0.451  -0.087   1.176  1.00  0.00     0.256 HD
ATOM     17  N   UNL     1       0.934   0.488  -1.911  1.00  0.00    -0.291 N 
ATOM     18  H   UNL     1       1.918   0.485  -1.929  1.00  0.00     0.256 HD
ATOM     19  H   UNL     1       0.427   0.643  -2.741  1.00  0.00     0.256 HD
ENDBRANCH   9  13
ENDBRANCH   5   8
ENDBRANCH   3   4
ENDBRANCH   2   3
ENDBRANCH   1   2
BRANCH   1  20
ATOM     20  N   UNL     1      -0.475   6.251  -0.758  1.00  0.00    -0.352 N 
ATOM     21  C   UNL     1       0.014   7.326  -0.062  1.00  0.00     0.251 C 
ATOM     22  H   UNL     1      -1.456   6.213  -0.832  1.00  0.00     0.163 HD
ATOM     23  O   UNL     1      -0.758   8.008   0.617  1.00  0.00    -0.269 OA
BRANCH  21  24
ATOM     24  C   UNL     1       1.450   7.668  -0.117  1.00  0.00     0.039 A 
ATOM     25  C   UNL     1       2.097   8.093   1.047  1.00  0.00     0.014 A 
ATOM     26  C   UNL     1       2.156   7.599  -1.320  1.00  0.00     0.014 A 
ATOM     27  C   UNL     1       3.461   8.391   1.014  1.00  0.00     0.010 A 
ATOM     28  C   UNL     1       3.532   7.803  -1.331  1.00  0.00     0.010 A 
ATOM     29  C   UNL     1       4.199   8.217  -0.169  1.00  0.00    -0.014 A 
BRANCH  29  30
ATOM     30  C   UNL     1       5.662   8.476  -0.220  1.00  0.00     0.031 A 
ATOM     31  C   UNL     1       6.208   9.528  -1.152  1.00  0.00     0.074 A 
ATOM     32  C   UNL     1       6.502   7.715   0.510  1.00  0.00     0.049 A 
ATOM     33  N   UNL     1       7.453   9.841  -1.403  1.00  0.00    -0.248 NA
ATOM     34  C   UNL     1       5.229  10.312  -1.926  1.00  0.00     0.031 C 
ATOM     35  C   UNL     1       6.102   6.618   1.395  1.00  0.00     0.029 A 
ATOM     36  N   UNL     1       7.871   7.731   0.605  1.00  0.00    -0.354 N 
ATOM     37  C   UNL     1       7.408  10.831  -2.377  1.00  0.00     0.074 A 
ATOM     38  C   UNL     1       6.016  11.036  -2.709  1.00  0.00     0.031 C 
ATOM     39  C   UNL     1       7.199   6.073   1.947  1.00  0.00     0.029 A 
ATOM     40  C   UNL     1       8.380   6.755   1.431  1.00  0.00     0.049 A 
ATOM     41  H   UNL     1       8.437   8.380   0.127  1.00  0.00     0.167 HD
ATOM     42  C   UNL     1       8.428  11.537  -2.920  1.00  0.00     0.034 A 
ATOM     43  C   UNL     1       9.656   6.439   1.728  1.00  0.00     0.034 A 
ATOM     44  C   UNL     1       9.807  11.365  -2.554  1.00  0.00     0.049 A 
ATOM     45  C   UNL     1      10.768   7.256   1.124  1.00  0.00     0.074 A 
ATOM     46  C   UNL     1      10.910  12.071  -3.002  1.00  0.00     0.029 A 
ATOM     47  N   UNL     1      10.274  10.425  -1.649  1.00  0.00    -0.354 N 
ATOM     48  N   UNL     1      10.692   8.278   0.307  1.00  0.00    -0.248 NA
ATOM     49  C   UNL     1      12.140   6.898   1.511  1.00  0.00     0.031 C 
ATOM     50  C   UNL     1      12.046  11.547  -2.378  1.00  0.00     0.029 A 
ATOM     51  C   UNL     1      11.647  10.534  -1.522  1.00  0.00     0.049 A 
ATOM     52  H   UNL     1       9.711   9.776  -1.168  1.00  0.00     0.167 HD
ATOM     53  C   UNL     1      11.999   8.713   0.121  1.00  0.00     0.074 A 
ATOM     54  C   UNL     1      12.844   7.858   0.927  1.00  0.00     0.031 C 
ATOM     55  C   UNL     1      12.463   9.719  -0.661  1.00  0.00     0.034 A 
BRANCH  42  56
ATOM     56  C   UNL     1       8.088  12.615  -3.917  1.00  0.00     0.023 A 
ATOM     57  C   UNL     1       7.468  13.799  -3.467  1.00  0.00     0.012 A 
ATOM     58  C   UNL     1       8.451  12.498  -5.272  1.00  0.00     0.148 A 
ATOM     59  C   UNL     1       7.189  14.838  -4.354  1.00  0.00     0.002 A 
ATOM     60  C   UNL     1       8.212  13.556  -6.142  1.00  0.00     0.091 A 
ATOM     61  F   UNL     1       9.026  11.359  -5.684  1.00  0.00    -0.205 F 
ATOM     62  C   UNL     1       7.572  14.721  -5.687  1.00  0.00     0.022 A 
BRANCH  60  63
ATOM     63  S   UNL     1       8.734  13.543  -7.861  1.00  0.00     0.127 S 
ATOM     64  O   UNL     1       7.449  13.557  -8.559  1.00  0.00    -0.237 OA
ATOM     65  O   UNL     1       9.494  14.789  -7.958  1.00  0.00    -0.237 OA
ATOM     66  O   UNL     1       9.520  12.331  -8.036  1.00  0.00    -0.744 OA
ENDBRANCH  60  63
ENDBRANCH  42  56
BRANCH  43  67
ATOM     67  C   UNL     1       9.962   5.333   2.681  1.00  0.00     0.023 A 
ATOM     68  C   UNL     1      10.544   5.634   3.929  1.00  0.00     0.012 A 
ATOM     69  C   UNL     1       9.703   3.988   2.355  1.00  0.00     0.148 A 
ATOM     70  C   UNL     1      10.910   4.616   4.810  1.00  0.00     0.002 A 
ATOM     71  C   UNL     1      10.016   2.982   3.262  1.00  0.00     0.091 A 
ATOM     72  F   UNL     1       9.161   3.716   1.159  1.00  0.00    -0.205 F 
ATOM     73  C   UNL     1      10.639   3.291   4.480  1.00  0.00     0.022 A 
BRANCH  71  74
ATOM     74  S   UNL     1       9.585   1.263   2.968  1.00  0.00     0.127 S 
ATOM     75  O   UNL     1      10.880   0.685   2.619  1.00  0.00    -0.237 OA
ATOM     76  O   UNL     1       9.059   0.853   4.271  1.00  0.00    -0.237 OA
ATOM     77  O   UNL     1       8.591   1.289   1.904  1.00  0.00    -0.744 OA
ENDBRANCH  71  74
ENDBRANCH  43  67
BRANCH  55  78
ATOM     78  C   UNL     1      13.944   9.993  -0.642  1.00  0.00     0.023 A 
ATOM     79  C   UNL     1      14.834   9.095  -1.261  1.00  0.00     0.012 A 
ATOM     80  C   UNL     1      14.442  11.181  -0.070  1.00  0.00     0.148 A 
ATOM     81  C   UNL     1      16.204   9.356  -1.279  1.00  0.00     0.002 A 
ATOM     82  C   UNL     1      15.801  11.460  -0.139  1.00  0.00     0.091 A 
ATOM     83  F   UNL     1      13.579  12.014   0.528  1.00  0.00    -0.205 F 
ATOM     84  C   UNL     1      16.685  10.542  -0.730  1.00  0.00     0.022 A 
BRANCH  82  85
ATOM     85  S   UNL     1      16.498  13.006   0.451  1.00  0.00     0.127 S 
ATOM     86  O   UNL     1      17.228  12.569   1.640  1.00  0.00    -0.237 OA
ATOM     87  O   UNL     1      17.346  13.411  -0.671  1.00  0.00    -0.237 OA
ATOM     88  O   UNL     1      15.367  13.888   0.703  1.00  0.00    -0.744 OA
ENDBRANCH  82  85
ENDBRANCH  55  78
ENDBRANCH  29  30
ENDBRANCH  21  24
ENDBRANCH   1  20
TORSDOF 14
