REMARK SMILES COc1ccc(NS(=O)(=O)c2ccc(NC(=O)[C@H]3CCCC[C@@H]3C(=O)NCCCNC(=O)c3ccc(-c4c5nc(c(-c6cccc(S(=O)(=O)[O-])c6F)c6ccc([nH]6)c(-c6cccc(S(=O)(=O)[O-])c6F)c6nc(c(-c7cccc(S(=O)(=O)[O-])c7F)c7ccc4[nH]7)C=C6)C=C5)cc3)cc2)cc1
REMARK SMILES IDX 24 1 25 2 26 3 23 5 18 6 19 7 20 8 22 9 21 10 16 11 15 12
REMARK SMILES IDX 17 14 14 15 11 16 12 17 97 18 13 19 96 20 8 21 9 22 10 23
REMARK SMILES IDX 7 24 6 26 3 27 4 28 99 29 5 30 98 31 2 32 1 33 27 34 28 35
REMARK SMILES IDX 29 36 30 37 31 38 32 40 33 41 34 42 95 43 35 44 94 45 36 46
REMARK SMILES IDX 37 47 38 48 88 49 39 50 93 51 87 52 89 53 40 54 92 55 86 56
REMARK SMILES IDX 85 57 41 59 73 60 53 61 72 62 54 63 57 64 71 65 90 66 55 67
REMARK SMILES IDX 56 68 70 70 91 71 58 72 42 73 43 74 51 75 44 76 46 77 52 78
REMARK SMILES IDX 45 79 47 80 48 81 49 82 50 83 74 84 75 85 83 86 76 87 78 88
REMARK SMILES IDX 84 89 77 90 79 91 80 92 81 93 82 94 59 95 60 96 68 97 61 98
REMARK SMILES IDX 63 99 69 100 62 101 64 102 65 103 66 104 67 105
REMARK H PARENT 26 4 15 13 7 25 30 39 89 58 57 69
REMARK Flexibility Score: inf
ROOT
ATOM      1  C   UNL     1      -5.958   3.103  -6.920  1.00  0.00     0.223 C 
ATOM      2  O   UNL     1      -5.558   2.657  -8.002  1.00  0.00    -0.275 OA
ATOM      3  N   UNL     1      -7.093   2.547  -6.410  1.00  0.00    -0.356 N 
ATOM      4  H   UNL     1      -7.878   2.544  -7.004  1.00  0.00     0.163 HD
ENDROOT
BRANCH   1   5
ATOM      5  C   UNL     1      -5.358   4.408  -6.371  1.00  0.00     0.091 C 
ATOM      6  C   UNL     1      -4.815   4.385  -4.936  1.00  0.00     0.091 C 
ATOM      7  C   UNL     1      -5.644   5.118  -3.870  1.00  0.00     0.014 C 
ATOM      8  C   UNL     1      -6.402   6.339  -4.360  1.00  0.00     0.001 C 
ATOM      9  C   UNL     1      -6.350   5.532  -6.738  1.00  0.00     0.014 C 
ATOM     10  C   UNL     1      -7.217   6.040  -5.602  1.00  0.00     0.001 C 
BRANCH   6  11
ATOM     11  C   UNL     1      -3.290   4.612  -4.744  1.00  0.00     0.228 C 
ATOM     12  N   UNL     1      -2.707   5.840  -4.609  1.00  0.00    -0.326 N 
ATOM     13  H   UNL     1      -1.927   5.852  -4.007  1.00  0.00     0.169 HD
ATOM     14  O   UNL     1      -2.566   3.631  -4.526  1.00  0.00    -0.274 OA
BRANCH  12  15
ATOM     15  C   UNL     1      -3.014   7.082  -5.167  1.00  0.00     0.041 A 
ATOM     16  C   UNL     1      -3.915   9.546  -6.107  1.00  0.00     0.087 A 
ATOM     17  C   UNL     1      -3.960   8.424  -6.934  1.00  0.00     0.024 A 
ATOM     18  C   UNL     1      -3.238   9.483  -4.888  1.00  0.00     0.024 A 
ATOM     19  C   UNL     1      -3.480   7.201  -6.468  1.00  0.00     0.027 A 
ATOM     20  C   UNL     1      -2.787   8.242  -4.418  1.00  0.00     0.027 A 
BRANCH  16  21
ATOM     21  S   UNL     1      -4.964  10.912  -6.566  1.00  0.00     0.261 S 
ATOM     22  O   UNL     1      -6.251  10.349  -6.925  1.00  0.00    -0.201 OA
ATOM     23  O   UNL     1      -4.208  11.709  -7.507  1.00  0.00    -0.201 OA
BRANCH  21  24
ATOM     24  N   UNL     1      -5.171  11.870  -5.218  1.00  0.00    -0.280 N 
ATOM     25  H   UNL     1      -4.900  12.812  -5.305  1.00  0.00     0.180 HD
BRANCH  24  26
ATOM     26  C   UNL     1      -5.697  11.477  -3.955  1.00  0.00     0.049 A 
ATOM     27  C   UNL     1      -6.098  10.733  -1.288  1.00  0.00     0.119 A 
ATOM     28  C   UNL     1      -6.239   9.793  -2.304  1.00  0.00     0.048 A 
ATOM     29  C   UNL     1      -5.840  12.064  -1.600  1.00  0.00     0.048 A 
ATOM     30  C   UNL     1      -6.083  10.174  -3.641  1.00  0.00     0.030 A 
ATOM     31  C   UNL     1      -5.643  12.433  -2.934  1.00  0.00     0.030 A 
BRANCH  27  32
ATOM     32  O   UNL     1      -6.064  10.265  -0.005  1.00  0.00    -0.497 OA
ATOM     33  C   UNL     1      -7.081  10.826   0.820  1.00  0.00     0.278 C 
ENDBRANCH  27  32
ENDBRANCH  24  26
ENDBRANCH  21  24
ENDBRANCH  16  21
ENDBRANCH  12  15
ENDBRANCH   6  11
ENDBRANCH   1   5
BRANCH   3  34
ATOM     34  C   UNL     1      -7.285   1.960  -5.094  1.00  0.00     0.117 C 
BRANCH  34  35
ATOM     35  C   UNL     1      -8.500   2.474  -4.333  1.00  0.00     0.042 C 
BRANCH  35  36
ATOM     36  C   UNL     1      -9.821   2.420  -5.093  1.00  0.00     0.118 C 
BRANCH  36  37
ATOM     37  N   UNL     1     -10.268   1.064  -5.373  1.00  0.00    -0.352 N 
ATOM     38  C   UNL     1     -11.256   0.295  -4.808  1.00  0.00     0.251 C 
ATOM     39  H   UNL     1      -9.774   0.618  -6.098  1.00  0.00     0.163 HD
ATOM     40  O   UNL     1     -11.325  -0.892  -5.122  1.00  0.00    -0.269 OA
BRANCH  38  41
ATOM     41  C   UNL     1     -12.221   0.845  -3.823  1.00  0.00     0.039 A 
ATOM     42  C   UNL     1     -12.620   0.027  -2.758  1.00  0.00     0.014 A 
ATOM     43  C   UNL     1     -12.802   2.107  -3.968  1.00  0.00     0.014 A 
ATOM     44  C   UNL     1     -13.553   0.490  -1.825  1.00  0.00     0.010 A 
ATOM     45  C   UNL     1     -13.674   2.598  -2.993  1.00  0.00     0.010 A 
ATOM     46  C   UNL     1     -14.075   1.790  -1.921  1.00  0.00    -0.014 A 
BRANCH  46  47
ATOM     47  C   UNL     1     -15.058   2.293  -0.923  1.00  0.00     0.031 A 
ATOM     48  C   UNL     1     -16.467   2.631  -1.338  1.00  0.00     0.074 A 
ATOM     49  C   UNL     1     -14.674   2.489   0.354  1.00  0.00     0.049 A 
ATOM     50  N   UNL     1     -17.460   3.067  -0.605  1.00  0.00    -0.248 NA
ATOM     51  C   UNL     1     -16.800   2.484  -2.765  1.00  0.00     0.031 C 
ATOM     52  C   UNL     1     -13.319   2.290   0.872  1.00  0.00     0.029 A 
ATOM     53  N   UNL     1     -15.387   2.909   1.450  1.00  0.00    -0.354 N 
ATOM     54  C   UNL     1     -18.519   3.278  -1.481  1.00  0.00     0.074 A 
ATOM     55  C   UNL     1     -18.039   2.955  -2.807  1.00  0.00     0.031 C 
ATOM     56  C   UNL     1     -13.304   2.566   2.186  1.00  0.00     0.029 A 
ATOM     57  C   UNL     1     -14.644   2.965   2.606  1.00  0.00     0.049 A 
ATOM     58  H   UNL     1     -16.342   3.148   1.412  1.00  0.00     0.167 HD
ATOM     59  C   UNL     1     -19.788   3.664  -1.208  1.00  0.00     0.034 A 
ATOM     60  C   UNL     1     -15.006   3.277   3.866  1.00  0.00     0.034 A 
ATOM     61  C   UNL     1     -20.291   3.915   0.116  1.00  0.00     0.049 A 
ATOM     62  C   UNL     1     -16.449   3.592   4.159  1.00  0.00     0.074 A 
ATOM     63  C   UNL     1     -21.576   4.254   0.501  1.00  0.00     0.029 A 
ATOM     64  N   UNL     1     -19.535   3.833   1.274  1.00  0.00    -0.354 N 
ATOM     65  N   UNL     1     -17.466   3.639   3.334  1.00  0.00    -0.248 NA
ATOM     66  C   UNL     1     -16.802   3.848   5.564  1.00  0.00     0.031 C 
ATOM     67  C   UNL     1     -21.602   4.358   1.897  1.00  0.00     0.029 A 
ATOM     68  C   UNL     1     -20.330   4.094   2.377  1.00  0.00     0.049 A 
ATOM     69  H   UNL     1     -18.575   3.621   1.308  1.00  0.00     0.167 HD
ATOM     70  C   UNL     1     -18.582   3.900   4.120  1.00  0.00     0.074 A 
ATOM     71  C   UNL     1     -18.121   3.973   5.492  1.00  0.00     0.031 C 
ATOM     72  C   UNL     1     -19.869   4.090   3.740  1.00  0.00     0.034 A 
BRANCH  59  73
ATOM     73  C   UNL     1     -20.753   3.745  -2.361  1.00  0.00     0.023 A 
ATOM     74  C   UNL     1     -21.268   2.549  -2.901  1.00  0.00     0.012 A 
ATOM     75  C   UNL     1     -21.188   4.981  -2.875  1.00  0.00     0.148 A 
ATOM     76  C   UNL     1     -22.182   2.580  -3.953  1.00  0.00     0.002 A 
ATOM     77  C   UNL     1     -22.125   5.005  -3.903  1.00  0.00     0.091 A 
ATOM     78  F   UNL     1     -20.668   6.107  -2.365  1.00  0.00    -0.205 F 
ATOM     79  C   UNL     1     -22.617   3.806  -4.447  1.00  0.00     0.022 A 
BRANCH  77  80
ATOM     80  S   UNL     1     -22.794   6.535  -4.566  1.00  0.00     0.127 S 
ATOM     81  O   UNL     1     -22.096   6.632  -5.847  1.00  0.00    -0.237 OA
ATOM     82  O   UNL     1     -24.222   6.232  -4.672  1.00  0.00    -0.237 OA
ATOM     83  O   UNL     1     -22.467   7.567  -3.592  1.00  0.00    -0.744 OA
ENDBRANCH  77  80
ENDBRANCH  59  73
BRANCH  60  84
ATOM     84  C   UNL     1     -14.010   3.179   4.970  1.00  0.00     0.023 A 
ATOM     85  C   UNL     1     -14.100   2.105   5.877  1.00  0.00     0.012 A 
ATOM     86  C   UNL     1     -12.965   4.110   5.112  1.00  0.00     0.148 A 
ATOM     87  C   UNL     1     -13.185   1.976   6.922  1.00  0.00     0.002 A 
ATOM     88  C   UNL     1     -12.028   3.949   6.128  1.00  0.00     0.091 A 
ATOM     89  F   UNL     1     -12.899   5.139   4.255  1.00  0.00    -0.205 F 
ATOM     90  C   UNL     1     -12.143   2.891   7.043  1.00  0.00     0.022 A 
BRANCH  88  91
ATOM     91  S   UNL     1     -10.597   5.029   6.240  1.00  0.00     0.127 S 
ATOM     92  O   UNL     1     -11.103   6.124   7.060  1.00  0.00    -0.237 OA
ATOM     93  O   UNL     1      -9.601   4.179   6.897  1.00  0.00    -0.237 OA
ATOM     94  O   UNL     1     -10.275   5.349   4.854  1.00  0.00    -0.744 OA
ENDBRANCH  88  91
ENDBRANCH  60  84
BRANCH  72  95
ATOM     95  C   UNL     1     -20.876   4.379   4.819  1.00  0.00     0.023 A 
ATOM     96  C   UNL     1     -20.921   5.665   5.391  1.00  0.00     0.012 A 
ATOM     97  C   UNL     1     -21.812   3.408   5.222  1.00  0.00     0.148 A 
ATOM     98  C   UNL     1     -21.867   5.973   6.368  1.00  0.00     0.002 A 
ATOM     99  C   UNL     1     -22.774   3.733   6.173  1.00  0.00     0.091 A 
ATOM    100  F   UNL     1     -21.742   2.180   4.687  1.00  0.00    -0.205 F 
ATOM    101  C   UNL     1     -22.799   5.011   6.752  1.00  0.00     0.022 A 
BRANCH  99 102
ATOM    102  S   UNL     1     -24.044   2.553   6.645  1.00  0.00     0.127 S 
ATOM    103  O   UNL     1     -23.394   1.825   7.732  1.00  0.00    -0.237 OA
ATOM    104  O   UNL     1     -25.150   3.415   7.068  1.00  0.00    -0.237 OA
ATOM    105  O   UNL     1     -24.316   1.790   5.434  1.00  0.00    -0.744 OA
ENDBRANCH  99 102
ENDBRANCH  72  95
ENDBRANCH  46  47
ENDBRANCH  38  41
ENDBRANCH  36  37
ENDBRANCH  35  36
ENDBRANCH  34  35
ENDBRANCH   3  34
TORSDOF 19
