REMARK SMILES CN(CC(=O)NCCCNC(=O)c1ccc(-c2c3nc(c(-c4cccc(S(=O)(=O)[O-])c4F)c4ccc([nH]4)c(-c4cccc(S(=O)(=O)[O-])c4F)c4nc(c(-c5cccc(S(=O)(=O)[O-])c5F)c5ccc2[nH]5)C=C4)C=C3)cc1)c1nc2cc(N)ccc2[nH]1
REMARK SMILES IDX 8 1 7 2 6 3 4 4 5 5 3 7 2 8 1 9 76 10 77 11 85 12 78 13
REMARK SMILES IDX 84 14 79 16 83 17 80 18 82 19 81 20 9 23 10 24 11 25 12 27
REMARK SMILES IDX 13 28 14 29 75 30 15 31 74 32 16 33 17 34 18 35 68 36 19 37
REMARK SMILES IDX 73 38 67 39 69 40 20 41 72 42 66 43 65 44 21 46 53 47 33 48
REMARK SMILES IDX 52 49 34 50 37 51 51 52 70 53 35 54 36 55 50 57 71 58 38 59
REMARK SMILES IDX 22 60 23 61 31 62 24 63 26 64 32 65 25 66 27 67 28 68 29 69
REMARK SMILES IDX 30 70 54 71 55 72 63 73 56 74 58 75 64 76 57 77 59 78 60 79
REMARK SMILES IDX 61 80 62 81 39 82 40 83 48 84 41 85 43 86 49 87 42 88 44 89
REMARK SMILES IDX 45 90 46 91 47 92
REMARK H PARENT 6 6 85 15 81 21 81 22 10 26 69 45 37 56
REMARK Flexibility Score: inf
ROOT
ATOM      1  C   UNL     1      -2.007  -1.097   1.183  1.00  0.00     0.042 C 
ENDROOT
BRANCH   1   2
ATOM      2  C   UNL     1      -2.159  -0.269  -0.086  1.00  0.00     0.117 C 
BRANCH   2   3
ATOM      3  N   UNL     1      -2.492   1.116   0.161  1.00  0.00    -0.354 N 
ATOM      4  C   UNL     1      -1.692   2.217   0.013  1.00  0.00     0.239 C 
ATOM      5  O   UNL     1      -2.231   3.328   0.030  1.00  0.00    -0.273 OA
ATOM      6  H   UNL     1      -3.409   1.289   0.474  1.00  0.00     0.163 HD
BRANCH   4   7
ATOM      7  C   UNL     1      -0.197   2.041  -0.305  1.00  0.00     0.219 C 
BRANCH   7   8
ATOM      8  N   UNL     1       0.572   1.323   0.731  1.00  0.00    -0.336 N 
ATOM      9  C   UNL     1       1.434   0.228   0.337  1.00  0.00     0.147 C 
BRANCH   8  10
ATOM     10  C   UNL     1       0.598   1.873   1.971  1.00  0.00     0.204 A 
ATOM     11  N   UNL     1      -0.279   2.711   2.470  1.00  0.00    -0.213 NA
ATOM     12  N   UNL     1       1.615   1.655   2.870  1.00  0.00    -0.324 N 
ATOM     13  C   UNL     1       0.196   3.079   3.699  1.00  0.00     0.093 A 
ATOM     14  C   UNL     1       1.413   2.468   3.959  1.00  0.00     0.067 A 
ATOM     15  H   UNL     1       2.362   1.024   2.753  1.00  0.00     0.170 HD
ATOM     16  C   UNL     1      -0.352   3.964   4.637  1.00  0.00     0.056 A 
ATOM     17  C   UNL     1       2.162   2.731   5.106  1.00  0.00     0.030 A 
ATOM     18  C   UNL     1       0.343   4.219   5.824  1.00  0.00     0.034 A 
ATOM     19  C   UNL     1       1.604   3.640   6.020  1.00  0.00     0.028 A 
BRANCH  18  20
ATOM     20  N   UNL     1      -0.146   5.161   6.724  1.00  0.00    -0.399 N 
ATOM     21  H   UNL     1      -1.033   5.564   6.582  1.00  0.00     0.156 HD
ATOM     22  H   UNL     1       0.395   5.424   7.504  1.00  0.00     0.156 HD
ENDBRANCH  18  20
ENDBRANCH   8  10
ENDBRANCH   7   8
ENDBRANCH   4   7
ENDBRANCH   2   3
ENDBRANCH   1   2
BRANCH   1  23
ATOM     23  C   UNL     1      -3.280  -1.232   2.013  1.00  0.00     0.118 C 
BRANCH  23  24
ATOM     24  N   UNL     1      -4.382  -1.828   1.269  1.00  0.00    -0.352 N 
ATOM     25  C   UNL     1      -5.135  -2.948   1.512  1.00  0.00     0.251 C 
ATOM     26  H   UNL     1      -4.629  -1.341   0.450  1.00  0.00     0.163 HD
ATOM     27  O   UNL     1      -5.900  -3.346   0.636  1.00  0.00    -0.269 OA
BRANCH  25  28
ATOM     28  C   UNL     1      -5.039  -3.686   2.793  1.00  0.00     0.039 A 
ATOM     29  C   UNL     1      -5.167  -5.080   2.771  1.00  0.00     0.014 A 
ATOM     30  C   UNL     1      -4.891  -3.029   4.016  1.00  0.00     0.014 A 
ATOM     31  C   UNL     1      -5.100  -5.809   3.961  1.00  0.00     0.010 A 
ATOM     32  C   UNL     1      -4.742  -3.762   5.193  1.00  0.00     0.010 A 
ATOM     33  C   UNL     1      -4.861  -5.159   5.182  1.00  0.00    -0.014 A 
BRANCH  33  34
ATOM     34  C   UNL     1      -4.737  -5.928   6.449  1.00  0.00     0.031 A 
ATOM     35  C   UNL     1      -5.720  -5.718   7.572  1.00  0.00     0.074 A 
ATOM     36  C   UNL     1      -3.700  -6.772   6.615  1.00  0.00     0.049 A 
ATOM     37  N   UNL     1      -5.760  -6.286   8.749  1.00  0.00    -0.248 NA
ATOM     38  C   UNL     1      -6.782  -4.722   7.354  1.00  0.00     0.031 C 
ATOM     39  C   UNL     1      -2.636  -7.006   5.636  1.00  0.00     0.029 A 
ATOM     40  N   UNL     1      -3.357  -7.576   7.674  1.00  0.00    -0.354 N 
ATOM     41  C   UNL     1      -6.824  -5.697   9.423  1.00  0.00     0.074 A 
ATOM     42  C   UNL     1      -7.381  -4.699   8.536  1.00  0.00     0.031 C 
ATOM     43  C   UNL     1      -1.768  -7.901   6.134  1.00  0.00     0.029 A 
ATOM     44  C   UNL     1      -2.196  -8.285   7.475  1.00  0.00     0.049 A 
ATOM     45  H   UNL     1      -3.893  -7.639   8.498  1.00  0.00     0.167 HD
ATOM     46  C   UNL     1      -7.315  -5.981  10.653  1.00  0.00     0.034 A 
ATOM     47  C   UNL     1      -1.547  -9.149   8.281  1.00  0.00     0.034 A 
ATOM     48  C   UNL     1      -6.784  -7.002  11.516  1.00  0.00     0.049 A 
ATOM     49  C   UNL     1      -2.138  -9.480   9.625  1.00  0.00     0.074 A 
ATOM     50  C   UNL     1      -7.260  -7.423  12.745  1.00  0.00     0.029 A 
ATOM     51  N   UNL     1      -5.656  -7.760  11.244  1.00  0.00    -0.354 N 
ATOM     52  N   UNL     1      -3.237  -9.026  10.178  1.00  0.00    -0.248 NA
ATOM     53  C   UNL     1      -1.423 -10.473  10.440  1.00  0.00     0.031 C 
ATOM     54  C   UNL     1      -6.405  -8.420  13.227  1.00  0.00     0.029 A 
ATOM     55  C   UNL     1      -5.415  -8.642  12.284  1.00  0.00     0.049 A 
ATOM     56  H   UNL     1      -5.106  -7.682  10.431  1.00  0.00     0.167 HD
ATOM     57  C   UNL     1      -3.368  -9.707  11.383  1.00  0.00     0.074 A 
ATOM     58  C   UNL     1      -2.244 -10.617  11.471  1.00  0.00     0.031 C 
ATOM     59  C   UNL     1      -4.325  -9.583  12.334  1.00  0.00     0.034 A 
BRANCH  46  60
ATOM     60  C   UNL     1      -8.526  -5.211  11.119  1.00  0.00     0.023 A 
ATOM     61  C   UNL     1      -9.776  -5.449  10.511  1.00  0.00     0.012 A 
ATOM     62  C   UNL     1      -8.442  -4.299  12.189  1.00  0.00     0.148 A 
ATOM     63  C   UNL     1     -10.915  -4.763  10.932  1.00  0.00     0.002 A 
ATOM     64  C   UNL     1      -9.591  -3.653  12.634  1.00  0.00     0.091 A 
ATOM     65  F   UNL     1      -7.244  -4.070  12.744  1.00  0.00    -0.205 F 
ATOM     66  C   UNL     1     -10.824  -3.874  11.999  1.00  0.00     0.022 A 
BRANCH  64  67
ATOM     67  S   UNL     1      -9.596  -2.553  14.054  1.00  0.00     0.127 S 
ATOM     68  O   UNL     1      -9.777  -1.249  13.417  1.00  0.00    -0.237 OA
ATOM     69  O   UNL     1     -10.755  -3.029  14.809  1.00  0.00    -0.237 OA
ATOM     70  O   UNL     1      -8.316  -2.752  14.720  1.00  0.00    -0.744 OA
ENDBRANCH  64  67
ENDBRANCH  46  60
BRANCH  47  71
ATOM     71  C   UNL     1      -0.307  -9.824   7.802  1.00  0.00     0.023 A 
ATOM     72  C   UNL     1      -0.342 -11.201   7.508  1.00  0.00     0.012 A 
ATOM     73  C   UNL     1       0.890  -9.110   7.606  1.00  0.00     0.148 A 
ATOM     74  C   UNL     1       0.802 -11.862   7.058  1.00  0.00     0.002 A 
ATOM     75  C   UNL     1       2.011  -9.762   7.104  1.00  0.00     0.091 A 
ATOM     76  F   UNL     1       0.906  -7.802   7.901  1.00  0.00    -0.205 F 
ATOM     77  C   UNL     1       1.974 -11.141   6.846  1.00  0.00     0.022 A 
BRANCH  75  78
ATOM     78  S   UNL     1       3.522  -8.890   6.673  1.00  0.00     0.127 S 
ATOM     79  O   UNL     1       4.441  -9.354   7.708  1.00  0.00    -0.237 OA
ATOM     80  O   UNL     1       3.794  -9.402   5.330  1.00  0.00    -0.237 OA
ATOM     81  O   UNL     1       3.184  -7.473   6.715  1.00  0.00    -0.744 OA
ENDBRANCH  75  78
ENDBRANCH  47  71
BRANCH  59  82
ATOM     82  C   UNL     1      -4.235 -10.482  13.540  1.00  0.00     0.023 A 
ATOM     83  C   UNL     1      -3.240 -10.258  14.513  1.00  0.00     0.012 A 
ATOM     84  C   UNL     1      -5.185 -11.502  13.744  1.00  0.00     0.148 A 
ATOM     85  C   UNL     1      -3.172 -11.059  15.652  1.00  0.00     0.002 A 
ATOM     86  C   UNL     1      -5.141 -12.263  14.906  1.00  0.00     0.091 A 
ATOM     87  F   UNL     1      -6.112 -11.712  12.798  1.00  0.00    -0.205 F 
ATOM     88  C   UNL     1      -4.128 -12.052  15.855  1.00  0.00     0.022 A 
BRANCH  86  89
ATOM     89  S   UNL     1      -6.388 -13.496  15.296  1.00  0.00     0.127 S 
ATOM     90  O   UNL     1      -5.653 -14.742  15.081  1.00  0.00    -0.237 OA
ATOM     91  O   UNL     1      -6.690 -13.201  16.697  1.00  0.00    -0.237 OA
ATOM     92  O   UNL     1      -7.492 -13.254  14.377  1.00  0.00    -0.744 OA
ENDBRANCH  86  89
ENDBRANCH  59  82
ENDBRANCH  33  34
ENDBRANCH  25  28
ENDBRANCH  23  24
ENDBRANCH   1  23
TORSDOF 16
