REMARK SMILES C[C@H](NC(=O)c1ccc(NC(N)=O)cc1)C(=O)NCCCNC(=O)c1ccc(-c2c3nc(c(-c4cccc(S(=O)(=O)[O-])c4F)c4ccc([nH]4)c(-c4cccc(S(=O)(=O)[O-])c4F)c4nc(c(-c5cccc(S(=O)(=O)[O-])c5F)c5ccc2[nH]5)C=C4)C=C3)cc1
REMARK SMILES IDX 20 1 19 2 18 3 16 4 17 5 2 7 1 8 3 9 4 10 5 12 6 13 7 14
REMARK SMILES IDX 15 15 8 16 14 17 9 18 10 19 11 20 12 22 13 23 21 26 22 27
REMARK SMILES IDX 23 28 24 30 25 31 26 32 87 33 27 34 86 35 28 36 29 37 30 38
REMARK SMILES IDX 80 39 31 40 85 41 79 42 81 43 32 44 84 45 78 46 77 47 33 49
REMARK SMILES IDX 65 50 45 51 64 52 46 53 49 54 63 55 82 56 47 57 48 58 62 60
REMARK SMILES IDX 83 61 50 62 34 63 35 64 43 65 36 66 38 67 44 68 37 69 39 70
REMARK SMILES IDX 40 71 41 72 42 73 66 74 67 75 75 76 68 77 70 78 76 79 69 80
REMARK SMILES IDX 71 81 72 82 73 83 74 84 51 85 52 86 60 87 53 88 55 89 61 90
REMARK SMILES IDX 54 91 56 92 57 93 58 94 59 95
REMARK H PARENT 18 6 3 11 10 21 12 24 12 25 22 29 81 48 49 59
REMARK Flexibility Score: inf
ROOT
ATOM      1  C   UNL     1      -1.194  -0.450  -2.719  1.00  0.00     0.042 C 
ENDROOT
BRANCH   1   2
ATOM      2  C   UNL     1      -0.878   0.899  -2.095  1.00  0.00     0.117 C 
BRANCH   2   3
ATOM      3  N   UNL     1      -1.494   1.074  -0.788  1.00  0.00    -0.354 N 
ATOM      4  C   UNL     1      -0.945   1.514   0.382  1.00  0.00     0.242 C 
ATOM      5  O   UNL     1      -1.702   1.772   1.320  1.00  0.00    -0.273 OA
ATOM      6  H   UNL     1      -2.449   0.840  -0.741  1.00  0.00     0.163 HD
BRANCH   4   7
ATOM      7  C   UNL     1       0.568   1.776   0.489  1.00  0.00     0.168 C 
ATOM      8  C   UNL     1       0.934   3.001  -0.350  1.00  0.00     0.041 C 
BRANCH   7   9
ATOM      9  N   UNL     1       1.303   0.547   0.170  1.00  0.00    -0.341 N 
ATOM     10  C   UNL     1       2.647   0.294   0.124  1.00  0.00     0.251 C 
ATOM     11  H   UNL     1       0.733  -0.226  -0.048  1.00  0.00     0.164 HD
ATOM     12  O   UNL     1       3.067  -0.820  -0.166  1.00  0.00    -0.269 OA
BRANCH  10  13
ATOM     13  C   UNL     1       3.598   1.390   0.358  1.00  0.00     0.039 A 
ATOM     14  C   UNL     1       4.439   1.768  -0.690  1.00  0.00     0.016 A 
ATOM     15  C   UNL     1       3.632   2.068   1.576  1.00  0.00     0.016 A 
ATOM     16  C   UNL     1       5.259   2.890  -0.548  1.00  0.00     0.027 A 
ATOM     17  C   UNL     1       4.450   3.192   1.709  1.00  0.00     0.027 A 
ATOM     18  C   UNL     1       5.247   3.627   0.639  1.00  0.00     0.042 A 
BRANCH  18  19
ATOM     19  N   UNL     1       5.970   4.821   0.824  1.00  0.00    -0.308 N 
ATOM     20  C   UNL     1       6.787   5.452  -0.074  1.00  0.00     0.316 C 
ATOM     21  H   UNL     1       5.877   5.253   1.704  1.00  0.00     0.171 HD
ATOM     22  N   UNL     1       7.246   6.646   0.395  1.00  0.00    -0.351 N 
ATOM     23  O   UNL     1       7.121   5.082  -1.190  1.00  0.00    -0.249 OA
ATOM     24  H   UNL     1       6.984   6.955   1.292  1.00  0.00     0.161 HD
ATOM     25  H   UNL     1       7.840   7.198  -0.163  1.00  0.00     0.161 HD
ENDBRANCH  18  19
ENDBRANCH  10  13
ENDBRANCH   7   9
ENDBRANCH   4   7
ENDBRANCH   2   3
ENDBRANCH   1   2
BRANCH   1  26
ATOM     26  C   UNL     1      -2.672  -0.690  -2.992  1.00  0.00     0.118 C 
BRANCH  26  27
ATOM     27  N   UNL     1      -3.241   0.255  -3.945  1.00  0.00    -0.352 N 
ATOM     28  C   UNL     1      -3.945   0.008  -5.100  1.00  0.00     0.251 C 
ATOM     29  H   UNL     1      -3.102   1.206  -3.731  1.00  0.00     0.163 HD
ATOM     30  O   UNL     1      -4.230   0.934  -5.853  1.00  0.00    -0.269 OA
BRANCH  28  31
ATOM     31  C   UNL     1      -4.334  -1.377  -5.441  1.00  0.00     0.039 A 
ATOM     32  C   UNL     1      -4.120  -1.844  -6.741  1.00  0.00     0.014 A 
ATOM     33  C   UNL     1      -4.891  -2.218  -4.474  1.00  0.00     0.014 A 
ATOM     34  C   UNL     1      -4.396  -3.178  -7.051  1.00  0.00     0.010 A 
ATOM     35  C   UNL     1      -5.091  -3.563  -4.763  1.00  0.00     0.010 A 
ATOM     36  C   UNL     1      -4.851  -4.056  -6.054  1.00  0.00    -0.014 A 
BRANCH  36  37
ATOM     37  C   UNL     1      -5.089  -5.496  -6.326  1.00  0.00     0.031 A 
ATOM     38  C   UNL     1      -6.472  -6.067  -6.166  1.00  0.00     0.074 A 
ATOM     39  C   UNL     1      -4.048  -6.309  -6.595  1.00  0.00     0.049 A 
ATOM     40  N   UNL     1      -6.861  -7.314  -6.220  1.00  0.00    -0.248 NA
ATOM     41  C   UNL     1      -7.554  -5.113  -5.867  1.00  0.00     0.031 C 
ATOM     42  C   UNL     1      -2.648  -5.890  -6.695  1.00  0.00     0.029 A 
ATOM     43  N   UNL     1      -4.003  -7.666  -6.799  1.00  0.00    -0.354 N 
ATOM     44  C   UNL     1      -8.216  -7.301  -5.910  1.00  0.00     0.074 A 
ATOM     45  C   UNL     1      -8.577  -5.925  -5.645  1.00  0.00     0.031 C 
ATOM     46  C   UNL     1      -1.883  -6.967  -6.939  1.00  0.00     0.029 A 
ATOM     47  C   UNL     1      -2.731  -8.154  -6.988  1.00  0.00     0.049 A 
ATOM     48  H   UNL     1      -4.806  -8.236  -6.809  1.00  0.00     0.167 HD
ATOM     49  C   UNL     1      -9.089  -8.335  -5.880  1.00  0.00     0.034 A 
ATOM     50  C   UNL     1      -2.298  -9.416  -7.177  1.00  0.00     0.034 A 
ATOM     51  C   UNL     1      -8.745  -9.687  -6.223  1.00  0.00     0.049 A 
ATOM     52  C   UNL     1      -3.303 -10.534  -7.225  1.00  0.00     0.074 A 
ATOM     53  C   UNL     1      -9.577 -10.788  -6.322  1.00  0.00     0.029 A 
ATOM     54  N   UNL     1      -7.467 -10.120  -6.537  1.00  0.00    -0.354 N 
ATOM     55  N   UNL     1      -4.604 -10.479  -7.080  1.00  0.00    -0.248 NA
ATOM     56  C   UNL     1      -2.785 -11.883  -7.498  1.00  0.00     0.031 C 
ATOM     57  C   UNL     1      -8.801 -11.888  -6.702  1.00  0.00     0.029 A 
ATOM     58  C   UNL     1      -7.486 -11.471  -6.838  1.00  0.00     0.049 A 
ATOM     59  H   UNL     1      -6.663  -9.552  -6.545  1.00  0.00     0.167 HD
ATOM     60  C   UNL     1      -5.065 -11.776  -7.275  1.00  0.00     0.074 A 
ATOM     61  C   UNL     1      -3.905 -12.592  -7.569  1.00  0.00     0.031 C 
ATOM     62  C   UNL     1      -6.332 -12.252  -7.198  1.00  0.00     0.034 A 
BRANCH  49  63
ATOM     63  C   UNL     1     -10.521  -8.026  -5.537  1.00  0.00     0.023 A 
ATOM     64  C   UNL     1     -11.332  -7.381  -6.492  1.00  0.00     0.012 A 
ATOM     65  C   UNL     1     -11.077  -8.407  -4.301  1.00  0.00     0.148 A 
ATOM     66  C   UNL     1     -12.666  -7.091  -6.212  1.00  0.00     0.002 A 
ATOM     67  C   UNL     1     -12.419  -8.149  -4.043  1.00  0.00     0.091 A 
ATOM     68  F   UNL     1     -10.284  -8.995  -3.394  1.00  0.00    -0.205 F 
ATOM     69  C   UNL     1     -13.212  -7.484  -4.993  1.00  0.00     0.022 A 
BRANCH  67  70
ATOM     70  S   UNL     1     -13.225  -8.680  -2.527  1.00  0.00     0.127 S 
ATOM     71  O   UNL     1     -13.275  -7.433  -1.767  1.00  0.00    -0.237 OA
ATOM     72  O   UNL     1     -14.524  -9.150  -3.011  1.00  0.00    -0.237 OA
ATOM     73  O   UNL     1     -12.375  -9.725  -1.974  1.00  0.00    -0.744 OA
ENDBRANCH  67  70
ENDBRANCH  49  63
BRANCH  50  74
ATOM     74  C   UNL     1      -0.852  -9.674  -7.427  1.00  0.00     0.023 A 
ATOM     75  C   UNL     1      -0.435 -10.014  -8.728  1.00  0.00     0.012 A 
ATOM     76  C   UNL     1       0.111  -9.548  -6.408  1.00  0.00     0.148 A 
ATOM     77  C   UNL     1       0.911 -10.249  -9.006  1.00  0.00     0.002 A 
ATOM     78  C   UNL     1       1.457  -9.737  -6.702  1.00  0.00     0.091 A 
ATOM     79  F   UNL     1      -0.306  -9.241  -5.171  1.00  0.00    -0.205 F 
ATOM     80  C   UNL     1       1.859 -10.100  -7.997  1.00  0.00     0.022 A 
BRANCH  78  81
ATOM     81  S   UNL     1       2.749  -9.441  -5.489  1.00  0.00     0.127 S 
ATOM     82  O   UNL     1       3.087 -10.799  -5.073  1.00  0.00    -0.237 OA
ATOM     83  O   UNL     1       3.775  -8.768  -6.287  1.00  0.00    -0.237 OA
ATOM     84  O   UNL     1       2.134  -8.595  -4.475  1.00  0.00    -0.744 OA
ENDBRANCH  78  81
ENDBRANCH  50  74
BRANCH  62  85
ATOM     85  C   UNL     1      -6.545 -13.717  -7.462  1.00  0.00     0.023 A 
ATOM     86  C   UNL     1      -6.204 -14.656  -6.470  1.00  0.00     0.012 A 
ATOM     87  C   UNL     1      -7.162 -14.156  -8.650  1.00  0.00     0.148 A 
ATOM     88  C   UNL     1      -6.456 -16.013  -6.663  1.00  0.00     0.002 A 
ATOM     89  C   UNL     1      -7.446 -15.506  -8.819  1.00  0.00     0.091 A 
ATOM     90  F   UNL     1      -7.457 -13.248  -9.593  1.00  0.00    -0.205 F 
ATOM     91  C   UNL     1      -7.088 -16.436  -7.831  1.00  0.00     0.022 A 
BRANCH  89  92
ATOM     92  S   UNL     1      -8.337 -16.117 -10.255  1.00  0.00     0.127 S 
ATOM     93  O   UNL     1      -7.251 -16.640 -11.081  1.00  0.00    -0.237 OA
ATOM     94  O   UNL     1      -9.209 -17.140  -9.675  1.00  0.00    -0.237 OA
ATOM     95  O   UNL     1      -9.045 -14.965 -10.797  1.00  0.00    -0.744 OA
ENDBRANCH  89  92
ENDBRANCH  62  85
ENDBRANCH  36  37
ENDBRANCH  28  31
ENDBRANCH  26  27
ENDBRANCH   1  26
TORSDOF 16
