REMARK SMILES O=C(Cn1c(=O)c2c3c(sc2n(Cc2ccc(Cl)cc2Cl)c1=O)CCCC3)NCCCNC(=O)c1ccc(-c2c3nc(c(-c4cccc(S(=O)(=O)[O-])c4F)c4ccc([nH]4)c(-c4cccc(S(=O)(=O)[O-])c4F)c4nc(c(-c5cccc(S(=O)(=O)[O-])c5F)c5ccc2[nH]5)C=C4)C=C3)cc1
REMARK SMILES IDX 30 1 29 2 28 3 1 4 2 5 3 7 4 8 5 9 22 10 6 11 7 12 12 13
REMARK SMILES IDX 23 14 8 15 11 16 9 17 27 18 10 19 24 20 26 21 25 22 13 23
REMARK SMILES IDX 14 24 15 25 20 26 16 27 19 28 21 29 17 30 18 31 31 32 32 33
REMARK SMILES IDX 33 34 34 36 35 37 36 38 97 39 37 40 96 41 38 42 39 43 40 44
REMARK SMILES IDX 90 45 41 46 95 47 89 48 91 49 42 50 94 51 88 52 87 53 43 55
REMARK SMILES IDX 75 56 55 57 74 58 56 59 59 60 73 61 92 62 57 63 58 64 72 66
REMARK SMILES IDX 93 67 60 68 44 69 45 70 53 71 46 72 48 73 54 74 47 75 49 76
REMARK SMILES IDX 50 77 51 78 52 79 76 80 77 81 85 82 78 83 80 84 86 85 79 86
REMARK SMILES IDX 81 87 82 88 83 89 84 90 61 91 62 92 70 93 63 94 65 95 71 96
REMARK SMILES IDX 64 97 66 98 67 99 68 100 69 101
REMARK H PARENT 28 6 32 35 91 54 59 65
REMARK Flexibility Score: inf
ROOT
ATOM      1  C   UNL     1       2.995   0.430   3.655  1.00  0.00     0.042 C 
ENDROOT
BRANCH   1   2
ATOM      2  C   UNL     1       2.600   1.147   2.362  1.00  0.00     0.117 C 
BRANCH   2   3
ATOM      3  N   UNL     1       3.165   0.577   1.152  1.00  0.00    -0.354 N 
ATOM      4  O   UNL     1       1.236  -0.489   0.538  1.00  0.00    -0.273 OA
ATOM      5  C   UNL     1       2.361  -0.078   0.245  1.00  0.00     0.240 C 
ATOM      6  H   UNL     1       4.131   0.660   0.979  1.00  0.00     0.163 HD
BRANCH   5   7
ATOM      7  C   UNL     1       2.979  -0.425  -1.113  1.00  0.00     0.230 C 
BRANCH   7   8
ATOM      8  N   UNL     1       3.895   0.523  -1.756  1.00  0.00    -0.250 N 
ATOM      9  C   UNL     1       4.970  -0.058  -2.455  1.00  0.00     0.265 A 
ATOM     10  C   UNL     1       3.466   1.857  -1.877  1.00  0.00     0.332 A 
ATOM     11  O   UNL     1       5.278  -1.234  -2.379  1.00  0.00    -0.268 OA
ATOM     12  C   UNL     1       5.650   0.846  -3.361  1.00  0.00     0.079 A 
ATOM     13  N   UNL     1       4.218   2.721  -2.683  1.00  0.00    -0.280 N 
ATOM     14  O   UNL     1       2.456   2.260  -1.295  1.00  0.00    -0.247 OA
ATOM     15  C   UNL     1       6.782   0.617  -4.229  1.00  0.00    -0.019 A 
ATOM     16  C   UNL     1       5.217   2.141  -3.448  1.00  0.00     0.113 A 
ATOM     17  C   UNL     1       7.122   1.778  -4.902  1.00  0.00     0.011 A 
ATOM     18  C   UNL     1       7.601  -0.632  -4.388  1.00  0.00     0.037 C 
ATOM     19  S   UNL     1       5.979   2.995  -4.684  1.00  0.00    -0.122 S 
ATOM     20  C   UNL     1       8.315   1.987  -5.774  1.00  0.00     0.047 C 
ATOM     21  C   UNL     1       8.571  -0.524  -5.584  1.00  0.00     0.005 C 
ATOM     22  C   UNL     1       9.301   0.827  -5.606  1.00  0.00     0.006 C 
BRANCH  13  23
ATOM     23  C   UNL     1       3.905   4.173  -2.678  1.00  0.00     0.165 C 
BRANCH  23  24
ATOM     24  C   UNL     1       4.888   4.995  -1.851  1.00  0.00    -0.009 A 
ATOM     25  C   UNL     1       4.756   4.983  -0.448  1.00  0.00     0.008 A 
ATOM     26  C   UNL     1       5.940   5.760  -2.395  1.00  0.00     0.047 A 
ATOM     27  C   UNL     1       5.676   5.647   0.372  1.00  0.00     0.021 A 
ATOM     28  C   UNL     1       6.914   6.338  -1.574  1.00  0.00     0.041 A 
ATOM     29  Cl  UNL     1       6.030   6.193  -4.068  1.00  0.00    -0.084 Cl
ATOM     30  C   UNL     1       6.774   6.285  -0.194  1.00  0.00     0.042 A 
ATOM     31  Cl  UNL     1       7.932   7.070   0.806  1.00  0.00    -0.084 Cl
ENDBRANCH  23  24
ENDBRANCH  13  23
ENDBRANCH   7   8
ENDBRANCH   5   7
ENDBRANCH   2   3
ENDBRANCH   1   2
BRANCH   1  32
ATOM     32  C   UNL     1       4.452   0.636   4.096  1.00  0.00     0.118 C 
BRANCH  32  33
ATOM     33  N   UNL     1       4.735   2.045   4.328  1.00  0.00    -0.352 N 
ATOM     34  C   UNL     1       5.297   2.708   5.384  1.00  0.00     0.251 C 
ATOM     35  H   UNL     1       4.472   2.633   3.583  1.00  0.00     0.163 HD
ATOM     36  O   UNL     1       5.126   3.927   5.441  1.00  0.00    -0.269 OA
BRANCH  34  37
ATOM     37  C   UNL     1       6.092   2.037   6.439  1.00  0.00     0.039 A 
ATOM     38  C   UNL     1       6.022   2.575   7.731  1.00  0.00     0.014 A 
ATOM     39  C   UNL     1       7.007   1.016   6.168  1.00  0.00     0.014 A 
ATOM     40  C   UNL     1       6.834   2.079   8.751  1.00  0.00     0.010 A 
ATOM     41  C   UNL     1       7.821   0.516   7.195  1.00  0.00     0.010 A 
ATOM     42  C   UNL     1       7.732   1.034   8.496  1.00  0.00    -0.014 A 
BRANCH  42  43
ATOM     43  C   UNL     1       8.438   0.442   9.655  1.00  0.00     0.031 A 
ATOM     44  C   UNL     1       8.423  -1.054   9.718  1.00  0.00     0.074 A 
ATOM     45  C   UNL     1       9.423   1.099  10.306  1.00  0.00     0.049 A 
ATOM     46  N   UNL     1       9.254  -1.803   9.055  1.00  0.00    -0.248 NA
ATOM     47  C   UNL     1       7.318  -1.798  10.323  1.00  0.00     0.031 C 
ATOM     48  C   UNL     1      10.438   1.909   9.620  1.00  0.00     0.029 A 
ATOM     49  N   UNL     1       9.898   0.976  11.595  1.00  0.00    -0.354 N 
ATOM     50  C   UNL     1       8.775  -3.102   9.103  1.00  0.00     0.074 A 
ATOM     51  C   UNL     1       7.574  -3.049   9.908  1.00  0.00     0.031 C 
ATOM     52  C   UNL     1      11.495   2.065  10.446  1.00  0.00     0.029 A 
ATOM     53  C   UNL     1      11.180   1.503  11.759  1.00  0.00     0.049 A 
ATOM     54  H   UNL     1       9.385   0.560  12.325  1.00  0.00     0.167 HD
ATOM     55  C   UNL     1       9.399  -4.144   8.487  1.00  0.00     0.034 A 
ATOM     56  C   UNL     1      12.099   1.034  12.653  1.00  0.00     0.034 A 
ATOM     57  C   UNL     1      10.627  -3.806   7.824  1.00  0.00     0.049 A 
ATOM     58  C   UNL     1      12.523  -0.243  11.973  1.00  0.00     0.074 A 
ATOM     59  C   UNL     1      11.039  -3.499   6.545  1.00  0.00     0.029 A 
ATOM     60  N   UNL     1      11.755  -3.648   8.595  1.00  0.00    -0.354 N 
ATOM     61  N   UNL     1      13.332  -0.329  10.948  1.00  0.00    -0.248 NA
ATOM     62  C   UNL     1      11.690  -1.426  12.192  1.00  0.00     0.031 C 
ATOM     63  C   UNL     1      12.243  -2.740   6.702  1.00  0.00     0.029 A 
ATOM     64  C   UNL     1      12.470  -2.601   8.071  1.00  0.00     0.049 A 
ATOM     65  H   UNL     1      12.004  -4.189   9.379  1.00  0.00     0.167 HD
ATOM     66  C   UNL     1      12.876  -1.426  10.212  1.00  0.00     0.074 A 
ATOM     67  C   UNL     1      11.882  -2.069  11.049  1.00  0.00     0.031 C 
ATOM     68  C   UNL     1      13.189  -1.655   8.901  1.00  0.00     0.034 A 
BRANCH  55  69
ATOM     69  C   UNL     1       9.021  -5.573   8.623  1.00  0.00     0.023 A 
ATOM     70  C   UNL     1       9.792  -6.339   9.521  1.00  0.00     0.012 A 
ATOM     71  C   UNL     1       8.111  -6.222   7.770  1.00  0.00     0.148 A 
ATOM     72  C   UNL     1       9.709  -7.728   9.537  1.00  0.00     0.002 A 
ATOM     73  C   UNL     1       8.023  -7.615   7.800  1.00  0.00     0.091 A 
ATOM     74  F   UNL     1       7.390  -5.481   6.916  1.00  0.00    -0.205 F 
ATOM     75  C   UNL     1       8.832  -8.366   8.670  1.00  0.00     0.022 A 
BRANCH  73  76
ATOM     76  S   UNL     1       6.927  -8.562   6.735  1.00  0.00     0.127 S 
ATOM     77  O   UNL     1       7.873  -9.280   5.883  1.00  0.00    -0.237 OA
ATOM     78  O   UNL     1       6.218  -9.402   7.702  1.00  0.00    -0.237 OA
ATOM     79  O   UNL     1       6.089  -7.585   6.053  1.00  0.00    -0.744 OA
ENDBRANCH  73  76
ENDBRANCH  55  69
BRANCH  56  80
ATOM     80  C   UNL     1      11.697   1.142  14.098  1.00  0.00     0.023 A 
ATOM     81  C   UNL     1      11.292   2.426  14.540  1.00  0.00     0.012 A 
ATOM     82  C   UNL     1      11.666   0.100  15.043  1.00  0.00     0.148 A 
ATOM     83  C   UNL     1      10.764   2.639  15.816  1.00  0.00     0.002 A 
ATOM     84  C   UNL     1      11.072   0.297  16.291  1.00  0.00     0.091 A 
ATOM     85  F   UNL     1      12.216  -1.080  14.735  1.00  0.00    -0.205 F 
ATOM     86  C   UNL     1      10.618   1.564  16.679  1.00  0.00     0.022 A 
BRANCH  84  87
ATOM     87  S   UNL     1      10.744  -1.055  17.433  1.00  0.00     0.127 S 
ATOM     88  O   UNL     1      11.323  -0.552  18.677  1.00  0.00    -0.237 OA
ATOM     89  O   UNL     1       9.283  -1.105  17.407  1.00  0.00    -0.237 OA
ATOM     90  O   UNL     1      11.411  -2.220  16.868  1.00  0.00    -0.744 OA
ENDBRANCH  84  87
ENDBRANCH  56  80
BRANCH  68  91
ATOM     91  C   UNL     1      14.206  -0.742   8.279  1.00  0.00     0.023 A 
ATOM     92  C   UNL     1      15.530  -0.786   8.755  1.00  0.00     0.012 A 
ATOM     93  C   UNL     1      13.900   0.094   7.184  1.00  0.00     0.148 A 
ATOM     94  C   UNL     1      16.535  -0.039   8.142  1.00  0.00     0.002 A 
ATOM     95  C   UNL     1      14.916   0.797   6.545  1.00  0.00     0.091 A 
ATOM     96  F   UNL     1      12.627   0.184   6.772  1.00  0.00    -0.205 F 
ATOM     97  C   UNL     1      16.233   0.736   7.027  1.00  0.00     0.022 A 
BRANCH  95  98
ATOM     98  S   UNL     1      14.652   1.756   5.047  1.00  0.00     0.127 S 
ATOM     99  O   UNL     1      15.116   3.084   5.447  1.00  0.00    -0.237 OA
ATOM    100  O   UNL     1      15.525   1.069   4.094  1.00  0.00    -0.237 OA
ATOM    101  O   UNL     1      13.230   1.666   4.746  1.00  0.00    -0.744 OA
ENDBRANCH  95  98
ENDBRANCH  68  91
ENDBRANCH  42  43
ENDBRANCH  34  37
ENDBRANCH  32  33
ENDBRANCH   1  32
TORSDOF 16
