REMARK SMILES O=C(NCCCNC(=O)c1cc(SCc2csc(-c3ccsc3)n2)ccn1)c1ccc(-c2c3nc(c(-c4cccc(S(=O)(=O)[O-])c4F)c4ccc([nH]4)c(-c4cccc(S(=O)(=O)[O-])c4F)c4nc(c(-c5cccc(S(=O)(=O)[O-])c5F)c5ccc2[nH]5)C=C4)C=C3)cc1
REMARK SMILES IDX 5 1 4 2 3 3 1 4 2 5 28 7 29 8 90 9 30 10 89 11 31 12 32 13
REMARK SMILES IDX 33 14 83 15 34 16 88 17 82 18 84 19 35 20 87 21 81 22 80 23
REMARK SMILES IDX 36 25 68 26 48 27 67 28 49 29 52 30 66 31 85 32 50 33 51 34
REMARK SMILES IDX 65 36 86 37 53 38 37 39 38 40 46 41 39 42 41 43 47 44 40 45
REMARK SMILES IDX 42 46 43 47 44 48 45 49 69 50 70 51 78 52 71 53 73 54 79 55
REMARK SMILES IDX 72 56 74 57 75 58 76 59 77 60 54 61 55 62 63 63 56 64 58 65
REMARK SMILES IDX 64 66 57 67 59 68 60 69 61 70 62 71 6 72 7 73 8 74 9 76
REMARK SMILES IDX 10 77 11 78 27 79 12 80 26 81 25 82 13 83 14 84 15 85 16 86
REMARK SMILES IDX 24 87 17 88 18 89 19 90 20 91 23 92 21 93 22 94
REMARK H PARENT 3 6 84 24 52 35 7 75
REMARK Flexibility Score: inf
ROOT
ATOM      1  C   UNL     1       5.403  -2.237  -1.968  1.00  0.00     0.042 C 
ENDROOT
BRANCH   1   2
ATOM      2  C   UNL     1       4.573  -0.984  -2.232  1.00  0.00     0.118 C 
BRANCH   2   3
ATOM      3  N   UNL     1       2.963  -1.038  -1.603  1.00  0.00    -0.352 N 
ATOM      4  O   UNL     1       0.890  -0.404   0.497  1.00  0.00    -0.269 OA
ATOM      5  C   UNL     1       2.073  -0.300   0.064  1.00  0.00     0.251 C 
ATOM      6  H   UNL     1       2.342  -1.538  -2.180  1.00  0.00     0.163 HD
BRANCH   5   7
ATOM      7  C   UNL     1       2.868   0.672   1.377  1.00  0.00     0.039 A 
ATOM      8  C   UNL     1       4.147   1.316   1.277  1.00  0.00     0.014 A 
ATOM      9  C   UNL     1       2.273   0.748   2.645  1.00  0.00     0.014 A 
ATOM     10  C   UNL     1       4.830   1.871   2.327  1.00  0.00     0.010 A 
ATOM     11  C   UNL     1       2.943   1.394   3.723  1.00  0.00     0.010 A 
ATOM     12  C   UNL     1       4.229   1.946   3.563  1.00  0.00    -0.014 A 
BRANCH  12  13
ATOM     13  C   UNL     1       5.093   2.554   4.599  1.00  0.00     0.031 A 
ATOM     14  C   UNL     1       5.741   1.676   5.624  1.00  0.00     0.074 A 
ATOM     15  C   UNL     1       5.513   3.827   4.428  1.00  0.00     0.049 A 
ATOM     16  N   UNL     1       6.617   1.991   6.539  1.00  0.00    -0.248 NA
ATOM     17  C   UNL     1       5.380   0.249   5.598  1.00  0.00     0.031 C 
ATOM     18  C   UNL     1       5.080   4.720   3.344  1.00  0.00     0.029 A 
ATOM     19  N   UNL     1       6.435   4.574   5.115  1.00  0.00    -0.354 N 
ATOM     20  C   UNL     1       6.852   0.824   7.252  1.00  0.00     0.074 A 
ATOM     21  C   UNL     1       6.060  -0.218   6.636  1.00  0.00     0.031 C 
ATOM     22  C   UNL     1       5.748   5.880   3.431  1.00  0.00     0.029 A 
ATOM     23  C   UNL     1       6.585   5.850   4.622  1.00  0.00     0.049 A 
ATOM     24  H   UNL     1       6.941   4.231   5.887  1.00  0.00     0.167 HD
ATOM     25  C   UNL     1       7.643   0.651   8.335  1.00  0.00     0.034 A 
ATOM     26  C   UNL     1       7.281   6.896   5.106  1.00  0.00     0.034 A 
ATOM     27  C   UNL     1       8.442   1.697   8.918  1.00  0.00     0.049 A 
ATOM     28  C   UNL     1       8.080   6.694   6.361  1.00  0.00     0.074 A 
ATOM     29  C   UNL     1       9.268   1.631  10.025  1.00  0.00     0.029 A 
ATOM     30  N   UNL     1       8.502   3.002   8.450  1.00  0.00    -0.354 N 
ATOM     31  N   UNL     1       8.285   5.590   7.038  1.00  0.00    -0.248 NA
ATOM     32  C   UNL     1       8.755   7.874   6.913  1.00  0.00     0.031 C 
ATOM     33  C   UNL     1       9.782   2.910  10.259  1.00  0.00     0.029 A 
ATOM     34  C   UNL     1       9.332   3.758   9.259  1.00  0.00     0.049 A 
ATOM     35  H   UNL     1       8.024   3.340   7.658  1.00  0.00     0.167 HD
ATOM     36  C   UNL     1       9.144   5.932   8.073  1.00  0.00     0.074 A 
ATOM     37  C   UNL     1       9.435   7.344   7.920  1.00  0.00     0.031 C 
ATOM     38  C   UNL     1       9.642   5.152   9.064  1.00  0.00     0.034 A 
BRANCH  25  39
ATOM     39  C   UNL     1       7.616  -0.696   9.006  1.00  0.00     0.023 A 
ATOM     40  C   UNL     1       8.215  -1.819   8.402  1.00  0.00     0.012 A 
ATOM     41  C   UNL     1       6.997  -0.834  10.264  1.00  0.00     0.148 A 
ATOM     42  C   UNL     1       8.163  -3.067   9.024  1.00  0.00     0.002 A 
ATOM     43  C   UNL     1       6.995  -2.067  10.901  1.00  0.00     0.091 A 
ATOM     44  F   UNL     1       6.409   0.241  10.808  1.00  0.00    -0.205 F 
ATOM     45  C   UNL     1       7.563  -3.189  10.276  1.00  0.00     0.022 A 
BRANCH  43  46
ATOM     46  S   UNL     1       6.319  -2.303  12.547  1.00  0.00     0.127 S 
ATOM     47  O   UNL     1       5.155  -3.145  12.270  1.00  0.00    -0.237 OA
ATOM     48  O   UNL     1       7.417  -2.986  13.232  1.00  0.00    -0.237 OA
ATOM     49  O   UNL     1       6.018  -0.972  13.055  1.00  0.00    -0.744 OA
ENDBRANCH  43  46
ENDBRANCH  25  39
BRANCH  26  50
ATOM     50  C   UNL     1       7.219   8.226   4.433  1.00  0.00     0.023 A 
ATOM     51  C   UNL     1       8.382   8.790   3.875  1.00  0.00     0.012 A 
ATOM     52  C   UNL     1       6.006   8.941   4.355  1.00  0.00     0.148 A 
ATOM     53  C   UNL     1       8.345  10.054   3.283  1.00  0.00     0.002 A 
ATOM     54  C   UNL     1       5.963  10.170   3.710  1.00  0.00     0.091 A 
ATOM     55  F   UNL     1       4.912   8.398   4.908  1.00  0.00    -0.205 F 
ATOM     56  C   UNL     1       7.135  10.739   3.192  1.00  0.00     0.022 A 
BRANCH  54  57
ATOM     57  S   UNL     1       4.430  11.066   3.442  1.00  0.00     0.127 S 
ATOM     58  O   UNL     1       4.622  12.245   4.282  1.00  0.00    -0.237 OA
ATOM     59  O   UNL     1       4.481  11.320   2.002  1.00  0.00    -0.237 OA
ATOM     60  O   UNL     1       3.365  10.164   3.857  1.00  0.00    -0.744 OA
ENDBRANCH  54  57
ENDBRANCH  26  50
BRANCH  38  61
ATOM     61  C   UNL     1      10.612   5.791  10.022  1.00  0.00     0.023 A 
ATOM     62  C   UNL     1      10.171   6.754  10.952  1.00  0.00     0.012 A 
ATOM     63  C   UNL     1      11.962   5.390  10.027  1.00  0.00     0.148 A 
ATOM     64  C   UNL     1      11.071   7.341  11.840  1.00  0.00     0.002 A 
ATOM     65  C   UNL     1      12.839   5.934  10.956  1.00  0.00     0.091 A 
ATOM     66  F   UNL     1      12.365   4.487   9.121  1.00  0.00    -0.205 F 
ATOM     67  C   UNL     1      12.400   6.923  11.851  1.00  0.00     0.022 A 
BRANCH  65  68
ATOM     68  S   UNL     1      14.538   5.375  11.112  1.00  0.00     0.127 S 
ATOM     69  O   UNL     1      15.278   6.524  10.593  1.00  0.00    -0.237 OA
ATOM     70  O   UNL     1      14.663   5.170  12.555  1.00  0.00    -0.237 OA
ATOM     71  O   UNL     1      14.637   4.159  10.318  1.00  0.00    -0.744 OA
ENDBRANCH  65  68
ENDBRANCH  38  61
ENDBRANCH  12  13
ENDBRANCH   5   7
ENDBRANCH   2   3
ENDBRANCH   1   2
BRANCH   1  72
ATOM     72  C   UNL     1       4.897  -3.377  -2.794  1.00  0.00     0.118 C 
BRANCH  72  73
ATOM     73  N   UNL     1       5.258  -3.200  -4.188  1.00  0.00    -0.351 N 
ATOM     74  C   UNL     1       6.002  -4.053  -4.969  1.00  0.00     0.269 C 
ATOM     75  H   UNL     1       4.935  -2.378  -4.623  1.00  0.00     0.163 HD
ATOM     76  O   UNL     1       6.399  -3.686  -6.069  1.00  0.00    -0.268 OA
BRANCH  74  77
ATOM     77  C   UNL     1       6.289  -5.410  -4.422  1.00  0.00     0.129 A 
ATOM     78  C   UNL     1       5.241  -6.130  -3.844  1.00  0.00     0.049 A 
ATOM     79  N   UNL     1       7.592  -5.759  -4.348  1.00  0.00    -0.251 NA
ATOM     80  C   UNL     1       5.555  -7.188  -3.008  1.00  0.00     0.011 A 
ATOM     81  C   UNL     1       7.862  -6.863  -3.632  1.00  0.00     0.113 A 
ATOM     82  C   UNL     1       6.896  -7.587  -2.943  1.00  0.00     0.035 A 
BRANCH  80  83
ATOM     83  S   UNL     1       4.368  -8.057  -1.988  1.00  0.00    -0.120 SA
BRANCH  83  84
ATOM     84  C   UNL     1       2.955  -6.898  -1.713  1.00  0.00     0.132 C 
BRANCH  84  85
ATOM     85  C   UNL     1       3.161  -5.844  -0.653  1.00  0.00     0.062 A 
ATOM     86  C   UNL     1       3.781  -5.961   0.578  1.00  0.00     0.091 A 
ATOM     87  N   UNL     1       2.602  -4.582  -0.858  1.00  0.00    -0.240 NA
ATOM     88  S   UNL     1       3.901  -4.416   1.340  1.00  0.00    -0.122 S 
ATOM     89  C   UNL     1       2.976  -3.729   0.086  1.00  0.00     0.124 A 
BRANCH  89  90
ATOM     90  C   UNL     1       2.682  -2.258  -0.111  1.00  0.00     0.021 A 
ATOM     91  C   UNL     1       1.153  -1.796  -1.165  1.00  0.00     0.023 A 
ATOM     92  C   UNL     1       3.875  -0.919   0.007  1.00  0.00     0.076 A 
ATOM     93  C   UNL     1       1.181  -0.181  -1.816  1.00  0.00     0.065 A 
ATOM     94  S   UNL     1       3.102   0.978  -1.286  1.00  0.00    -0.152 S 
ENDBRANCH  89  90
ENDBRANCH  84  85
ENDBRANCH  83  84
ENDBRANCH  80  83
ENDBRANCH  74  77
ENDBRANCH  72  73
ENDBRANCH   1  72
TORSDOF 17
