REMARK SMILES O=C(NCCCNC(=O)[C@H](Cc1ccccc1Cl)S[C@H]1CC(=O)N(c2ccc(Cl)cc2)C1=O)c1ccc(-c2c3nc(c(-c4cccc(S(=O)(=O)[O-])c4F)c4ccc([nH]4)c(-c4cccc(S(=O)(=O)[O-])c4F)c4nc(c(-c5cccc(S(=O)(=O)[O-])c5F)c5ccc2[nH]5)C=C4)C=C3)cc1
REMARK SMILES IDX 5 1 4 2 3 3 1 4 2 5 34 7 35 8 96 9 36 10 95 11 37 12 38 13
REMARK SMILES IDX 39 14 89 15 40 16 94 17 88 18 90 19 41 20 93 21 87 22 86 23
REMARK SMILES IDX 42 25 74 26 54 27 73 28 55 29 58 30 72 31 91 32 56 33 57 34
REMARK SMILES IDX 71 36 92 37 59 38 43 39 44 40 52 41 45 42 47 43 53 44 46 45
REMARK SMILES IDX 48 46 49 47 50 48 51 49 75 50 76 51 84 52 77 53 79 54 85 55
REMARK SMILES IDX 78 56 80 57 81 58 82 59 83 60 60 61 61 62 69 63 62 64 64 65
REMARK SMILES IDX 70 66 63 67 65 68 66 69 67 70 68 71 6 72 7 73 8 74 9 76
REMARK SMILES IDX 10 77 19 78 20 79 21 80 32 81 22 82 24 83 33 84 23 85 25 86
REMARK SMILES IDX 26 87 31 88 27 89 30 90 28 91 29 92 11 93 12 94 13 95 17 96
REMARK SMILES IDX 14 97 16 98 18 99 15 100
REMARK H PARENT 3 6 90 24 58 35 7 75
REMARK Flexibility Score: inf
ROOT
ATOM      1  C   UNL     1       2.588   6.687  -2.496  1.00  0.00     0.042 C 
ENDROOT
BRANCH   1   2
ATOM      2  C   UNL     1       2.534   7.726  -1.385  1.00  0.00     0.118 C 
BRANCH   2   3
ATOM      3  N   UNL     1       3.095   8.994  -1.820  1.00  0.00    -0.352 N 
ATOM      4  O   UNL     1       3.383  10.824  -3.052  1.00  0.00    -0.269 OA
ATOM      5  C   UNL     1       2.579  10.017  -2.583  1.00  0.00     0.251 C 
ATOM      6  H   UNL     1       4.016   9.150  -1.512  1.00  0.00     0.163 HD
BRANCH   5   7
ATOM      7  C   UNL     1       1.125  10.183  -2.873  1.00  0.00     0.039 A 
ATOM      8  C   UNL     1       0.124   9.743  -2.011  1.00  0.00     0.014 A 
ATOM      9  C   UNL     1       0.747  10.944  -3.992  1.00  0.00     0.014 A 
ATOM     10  C   UNL     1      -1.223   9.960  -2.306  1.00  0.00     0.010 A 
ATOM     11  C   UNL     1      -0.600  11.269  -4.225  1.00  0.00     0.010 A 
ATOM     12  C   UNL     1      -1.603  10.780  -3.379  1.00  0.00    -0.014 A 
BRANCH  12  13
ATOM     13  C   UNL     1      -3.025  11.225  -3.466  1.00  0.00     0.031 A 
ATOM     14  C   UNL     1      -3.895  10.916  -4.653  1.00  0.00     0.074 A 
ATOM     15  C   UNL     1      -3.544  11.910  -2.424  1.00  0.00     0.049 A 
ATOM     16  N   UNL     1      -5.173  11.153  -4.814  1.00  0.00    -0.248 NA
ATOM     17  C   UNL     1      -3.258  10.273  -5.812  1.00  0.00     0.031 C 
ATOM     18  C   UNL     1      -2.785  12.352  -1.248  1.00  0.00     0.029 A 
ATOM     19  N   UNL     1      -4.822  12.343  -2.167  1.00  0.00    -0.354 N 
ATOM     20  C   UNL     1      -5.492  10.712  -6.092  1.00  0.00     0.074 A 
ATOM     21  C   UNL     1      -4.265  10.209  -6.675  1.00  0.00     0.031 C 
ATOM     22  C   UNL     1      -3.616  12.941  -0.378  1.00  0.00     0.029 A 
ATOM     23  C   UNL     1      -4.956  12.974  -0.950  1.00  0.00     0.049 A 
ATOM     24  H   UNL     1      -5.570  12.214  -2.793  1.00  0.00     0.167 HD
ATOM     25  C   UNL     1      -6.696  10.708  -6.715  1.00  0.00     0.034 A 
ATOM     26  C   UNL     1      -6.031  13.527  -0.356  1.00  0.00     0.034 A 
ATOM     27  C   UNL     1      -7.920  11.194  -6.128  1.00  0.00     0.049 A 
ATOM     28  C   UNL     1      -7.360  13.460  -1.051  1.00  0.00     0.074 A 
ATOM     29  C   UNL     1      -9.194  11.190  -6.670  1.00  0.00     0.029 A 
ATOM     30  N   UNL     1      -8.026  11.774  -4.873  1.00  0.00    -0.354 N 
ATOM     31  N   UNL     1      -7.660  12.910  -2.202  1.00  0.00    -0.248 NA
ATOM     32  C   UNL     1      -8.505  14.061  -0.353  1.00  0.00     0.031 C 
ATOM     33  C   UNL     1     -10.068  11.780  -5.750  1.00  0.00     0.029 A 
ATOM     34  C   UNL     1      -9.342  12.132  -4.624  1.00  0.00     0.049 A 
ATOM     35  H   UNL     1      -7.277  11.912  -4.250  1.00  0.00     0.167 HD
ATOM     36  C   UNL     1      -9.028  13.088  -2.362  1.00  0.00     0.074 A 
ATOM     37  C   UNL     1      -9.505  13.754  -1.167  1.00  0.00     0.031 C 
ATOM     38  C   UNL     1      -9.814  12.758  -3.416  1.00  0.00     0.034 A 
BRANCH  25  39
ATOM     39  C   UNL     1      -6.772  10.105  -8.096  1.00  0.00     0.023 A 
ATOM     40  C   UNL     1      -6.704   8.705  -8.240  1.00  0.00     0.012 A 
ATOM     41  C   UNL     1      -7.000  10.906  -9.233  1.00  0.00     0.148 A 
ATOM     42  C   UNL     1      -6.837   8.111  -9.494  1.00  0.00     0.002 A 
ATOM     43  C   UNL     1      -7.171  10.303 -10.476  1.00  0.00     0.091 A 
ATOM     44  F   UNL     1      -7.048  12.236  -9.079  1.00  0.00    -0.205 F 
ATOM     45  C   UNL     1      -7.081   8.908 -10.609  1.00  0.00     0.022 A 
BRANCH  43  46
ATOM     46  S   UNL     1      -7.562  11.232 -11.963  1.00  0.00     0.127 S 
ATOM     47  O   UNL     1      -6.331  11.080 -12.737  1.00  0.00    -0.237 OA
ATOM     48  O   UNL     1      -8.710  10.496 -12.493  1.00  0.00    -0.237 OA
ATOM     49  O   UNL     1      -7.859  12.589 -11.525  1.00  0.00    -0.744 OA
ENDBRANCH  43  46
ENDBRANCH  25  39
BRANCH  26  50
ATOM     50  C   UNL     1      -5.896  14.162   0.987  1.00  0.00     0.023 A 
ATOM     51  C   UNL     1      -6.518  13.576   2.106  1.00  0.00     0.012 A 
ATOM     52  C   UNL     1      -5.127  15.329   1.163  1.00  0.00     0.148 A 
ATOM     53  C   UNL     1      -6.403  14.159   3.369  1.00  0.00     0.002 A 
ATOM     54  C   UNL     1      -4.961  15.865   2.434  1.00  0.00     0.091 A 
ATOM     55  F   UNL     1      -4.559  15.887   0.084  1.00  0.00    -0.205 F 
ATOM     56  C   UNL     1      -5.614  15.295   3.536  1.00  0.00     0.022 A 
BRANCH  54  57
ATOM     57  S   UNL     1      -3.832  17.227   2.745  1.00  0.00     0.127 S 
ATOM     58  O   UNL     1      -4.749  18.358   2.852  1.00  0.00    -0.237 OA
ATOM     59  O   UNL     1      -3.201  16.823   4.003  1.00  0.00    -0.237 OA
ATOM     60  O   UNL     1      -2.925  17.242   1.605  1.00  0.00    -0.744 OA
ENDBRANCH  54  57
ENDBRANCH  26  50
BRANCH  38  61
ATOM     61  C   UNL     1     -11.276  13.106  -3.317  1.00  0.00     0.023 A 
ATOM     62  C   UNL     1     -11.678  14.455  -3.399  1.00  0.00     0.012 A 
ATOM     63  C   UNL     1     -12.253  12.102  -3.173  1.00  0.00     0.148 A 
ATOM     64  C   UNL     1     -13.024  14.802  -3.295  1.00  0.00     0.002 A 
ATOM     65  C   UNL     1     -13.597  12.452  -3.119  1.00  0.00     0.091 A 
ATOM     66  F   UNL     1     -11.851  10.826  -3.074  1.00  0.00    -0.205 F 
ATOM     67  C   UNL     1     -13.983  13.801  -3.165  1.00  0.00     0.022 A 
BRANCH  65  68
ATOM     68  S   UNL     1     -14.905  11.223  -3.039  1.00  0.00     0.127 S 
ATOM     69  O   UNL     1     -15.303  11.302  -1.635  1.00  0.00    -0.237 OA
ATOM     70  O   UNL     1     -15.890  11.752  -3.983  1.00  0.00    -0.237 OA
ATOM     71  O   UNL     1     -14.293   9.966  -3.450  1.00  0.00    -0.744 OA
ENDBRANCH  65  68
ENDBRANCH  38  61
ENDBRANCH  12  13
ENDBRANCH   5   7
ENDBRANCH   2   3
ENDBRANCH   1   2
BRANCH   1  72
ATOM     72  C   UNL     1       3.781   5.745  -2.367  1.00  0.00     0.117 C 
BRANCH  72  73
ATOM     73  N   UNL     1       3.453   4.626  -1.503  1.00  0.00    -0.355 N 
ATOM     74  C   UNL     1       2.771   3.477  -1.794  1.00  0.00     0.233 C 
ATOM     75  H   UNL     1       3.766   4.706  -0.573  1.00  0.00     0.163 HD
ATOM     76  O   UNL     1       2.420   2.782  -0.837  1.00  0.00    -0.274 OA
BRANCH  74  77
ATOM     77  C   UNL     1       2.520   3.057  -3.262  1.00  0.00     0.141 C 
BRANCH  77  78
ATOM     78  S   UNL     1       3.390   1.410  -3.454  1.00  0.00    -0.134 SA
BRANCH  78  79
ATOM     79  C   UNL     1       3.877   1.407  -5.219  1.00  0.00     0.147 C 
ATOM     80  C   UNL     1       4.071  -0.027  -5.669  1.00  0.00     0.125 C 
ATOM     81  C   UNL     1       2.795   1.878  -6.155  1.00  0.00     0.247 C 
ATOM     82  C   UNL     1       2.728  -0.388  -6.237  1.00  0.00     0.235 C 
ATOM     83  N   UNL     1       2.077   0.781  -6.574  1.00  0.00    -0.250 N 
ATOM     84  O   UNL     1       2.626   3.063  -6.413  1.00  0.00    -0.273 OA
ATOM     85  O   UNL     1       2.406  -1.546  -6.466  1.00  0.00    -0.274 OA
BRANCH  83  86
ATOM     86  C   UNL     1       0.866   0.831  -7.316  1.00  0.00     0.052 A 
ATOM     87  C   UNL     1      -0.080  -0.202  -7.212  1.00  0.00     0.028 A 
ATOM     88  C   UNL     1       0.579   1.900  -8.180  1.00  0.00     0.028 A 
ATOM     89  C   UNL     1      -1.265  -0.177  -7.956  1.00  0.00     0.022 A 
ATOM     90  C   UNL     1      -0.593   1.911  -8.948  1.00  0.00     0.022 A 
ATOM     91  C   UNL     1      -1.510   0.872  -8.834  1.00  0.00     0.041 A 
ATOM     92  Cl  UNL     1      -2.940   0.876  -9.787  1.00  0.00    -0.084 Cl
ENDBRANCH  83  86
ENDBRANCH  78  79
ENDBRANCH  77  78
BRANCH  77  93
ATOM     93  C   UNL     1       1.006   2.872  -3.525  1.00  0.00     0.061 C 
BRANCH  93  94
ATOM     94  C   UNL     1       0.213   3.973  -4.218  1.00  0.00    -0.028 A 
ATOM     95  C   UNL     1       0.808   5.114  -4.775  1.00  0.00     0.005 A 
ATOM     96  C   UNL     1      -1.188   3.856  -4.348  1.00  0.00     0.044 A 
ATOM     97  C   UNL     1       0.043   6.146  -5.329  1.00  0.00     0.000 A 
ATOM     98  C   UNL     1      -1.953   4.876  -4.926  1.00  0.00     0.021 A 
ATOM     99  Cl  UNL     1      -2.032   2.435  -3.832  1.00  0.00    -0.084 Cl
ATOM    100  C   UNL     1      -1.339   6.034  -5.394  1.00  0.00     0.002 A 
ENDBRANCH  93  94
ENDBRANCH  77  93
ENDBRANCH  74  77
ENDBRANCH  72  73
ENDBRANCH   1  72
TORSDOF 18
