REMARK SMILES Cc1ccc(C(=O)N2CCC3(CCC(=O)N(CC(=O)NCCCNC(=O)c4ccc(-c5c6nc(c(-c7cccc(S(=O)(=O)[O-])c7F)c7ccc([nH]7)c(-c7cccc(S(=O)(=O)[O-])c7F)c7nc(c(-c8cccc(S(=O)(=O)[O-])c8F)c8ccc5[nH]8)C=C7)C=C6)cc4)C3)CC2)cc1O
REMARK SMILES IDX 22 1 21 2 20 3 18 4 19 5 17 7 16 8 6 9 7 10 8 11 9 12 92 13
REMARK SMILES IDX 10 14 91 15 11 16 12 17 90 18 13 19 14 20 15 21 5 22 1 23
REMARK SMILES IDX 2 24 3 25 94 26 4 27 93 28 95 29 23 31 24 32 25 33 26 35
REMARK SMILES IDX 27 36 28 37 89 38 29 39 88 40 30 41 31 42 32 43 82 44 33 45
REMARK SMILES IDX 87 46 81 47 83 48 34 49 86 50 80 51 79 52 35 54 67 55 47 56
REMARK SMILES IDX 66 57 48 58 51 59 65 60 84 61 49 62 50 63 64 65 85 66 52 67
REMARK SMILES IDX 36 68 37 69 45 70 38 71 40 72 46 73 39 74 41 75 42 76 43 77
REMARK SMILES IDX 44 78 68 79 69 80 77 81 70 82 72 83 78 84 71 85 73 86 74 87
REMARK SMILES IDX 75 88 76 89 53 90 54 91 62 92 55 93 57 94 63 95 56 96 58 97
REMARK SMILES IDX 59 98 60 99 61 100
REMARK H PARENT 20 6 95 30 24 34 83 53 51 64
REMARK Flexibility Score: inf
ROOT
ATOM      1  C   UNL     1       8.622  -5.335   1.545  1.00  0.00     0.042 C 
ENDROOT
BRANCH   1   2
ATOM      2  C   UNL     1       7.923  -5.141   2.881  1.00  0.00     0.117 C 
BRANCH   2   3
ATOM      3  N   UNL     1       8.798  -4.582   3.885  1.00  0.00    -0.354 N 
ATOM      4  C   UNL     1       8.812  -3.322   4.405  1.00  0.00     0.239 C 
ATOM      5  O   UNL     1       9.473  -3.144   5.433  1.00  0.00    -0.273 OA
ATOM      6  H   UNL     1       9.479  -5.196   4.243  1.00  0.00     0.163 HD
BRANCH   4   7
ATOM      7  C   UNL     1       7.879  -2.236   3.856  1.00  0.00     0.219 C 
BRANCH   7   8
ATOM      8  N   UNL     1       8.019  -1.839   2.451  1.00  0.00    -0.333 N 
ATOM      9  C   UNL     1       3.026   1.489   0.211  1.00  0.00     0.253 C 
ATOM     10  O   UNL     1       2.876   2.634   0.641  1.00  0.00    -0.269 OA
ATOM     11  N   UNL     1       4.287   0.910   0.109  1.00  0.00    -0.339 N 
ATOM     12  C   UNL     1       5.335   1.403   0.987  1.00  0.00     0.120 C 
ATOM     13  C   UNL     1       4.738  -0.004  -0.940  1.00  0.00     0.120 C 
ATOM     14  C   UNL     1       5.969   0.214   1.697  1.00  0.00     0.030 C 
ATOM     15  C   UNL     1       5.466  -1.215  -0.341  1.00  0.00     0.030 C 
ATOM     16  C   UNL     1       6.545  -0.837   0.712  1.00  0.00    -0.008 C 
ATOM     17  C   UNL     1       7.827  -0.362  -0.001  1.00  0.00     0.019 C 
ATOM     18  C   UNL     1       6.942  -2.094   1.503  1.00  0.00     0.127 C 
ATOM     19  C   UNL     1       8.981  -0.110   0.957  1.00  0.00     0.101 C 
ATOM     20  C   UNL     1       9.130  -1.083   2.114  1.00  0.00     0.223 C 
ATOM     21  O   UNL     1      10.143  -1.064   2.810  1.00  0.00    -0.275 OA
BRANCH   9  22
ATOM     22  C   UNL     1       1.797   0.676  -0.033  1.00  0.00     0.043 A 
ATOM     23  C   UNL     1      -1.906  -1.569  -0.072  1.00  0.00     0.048 C 
ATOM     24  C   UNL     1      -0.638  -0.768  -0.094  1.00  0.00    -0.009 A 
ATOM     25  C   UNL     1       0.589  -1.434   0.012  1.00  0.00     0.008 A 
ATOM     26  C   UNL     1      -0.626   0.629  -0.171  1.00  0.00     0.119 A 
ATOM     27  C   UNL     1       1.788  -0.718   0.066  1.00  0.00     0.014 A 
ATOM     28  C   UNL     1       0.572   1.345  -0.153  1.00  0.00     0.060 A 
BRANCH  26  29
ATOM     29  O   UNL     1      -1.771   1.373  -0.227  1.00  0.00    -0.508 OA
ATOM     30  H   UNL     1      -2.606   0.948  -0.241  1.00  0.00     0.293 HD
ENDBRANCH  26  29
ENDBRANCH   9  22
ENDBRANCH   7   8
ENDBRANCH   4   7
ENDBRANCH   2   3
ENDBRANCH   1   2
BRANCH   1  31
ATOM     31  C   UNL     1       9.752  -6.357   1.581  1.00  0.00     0.118 C 
BRANCH  31  32
ATOM     32  N   UNL     1       9.293  -7.689   1.957  1.00  0.00    -0.352 N 
ATOM     33  C   UNL     1       9.364  -8.877   1.273  1.00  0.00     0.251 C 
ATOM     34  H   UNL     1       8.865  -7.746   2.841  1.00  0.00     0.163 HD
ATOM     35  O   UNL     1       8.736  -9.849   1.691  1.00  0.00    -0.269 OA
BRANCH  33  36
ATOM     36  C   UNL     1      10.169  -8.990   0.038  1.00  0.00     0.039 A 
ATOM     37  C   UNL     1       9.663  -9.731  -1.033  1.00  0.00     0.014 A 
ATOM     38  C   UNL     1      11.428  -8.392  -0.060  1.00  0.00     0.014 A 
ATOM     39  C   UNL     1      10.390  -9.818  -2.222  1.00  0.00     0.010 A 
ATOM     40  C   UNL     1      12.112  -8.409  -1.272  1.00  0.00     0.010 A 
ATOM     41  C   UNL     1      11.605  -9.128  -2.364  1.00  0.00    -0.014 A 
BRANCH  41  42
ATOM     42  C   UNL     1      12.354  -9.136  -3.646  1.00  0.00     0.031 A 
ATOM     43  C   UNL     1      13.742  -9.715  -3.713  1.00  0.00     0.074 A 
ATOM     44  C   UNL     1      11.818  -8.543  -4.731  1.00  0.00     0.049 A 
ATOM     45  N   UNL     1      14.569  -9.759  -4.725  1.00  0.00    -0.248 NA
ATOM     46  C   UNL     1      14.283 -10.297  -2.473  1.00  0.00     0.031 C 
ATOM     47  C   UNL     1      10.512  -7.881  -4.773  1.00  0.00     0.029 A 
ATOM     48  N   UNL     1      12.315  -8.377  -5.999  1.00  0.00    -0.354 N 
ATOM     49  C   UNL     1      15.735 -10.339  -4.240  1.00  0.00     0.074 A 
ATOM     50  C   UNL     1      15.523 -10.595  -2.832  1.00  0.00     0.031 C 
ATOM     51  C   UNL     1      10.307  -7.390  -6.006  1.00  0.00     0.029 A 
ATOM     52  C   UNL     1      11.478  -7.669  -6.831  1.00  0.00     0.049 A 
ATOM     53  H   UNL     1      13.187  -8.731  -6.287  1.00  0.00     0.167 HD
ATOM     54  C   UNL     1      16.868 -10.659  -4.909  1.00  0.00     0.034 A 
ATOM     55  C   UNL     1      11.638  -7.282  -8.111  1.00  0.00     0.034 A 
ATOM     56  C   UNL     1      17.062 -10.432  -6.316  1.00  0.00     0.049 A 
ATOM     57  C   UNL     1      12.897  -7.669  -8.839  1.00  0.00     0.074 A 
ATOM     58  C   UNL     1      18.140 -10.792  -7.105  1.00  0.00     0.029 A 
ATOM     59  N   UNL     1      16.162  -9.779  -7.144  1.00  0.00    -0.354 N 
ATOM     60  N   UNL     1      13.925  -8.355  -8.402  1.00  0.00    -0.248 NA
ATOM     61  C   UNL     1      13.002  -7.260 -10.247  1.00  0.00     0.031 C 
ATOM     62  C   UNL     1      17.903 -10.331  -8.405  1.00  0.00     0.029 A 
ATOM     63  C   UNL     1      16.663  -9.713  -8.432  1.00  0.00     0.049 A 
ATOM     64  H   UNL     1      15.293  -9.414  -6.857  1.00  0.00     0.167 HD
ATOM     65  C   UNL     1      14.781  -8.494  -9.489  1.00  0.00     0.074 A 
ATOM     66  C   UNL     1      14.141  -7.836 -10.610  1.00  0.00     0.031 C 
ATOM     67  C   UNL     1      15.992  -9.100  -9.551  1.00  0.00     0.034 A 
BRANCH  54  68
ATOM     68  C   UNL     1      17.970 -11.335  -4.133  1.00  0.00     0.023 A 
ATOM     69  C   UNL     1      17.791 -12.659  -3.681  1.00  0.00     0.012 A 
ATOM     70  C   UNL     1      19.194 -10.683  -3.888  1.00  0.00     0.148 A 
ATOM     71  C   UNL     1      18.794 -13.308  -2.962  1.00  0.00     0.002 A 
ATOM     72  C   UNL     1      20.208 -11.354  -3.212  1.00  0.00     0.091 A 
ATOM     73  F   UNL     1      19.341  -9.418  -4.306  1.00  0.00    -0.205 F 
ATOM     74  C   UNL     1      20.004 -12.660  -2.736  1.00  0.00     0.022 A 
BRANCH  72  75
ATOM     75  S   UNL     1      21.833 -10.636  -2.943  1.00  0.00     0.127 S 
ATOM     76  O   UNL     1      21.804 -10.373  -1.505  1.00  0.00    -0.237 OA
ATOM     77  O   UNL     1      22.721 -11.727  -3.345  1.00  0.00    -0.237 OA
ATOM     78  O   UNL     1      21.896  -9.457  -3.794  1.00  0.00    -0.744 OA
ENDBRANCH  72  75
ENDBRANCH  54  68
BRANCH  55  79
ATOM     79  C   UNL     1      10.545  -6.546  -8.808  1.00  0.00     0.023 A 
ATOM     80  C   UNL     1       9.820  -7.192  -9.828  1.00  0.00     0.012 A 
ATOM     81  C   UNL     1      10.197  -5.230  -8.445  1.00  0.00     0.148 A 
ATOM     82  C   UNL     1       8.790  -6.531 -10.498  1.00  0.00     0.002 A 
ATOM     83  C   UNL     1       9.132  -4.598  -9.076  1.00  0.00     0.091 A 
ATOM     84  F   UNL     1      10.903  -4.630  -7.477  1.00  0.00    -0.205 F 
ATOM     85  C   UNL     1       8.440  -5.239 -10.116  1.00  0.00     0.022 A 
BRANCH  83  86
ATOM     86  S   UNL     1       8.519  -2.991  -8.557  1.00  0.00     0.127 S 
ATOM     87  O   UNL     1       8.885  -2.149  -9.693  1.00  0.00    -0.237 OA
ATOM     88  O   UNL     1       7.085  -3.247  -8.414  1.00  0.00    -0.237 OA
ATOM     89  O   UNL     1       9.200  -2.694  -7.304  1.00  0.00    -0.744 OA
ENDBRANCH  83  86
ENDBRANCH  55  79
BRANCH  67  90
ATOM     90  C   UNL     1      16.696  -9.121 -10.883  1.00  0.00     0.023 A 
ATOM     91  C   UNL     1      17.257  -7.937 -11.402  1.00  0.00     0.012 A 
ATOM     92  C   UNL     1      16.863 -10.331 -11.585  1.00  0.00     0.148 A 
ATOM     93  C   UNL     1      17.943  -7.951 -12.616  1.00  0.00     0.002 A 
ATOM     94  C   UNL     1      17.593 -10.347 -12.768  1.00  0.00     0.091 A 
ATOM     95  F   UNL     1      16.306 -11.443 -11.085  1.00  0.00    -0.205 F 
ATOM     96  C   UNL     1      18.122  -9.156 -13.291  1.00  0.00     0.022 A 
BRANCH  94  97
ATOM     97  S   UNL     1      17.957 -11.866 -13.655  1.00  0.00     0.127 S 
ATOM     98  O   UNL     1      17.107 -11.731 -14.837  1.00  0.00    -0.237 OA
ATOM     99  O   UNL     1      19.391 -11.735 -13.917  1.00  0.00    -0.237 OA
ATOM    100  O   UNL     1      17.604 -12.953 -12.753  1.00  0.00    -0.744 OA
ENDBRANCH  94  97
ENDBRANCH  67  90
ENDBRANCH  41  42
ENDBRANCH  33  36
ENDBRANCH  31  32
ENDBRANCH   1  31
TORSDOF 16
