REMARK SMILES CC[C@@H](COC)NC(=O)NC[C@@H]1CC[C@H](C(=O)NCCCNC(=O)c2ccc(-c3c4nc(c(-c5cccc(S(=O)(=O)[O-])c5F)c5ccc([nH]5)c(-c5cccc(S(=O)(=O)[O-])c5F)c5nc(c(-c6cccc(S(=O)(=O)[O-])c6F)c6ccc3[nH]6)C=C5)C=C4)cc2)O1
REMARK SMILES IDX 19 1 18 2 16 3 17 4 15 6 12 7 13 8 88 9 14 10 11 11 10 12
REMARK SMILES IDX 7 13 8 14 9 16 3 18 2 19 1 20 4 21 5 22 6 23 20 24 21 25
REMARK SMILES IDX 22 26 23 27 24 29 25 30 26 31 87 32 27 33 86 34 28 35 29 36
REMARK SMILES IDX 30 37 80 38 31 39 85 40 79 41 81 42 32 43 84 44 78 45 77 46
REMARK SMILES IDX 33 48 65 49 45 50 64 51 46 52 49 53 63 54 82 55 47 56 48 57
REMARK SMILES IDX 62 59 83 60 50 61 34 62 35 63 43 64 36 65 38 66 44 67 37 68
REMARK SMILES IDX 39 69 40 70 41 71 42 72 66 73 67 74 75 75 68 76 70 77 76 78
REMARK SMILES IDX 69 79 71 80 72 81 73 82 74 83 51 84 52 85 60 86 53 87 55 88
REMARK SMILES IDX 61 89 54 90 56 91 57 92 58 93 59 94
REMARK H PARENT 18 5 7 15 10 17 22 28 81 47 49 58
REMARK Flexibility Score: inf
ROOT
ATOM      1  C   UNL     1       3.355  -3.913  -5.703  1.00  0.00     0.117 C 
ENDROOT
BRANCH   1   2
ATOM      2  N   UNL     1       3.821  -5.244  -5.388  1.00  0.00    -0.354 N 
ATOM      3  C   UNL     1       4.204  -5.748  -4.181  1.00  0.00     0.249 C 
ATOM      4  O   UNL     1       4.360  -6.972  -4.099  1.00  0.00    -0.272 OA
ATOM      5  H   UNL     1       3.868  -5.871  -6.146  1.00  0.00     0.163 HD
BRANCH   3   6
ATOM      6  C   UNL     1       4.554  -4.833  -2.977  1.00  0.00     0.207 C 
ATOM      7  C   UNL     1       4.581  -2.612  -2.282  1.00  0.00     0.138 C 
ATOM      8  C   UNL     1       5.874  -2.828  -3.043  1.00  0.00     0.037 C 
ATOM      9  O   UNL     1       3.731  -3.711  -2.647  1.00  0.00    -0.363 OA
ATOM     10  C   UNL     1       5.992  -4.332  -3.094  1.00  0.00     0.045 C 
BRANCH   7  11
ATOM     11  C   UNL     1       3.952  -1.217  -2.505  1.00  0.00     0.149 C 
BRANCH  11  12
ATOM     12  N   UNL     1       3.052  -1.101  -3.642  1.00  0.00    -0.336 N 
ATOM     13  N   UNL     1       0.937  -1.864  -2.904  1.00  0.00    -0.333 N 
ATOM     14  C   UNL     1       1.784  -1.482  -3.869  1.00  0.00     0.315 C 
ATOM     15  H   UNL     1       0.129  -2.315  -3.241  1.00  0.00     0.165 HD
ATOM     16  O   UNL     1       1.388  -1.495  -5.038  1.00  0.00    -0.249 OA
ATOM     17  H   UNL     1       3.461  -0.645  -4.413  1.00  0.00     0.165 HD
BRANCH  13  18
ATOM     18  C   UNL     1       0.979  -1.742  -1.450  1.00  0.00     0.109 C 
BRANCH  18  19
ATOM     19  C   UNL     1       0.746  -0.269  -1.073  1.00  0.00     0.024 C 
ATOM     20  C   UNL     1       1.093   0.049   0.371  1.00  0.00     0.006 C 
ENDBRANCH  18  19
BRANCH  18  21
ATOM     21  C   UNL     1       0.001  -2.745  -0.796  1.00  0.00     0.184 C 
BRANCH  21  22
ATOM     22  O   UNL     1      -1.359  -2.588  -1.208  1.00  0.00    -0.383 OA
ATOM     23  C   UNL     1      -2.138  -1.744  -0.374  1.00  0.00     0.194 C 
ENDBRANCH  21  22
ENDBRANCH  18  21
ENDBRANCH  13  18
ENDBRANCH  11  12
ENDBRANCH   7  11
ENDBRANCH   3   6
ENDBRANCH   1   2
BRANCH   1  24
ATOM     24  C   UNL     1       4.418  -3.039  -6.355  1.00  0.00     0.042 C 
BRANCH  24  25
ATOM     25  C   UNL     1       4.022  -2.557  -7.741  1.00  0.00     0.118 C 
BRANCH  25  26
ATOM     26  N   UNL     1       2.871  -1.663  -7.746  1.00  0.00    -0.352 N 
ATOM     27  C   UNL     1       2.585  -0.622  -8.601  1.00  0.00     0.251 C 
ATOM     28  H   UNL     1       2.205  -1.826  -7.040  1.00  0.00     0.163 HD
ATOM     29  O   UNL     1       1.550   0.028  -8.461  1.00  0.00    -0.269 OA
BRANCH  27  30
ATOM     30  C   UNL     1       3.556  -0.217  -9.645  1.00  0.00     0.039 A 
ATOM     31  C   UNL     1       3.795   1.150  -9.828  1.00  0.00     0.014 A 
ATOM     32  C   UNL     1       4.258  -1.150 -10.410  1.00  0.00     0.014 A 
ATOM     33  C   UNL     1       4.790   1.575 -10.711  1.00  0.00     0.010 A 
ATOM     34  C   UNL     1       5.312  -0.731 -11.218  1.00  0.00     0.010 A 
ATOM     35  C   UNL     1       5.589   0.635 -11.379  1.00  0.00    -0.014 A 
BRANCH  35  36
ATOM     36  C   UNL     1       6.721   1.052 -12.246  1.00  0.00     0.031 A 
ATOM     37  C   UNL     1       6.728   0.677 -13.705  1.00  0.00     0.074 A 
ATOM     38  C   UNL     1       7.790   1.669 -11.701  1.00  0.00     0.049 A 
ATOM     39  N   UNL     1       7.669   0.851 -14.596  1.00  0.00    -0.248 NA
ATOM     40  C   UNL     1       5.537  -0.018 -14.222  1.00  0.00     0.031 C 
ATOM     41  C   UNL     1       7.942   2.007 -10.283  1.00  0.00     0.029 A 
ATOM     42  N   UNL     1       8.968   2.091 -12.267  1.00  0.00    -0.354 N 
ATOM     43  C   UNL     1       7.209   0.241 -15.757  1.00  0.00     0.074 A 
ATOM     44  C   UNL     1       5.915  -0.329 -15.453  1.00  0.00     0.031 C 
ATOM     45  C   UNL     1       9.143   2.578 -10.091  1.00  0.00     0.029 A 
ATOM     46  C   UNL     1       9.859   2.622 -11.361  1.00  0.00     0.049 A 
ATOM     47  H   UNL     1       9.158   2.020 -13.230  1.00  0.00     0.167 HD
ATOM     48  C   UNL     1       7.796   0.188 -16.976  1.00  0.00     0.034 A 
ATOM     49  C   UNL     1      11.114   3.082 -11.533  1.00  0.00     0.034 A 
ATOM     50  C   UNL     1       9.044   0.826 -17.293  1.00  0.00     0.049 A 
ATOM     51  C   UNL     1      11.705   3.085 -12.918  1.00  0.00     0.074 A 
ATOM     52  C   UNL     1       9.665   0.931 -18.525  1.00  0.00     0.029 A 
ATOM     53  N   UNL     1       9.858   1.468 -16.375  1.00  0.00    -0.354 N 
ATOM     54  N   UNL     1      11.176   2.660 -14.040  1.00  0.00    -0.248 NA
ATOM     55  C   UNL     1      13.047   3.666 -13.070  1.00  0.00     0.031 C 
ATOM     56  C   UNL     1      10.864   1.628 -18.349  1.00  0.00     0.029 A 
ATOM     57  C   UNL     1      10.980   1.970 -17.011  1.00  0.00     0.049 A 
ATOM     58  H   UNL     1       9.668   1.555 -15.413  1.00  0.00     0.167 HD
ATOM     59  C   UNL     1      12.102   2.955 -15.034  1.00  0.00     0.074 A 
ATOM     60  C   UNL     1      13.216   3.615 -14.385  1.00  0.00     0.031 C 
ATOM     61  C   UNL     1      12.046   2.686 -16.361  1.00  0.00     0.034 A 
BRANCH  48  62
ATOM     62  C   UNL     1       7.067  -0.528 -18.081  1.00  0.00     0.023 A 
ATOM     63  C   UNL     1       5.925   0.063 -18.657  1.00  0.00     0.012 A 
ATOM     64  C   UNL     1       7.558  -1.741 -18.604  1.00  0.00     0.148 A 
ATOM     65  C   UNL     1       5.266  -0.553 -19.720  1.00  0.00     0.002 A 
ATOM     66  C   UNL     1       6.920  -2.327 -19.692  1.00  0.00     0.091 A 
ATOM     67  F   UNL     1       8.634  -2.296 -18.029  1.00  0.00    -0.205 F 
ATOM     68  C   UNL     1       5.770  -1.740 -20.244  1.00  0.00     0.022 A 
BRANCH  66  69
ATOM     69  S   UNL     1       7.534  -3.813 -20.492  1.00  0.00     0.127 S 
ATOM     70  O   UNL     1       6.496  -4.784 -20.148  1.00  0.00    -0.237 OA
ATOM     71  O   UNL     1       7.555  -3.417 -21.901  1.00  0.00    -0.237 OA
ATOM     72  O   UNL     1       8.845  -4.072 -19.913  1.00  0.00    -0.744 OA
ENDBRANCH  66  69
ENDBRANCH  48  62
BRANCH  49  73
ATOM     73  C   UNL     1      11.874   3.639 -10.377  1.00  0.00     0.023 A 
ATOM     74  C   UNL     1      12.132   5.023 -10.323  1.00  0.00     0.012 A 
ATOM     75  C   UNL     1      12.329   2.817  -9.329  1.00  0.00     0.148 A 
ATOM     76  C   UNL     1      12.861   5.572  -9.267  1.00  0.00     0.002 A 
ATOM     77  C   UNL     1      13.007   3.378  -8.251  1.00  0.00     0.091 A 
ATOM     78  F   UNL     1      12.091   1.499  -9.401  1.00  0.00    -0.205 F 
ATOM     79  C   UNL     1      13.290   4.752  -8.227  1.00  0.00     0.022 A 
BRANCH  77  80
ATOM     80  S   UNL     1      13.469   2.411  -6.809  1.00  0.00     0.127 S 
ATOM     81  O   UNL     1      14.894   2.193  -7.036  1.00  0.00    -0.237 OA
ATOM     82  O   UNL     1      13.153   3.325  -5.710  1.00  0.00    -0.237 OA
ATOM     83  O   UNL     1      12.623   1.225  -6.853  1.00  0.00    -0.744 OA
ENDBRANCH  77  80
ENDBRANCH  49  73
BRANCH  61  84
ATOM     84  C   UNL     1      13.197   3.138 -17.219  1.00  0.00     0.023 A 
ATOM     85  C   UNL     1      14.422   2.447 -17.163  1.00  0.00     0.012 A 
ATOM     86  C   UNL     1      13.032   4.187 -18.145  1.00  0.00     0.148 A 
ATOM     87  C   UNL     1      15.476   2.809 -18.000  1.00  0.00     0.002 A 
ATOM     88  C   UNL     1      14.071   4.511 -19.008  1.00  0.00     0.091 A 
ATOM     89  F   UNL     1      11.863   4.844 -18.168  1.00  0.00    -0.205 F 
ATOM     90  C   UNL     1      15.297   3.830 -18.930  1.00  0.00     0.022 A 
BRANCH  88  91
ATOM     91  S   UNL     1      13.895   5.745 -20.302  1.00  0.00     0.127 S 
ATOM     92  O   UNL     1      14.679   6.855 -19.763  1.00  0.00    -0.237 OA
ATOM     93  O   UNL     1      14.498   5.076 -21.455  1.00  0.00    -0.237 OA
ATOM     94  O   UNL     1      12.465   5.991 -20.428  1.00  0.00    -0.744 OA
ENDBRANCH  88  91
ENDBRANCH  61  84
ENDBRANCH  35  36
ENDBRANCH  27  30
ENDBRANCH  25  26
ENDBRANCH  24  25
ENDBRANCH   1  24
TORSDOF 19
