REMARK SMILES CCc1ccc(S(=O)(=O)c2nnn(-c3ccc(C(=O)NCCCNC(=O)c4ccc(-c5c6nc(c(-c7cccc(S(=O)(=O)[O-])c7F)c7ccc([nH]7)c(-c7cccc(S(=O)(=O)[O-])c7F)c7nc(c(-c8cccc(S(=O)(=O)[O-])c8F)c8ccc5[nH]8)C=C7)C=C6)cc4)cc3)c2C)cc1
REMARK SMILES IDX 21 1 20 2 18 3 19 4 17 6 14 7 15 8 91 9 16 10 90 11 13 12
REMARK SMILES IDX 10 13 11 14 92 15 12 16 93 17 7 18 8 19 9 20 6 21 3 22 4 23
REMARK SMILES IDX 95 24 5 25 94 26 2 27 1 28 22 29 23 30 24 31 25 32 26 34
REMARK SMILES IDX 27 35 28 36 89 37 29 38 88 39 30 40 31 41 32 42 82 43 33 44
REMARK SMILES IDX 87 45 81 46 83 47 34 48 86 49 80 50 79 51 35 53 67 54 47 55
REMARK SMILES IDX 66 56 48 57 51 58 65 59 84 60 49 61 50 62 64 64 85 65 52 66
REMARK SMILES IDX 36 67 37 68 45 69 38 70 40 71 46 72 39 73 41 74 42 75 43 76
REMARK SMILES IDX 44 77 68 78 69 79 77 80 70 81 72 82 78 83 71 84 73 85 74 86
REMARK SMILES IDX 75 87 76 88 53 89 54 90 62 91 55 92 57 93 63 94 56 95 58 96
REMARK SMILES IDX 59 97 60 98 61 99
REMARK H PARENT 20 5 24 33 83 52 51 63
REMARK Flexibility Score: inf
ROOT
ATOM      1  C   UNL     1      -2.058  10.924   7.133  1.00  0.00     0.118 C 
ENDROOT
BRANCH   1   2
ATOM      2  N   UNL     1      -3.396  11.047   6.576  1.00  0.00    -0.352 N 
ATOM      3  C   UNL     1      -3.906  10.799   5.323  1.00  0.00     0.251 C 
ATOM      4  O   UNL     1      -5.128  10.832   5.184  1.00  0.00    -0.269 OA
ATOM      5  H   UNL     1      -4.066  11.370   7.220  1.00  0.00     0.163 HD
BRANCH   3   6
ATOM      6  C   UNL     1      -3.064  10.426   4.152  1.00  0.00     0.039 A 
ATOM      7  C   UNL     1      -1.549   9.438   2.021  1.00  0.00     0.067 A 
ATOM      8  C   UNL     1      -2.934   9.281   1.996  1.00  0.00     0.029 A 
ATOM      9  C   UNL     1      -0.937  10.192   3.021  1.00  0.00     0.029 A 
ATOM     10  C   UNL     1      -3.682   9.751   3.082  1.00  0.00     0.016 A 
ATOM     11  C   UNL     1      -1.704  10.715   4.053  1.00  0.00     0.016 A 
BRANCH   7  12
ATOM     12  N   UNL     1      -0.735   8.783   1.083  1.00  0.00    -0.216 N 
ATOM     13  C   UNL     1       0.865   7.705   0.090  1.00  0.00     0.205 A 
ATOM     14  N   UNL     1      -0.021   8.145  -0.857  1.00  0.00    -0.117 NA
ATOM     15  C   UNL     1       0.388   8.018   1.351  1.00  0.00     0.081 A 
ATOM     16  N   UNL     1      -1.039   8.720  -0.229  1.00  0.00    -0.061 NA
ATOM     17  C   UNL     1       0.771   7.544   2.707  1.00  0.00     0.070 C 
BRANCH  13  18
ATOM     18  S   UNL     1       2.196   6.676  -0.296  1.00  0.00     0.227 S 
ATOM     19  O   UNL     1       3.218   7.023   0.657  1.00  0.00    -0.217 OA
ATOM     20  O   UNL     1       2.397   6.800  -1.736  1.00  0.00    -0.217 OA
BRANCH  18  21
ATOM     21  C   UNL     1       1.674   5.015   0.036  1.00  0.00     0.073 A 
ATOM     22  C   UNL     1       0.959   2.375   0.640  1.00  0.00    -0.048 A 
ATOM     23  C   UNL     1       2.293   2.704   0.355  1.00  0.00     0.005 A 
ATOM     24  C   UNL     1      -0.007   3.390   0.634  1.00  0.00     0.005 A 
ATOM     25  C   UNL     1       2.653   4.019   0.056  1.00  0.00     0.021 A 
ATOM     26  C   UNL     1       0.343   4.703   0.322  1.00  0.00     0.021 A 
BRANCH  22  27
ATOM     27  C   UNL     1       0.555   0.960   0.977  1.00  0.00     0.032 C 
ATOM     28  C   UNL     1       0.952  -0.049  -0.091  1.00  0.00     0.009 C 
ENDBRANCH  22  27
ENDBRANCH  18  21
ENDBRANCH  13  18
ENDBRANCH   7  12
ENDBRANCH   3   6
ENDBRANCH   1   2
BRANCH   1  29
ATOM     29  C   UNL     1      -1.292  12.255   7.116  1.00  0.00     0.042 C 
BRANCH  29  30
ATOM     30  C   UNL     1      -1.615  13.129   8.315  1.00  0.00     0.118 C 
BRANCH  30  31
ATOM     31  N   UNL     1      -1.051  12.582   9.547  1.00  0.00    -0.352 N 
ATOM     32  C   UNL     1      -1.224  13.021  10.840  1.00  0.00     0.251 C 
ATOM     33  H   UNL     1      -0.470  11.795   9.438  1.00  0.00     0.163 HD
ATOM     34  O   UNL     1      -0.438  12.673  11.714  1.00  0.00    -0.269 OA
BRANCH  32  35
ATOM     35  C   UNL     1      -2.340  13.931  11.153  1.00  0.00     0.039 A 
ATOM     36  C   UNL     1      -2.132  15.016  12.009  1.00  0.00     0.014 A 
ATOM     37  C   UNL     1      -3.586  13.714  10.569  1.00  0.00     0.014 A 
ATOM     38  C   UNL     1      -3.161  15.933  12.200  1.00  0.00     0.010 A 
ATOM     39  C   UNL     1      -4.563  14.681  10.663  1.00  0.00     0.010 A 
ATOM     40  C   UNL     1      -4.367  15.778  11.499  1.00  0.00    -0.014 A 
BRANCH  40  41
ATOM     41  C   UNL     1      -5.372  16.838  11.539  1.00  0.00     0.031 A 
ATOM     42  C   UNL     1      -4.883  18.183  11.124  1.00  0.00     0.074 A 
ATOM     43  C   UNL     1      -6.690  16.612  11.719  1.00  0.00     0.049 A 
ATOM     44  N   UNL     1      -4.758  19.236  11.863  1.00  0.00    -0.248 NA
ATOM     45  C   UNL     1      -4.353  18.345   9.763  1.00  0.00     0.031 C 
ATOM     46  C   UNL     1      -7.374  15.317  11.808  1.00  0.00     0.029 A 
ATOM     47  N   UNL     1      -7.723  17.502  11.702  1.00  0.00    -0.354 N 
ATOM     48  C   UNL     1      -4.354  20.258  11.004  1.00  0.00     0.074 A 
ATOM     49  C   UNL     1      -3.934  19.612   9.789  1.00  0.00     0.031 C 
ATOM     50  C   UNL     1      -8.691  15.492  11.565  1.00  0.00     0.029 A 
ATOM     51  C   UNL     1      -8.963  16.914  11.478  1.00  0.00     0.049 A 
ATOM     52  H   UNL     1      -7.602  18.469  11.837  1.00  0.00     0.167 HD
ATOM     53  C   UNL     1      -4.628  21.564  11.279  1.00  0.00     0.034 A 
ATOM     54  C   UNL     1     -10.124  17.549  11.191  1.00  0.00     0.034 A 
ATOM     55  C   UNL     1      -5.084  21.727  12.638  1.00  0.00     0.049 A 
ATOM     56  C   UNL     1      -9.980  18.952  11.636  1.00  0.00     0.074 A 
ATOM     57  C   UNL     1      -4.573  21.456  13.891  1.00  0.00     0.029 A 
ATOM     58  N   UNL     1      -6.433  21.924  12.809  1.00  0.00    -0.354 N 
ATOM     59  N   UNL     1      -9.899  19.308  12.887  1.00  0.00    -0.248 NA
ATOM     60  C   UNL     1      -9.540  19.946  10.672  1.00  0.00     0.031 C 
ATOM     61  C   UNL     1      -5.699  21.052  14.666  1.00  0.00     0.029 A 
ATOM     62  C   UNL     1      -6.837  21.154  13.863  1.00  0.00     0.049 A 
ATOM     63  H   UNL     1      -7.005  22.514  12.268  1.00  0.00     0.167 HD
ATOM     64  C   UNL     1      -8.978  20.345  12.887  1.00  0.00     0.074 A 
ATOM     65  C   UNL     1      -8.908  20.786  11.496  1.00  0.00     0.031 C 
ATOM     66  C   UNL     1      -8.145  20.541  13.951  1.00  0.00     0.034 A 
BRANCH  53  67
ATOM     67  C   UNL     1      -4.866  22.663  10.261  1.00  0.00     0.023 A 
ATOM     68  C   UNL     1      -5.035  23.976  10.764  1.00  0.00     0.012 A 
ATOM     69  C   UNL     1      -5.218  22.453   8.909  1.00  0.00     0.148 A 
ATOM     70  C   UNL     1      -5.603  24.997   9.995  1.00  0.00     0.002 A 
ATOM     71  C   UNL     1      -5.706  23.492   8.123  1.00  0.00     0.091 A 
ATOM     72  F   UNL     1      -5.213  21.220   8.398  1.00  0.00    -0.205 F 
ATOM     73  C   UNL     1      -5.937  24.756   8.671  1.00  0.00     0.022 A 
BRANCH  71  74
ATOM     74  S   UNL     1      -6.099  23.256   6.385  1.00  0.00     0.127 S 
ATOM     75  O   UNL     1      -7.559  23.265   6.412  1.00  0.00    -0.237 OA
ATOM     76  O   UNL     1      -5.481  24.434   5.776  1.00  0.00    -0.237 OA
ATOM     77  O   UNL     1      -5.472  21.994   6.011  1.00  0.00    -0.744 OA
ENDBRANCH  71  74
ENDBRANCH  53  67
BRANCH  54  78
ATOM     78  C   UNL     1     -11.298  17.094  10.415  1.00  0.00     0.023 A 
ATOM     79  C   UNL     1     -12.542  17.727  10.604  1.00  0.00     0.012 A 
ATOM     80  C   UNL     1     -11.147  16.238   9.301  1.00  0.00     0.148 A 
ATOM     81  C   UNL     1     -13.588  17.550   9.691  1.00  0.00     0.002 A 
ATOM     82  C   UNL     1     -12.192  16.060   8.400  1.00  0.00     0.091 A 
ATOM     83  F   UNL     1      -9.951  15.678   9.075  1.00  0.00    -0.205 F 
ATOM     84  C   UNL     1     -13.411  16.725   8.585  1.00  0.00     0.022 A 
BRANCH  82  85
ATOM     85  S   UNL     1     -12.027  15.031   6.935  1.00  0.00     0.127 S 
ATOM     86  O   UNL     1     -13.271  14.261   6.961  1.00  0.00    -0.237 OA
ATOM     87  O   UNL     1     -11.947  16.031   5.873  1.00  0.00    -0.237 OA
ATOM     88  O   UNL     1     -10.826  14.234   7.148  1.00  0.00    -0.744 OA
ENDBRANCH  82  85
ENDBRANCH  54  78
BRANCH  66  89
ATOM     89  C   UNL     1      -8.462  19.838  15.247  1.00  0.00     0.023 A 
ATOM     90  C   UNL     1      -8.508  18.433  15.357  1.00  0.00     0.012 A 
ATOM     91  C   UNL     1      -8.547  20.613  16.416  1.00  0.00     0.148 A 
ATOM     92  C   UNL     1      -8.666  17.817  16.601  1.00  0.00     0.002 A 
ATOM     93  C   UNL     1      -8.649  19.996  17.657  1.00  0.00     0.091 A 
ATOM     94  F   UNL     1      -8.501  21.949  16.299  1.00  0.00    -0.205 F 
ATOM     95  C   UNL     1      -8.722  18.598  17.753  1.00  0.00     0.022 A 
BRANCH  93  96
ATOM     96  S   UNL     1      -8.583  20.950  19.175  1.00  0.00     0.127 S 
ATOM     97  O   UNL     1      -9.994  21.044  19.540  1.00  0.00    -0.237 OA
ATOM     98  O   UNL     1      -7.780  20.096  20.053  1.00  0.00    -0.237 OA
ATOM     99  O   UNL     1      -7.935  22.208  18.822  1.00  0.00    -0.744 OA
ENDBRANCH  93  96
ENDBRANCH  66  89
ENDBRANCH  40  41
ENDBRANCH  32  35
ENDBRANCH  30  31
ENDBRANCH  29  30
ENDBRANCH   1  29
TORSDOF 17
