REMARK SMILES CC[C@@H](Oc1cc(Cl)ccc1Cl)C(=O)NNC(=O)[C@@H]1[C@@H]2CC[C@@H](C2)[C@@H]1C(=O)NCCCNC(=O)c1ccc(-c2c3nc(c(-c4cccc(S(=O)(=O)[O-])c4F)c4ccc([nH]4)c(-c4cccc(S(=O)(=O)[O-])c4F)c4nc(c(-c5cccc(S(=O)(=O)[O-])c5F)c5ccc2[nH]5)C=C4)C=C3)cc1
REMARK SMILES IDX 29 1 28 2 26 3 27 4 25 6 19 7 20 8 21 9 24 10 23 11 22 12
REMARK SMILES IDX 17 13 16 14 18 16 15 17 13 18 14 19 3 21 2 22 1 23 4 24 5 25
REMARK SMILES IDX 6 26 11 27 7 28 10 29 12 30 8 31 9 32 30 33 31 34 32 35
REMARK SMILES IDX 33 36 34 38 35 39 36 40 97 41 37 42 96 43 38 44 39 45 40 46
REMARK SMILES IDX 90 47 41 48 95 49 89 50 91 51 42 52 94 53 88 54 87 55 43 57
REMARK SMILES IDX 75 58 55 59 74 60 56 61 59 62 73 63 92 64 57 65 58 66 72 68
REMARK SMILES IDX 93 69 60 70 44 71 45 72 53 73 46 74 48 75 54 76 47 77 49 78
REMARK SMILES IDX 50 79 51 80 52 81 76 82 77 83 85 84 78 85 80 86 86 87 79 88
REMARK SMILES IDX 81 89 82 90 83 91 84 92 61 93 62 94 70 95 63 96 65 97 71 98
REMARK SMILES IDX 64 99 66 100 67 101 68 102 69 103
REMARK H PARENT 28 5 16 15 15 20 32 37 91 56 59 67
REMARK Flexibility Score: inf
ROOT
ATOM      1  C   UNL     1      -6.547  -6.227   0.342  1.00  0.00     0.117 C 
ENDROOT
BRANCH   1   2
ATOM      2  N   UNL     1      -5.916  -6.661   1.568  1.00  0.00    -0.356 N 
ATOM      3  C   UNL     1      -4.700  -6.391   2.104  1.00  0.00     0.224 C 
ATOM      4  O   UNL     1      -4.516  -6.801   3.259  1.00  0.00    -0.275 OA
ATOM      5  H   UNL     1      -6.472  -7.263   2.114  1.00  0.00     0.163 HD
BRANCH   3   6
ATOM      6  C   UNL     1      -3.530  -5.723   1.370  1.00  0.00     0.094 C 
ATOM      7  C   UNL     1      -3.663  -4.458   0.486  1.00  0.00     0.096 C 
ATOM      8  C   UNL     1      -3.014  -4.921  -0.853  1.00  0.00     0.002 C 
ATOM      9  C   UNL     1      -3.701  -6.093  -1.587  1.00  0.00     0.005 C 
ATOM     10  C   UNL     1      -1.801  -5.691  -0.284  1.00  0.00     0.009 C 
ATOM     11  C   UNL     1      -2.676  -6.681   0.498  1.00  0.00     0.002 C 
ATOM     12  C   UNL     1      -3.481  -7.293  -0.651  1.00  0.00     0.005 C 
BRANCH   7  13
ATOM     13  C   UNL     1      -4.986  -3.716   0.606  1.00  0.00     0.242 C 
ATOM     14  N   UNL     1      -5.389  -2.904  -0.425  1.00  0.00    -0.267 N 
ATOM     15  H   UNL     1      -5.979  -3.222  -1.147  1.00  0.00     0.191 HD
ATOM     16  O   UNL     1      -5.660  -3.734   1.635  1.00  0.00    -0.273 OA
BRANCH  14  17
ATOM     17  N   UNL     1      -4.898  -1.577  -0.375  1.00  0.00    -0.264 N 
ATOM     18  C   UNL     1      -5.700  -0.464  -0.214  1.00  0.00     0.279 C 
ATOM     19  O   UNL     1      -5.161   0.619   0.036  1.00  0.00    -0.269 OA
ATOM     20  H   UNL     1      -3.927  -1.440  -0.461  1.00  0.00     0.191 HD
BRANCH  18  21
ATOM     21  C   UNL     1      -7.230  -0.552  -0.454  1.00  0.00     0.263 C 
BRANCH  21  22
ATOM     22  C   UNL     1      -7.489  -0.901  -1.934  1.00  0.00     0.052 C 
ATOM     23  C   UNL     1      -8.616  -0.082  -2.554  1.00  0.00     0.008 C 
ENDBRANCH  21  22
BRANCH  21  24
ATOM     24  O   UNL     1      -7.834  -1.542   0.401  1.00  0.00    -0.479 OA
BRANCH  24  25
ATOM     25  C   UNL     1      -9.138  -1.229   0.717  1.00  0.00     0.140 A 
ATOM     26  C   UNL     1     -10.154  -1.780  -0.070  1.00  0.00     0.068 A 
ATOM     27  C   UNL     1      -9.470  -0.418   1.811  1.00  0.00     0.083 A 
ATOM     28  C   UNL     1     -11.483  -1.428   0.167  1.00  0.00     0.044 A 
ATOM     29  C   UNL     1     -10.809  -0.097   2.063  1.00  0.00     0.026 A 
ATOM     30  Cl  UNL     1      -8.263   0.215   2.866  1.00  0.00    -0.080 Cl
ATOM     31  Cl  UNL     1     -12.719  -1.998  -0.884  1.00  0.00    -0.084 Cl
ATOM     32  C   UNL     1     -11.816  -0.586   1.226  1.00  0.00     0.022 A 
ENDBRANCH  24  25
ENDBRANCH  21  24
ENDBRANCH  18  21
ENDBRANCH  14  17
ENDBRANCH   7  13
ENDBRANCH   3   6
ENDBRANCH   1   2
BRANCH   1  33
ATOM     33  C   UNL     1      -7.136  -7.360  -0.469  1.00  0.00     0.042 C 
BRANCH  33  34
ATOM     34  C   UNL     1      -8.504  -7.748   0.043  1.00  0.00     0.118 C 
BRANCH  34  35
ATOM     35  N   UNL     1      -9.506  -6.727  -0.263  1.00  0.00    -0.352 N 
ATOM     36  C   UNL     1     -10.549  -6.774  -1.156  1.00  0.00     0.251 C 
ATOM     37  H   UNL     1      -9.420  -5.887   0.243  1.00  0.00     0.163 HD
ATOM     38  O   UNL     1     -11.122  -5.738  -1.485  1.00  0.00    -0.269 OA
BRANCH  36  39
ATOM     39  C   UNL     1     -10.951  -8.078  -1.724  1.00  0.00     0.039 A 
ATOM     40  C   UNL     1     -11.292  -8.177  -3.074  1.00  0.00     0.014 A 
ATOM     41  C   UNL     1     -10.940  -9.216  -0.918  1.00  0.00     0.014 A 
ATOM     42  C   UNL     1     -11.542  -9.437  -3.626  1.00  0.00     0.010 A 
ATOM     43  C   UNL     1     -11.037 -10.469  -1.498  1.00  0.00     0.010 A 
ATOM     44  C   UNL     1     -11.371 -10.597  -2.852  1.00  0.00    -0.014 A 
BRANCH  44  45
ATOM     45  C   UNL     1     -11.564 -11.959  -3.410  1.00  0.00     0.031 A 
ATOM     46  C   UNL     1     -12.560 -12.891  -2.769  1.00  0.00     0.074 A 
ATOM     47  C   UNL     1     -10.772 -12.396  -4.410  1.00  0.00     0.049 A 
ATOM     48  N   UNL     1     -12.802 -14.149  -3.031  1.00  0.00    -0.248 NA
ATOM     49  C   UNL     1     -13.358 -12.353  -1.652  1.00  0.00     0.031 C 
ATOM     50  C   UNL     1      -9.705 -11.622  -5.049  1.00  0.00     0.029 A 
ATOM     51  N   UNL     1     -10.724 -13.611  -5.046  1.00  0.00    -0.354 N 
ATOM     52  C   UNL     1     -13.730 -14.561  -2.082  1.00  0.00     0.074 A 
ATOM     53  C   UNL     1     -13.970 -13.439  -1.205  1.00  0.00     0.031 C 
ATOM     54  C   UNL     1      -9.120 -12.374  -5.995  1.00  0.00     0.029 A 
ATOM     55  C   UNL     1      -9.741 -13.694  -6.004  1.00  0.00     0.049 A 
ATOM     56  H   UNL     1     -11.336 -14.353  -4.836  1.00  0.00     0.167 HD
ATOM     57  C   UNL     1     -14.360 -15.754  -1.971  1.00  0.00     0.034 A 
ATOM     58  C   UNL     1      -9.375 -14.723  -6.794  1.00  0.00     0.034 A 
ATOM     59  C   UNL     1     -14.164 -16.844  -2.884  1.00  0.00     0.049 A 
ATOM     60  C   UNL     1     -10.132 -16.019  -6.695  1.00  0.00     0.074 A 
ATOM     61  C   UNL     1     -14.827 -18.056  -2.931  1.00  0.00     0.029 A 
ATOM     62  N   UNL     1     -13.231 -16.855  -3.909  1.00  0.00    -0.354 N 
ATOM     63  N   UNL     1     -11.121 -16.337  -5.895  1.00  0.00    -0.248 NA
ATOM     64  C   UNL     1      -9.749 -17.086  -7.630  1.00  0.00     0.031 C 
ATOM     65  C   UNL     1     -14.271 -18.814  -3.967  1.00  0.00     0.029 A 
ATOM     66  C   UNL     1     -13.290 -18.058  -4.589  1.00  0.00     0.049 A 
ATOM     67  H   UNL     1     -12.616 -16.116  -4.121  1.00  0.00     0.167 HD
ATOM     68  C   UNL     1     -11.504 -17.624  -6.255  1.00  0.00     0.074 A 
ATOM     69  C   UNL     1     -10.651 -18.019  -7.357  1.00  0.00     0.031 C 
ATOM     70  C   UNL     1     -12.466 -18.413  -5.716  1.00  0.00     0.034 A 
BRANCH  57  71
ATOM     71  C   UNL     1     -15.356 -15.918  -0.851  1.00  0.00     0.023 A 
ATOM     72  C   UNL     1     -16.564 -15.190  -0.873  1.00  0.00     0.012 A 
ATOM     73  C   UNL     1     -15.113 -16.816   0.206  1.00  0.00     0.148 A 
ATOM     74  C   UNL     1     -17.491 -15.317   0.161  1.00  0.00     0.002 A 
ATOM     75  C   UNL     1     -16.066 -16.978   1.205  1.00  0.00     0.091 A 
ATOM     76  F   UNL     1     -13.950 -17.484   0.224  1.00  0.00    -0.205 F 
ATOM     77  C   UNL     1     -17.247 -16.218   1.192  1.00  0.00     0.022 A 
BRANCH  75  78
ATOM     78  S   UNL     1     -15.886 -18.176   2.530  1.00  0.00     0.127 S 
ATOM     79  O   UNL     1     -15.671 -17.307   3.686  1.00  0.00    -0.237 OA
ATOM     80  O   UNL     1     -17.184 -18.852   2.509  1.00  0.00    -0.237 OA
ATOM     81  O   UNL     1     -14.757 -19.018   2.161  1.00  0.00    -0.744 OA
ENDBRANCH  75  78
ENDBRANCH  57  71
BRANCH  58  82
ATOM     82  C   UNL     1      -8.285 -14.541  -7.795  1.00  0.00     0.023 A 
ATOM     83  C   UNL     1      -8.603 -14.503  -9.166  1.00  0.00     0.012 A 
ATOM     84  C   UNL     1      -6.946 -14.368  -7.396  1.00  0.00     0.148 A 
ATOM     85  C   UNL     1      -7.604 -14.329 -10.125  1.00  0.00     0.002 A 
ATOM     86  C   UNL     1      -5.963 -14.137  -8.352  1.00  0.00     0.091 A 
ATOM     87  F   UNL     1      -6.663 -14.411  -6.086  1.00  0.00    -0.205 F 
ATOM     88  C   UNL     1      -6.287 -14.137  -9.718  1.00  0.00     0.022 A 
BRANCH  86  89
ATOM     89  S   UNL     1      -4.265 -13.745  -7.917  1.00  0.00     0.127 S 
ATOM     90  O   UNL     1      -3.552 -14.926  -8.396  1.00  0.00    -0.237 OA
ATOM     91  O   UNL     1      -4.031 -12.526  -8.692  1.00  0.00    -0.237 OA
ATOM     92  O   UNL     1      -4.263 -13.547  -6.473  1.00  0.00    -0.744 OA
ENDBRANCH  86  89
ENDBRANCH  58  82
BRANCH  70  93
ATOM     93  C   UNL     1     -12.689 -19.767  -6.335  1.00  0.00     0.023 A 
ATOM     94  C   UNL     1     -11.744 -20.794  -6.147  1.00  0.00     0.012 A 
ATOM     95  C   UNL     1     -13.882 -20.042  -7.033  1.00  0.00     0.148 A 
ATOM     96  C   UNL     1     -11.967 -22.065  -6.674  1.00  0.00     0.002 A 
ATOM     97  C   UNL     1     -14.122 -21.325  -7.508  1.00  0.00     0.091 A 
ATOM     98  F   UNL     1     -14.761 -19.045  -7.215  1.00  0.00    -0.205 F 
ATOM     99  C   UNL     1     -13.160 -22.334  -7.342  1.00  0.00     0.022 A 
BRANCH  97 100
ATOM    100  S   UNL     1     -15.672 -21.788  -8.288  1.00  0.00     0.127 S 
ATOM    101  O   UNL     1     -15.262 -21.969  -9.680  1.00  0.00    -0.237 OA
ATOM    102  O   UNL     1     -16.013 -23.025  -7.586  1.00  0.00    -0.237 OA
ATOM    103  O   UNL     1     -16.590 -20.683  -8.047  1.00  0.00    -0.744 OA
ENDBRANCH  97 100
ENDBRANCH  70  93
ENDBRANCH  44  45
ENDBRANCH  36  39
ENDBRANCH  34  35
ENDBRANCH  33  34
ENDBRANCH   1  33
TORSDOF 19
