REMARK SMILES O=C(NCCCNC(=O)[C@H](Cc1cccc(Br)c1)CC1CCC1)c1ccc(-c2c3nc(c(-c4cccc(S(=O)(=O)[O-])c4F)c4ccc([nH]4)c(-c4cccc(S(=O)(=O)[O-])c4F)c4nc(c(-c5cccc(S(=O)(=O)[O-])c5F)c5ccc2[nH]5)C=C4)C=C3)cc1
REMARK SMILES IDX 4 1 3 2 1 3 2 4 24 6 25 7 86 8 26 9 85 10 27 11 28 12 29 13
REMARK SMILES IDX 79 14 30 15 84 16 78 17 80 18 31 19 83 20 77 21 76 22 32 24
REMARK SMILES IDX 64 25 44 26 63 27 45 28 48 29 62 30 81 31 46 32 47 33 61 35
REMARK SMILES IDX 82 36 49 37 33 38 34 39 42 40 35 41 37 42 43 43 36 44 38 45
REMARK SMILES IDX 39 46 40 47 41 48 65 49 66 50 74 51 67 52 69 53 75 54 68 55
REMARK SMILES IDX 70 56 71 57 72 58 73 59 50 60 51 61 59 62 52 63 54 64 60 65
REMARK SMILES IDX 53 66 55 67 56 68 57 69 58 70 5 71 6 72 7 73 8 74 9 76 10 77
REMARK SMILES IDX 19 78 20 79 21 80 23 81 22 82 11 83 12 84 13 85 18 86 14 87
REMARK SMILES IDX 16 88 15 89 17 90
REMARK H PARENT 3 5 80 23 48 34 7 75
REMARK Flexibility Score: inf
ROOT
ATOM      1  C   UNL     1       4.759   3.985  -1.716  1.00  0.00     0.118 C 
ENDROOT
BRANCH   1   2
ATOM      2  N   UNL     1       4.652   2.588  -2.120  1.00  0.00    -0.352 N 
ATOM      3  O   UNL     1       3.671   0.774  -3.014  1.00  0.00    -0.269 OA
ATOM      4  C   UNL     1       3.791   2.000  -3.011  1.00  0.00     0.251 C 
ATOM      5  H   UNL     1       5.293   1.977  -1.690  1.00  0.00     0.163 HD
BRANCH   4   6
ATOM      6  C   UNL     1       3.016   2.836  -3.950  1.00  0.00     0.039 A 
ATOM      7  C   UNL     1       3.611   3.949  -4.548  1.00  0.00     0.014 A 
ATOM      8  C   UNL     1       1.702   2.486  -4.272  1.00  0.00     0.014 A 
ATOM      9  C   UNL     1       2.857   4.794  -5.348  1.00  0.00     0.010 A 
ATOM     10  C   UNL     1       0.980   3.273  -5.174  1.00  0.00     0.010 A 
ATOM     11  C   UNL     1       1.551   4.437  -5.711  1.00  0.00    -0.014 A 
BRANCH  11  12
ATOM     12  C   UNL     1       0.880   5.207  -6.785  1.00  0.00     0.031 A 
ATOM     13  C   UNL     1      -0.393   5.960  -6.539  1.00  0.00     0.074 A 
ATOM     14  C   UNL     1       1.445   5.192  -8.010  1.00  0.00     0.049 A 
ATOM     15  N   UNL     1      -1.097   6.666  -7.385  1.00  0.00    -0.248 NA
ATOM     16  C   UNL     1      -0.957   5.916  -5.181  1.00  0.00     0.031 C 
ATOM     17  C   UNL     1       2.661   4.450  -8.366  1.00  0.00     0.029 A 
ATOM     18  N   UNL     1       1.076   5.796  -9.183  1.00  0.00    -0.354 N 
ATOM     19  C   UNL     1      -2.209   7.110  -6.683  1.00  0.00     0.074 A 
ATOM     20  C   UNL     1      -2.082   6.607  -5.331  1.00  0.00     0.031 C 
ATOM     21  C   UNL     1       2.940   4.650  -9.660  1.00  0.00     0.029 A 
ATOM     22  C   UNL     1       1.887   5.468 -10.244  1.00  0.00     0.049 A 
ATOM     23  H   UNL     1       0.306   6.405  -9.258  1.00  0.00     0.167 HD
ATOM     24  C   UNL     1      -3.236   7.869  -7.132  1.00  0.00     0.034 A 
ATOM     25  C   UNL     1       1.774   5.750 -11.555  1.00  0.00     0.034 A 
ATOM     26  C   UNL     1      -3.332   8.386  -8.472  1.00  0.00     0.049 A 
ATOM     27  C   UNL     1       0.620   6.592 -12.010  1.00  0.00     0.074 A 
ATOM     28  C   UNL     1      -4.283   9.247  -8.991  1.00  0.00     0.029 A 
ATOM     29  N   UNL     1      -2.472   8.068  -9.511  1.00  0.00    -0.354 N 
ATOM     30  N   UNL     1      -0.328   7.146 -11.294  1.00  0.00    -0.248 NA
ATOM     31  C   UNL     1       0.527   6.865 -13.450  1.00  0.00     0.031 C 
ATOM     32  C   UNL     1      -4.027   9.410 -10.356  1.00  0.00     0.029 A 
ATOM     33  C   UNL     1      -2.893   8.683 -10.678  1.00  0.00     0.049 A 
ATOM     34  H   UNL     1      -1.679   7.489  -9.432  1.00  0.00     0.167 HD
ATOM     35  C   UNL     1      -1.121   7.845 -12.193  1.00  0.00     0.074 A 
ATOM     36  C   UNL     1      -0.518   7.679 -13.500  1.00  0.00     0.031 C 
ATOM     37  C   UNL     1      -2.260   8.540 -11.963  1.00  0.00     0.034 A 
BRANCH  24  38
ATOM     38  C   UNL     1      -4.350   8.211  -6.179  1.00  0.00     0.023 A 
ATOM     39  C   UNL     1      -4.152   9.190  -5.187  1.00  0.00     0.012 A 
ATOM     40  C   UNL     1      -5.634   7.656  -6.359  1.00  0.00     0.148 A 
ATOM     41  C   UNL     1      -5.213   9.607  -4.382  1.00  0.00     0.002 A 
ATOM     42  C   UNL     1      -6.694   8.106  -5.582  1.00  0.00     0.091 A 
ATOM     43  F   UNL     1      -5.794   6.714  -7.300  1.00  0.00    -0.205 F 
ATOM     44  C   UNL     1      -6.484   9.076  -4.589  1.00  0.00     0.022 A 
BRANCH  42  45
ATOM     45  S   UNL     1      -8.384   7.547  -5.825  1.00  0.00     0.127 S 
ATOM     46  O   UNL     1      -8.645   6.846  -4.569  1.00  0.00    -0.237 OA
ATOM     47  O   UNL     1      -9.104   8.811  -5.979  1.00  0.00    -0.237 OA
ATOM     48  O   UNL     1      -8.365   6.703  -7.012  1.00  0.00    -0.744 OA
ENDBRANCH  42  45
ENDBRANCH  24  38
BRANCH  25  49
ATOM     49  C   UNL     1       2.767   5.210 -12.524  1.00  0.00     0.023 A 
ATOM     50  C   UNL     1       3.618   6.089 -13.218  1.00  0.00     0.012 A 
ATOM     51  C   UNL     1       2.873   3.823 -12.755  1.00  0.00     0.148 A 
ATOM     52  C   UNL     1       4.528   5.600 -14.156  1.00  0.00     0.002 A 
ATOM     53  C   UNL     1       3.826   3.339 -13.641  1.00  0.00     0.091 A 
ATOM     54  F   UNL     1       2.044   3.002 -12.096  1.00  0.00    -0.205 F 
ATOM     55  C   UNL     1       4.640   4.227 -14.360  1.00  0.00     0.022 A 
BRANCH  53  56
ATOM     56  S   UNL     1       4.130   1.582 -13.848  1.00  0.00     0.127 S 
ATOM     57  O   UNL     1       3.506   1.321 -15.142  1.00  0.00    -0.237 OA
ATOM     58  O   UNL     1       5.592   1.522 -13.844  1.00  0.00    -0.237 OA
ATOM     59  O   UNL     1       3.505   0.942 -12.698  1.00  0.00    -0.744 OA
ENDBRANCH  53  56
ENDBRANCH  25  49
BRANCH  37  60
ATOM     60  C   UNL     1      -2.924   9.188 -13.148  1.00  0.00     0.023 A 
ATOM     61  C   UNL     1      -3.582   8.387 -14.103  1.00  0.00     0.012 A 
ATOM     62  C   UNL     1      -2.950  10.589 -13.282  1.00  0.00     0.148 A 
ATOM     63  C   UNL     1      -4.228   8.970 -15.192  1.00  0.00     0.002 A 
ATOM     64  C   UNL     1      -3.640  11.166 -14.340  1.00  0.00     0.091 A 
ATOM     65  F   UNL     1      -2.304  11.330 -12.370  1.00  0.00    -0.205 F 
ATOM     66  C   UNL     1      -4.267  10.358 -15.303  1.00  0.00     0.022 A 
BRANCH  64  67
ATOM     67  S   UNL     1      -3.827  12.943 -14.518  1.00  0.00     0.127 S 
ATOM     68  O   UNL     1      -3.044  13.206 -15.724  1.00  0.00    -0.237 OA
ATOM     69  O   UNL     1      -5.274  13.084 -14.686  1.00  0.00    -0.237 OA
ATOM     70  O   UNL     1      -3.298  13.530 -13.294  1.00  0.00    -0.744 OA
ENDBRANCH  64  67
ENDBRANCH  37  60
ENDBRANCH  11  12
ENDBRANCH   4   6
ENDBRANCH   1   2
BRANCH   1  71
ATOM     71  C   UNL     1       4.256   4.203  -0.302  1.00  0.00     0.042 C 
BRANCH  71  72
ATOM     72  C   UNL     1       5.100   3.490   0.740  1.00  0.00     0.117 C 
BRANCH  72  73
ATOM     73  N   UNL     1       6.419   4.087   0.905  1.00  0.00    -0.356 N 
ATOM     74  C   UNL     1       6.973   4.755   1.960  1.00  0.00     0.223 C 
ATOM     75  H   UNL     1       7.011   3.993   0.124  1.00  0.00     0.163 HD
ATOM     76  O   UNL     1       8.152   5.103   1.866  1.00  0.00    -0.275 OA
BRANCH  74  77
ATOM     77  C   UNL     1       6.155   5.085   3.214  1.00  0.00     0.083 C 
BRANCH  77  78
ATOM     78  C   UNL     1       5.083   6.118   2.797  1.00  0.00     0.017 C 
BRANCH  78  79
ATOM     79  C   UNL     1       4.310   6.852   3.891  1.00  0.00    -0.010 C 
ATOM     80  C   UNL     1       4.346   6.462   5.384  1.00  0.00     0.003 C 
ATOM     81  C   UNL     1       4.804   8.253   4.359  1.00  0.00     0.003 C 
ATOM     82  C   UNL     1       4.147   7.943   5.722  1.00  0.00     0.001 C 
ENDBRANCH  78  79
ENDBRANCH  77  78
BRANCH  77  83
ATOM     83  C   UNL     1       5.655   3.752   3.835  1.00  0.00     0.049 C 
BRANCH  83  84
ATOM     84  C   UNL     1       5.941   3.545   5.303  1.00  0.00    -0.046 A 
ATOM     85  C   UNL     1       7.249   3.429   5.787  1.00  0.00     0.004 A 
ATOM     86  C   UNL     1       4.874   3.486   6.212  1.00  0.00     0.019 A 
ATOM     87  C   UNL     1       7.485   3.346   7.162  1.00  0.00     0.001 A 
ATOM     88  C   UNL     1       5.117   3.467   7.582  1.00  0.00     0.018 A 
ATOM     89  C   UNL     1       6.420   3.399   8.062  1.00  0.00     0.016 A 
ATOM     90  Br  UNL     1       3.666   3.621   8.784  1.00  0.00    -0.051 Br
ENDBRANCH  83  84
ENDBRANCH  77  83
ENDBRANCH  74  77
ENDBRANCH  72  73
ENDBRANCH  71  72
ENDBRANCH   1  71
TORSDOF 17
