REMARK SMILES Cc1ccc(S(=O)(=O)n2cc(C(=O)C(=O)NCC(=O)NCC(=O)NCCCNC(=O)c3ccc(-c4c5nc(c(-c6cccc(S(=O)(=O)[O-])c6F)c6ccc([nH]6)c(-c6cccc(S(=O)(=O)[O-])c6F)c6nc(c(-c7cccc(S(=O)(=O)[O-])c7F)c7ccc4[nH]7)C=C6)C=C5)cc3)c3ccccc32)cc1
REMARK SMILES IDX 22 1 23 2 24 3 21 5 20 6 18 7 19 8 17 10 16 11 14 12 15 13
REMARK SMILES IDX 12 15 13 16 11 17 9 18 10 19 99 20 94 21 98 22 95 23 97 24
REMARK SMILES IDX 96 25 6 26 7 27 8 28 5 29 1 30 2 31 3 32 101 33 4 34 100 35
REMARK SMILES IDX 25 36 26 37 27 38 28 39 29 40 30 42 31 43 32 44 93 45 33 46
REMARK SMILES IDX 92 47 34 48 35 49 36 50 86 51 37 52 91 53 85 54 87 55 38 56
REMARK SMILES IDX 90 57 84 58 83 59 39 61 71 62 51 63 70 64 52 65 55 66 69 67
REMARK SMILES IDX 88 68 53 69 54 70 68 72 89 73 56 74 40 75 41 76 49 77 42 78
REMARK SMILES IDX 44 79 50 80 43 81 45 82 46 83 47 84 48 85 72 86 73 87 81 88
REMARK SMILES IDX 74 89 76 90 82 91 75 92 77 93 78 94 79 95 80 96 57 97 58 98
REMARK SMILES IDX 66 99 59 100 61 101 67 102 60 103 62 104 63 105 64 106
REMARK SMILES IDX 65 107
REMARK H PARENT 24 4 20 9 16 14 28 41 87 60 55 71
REMARK Flexibility Score: inf
ROOT
ATOM      1  C   UNL     1     -10.085   3.504   1.018  1.00  0.00     0.239 C 
ATOM      2  O   UNL     1     -10.594   2.927   0.056  1.00  0.00    -0.273 OA
ATOM      3  N   UNL     1     -10.086   2.879   2.235  1.00  0.00    -0.355 N 
ATOM      4  H   UNL     1     -10.678   2.098   2.329  1.00  0.00     0.163 HD
ENDROOT
BRANCH   1   5
ATOM      5  C   UNL     1      -9.335   4.842   0.833  1.00  0.00     0.216 C 
BRANCH   5   6
ATOM      6  N   UNL     1      -9.768   5.888   1.748  1.00  0.00    -0.346 N 
ATOM      7  C   UNL     1      -9.105   6.688   2.624  1.00  0.00     0.239 C 
ATOM      8  O   UNL     1      -9.788   7.483   3.278  1.00  0.00    -0.273 OA
ATOM      9  H   UNL     1     -10.739   6.048   1.730  1.00  0.00     0.164 HD
BRANCH   7  10
ATOM     10  C   UNL     1      -7.576   6.689   2.784  1.00  0.00     0.216 C 
BRANCH  10  11
ATOM     11  N   UNL     1      -6.950   5.487   3.335  1.00  0.00    -0.340 N 
ATOM     12  C   UNL     1      -6.115   4.543   2.765  1.00  0.00     0.292 C 
ATOM     13  O   UNL     1      -5.758   3.577   3.430  1.00  0.00    -0.265 OA
ATOM     14  H   UNL     1      -7.160   5.320   4.282  1.00  0.00     0.164 HD
BRANCH  12  15
ATOM     15  C   UNL     1      -5.657   4.686   1.305  1.00  0.00     0.252 C 
ATOM     16  O   UNL     1      -5.838   5.774   0.766  1.00  0.00    -0.283 OA
BRANCH  15  17
ATOM     17  C   UNL     1      -5.017   3.605   0.545  1.00  0.00     0.054 A 
ATOM     18  N   UNL     1      -4.151   1.663  -0.142  1.00  0.00    -0.240 N 
ATOM     19  C   UNL     1      -4.827   2.277   0.888  1.00  0.00     0.117 A 
ATOM     20  C   UNL     1      -3.888   2.550  -1.167  1.00  0.00     0.065 A 
ATOM     21  C   UNL     1      -4.431   3.773  -0.759  1.00  0.00     0.012 A 
ATOM     22  C   UNL     1      -3.204   2.420  -2.389  1.00  0.00     0.028 A 
ATOM     23  C   UNL     1      -4.296   4.889  -1.615  1.00  0.00     0.011 A 
ATOM     24  C   UNL     1      -3.062   3.553  -3.196  1.00  0.00     0.002 A 
ATOM     25  C   UNL     1      -3.606   4.773  -2.820  1.00  0.00     0.001 A 
BRANCH  18  26
ATOM     26  S   UNL     1      -3.593   0.052  -0.100  1.00  0.00     0.268 S 
ATOM     27  O   UNL     1      -3.923  -0.501  -1.393  1.00  0.00    -0.201 OA
ATOM     28  O   UNL     1      -4.104  -0.513   1.141  1.00  0.00    -0.201 OA
BRANCH  26  29
ATOM     29  C   UNL     1      -1.821   0.089   0.029  1.00  0.00     0.088 A 
ATOM     30  C   UNL     1       2.481  -0.046   0.022  1.00  0.00     0.044 C 
ATOM     31  C   UNL     1       0.981   0.005   0.042  1.00  0.00    -0.051 A 
ATOM     32  C   UNL     1       0.240  -1.181  -0.030  1.00  0.00     0.005 A 
ATOM     33  C   UNL     1       0.306   1.228   0.138  1.00  0.00     0.005 A 
ATOM     34  C   UNL     1      -1.156  -1.141  -0.043  1.00  0.00     0.022 A 
ATOM     35  C   UNL     1      -1.091   1.273   0.144  1.00  0.00     0.022 A 
ENDBRANCH  26  29
ENDBRANCH  18  26
ENDBRANCH  15  17
ENDBRANCH  12  15
ENDBRANCH  10  11
ENDBRANCH   7  10
ENDBRANCH   5   6
ENDBRANCH   1   5
BRANCH   3  36
ATOM     36  C   UNL     1      -9.312   3.246   3.397  1.00  0.00     0.117 C 
BRANCH  36  37
ATOM     37  C   UNL     1     -10.049   4.179   4.340  1.00  0.00     0.042 C 
BRANCH  37  38
ATOM     38  C   UNL     1     -10.836   3.405   5.358  1.00  0.00     0.118 C 
BRANCH  38  39
ATOM     39  N   UNL     1     -10.068   3.058   6.532  1.00  0.00    -0.352 N 
ATOM     40  C   UNL     1     -10.536   2.651   7.767  1.00  0.00     0.251 C 
ATOM     41  H   UNL     1      -9.089   3.118   6.440  1.00  0.00     0.163 HD
ATOM     42  O   UNL     1      -9.788   2.769   8.732  1.00  0.00    -0.269 OA
BRANCH  40  43
ATOM     43  C   UNL     1     -11.824   1.903   7.860  1.00  0.00     0.039 A 
ATOM     44  C   UNL     1     -11.822   0.809   8.732  1.00  0.00     0.014 A 
ATOM     45  C   UNL     1     -12.748   1.947   6.825  1.00  0.00     0.014 A 
ATOM     46  C   UNL     1     -12.454  -0.364   8.347  1.00  0.00     0.010 A 
ATOM     47  C   UNL     1     -13.214   0.760   6.341  1.00  0.00     0.010 A 
ATOM     48  C   UNL     1     -13.000  -0.403   7.079  1.00  0.00    -0.014 A 
BRANCH  48  49
ATOM     49  C   UNL     1     -13.566  -1.559   6.436  1.00  0.00     0.031 A 
ATOM     50  C   UNL     1     -15.011  -1.758   6.634  1.00  0.00     0.074 A 
ATOM     51  C   UNL     1     -12.846  -2.086   5.422  1.00  0.00     0.049 A 
ATOM     52  N   UNL     1     -15.661  -2.771   6.202  1.00  0.00    -0.248 NA
ATOM     53  C   UNL     1     -15.854  -0.789   7.341  1.00  0.00     0.031 C 
ATOM     54  C   UNL     1     -13.332  -2.751   4.221  1.00  0.00     0.029 A 
ATOM     55  N   UNL     1     -11.476  -2.156   5.260  1.00  0.00    -0.354 N 
ATOM     56  C   UNL     1     -17.001  -2.453   6.279  1.00  0.00     0.074 A 
ATOM     57  C   UNL     1     -17.076  -1.260   7.081  1.00  0.00     0.031 C 
ATOM     58  C   UNL     1     -12.303  -3.378   3.618  1.00  0.00     0.029 A 
ATOM     59  C   UNL     1     -11.163  -3.292   4.515  1.00  0.00     0.049 A 
ATOM     60  H   UNL     1     -10.825  -1.508   5.613  1.00  0.00     0.167 HD
ATOM     61  C   UNL     1     -17.867  -3.147   5.494  1.00  0.00     0.034 A 
ATOM     62  C   UNL     1     -10.572  -4.379   5.111  1.00  0.00     0.034 A 
ATOM     63  C   UNL     1     -17.125  -4.154   4.722  1.00  0.00     0.049 A 
ATOM     64  C   UNL     1     -11.516  -5.574   5.225  1.00  0.00     0.074 A 
ATOM     65  C   UNL     1     -16.576  -4.145   3.450  1.00  0.00     0.029 A 
ATOM     66  N   UNL     1     -16.515  -5.198   5.405  1.00  0.00    -0.354 N 
ATOM     67  N   UNL     1     -12.803  -5.514   5.003  1.00  0.00    -0.248 NA
ATOM     68  C   UNL     1     -11.091  -6.934   5.546  1.00  0.00     0.031 C 
ATOM     69  C   UNL     1     -15.572  -5.152   3.400  1.00  0.00     0.029 A 
ATOM     70  C   UNL     1     -15.525  -5.785   4.631  1.00  0.00     0.049 A 
ATOM     71  H   UNL     1     -16.752  -5.482   6.317  1.00  0.00     0.167 HD
ATOM     72  C   UNL     1     -13.391  -6.731   5.214  1.00  0.00     0.074 A 
ATOM     73  C   UNL     1     -12.260  -7.602   5.493  1.00  0.00     0.031 C 
ATOM     74  C   UNL     1     -14.753  -6.903   5.169  1.00  0.00     0.034 A 
BRANCH  61  75
ATOM     75  C   UNL     1     -19.292  -2.746   5.184  1.00  0.00     0.023 A 
ATOM     76  C   UNL     1     -19.811  -3.179   3.942  1.00  0.00     0.012 A 
ATOM     77  C   UNL     1     -20.165  -1.980   5.994  1.00  0.00     0.148 A 
ATOM     78  C   UNL     1     -21.088  -2.839   3.495  1.00  0.00     0.002 A 
ATOM     79  C   UNL     1     -21.433  -1.604   5.529  1.00  0.00     0.091 A 
ATOM     80  F   UNL     1     -19.802  -1.658   7.240  1.00  0.00    -0.205 F 
ATOM     81  C   UNL     1     -21.895  -2.035   4.281  1.00  0.00     0.022 A 
BRANCH  79  82
ATOM     82  S   UNL     1     -22.540  -0.516   6.447  1.00  0.00     0.127 S 
ATOM     83  O   UNL     1     -22.881   0.495   5.442  1.00  0.00    -0.237 OA
ATOM     84  O   UNL     1     -23.640  -1.409   6.801  1.00  0.00    -0.237 OA
ATOM     85  O   UNL     1     -21.765   0.002   7.567  1.00  0.00    -0.744 OA
ENDBRANCH  79  82
ENDBRANCH  61  75
BRANCH  62  86
ATOM     86  C   UNL     1      -9.521  -3.962   6.098  1.00  0.00     0.023 A 
ATOM     87  C   UNL     1      -8.437  -3.224   5.555  1.00  0.00     0.012 A 
ATOM     88  C   UNL     1      -9.820  -3.812   7.464  1.00  0.00     0.148 A 
ATOM     89  C   UNL     1      -7.839  -2.193   6.282  1.00  0.00     0.002 A 
ATOM     90  C   UNL     1      -9.199  -2.795   8.192  1.00  0.00     0.091 A 
ATOM     91  F   UNL     1     -10.750  -4.607   8.009  1.00  0.00    -0.205 F 
ATOM     92  C   UNL     1      -8.262  -1.943   7.582  1.00  0.00     0.022 A 
BRANCH  90  93
ATOM     93  S   UNL     1      -9.647  -2.445   9.899  1.00  0.00     0.127 S 
ATOM     94  O   UNL     1      -8.631  -3.195  10.631  1.00  0.00    -0.237 OA
ATOM     95  O   UNL     1      -9.501  -0.993   9.978  1.00  0.00    -0.237 OA
ATOM     96  O   UNL     1     -11.016  -2.918  10.039  1.00  0.00    -0.744 OA
ENDBRANCH  90  93
ENDBRANCH  62  86
BRANCH  74  97
ATOM     97  C   UNL     1     -15.521  -8.132   5.638  1.00  0.00     0.023 A 
ATOM     98  C   UNL     1     -14.945  -9.118   6.457  1.00  0.00     0.012 A 
ATOM     99  C   UNL     1     -16.919  -8.256   5.396  1.00  0.00     0.148 A 
ATOM    100  C   UNL     1     -15.689 -10.191   6.962  1.00  0.00     0.002 A 
ATOM    101  C   UNL     1     -17.680  -9.236   6.023  1.00  0.00     0.091 A 
ATOM    102  F   UNL     1     -17.532  -7.440   4.526  1.00  0.00    -0.205 F 
ATOM    103  C   UNL     1     -17.062 -10.232   6.774  1.00  0.00     0.022 A 
BRANCH 101 104
ATOM    104  S   UNL     1     -19.477  -9.151   6.042  1.00  0.00     0.127 S 
ATOM    105  O   UNL     1     -19.835 -10.086   4.978  1.00  0.00    -0.237 OA
ATOM    106  O   UNL     1     -19.793  -9.616   7.394  1.00  0.00    -0.237 OA
ATOM    107  O   UNL     1     -19.796  -7.751   5.804  1.00  0.00    -0.744 OA
ENDBRANCH 101 104
ENDBRANCH  74  97
ENDBRANCH  48  49
ENDBRANCH  40  43
ENDBRANCH  38  39
ENDBRANCH  37  38
ENDBRANCH  36  37
ENDBRANCH   3  36
TORSDOF 20
