REMARK SMILES O=C(C[C@H]1S/C(=[NH+]\N=C\c2cc(Br)ccc2OCc2ccccc2)NC1=O)NCCCNC(=O)c1ccc(-c2c3nc(c(-c4cccc(S(=O)(=O)[O-])c4F)c4ccc([nH]4)c(-c4cccc(S(=O)(=O)[O-])c4F)c4nc(c(-c5cccc(S(=O)(=O)[O-])c5F)c5ccc2[nH]5)C=C4)C=C3)cc1
REMARK SMILES IDX 1 1 2 2 28 3 3 5 4 6 5 7 26 8 6 9 25 10 27 11 7 12 8 15 9 16
REMARK SMILES IDX 10 17 11 18 16 19 12 20 15 21 13 22 14 23 17 24 18 25 19 26
REMARK SMILES IDX 20 27 24 28 21 29 23 30 22 31 29 32 30 33 31 34 32 35 33 36
REMARK SMILES IDX 34 38 35 39 36 40 97 41 37 42 96 43 38 44 39 45 40 46 90 47
REMARK SMILES IDX 41 48 95 49 89 50 91 51 42 52 94 53 88 54 87 55 43 57 75 58
REMARK SMILES IDX 55 59 74 60 56 61 59 62 73 63 92 64 57 65 58 66 72 68 93 69
REMARK SMILES IDX 60 70 44 71 45 72 53 73 46 74 48 75 54 76 47 77 49 78 50 79
REMARK SMILES IDX 51 80 52 81 76 82 77 83 85 84 78 85 80 86 86 87 79 88 81 89
REMARK SMILES IDX 82 90 83 91 84 92 61 93 62 94 70 95 63 96 65 97 71 98 64 99
REMARK SMILES IDX 66 100 67 101 68 102 69 103
REMARK H PARENT 28 4 25 13 7 14 32 37 91 56 59 67
REMARK Flexibility Score: inf
ROOT
ATOM      1  O   UNL     1       0.986   0.277  -0.464  1.00  0.00    -0.275 OA
ATOM      2  C   UNL     1       2.139  -0.008  -0.161  1.00  0.00     0.221 C 
ATOM      3  N   UNL     1       2.704   0.260   1.065  1.00  0.00    -0.356 N 
ATOM      4  H   UNL     1       3.636  -0.020   1.217  1.00  0.00     0.163 HD
ENDROOT
BRANCH   2   5
ATOM      5  C   UNL     1       3.089  -0.671  -1.141  1.00  0.00     0.127 C 
BRANCH   5   6
ATOM      6  C   UNL     1       4.060   0.279  -1.838  1.00  0.00     0.183 C 
ATOM      7  S   UNL     1       3.478   0.852  -3.477  1.00  0.00    -0.020 SA
ATOM      8  C   UNL     1       4.332   1.552  -1.061  1.00  0.00     0.322 C 
ATOM      9  C   UNL     1       3.591   2.527  -3.038  1.00  0.00     0.337 C 
ATOM     10  N   UNL     1       3.948   2.664  -1.741  1.00  0.00    -0.202 N 
ATOM     11  O   UNL     1       4.862   1.579   0.044  1.00  0.00    -0.246 OA
ATOM     12  N   UNL     1       3.416   3.582  -3.758  1.00  0.00    -0.142 N 
ATOM     13  H   UNL     1       3.930   3.545  -1.301  1.00  0.00     0.316 HD
ATOM     14  H   UNL     1       3.374   4.482  -3.361  1.00  0.00     0.343 HD
BRANCH  12  15
ATOM     15  N   UNL     1       3.288   3.375  -5.131  1.00  0.00    -0.093 NA
ATOM     16  C   UNL     1       2.323   4.089  -5.612  1.00  0.00     0.170 C 
BRANCH  16  17
ATOM     17  C   UNL     1       2.120   4.236  -7.053  1.00  0.00     0.040 A 
ATOM     18  C   UNL     1       1.299   3.258  -7.634  1.00  0.00     0.029 A 
ATOM     19  C   UNL     1       2.637   5.292  -7.820  1.00  0.00     0.128 A 
ATOM     20  C   UNL     1       0.997   3.325  -8.991  1.00  0.00     0.018 A 
ATOM     21  C   UNL     1       2.339   5.313  -9.193  1.00  0.00     0.048 A 
ATOM     22  Br  UNL     1      -0.145   2.035  -9.767  1.00  0.00    -0.051 Br
ATOM     23  C   UNL     1       1.520   4.344  -9.778  1.00  0.00     0.019 A 
BRANCH  19  24
ATOM     24  O   UNL     1       3.388   6.378  -7.465  1.00  0.00    -0.488 OA
BRANCH  24  25
ATOM     25  C   UNL     1       3.659   6.725  -6.105  1.00  0.00     0.265 C 
BRANCH  25  26
ATOM     26  C   UNL     1       2.441   7.132  -5.302  1.00  0.00    -0.011 A 
ATOM     27  C   UNL     1       2.453   6.959  -3.909  1.00  0.00     0.007 A 
ATOM     28  C   UNL     1       1.273   7.608  -5.914  1.00  0.00     0.007 A 
ATOM     29  C   UNL     1       1.289   7.144  -3.163  1.00  0.00     0.000 A 
ATOM     30  C   UNL     1       0.110   7.792  -5.167  1.00  0.00     0.000 A 
ATOM     31  C   UNL     1       0.113   7.539  -3.797  1.00  0.00     0.000 A 
ENDBRANCH  25  26
ENDBRANCH  24  25
ENDBRANCH  19  24
ENDBRANCH  16  17
ENDBRANCH  12  15
ENDBRANCH   5   6
ENDBRANCH   2   5
BRANCH   3  32
ATOM     32  C   UNL     1       2.006   0.930   2.144  1.00  0.00     0.117 C 
BRANCH  32  33
ATOM     33  C   UNL     1       2.330   0.329   3.508  1.00  0.00     0.042 C 
BRANCH  33  34
ATOM     34  C   UNL     1       3.807   0.338   3.901  1.00  0.00     0.118 C 
BRANCH  34  35
ATOM     35  N   UNL     1       4.367   1.672   4.047  1.00  0.00    -0.352 N 
ATOM     36  C   UNL     1       5.134   2.200   5.060  1.00  0.00     0.251 C 
ATOM     37  H   UNL     1       4.168   2.291   3.308  1.00  0.00     0.163 HD
ATOM     38  O   UNL     1       5.401   3.400   5.044  1.00  0.00    -0.269 OA
BRANCH  36  39
ATOM     39  C   UNL     1       5.621   1.354   6.178  1.00  0.00     0.039 A 
ATOM     40  C   UNL     1       5.608   1.884   7.472  1.00  0.00     0.014 A 
ATOM     41  C   UNL     1       6.118   0.064   5.968  1.00  0.00     0.014 A 
ATOM     42  C   UNL     1       6.035   1.104   8.553  1.00  0.00     0.010 A 
ATOM     43  C   UNL     1       6.469  -0.740   7.056  1.00  0.00     0.010 A 
ATOM     44  C   UNL     1       6.438  -0.229   8.362  1.00  0.00    -0.014 A 
BRANCH  44  45
ATOM     45  C   UNL     1       6.792  -1.088   9.526  1.00  0.00     0.031 A 
ATOM     46  C   UNL     1       8.175  -1.666   9.680  1.00  0.00     0.074 A 
ATOM     47  C   UNL     1       5.842  -1.394  10.434  1.00  0.00     0.049 A 
ATOM     48  N   UNL     1       8.660  -2.394  10.655  1.00  0.00    -0.248 NA
ATOM     49  C   UNL     1       9.133  -1.420   8.590  1.00  0.00     0.031 C 
ATOM     50  C   UNL     1       4.437  -0.988  10.355  1.00  0.00     0.029 A 
ATOM     51  N   UNL     1       5.909  -2.127  11.594  1.00  0.00    -0.354 N 
ATOM     52  C   UNL     1       9.962  -2.713  10.287  1.00  0.00     0.074 A 
ATOM     53  C   UNL     1      10.180  -2.133   8.979  1.00  0.00     0.031 C 
ATOM     54  C   UNL     1       3.782  -1.456  11.429  1.00  0.00     0.029 A 
ATOM     55  C   UNL     1       4.710  -2.214  12.262  1.00  0.00     0.049 A 
ATOM     56  H   UNL     1       6.737  -2.550  11.916  1.00  0.00     0.167 HD
ATOM     57  C   UNL     1      10.903  -3.397  10.983  1.00  0.00     0.034 A 
ATOM     58  C   UNL     1       4.391  -2.825  13.420  1.00  0.00     0.034 A 
ATOM     59  C   UNL     1      10.700  -3.944  12.300  1.00  0.00     0.049 A 
ATOM     60  C   UNL     1       5.471  -3.518  14.205  1.00  0.00     0.074 A 
ATOM     61  C   UNL     1      11.617  -4.575  13.122  1.00  0.00     0.029 A 
ATOM     62  N   UNL     1       9.495  -3.934  12.985  1.00  0.00    -0.354 N 
ATOM     63  N   UNL     1       6.742  -3.655  13.919  1.00  0.00    -0.248 NA
ATOM     64  C   UNL     1       5.080  -4.102  15.497  1.00  0.00     0.031 C 
ATOM     65  C   UNL     1      10.961  -4.968  14.294  1.00  0.00     0.029 A 
ATOM     66  C   UNL     1       9.642  -4.553  14.216  1.00  0.00     0.049 A 
ATOM     67  H   UNL     1       8.656  -3.544  12.646  1.00  0.00     0.167 HD
ATOM     68  C   UNL     1       7.310  -4.306  15.009  1.00  0.00     0.074 A 
ATOM     69  C   UNL     1       6.248  -4.509  15.972  1.00  0.00     0.031 C 
ATOM     70  C   UNL     1       8.592  -4.712  15.189  1.00  0.00     0.034 A 
BRANCH  57  71
ATOM     71  C   UNL     1      12.269  -3.545  10.357  1.00  0.00     0.023 A 
ATOM     72  C   UNL     1      13.106  -2.416  10.242  1.00  0.00     0.012 A 
ATOM     73  C   UNL     1      12.750  -4.803   9.945  1.00  0.00     0.148 A 
ATOM     74  C   UNL     1      14.383  -2.528   9.694  1.00  0.00     0.002 A 
ATOM     75  C   UNL     1      14.042  -4.916   9.442  1.00  0.00     0.091 A 
ATOM     76  F   UNL     1      11.936  -5.864  10.044  1.00  0.00    -0.205 F 
ATOM     77  C   UNL     1      14.854  -3.778   9.304  1.00  0.00     0.022 A 
BRANCH  75  78
ATOM     78  S   UNL     1      14.773  -6.493   8.988  1.00  0.00     0.127 S 
ATOM     79  O   UNL     1      14.830  -6.383   7.531  1.00  0.00    -0.237 OA
ATOM     80  O   UNL     1      16.075  -6.432   9.655  1.00  0.00    -0.237 OA
ATOM     81  O   UNL     1      13.874  -7.516   9.503  1.00  0.00    -0.744 OA
ENDBRANCH  75  78
ENDBRANCH  57  71
BRANCH  58  82
ATOM     82  C   UNL     1       3.001  -2.735  13.951  1.00  0.00     0.023 A 
ATOM     83  C   UNL     1       2.746  -1.962  15.101  1.00  0.00     0.012 A 
ATOM     84  C   UNL     1       1.930  -3.389  13.313  1.00  0.00     0.148 A 
ATOM     85  C   UNL     1       1.457  -1.872  15.627  1.00  0.00     0.002 A 
ATOM     86  C   UNL     1       0.639  -3.247  13.808  1.00  0.00     0.091 A 
ATOM     87  F   UNL     1       2.195  -4.128  12.226  1.00  0.00    -0.205 F 
ATOM     88  C   UNL     1       0.403  -2.505  14.975  1.00  0.00     0.022 A 
BRANCH  86  89
ATOM     89  S   UNL     1      -0.795  -3.914  12.957  1.00  0.00     0.127 S 
ATOM     90  O   UNL     1      -1.191  -5.003  13.846  1.00  0.00    -0.237 OA
ATOM     91  O   UNL     1      -1.701  -2.765  12.947  1.00  0.00    -0.237 OA
ATOM     92  O   UNL     1      -0.319  -4.313  11.639  1.00  0.00    -0.744 OA
ENDBRANCH  86  89
ENDBRANCH  58  82
BRANCH  70  93
ATOM     93  C   UNL     1       8.928  -5.389  16.494  1.00  0.00     0.023 A 
ATOM     94  C   UNL     1       8.431  -6.680  16.767  1.00  0.00     0.012 A 
ATOM     95  C   UNL     1       9.765  -4.761  17.436  1.00  0.00     0.148 A 
ATOM     96  C   UNL     1       8.719  -7.311  17.977  1.00  0.00     0.002 A 
ATOM     97  C   UNL     1      10.092  -5.418  18.617  1.00  0.00     0.091 A 
ATOM     98  F   UNL     1      10.215  -3.525  17.172  1.00  0.00    -0.205 F 
ATOM     99  C   UNL     1       9.556  -6.685  18.897  1.00  0.00     0.022 A 
BRANCH  97 100
ATOM    100  S   UNL     1      11.241  -4.724  19.811  1.00  0.00     0.127 S 
ATOM    101  O   UNL     1      10.335  -4.237  20.850  1.00  0.00    -0.237 OA
ATOM    102  O   UNL     1      12.036  -5.891  20.195  1.00  0.00    -0.237 OA
ATOM    103  O   UNL     1      11.987  -3.699  19.094  1.00  0.00    -0.744 OA
ENDBRANCH  97 100
ENDBRANCH  70  93
ENDBRANCH  44  45
ENDBRANCH  36  39
ENDBRANCH  34  35
ENDBRANCH  33  34
ENDBRANCH  32  33
ENDBRANCH   3  32
TORSDOF 19
