REMARK SMILES Nc1oc2ccc(F)cc2c(=O)c1[C@@H]1[NH2+][C@H](C(=O)NCCCNC(=O)c2ccc(-c3c4nc(c(-c5cccc(S(=O)(=O)[O-])c5F)c5ccc([nH]5)c(-c5cccc(S(=O)(=O)[O-])c5F)c5nc(c(-c6cccc(S(=O)(=O)[O-])c6F)c6ccc3[nH]6)C=C5)C=C4)cc2)CS1
REMARK SMILES IDX 21 1 20 2 19 3 17 4 18 5 16 7 14 8 15 9 90 10 89 13 13 14
REMARK SMILES IDX 2 15 3 16 4 17 11 18 5 19 10 20 12 21 6 22 9 23 7 24 8 25
REMARK SMILES IDX 1 26 22 29 23 30 24 31 25 33 26 34 27 35 88 36 28 37 87 38
REMARK SMILES IDX 29 39 30 40 31 41 81 42 32 43 86 44 80 45 82 46 33 47 85 48
REMARK SMILES IDX 79 49 78 50 34 52 66 53 46 54 65 55 47 56 50 57 64 58 83 59
REMARK SMILES IDX 48 60 49 61 63 63 84 64 51 65 35 66 36 67 44 68 37 69 39 70
REMARK SMILES IDX 45 71 38 72 40 73 41 74 42 75 43 76 67 77 68 78 76 79 69 80
REMARK SMILES IDX 71 81 77 82 70 83 72 84 73 85 74 86 75 87 52 88 53 89 61 90
REMARK SMILES IDX 54 91 56 92 62 93 55 94 57 95 58 96 59 97 60 98
REMARK H PARENT 19 6 15 11 15 12 1 27 1 28 23 32 82 51 50 62
REMARK Flexibility Score: inf
ROOT
ATOM      1  C   UNL     1      -0.095  -2.178   1.352  1.00  0.00     0.042 C 
ENDROOT
BRANCH   1   2
ATOM      2  C   UNL     1       0.621  -1.747   0.028  1.00  0.00     0.118 C 
BRANCH   2   3
ATOM      3  N   UNL     1       0.156  -0.481  -0.569  1.00  0.00    -0.351 N 
ATOM      4  C   UNL     1       0.591   0.723  -1.031  1.00  0.00     0.279 C 
ATOM      5  O   UNL     1      -0.255   1.230  -1.798  1.00  0.00    -0.268 OA
ATOM      6  H   UNL     1      -0.822  -0.521  -0.671  1.00  0.00     0.163 HD
BRANCH   4   7
ATOM      7  C   UNL     1       1.906   1.577  -0.797  1.00  0.00     0.283 C 
ATOM      8  C   UNL     1       2.058   3.132   1.134  1.00  0.00     0.283 C 
ATOM      9  N   UNL     1       1.568   2.949  -0.254  1.00  0.00    -0.320 N 
ATOM     10  S   UNL     1       3.641   2.225   1.180  1.00  0.00    -0.087 SA
ATOM     11  H   UNL     1       1.998   3.654  -0.852  1.00  0.00     0.348 HD
ATOM     12  H   UNL     1       0.552   3.043  -0.246  1.00  0.00     0.348 HD
ATOM     13  C   UNL     1       3.210   1.085  -0.193  1.00  0.00     0.151 C 
BRANCH   8  14
ATOM     14  C   UNL     1       1.025   2.668   2.114  1.00  0.00     0.128 A 
ATOM     15  C   UNL     1       0.651   1.393   2.223  1.00  0.00     0.205 A 
ATOM     16  O   UNL     1      -0.690   1.075   2.305  1.00  0.00    -0.440 OA
ATOM     17  C   UNL     1      -1.316   1.702   3.339  1.00  0.00     0.140 A 
ATOM     18  C   UNL     1       0.323   3.519   3.112  1.00  0.00     0.205 A 
ATOM     19  C   UNL     1      -2.386   1.034   3.905  1.00  0.00     0.051 A 
ATOM     20  C   UNL     1      -0.743   2.838   3.910  1.00  0.00     0.068 A 
ATOM     21  O   UNL     1       0.668   4.673   3.346  1.00  0.00    -0.288 OA
ATOM     22  C   UNL     1      -2.762   1.389   5.186  1.00  0.00     0.043 A 
ATOM     23  C   UNL     1      -1.104   3.179   5.206  1.00  0.00     0.055 A 
ATOM     24  C   UNL     1      -2.081   2.412   5.845  1.00  0.00     0.124 A 
ATOM     25  F   UNL     1      -2.346   2.633   7.137  1.00  0.00    -0.207 F 
BRANCH  15  26
ATOM     26  N   UNL     1       1.507   0.356   2.103  1.00  0.00    -0.369 N 
ATOM     27  H   UNL     1       1.177  -0.567   2.192  1.00  0.00     0.159 HD
ATOM     28  H   UNL     1       2.461   0.523   1.925  1.00  0.00     0.159 HD
ENDBRANCH  15  26
ENDBRANCH   8  14
ENDBRANCH   4   7
ENDBRANCH   2   3
ENDBRANCH   1   2
BRANCH   1  29
ATOM     29  C   UNL     1      -1.572  -2.607   1.294  1.00  0.00     0.118 C 
BRANCH  29  30
ATOM     30  N   UNL     1      -1.777  -3.791   2.136  1.00  0.00    -0.352 N 
ATOM     31  C   UNL     1      -2.208  -4.021   3.422  1.00  0.00     0.251 C 
ATOM     32  H   UNL     1      -1.550  -4.625   1.665  1.00  0.00     0.163 HD
ATOM     33  O   UNL     1      -1.859  -5.096   3.919  1.00  0.00    -0.269 OA
BRANCH  31  34
ATOM     34  C   UNL     1      -3.074  -3.118   4.236  1.00  0.00     0.039 A 
ATOM     35  C   UNL     1      -4.021  -2.256   3.693  1.00  0.00     0.014 A 
ATOM     36  C   UNL     1      -3.065  -3.277   5.637  1.00  0.00     0.014 A 
ATOM     37  C   UNL     1      -4.872  -1.510   4.539  1.00  0.00     0.010 A 
ATOM     38  C   UNL     1      -3.961  -2.579   6.474  1.00  0.00     0.010 A 
ATOM     39  C   UNL     1      -4.865  -1.653   5.947  1.00  0.00    -0.014 A 
BRANCH  39  40
ATOM     40  C   UNL     1      -5.820  -0.862   6.810  1.00  0.00     0.031 A 
ATOM     41  C   UNL     1      -5.355   0.062   7.928  1.00  0.00     0.074 A 
ATOM     42  C   UNL     1      -7.150  -0.924   6.573  1.00  0.00     0.049 A 
ATOM     43  N   UNL     1      -6.055   0.946   8.604  1.00  0.00    -0.248 NA
ATOM     44  C   UNL     1      -3.940   0.015   8.325  1.00  0.00     0.031 C 
ATOM     45  C   UNL     1      -7.789  -1.804   5.595  1.00  0.00     0.029 A 
ATOM     46  N   UNL     1      -8.204  -0.230   7.127  1.00  0.00    -0.354 N 
ATOM     47  C   UNL     1      -5.164   1.578   9.468  1.00  0.00     0.074 A 
ATOM     48  C   UNL     1      -3.877   0.953   9.264  1.00  0.00     0.031 C 
ATOM     49  C   UNL     1      -9.108  -1.564   5.580  1.00  0.00     0.029 A 
ATOM     50  C   UNL     1      -9.428  -0.551   6.583  1.00  0.00     0.049 A 
ATOM     51  H   UNL     1      -8.092   0.434   7.845  1.00  0.00     0.167 HD
ATOM     52  C   UNL     1      -5.375   2.603  10.331  1.00  0.00     0.034 A 
ATOM     53  C   UNL     1     -10.674  -0.106   6.851  1.00  0.00     0.034 A 
ATOM     54  C   UNL     1      -6.649   3.217  10.597  1.00  0.00     0.049 A 
ATOM     55  C   UNL     1     -10.902   0.949   7.894  1.00  0.00     0.074 A 
ATOM     56  C   UNL     1      -6.926   4.272  11.453  1.00  0.00     0.029 A 
ATOM     57  N   UNL     1      -7.856   2.818  10.055  1.00  0.00    -0.354 N 
ATOM     58  N   UNL     1     -10.016   1.624   8.582  1.00  0.00    -0.248 NA
ATOM     59  C   UNL     1     -12.297   1.313   8.192  1.00  0.00     0.031 C 
ATOM     60  C   UNL     1      -8.306   4.485  11.459  1.00  0.00     0.029 A 
ATOM     61  C   UNL     1      -8.884   3.580  10.585  1.00  0.00     0.049 A 
ATOM     62  H   UNL     1      -7.968   2.100   9.391  1.00  0.00     0.167 HD
ATOM     63  C   UNL     1     -10.743   2.503   9.378  1.00  0.00     0.074 A 
ATOM     64  C   UNL     1     -12.142   2.285   9.084  1.00  0.00     0.031 C 
ATOM     65  C   UNL     1     -10.277   3.401  10.277  1.00  0.00     0.034 A 
BRANCH  52  66
ATOM     66  C   UNL     1      -4.190   3.207  11.041  1.00  0.00     0.023 A 
ATOM     67  C   UNL     1      -3.447   4.204  10.377  1.00  0.00     0.012 A 
ATOM     68  C   UNL     1      -3.934   2.939  12.400  1.00  0.00     0.148 A 
ATOM     69  C   UNL     1      -2.474   4.935  11.059  1.00  0.00     0.002 A 
ATOM     70  C   UNL     1      -2.974   3.684  13.078  1.00  0.00     0.091 A 
ATOM     71  F   UNL     1      -4.657   1.988  13.008  1.00  0.00    -0.205 F 
ATOM     72  C   UNL     1      -2.246   4.684  12.409  1.00  0.00     0.022 A 
BRANCH  70  73
ATOM     73  S   UNL     1      -2.631   3.475  14.829  1.00  0.00     0.127 S 
ATOM     74  O   UNL     1      -1.243   3.015  14.805  1.00  0.00    -0.237 OA
ATOM     75  O   UNL     1      -2.815   4.832  15.344  1.00  0.00    -0.237 OA
ATOM     76  O   UNL     1      -3.595   2.497  15.316  1.00  0.00    -0.744 OA
ENDBRANCH  70  73
ENDBRANCH  52  66
BRANCH  53  77
ATOM     77  C   UNL     1     -11.817  -0.662   6.074  1.00  0.00     0.023 A 
ATOM     78  C   UNL     1     -12.438   0.126   5.087  1.00  0.00     0.012 A 
ATOM     79  C   UNL     1     -12.229  -1.996   6.255  1.00  0.00     0.148 A 
ATOM     80  C   UNL     1     -13.446  -0.412   4.285  1.00  0.00     0.002 A 
ATOM     81  C   UNL     1     -13.194  -2.541   5.419  1.00  0.00     0.091 A 
ATOM     82  F   UNL     1     -11.635  -2.715   7.219  1.00  0.00    -0.205 F 
ATOM     83  C   UNL     1     -13.811  -1.748   4.439  1.00  0.00     0.022 A 
BRANCH  81  84
ATOM     84  S   UNL     1     -13.627  -4.283   5.457  1.00  0.00     0.127 S 
ATOM     85  O   UNL     1     -15.008  -4.237   5.930  1.00  0.00    -0.237 OA
ATOM     86  O   UNL     1     -13.467  -4.661   4.053  1.00  0.00    -0.237 OA
ATOM     87  O   UNL     1     -12.672  -4.908   6.362  1.00  0.00    -0.744 OA
ENDBRANCH  81  84
ENDBRANCH  53  77
BRANCH  65  88
ATOM     88  C   UNL     1     -11.264   4.249  11.032  1.00  0.00     0.023 A 
ATOM     89  C   UNL     1     -11.940   3.701  12.139  1.00  0.00     0.012 A 
ATOM     90  C   UNL     1     -11.409   5.619  10.737  1.00  0.00     0.148 A 
ATOM     91  C   UNL     1     -12.750   4.506  12.941  1.00  0.00     0.002 A 
ATOM     92  C   UNL     1     -12.191   6.421  11.559  1.00  0.00     0.091 A 
ATOM     93  F   UNL     1     -10.755   6.114   9.676  1.00  0.00    -0.205 F 
ATOM     94  C   UNL     1     -12.865   5.866  12.659  1.00  0.00     0.022 A 
BRANCH  92  95
ATOM     95  S   UNL     1     -12.348   8.196  11.324  1.00  0.00     0.127 S 
ATOM     96  O   UNL     1     -13.774   8.333  11.031  1.00  0.00    -0.237 OA
ATOM     97  O   UNL     1     -11.939   8.717  12.628  1.00  0.00    -0.237 OA
ATOM     98  O   UNL     1     -11.459   8.539  10.222  1.00  0.00    -0.744 OA
ENDBRANCH  92  95
ENDBRANCH  65  88
ENDBRANCH  39  40
ENDBRANCH  31  34
ENDBRANCH  29  30
ENDBRANCH   1  29
TORSDOF 15
