REMARK SMILES C[C@@](NC(=O)[C@H]1COc2ccccc21)(C(=O)NCCCNC(=O)c1ccc(-c2c3nc(c(-c4cccc(S(=O)(=O)[O-])c4F)c4ccc([nH]4)c(-c4cccc(S(=O)(=O)[O-])c4F)c4nc(c(-c5cccc(S(=O)(=O)[O-])c5F)c5ccc2[nH]5)C=C4)C=C3)cc1)C(F)(F)F
REMARK SMILES IDX 19 1 18 2 17 3 15 4 16 5 2 7 1 8 3 9 4 10 5 12 6 13 7 14
REMARK SMILES IDX 14 15 8 16 9 17 13 18 10 19 12 20 11 21 87 22 88 23 89 24
REMARK SMILES IDX 90 25 20 26 21 27 22 28 23 30 24 31 25 32 86 33 26 34 85 35
REMARK SMILES IDX 27 36 28 37 29 38 79 39 30 40 84 41 78 42 80 43 31 44 83 45
REMARK SMILES IDX 77 46 76 47 32 49 64 50 44 51 63 52 45 53 48 54 62 55 81 56
REMARK SMILES IDX 46 57 47 58 61 60 82 61 49 62 33 63 34 64 42 65 35 66 37 67
REMARK SMILES IDX 43 68 36 69 38 70 39 71 40 72 41 73 65 74 66 75 74 76 67 77
REMARK SMILES IDX 69 78 75 79 68 80 70 81 71 82 72 83 73 84 50 85 51 86 59 87
REMARK SMILES IDX 52 88 54 89 60 90 53 91 55 92 56 93 57 94 58 95
REMARK H PARENT 17 6 3 11 21 29 80 48 48 59
REMARK Flexibility Score: inf
ROOT
ATOM      1  C   UNL     1      -1.542   1.587   2.323  1.00  0.00     0.042 C 
ENDROOT
BRANCH   1   2
ATOM      2  C   UNL     1      -0.779   0.478   1.623  1.00  0.00     0.117 C 
BRANCH   2   3
ATOM      3  N   UNL     1      -1.274   0.125   0.308  1.00  0.00    -0.354 N 
ATOM      4  C   UNL     1      -0.811  -0.828  -0.552  1.00  0.00     0.254 C 
ATOM      5  O   UNL     1      -1.562  -1.132  -1.481  1.00  0.00    -0.272 OA
ATOM      6  H   UNL     1      -2.049   0.643  -0.008  1.00  0.00     0.163 HD
BRANCH   4   7
ATOM      7  C   UNL     1       0.590  -1.437  -0.393  1.00  0.00     0.212 C 
ATOM      8  C   UNL     1       1.623  -0.299  -0.592  1.00  0.00     0.056 C 
BRANCH   7   9
ATOM      9  N   UNL     1       0.862  -2.083   0.944  1.00  0.00    -0.334 N 
ATOM     10  C   UNL     1       0.217  -3.125   1.562  1.00  0.00     0.232 C 
ATOM     11  H   UNL     1       1.615  -1.699   1.448  1.00  0.00     0.164 HD
ATOM     12  O   UNL     1       0.938  -3.967   2.103  1.00  0.00    -0.274 OA
BRANCH  10  13
ATOM     13  C   UNL     1      -1.296  -3.149   1.704  1.00  0.00     0.150 C 
ATOM     14  C   UNL     1      -1.904  -4.516   1.367  1.00  0.00     0.248 C 
ATOM     15  C   UNL     1      -1.781  -3.030   3.120  1.00  0.00     0.010 A 
ATOM     16  O   UNL     1      -2.986  -4.815   2.286  1.00  0.00    -0.492 OA
ATOM     17  C   UNL     1      -2.780  -3.965   3.338  1.00  0.00     0.123 A 
ATOM     18  C   UNL     1      -1.463  -2.117   4.117  1.00  0.00     0.008 A 
ATOM     19  C   UNL     1      -3.523  -3.993   4.505  1.00  0.00     0.047 A 
ATOM     20  C   UNL     1      -2.217  -2.111   5.293  1.00  0.00     0.001 A 
ATOM     21  C   UNL     1      -3.249  -3.037   5.483  1.00  0.00     0.004 A 
ENDBRANCH  10  13
ENDBRANCH   7   9
BRANCH   7  22
ATOM     22  C   UNL     1       0.800  -2.416  -1.574  1.00  0.00     0.420 C 
ATOM     23  F   UNL     1       0.669  -1.825  -2.783  1.00  0.00    -0.168 F 
ATOM     24  F   UNL     1       2.067  -2.915  -1.535  1.00  0.00    -0.168 F 
ATOM     25  F   UNL     1      -0.031  -3.480  -1.518  1.00  0.00    -0.168 F 
ENDBRANCH   7  22
ENDBRANCH   4   7
ENDBRANCH   2   3
ENDBRANCH   1   2
BRANCH   1  26
ATOM     26  C   UNL     1      -3.057   1.440   2.333  1.00  0.00     0.118 C 
BRANCH  26  27
ATOM     27  N   UNL     1      -3.582   0.572   3.379  1.00  0.00    -0.352 N 
ATOM     28  C   UNL     1      -4.254   0.909   4.533  1.00  0.00     0.251 C 
ATOM     29  H   UNL     1      -3.436  -0.392   3.241  1.00  0.00     0.163 HD
ATOM     30  O   UNL     1      -4.582   0.053   5.352  1.00  0.00    -0.269 OA
BRANCH  28  31
ATOM     31  C   UNL     1      -4.554   2.323   4.813  1.00  0.00     0.039 A 
ATOM     32  C   UNL     1      -4.210   2.861   6.056  1.00  0.00     0.014 A 
ATOM     33  C   UNL     1      -5.145   3.119   3.833  1.00  0.00     0.014 A 
ATOM     34  C   UNL     1      -4.391   4.225   6.285  1.00  0.00     0.010 A 
ATOM     35  C   UNL     1      -5.202   4.490   4.016  1.00  0.00     0.010 A 
ATOM     36  C   UNL     1      -4.852   5.054   5.252  1.00  0.00    -0.014 A 
BRANCH  36  37
ATOM     37  C   UNL     1      -5.034   6.514   5.426  1.00  0.00     0.031 A 
ATOM     38  C   UNL     1      -6.403   7.103   5.216  1.00  0.00     0.074 A 
ATOM     39  C   UNL     1      -3.963   7.304   5.634  1.00  0.00     0.049 A 
ATOM     40  N   UNL     1      -6.759   8.356   5.130  1.00  0.00    -0.248 NA
ATOM     41  C   UNL     1      -7.513   6.151   5.022  1.00  0.00     0.031 C 
ATOM     42  C   UNL     1      -2.581   6.841   5.780  1.00  0.00     0.029 A 
ATOM     43  N   UNL     1      -3.865   8.670   5.714  1.00  0.00    -0.354 N 
ATOM     44  C   UNL     1      -8.113   8.341   4.815  1.00  0.00     0.074 A 
ATOM     45  C   UNL     1      -8.506   6.958   4.683  1.00  0.00     0.031 C 
ATOM     46  C   UNL     1      -1.774   7.904   5.928  1.00  0.00     0.029 A 
ATOM     47  C   UNL     1      -2.572   9.121   5.844  1.00  0.00     0.049 A 
ATOM     48  H   UNL     1      -4.645   9.270   5.683  1.00  0.00     0.167 HD
ATOM     49  C   UNL     1      -8.959   9.388   4.675  1.00  0.00     0.034 A 
ATOM     50  C   UNL     1      -2.087  10.378   5.869  1.00  0.00     0.034 A 
ATOM     51  C   UNL     1      -8.561  10.754   4.867  1.00  0.00     0.049 A 
ATOM     52  C   UNL     1      -3.056  11.524   5.768  1.00  0.00     0.074 A 
ATOM     53  C   UNL     1      -9.348  11.891   4.849  1.00  0.00     0.029 A 
ATOM     54  N   UNL     1      -7.260  11.168   5.111  1.00  0.00    -0.354 N 
ATOM     55  N   UNL     1      -4.357  11.491   5.604  1.00  0.00    -0.248 NA
ATOM     56  C   UNL     1      -2.501  12.879   5.891  1.00  0.00     0.031 C 
ATOM     57  C   UNL     1      -8.515  12.996   5.052  1.00  0.00     0.029 A 
ATOM     58  C   UNL     1      -7.218  12.543   5.238  1.00  0.00     0.049 A 
ATOM     59  H   UNL     1      -6.481  10.570   5.182  1.00  0.00     0.167 HD
ATOM     60  C   UNL     1      -4.782  12.813   5.646  1.00  0.00     0.074 A 
ATOM     61  C   UNL     1      -3.599  13.621   5.865  1.00  0.00     0.031 C 
ATOM     62  C   UNL     1      -6.033  13.317   5.508  1.00  0.00     0.034 A 
BRANCH  49  63
ATOM     63  C   UNL     1     -10.399   9.091   4.342  1.00  0.00     0.023 A 
ATOM     64  C   UNL     1     -11.224   8.453   5.293  1.00  0.00     0.012 A 
ATOM     65  C   UNL     1     -10.949   9.480   3.105  1.00  0.00     0.148 A 
ATOM     66  C   UNL     1     -12.557   8.169   5.002  1.00  0.00     0.002 A 
ATOM     67  C   UNL     1     -12.293   9.241   2.843  1.00  0.00     0.091 A 
ATOM     68  F   UNL     1     -10.146  10.064   2.204  1.00  0.00    -0.205 F 
ATOM     69  C   UNL     1     -13.094   8.573   3.783  1.00  0.00     0.022 A 
BRANCH  67  70
ATOM     70  S   UNL     1     -13.102   9.796   1.339  1.00  0.00     0.127 S 
ATOM     71  O   UNL     1     -13.388   8.527   0.672  1.00  0.00    -0.237 OA
ATOM     72  O   UNL     1     -14.280  10.488   1.864  1.00  0.00    -0.237 OA
ATOM     73  O   UNL     1     -12.144  10.656   0.659  1.00  0.00    -0.744 OA
ENDBRANCH  67  70
ENDBRANCH  49  63
BRANCH  50  74
ATOM     74  C   UNL     1      -0.626  10.612   6.056  1.00  0.00     0.023 A 
ATOM     75  C   UNL     1      -0.163  11.155   7.270  1.00  0.00     0.012 A 
ATOM     76  C   UNL     1       0.307  10.265   5.060  1.00  0.00     0.148 A 
ATOM     77  C   UNL     1       1.199  11.381   7.477  1.00  0.00     0.002 A 
ATOM     78  C   UNL     1       1.667  10.439   5.294  1.00  0.00     0.091 A 
ATOM     79  F   UNL     1      -0.152   9.755   3.909  1.00  0.00    -0.205 F 
ATOM     80  C   UNL     1       2.114  11.014   6.494  1.00  0.00     0.022 A 
BRANCH  78  81
ATOM     81  S   UNL     1       2.924   9.868   4.144  1.00  0.00     0.127 S 
ATOM     82  O   UNL     1       3.466  11.128   3.643  1.00  0.00    -0.237 OA
ATOM     83  O   UNL     1       3.820   9.117   5.024  1.00  0.00    -0.237 OA
ATOM     84  O   UNL     1       2.220   9.049   3.166  1.00  0.00    -0.744 OA
ENDBRANCH  78  81
ENDBRANCH  50  74
BRANCH  62  85
ATOM     85  C   UNL     1      -6.204  14.805   5.646  1.00  0.00     0.023 A 
ATOM     86  C   UNL     1      -5.759  15.666   4.624  1.00  0.00     0.012 A 
ATOM     87  C   UNL     1      -6.889  15.338   6.755  1.00  0.00     0.148 A 
ATOM     88  C   UNL     1      -5.967  17.041   4.720  1.00  0.00     0.002 A 
ATOM     89  C   UNL     1      -7.141  16.702   6.817  1.00  0.00     0.091 A 
ATOM     90  F   UNL     1      -7.288  14.500   7.723  1.00  0.00    -0.205 F 
ATOM     91  C   UNL     1      -6.669  17.556   5.808  1.00  0.00     0.022 A 
BRANCH  89  92
ATOM     92  S   UNL     1      -8.126  17.440   8.124  1.00  0.00     0.127 S 
ATOM     93  O   UNL     1      -7.118  18.195   8.866  1.00  0.00    -0.237 OA
ATOM     94  O   UNL     1      -9.072  18.262   7.370  1.00  0.00    -0.237 OA
ATOM     95  O   UNL     1      -8.731  16.330   8.849  1.00  0.00    -0.744 OA
ENDBRANCH  89  92
ENDBRANCH  62  85
ENDBRANCH  36  37
ENDBRANCH  28  31
ENDBRANCH  26  27
ENDBRANCH   1  26
TORSDOF 16
