REMARK SMILES O=C(C[C@@H]([NH2+]Cc1ccccc1)C(=O)NCCCNC(=O)c1ccc(-c2c3nc(c(-c4cccc(S(=O)(=O)[O-])c4F)c4ccc([nH]4)c(-c4cccc(S(=O)(=O)[O-])c4F)c4nc(c(-c5cccc(S(=O)(=O)[O-])c5F)c5ccc2[nH]5)C=C4)C=C3)cc1)Nc1cccc(Cl)c1Cl
REMARK SMILES IDX 17 1 16 2 15 3 13 4 14 5 4 7 3 8 2 9 1 10 85 11 86 13 87 14
REMARK SMILES IDX 92 15 88 16 90 17 93 18 89 19 91 20 5 21 6 24 7 25 8 26
REMARK SMILES IDX 12 27 9 28 11 29 10 30 18 31 19 32 20 33 21 35 22 36 23 37
REMARK SMILES IDX 84 38 24 39 83 40 25 41 26 42 27 43 77 44 28 45 82 46 76 47
REMARK SMILES IDX 78 48 29 49 81 50 75 51 74 52 30 54 62 55 42 56 61 57 43 58
REMARK SMILES IDX 46 59 60 60 79 61 44 62 45 63 59 65 80 66 47 67 31 68 32 69
REMARK SMILES IDX 40 70 33 71 35 72 41 73 34 74 36 75 37 76 38 77 39 78 63 79
REMARK SMILES IDX 64 80 72 81 65 82 67 83 73 84 66 85 68 86 69 87 70 88 71 89
REMARK SMILES IDX 48 90 49 91 57 92 50 93 52 94 58 95 51 96 53 97 54 98 55 99
REMARK SMILES IDX 56 100
REMARK H PARENT 15 6 85 12 5 22 5 23 19 34 78 53 46 64
REMARK Flexibility Score: inf
ROOT
ATOM      1  C   UNL     1       5.694   1.786   2.939  1.00  0.00     0.042 C 
ENDROOT
BRANCH   1   2
ATOM      2  C   UNL     1       6.116   0.552   2.145  1.00  0.00     0.118 C 
BRANCH   2   3
ATOM      3  N   UNL     1       5.668  -0.673   2.779  1.00  0.00    -0.351 N 
ATOM      4  C   UNL     1       4.699  -1.558   2.410  1.00  0.00     0.278 C 
ATOM      5  O   UNL     1       4.524  -2.541   3.135  1.00  0.00    -0.268 OA
ATOM      6  H   UNL     1       6.140  -0.903   3.611  1.00  0.00     0.163 HD
BRANCH   4   7
ATOM      7  C   UNL     1       3.874  -1.370   1.123  1.00  0.00     0.282 C 
BRANCH   7   8
ATOM      8  C   UNL     1       2.985  -0.124   1.226  1.00  0.00     0.175 C 
BRANCH   8   9
ATOM      9  C   UNL     1       2.088   0.009   0.019  1.00  0.00     0.230 C 
ATOM     10  O   UNL     1       0.957  -0.464  -0.011  1.00  0.00    -0.274 OA
ATOM     11  N   UNL     1       2.741   0.586  -1.062  1.00  0.00    -0.325 N 
ATOM     12  H   UNL     1       3.689   0.831  -0.958  1.00  0.00     0.169 HD
BRANCH  11  13
ATOM     13  C   UNL     1       2.118   0.840  -2.301  1.00  0.00     0.061 A 
ATOM     14  C   UNL     1       2.774   0.344  -3.437  1.00  0.00     0.028 A 
ATOM     15  C   UNL     1       0.924   1.577  -2.441  1.00  0.00     0.083 A 
ATOM     16  C   UNL     1       2.214   0.509  -4.702  1.00  0.00     0.004 A 
ATOM     17  C   UNL     1       0.385   1.760  -3.724  1.00  0.00     0.061 A 
ATOM     18  Cl  UNL     1       0.229   2.402  -1.079  1.00  0.00    -0.080 Cl
ATOM     19  C   UNL     1       1.020   1.213  -4.844  1.00  0.00     0.022 A 
ATOM     20  Cl  UNL     1      -1.050   2.684  -4.012  1.00  0.00    -0.083 Cl
ENDBRANCH  11  13
ENDBRANCH   8   9
ENDBRANCH   7   8
BRANCH   7  21
ATOM     21  N   UNL     1       4.741  -1.367  -0.096  1.00  0.00    -0.332 N 
ATOM     22  H   UNL     1       5.383  -0.576  -0.036  1.00  0.00     0.347 HD
ATOM     23  H   UNL     1       4.125  -1.299  -0.906  1.00  0.00     0.347 HD
BRANCH  21  24
ATOM     24  C   UNL     1       5.532  -2.601  -0.249  1.00  0.00     0.297 C 
BRANCH  24  25
ATOM     25  C   UNL     1       4.750  -3.869  -0.526  1.00  0.00     0.006 A 
ATOM     26  C   UNL     1       3.452  -3.884  -1.065  1.00  0.00     0.009 A 
ATOM     27  C   UNL     1       5.371  -5.102  -0.268  1.00  0.00     0.009 A 
ATOM     28  C   UNL     1       2.774  -5.087  -1.268  1.00  0.00     0.001 A 
ATOM     29  C   UNL     1       4.699  -6.306  -0.490  1.00  0.00     0.001 A 
ATOM     30  C   UNL     1       3.396  -6.297  -0.978  1.00  0.00     0.000 A 
ENDBRANCH  24  25
ENDBRANCH  21  24
ENDBRANCH   7  21
ENDBRANCH   4   7
ENDBRANCH   2   3
ENDBRANCH   1   2
BRANCH   1  31
ATOM     31  C   UNL     1       6.315   1.878   4.328  1.00  0.00     0.118 C 
BRANCH  31  32
ATOM     32  N   UNL     1       7.767   1.950   4.285  1.00  0.00    -0.352 N 
ATOM     33  C   UNL     1       8.625   2.893   4.790  1.00  0.00     0.251 C 
ATOM     34  H   UNL     1       8.204   1.201   3.818  1.00  0.00     0.163 HD
ATOM     35  O   UNL     1       9.808   2.857   4.458  1.00  0.00    -0.269 OA
BRANCH  33  36
ATOM     36  C   UNL     1       8.146   3.948   5.711  1.00  0.00     0.039 A 
ATOM     37  C   UNL     1       8.692   5.229   5.598  1.00  0.00     0.014 A 
ATOM     38  C   UNL     1       7.207   3.679   6.711  1.00  0.00     0.014 A 
ATOM     39  C   UNL     1       8.266   6.244   6.457  1.00  0.00     0.010 A 
ATOM     40  C   UNL     1       6.723   4.711   7.513  1.00  0.00     0.010 A 
ATOM     41  C   UNL     1       7.260   6.001   7.407  1.00  0.00    -0.014 A 
BRANCH  41  42
ATOM     42  C   UNL     1       6.763   7.098   8.275  1.00  0.00     0.031 A 
ATOM     43  C   UNL     1       6.950   7.053   9.767  1.00  0.00     0.074 A 
ATOM     44  C   UNL     1       6.099   8.128   7.714  1.00  0.00     0.049 A 
ATOM     45  N   UNL     1       6.655   7.962  10.661  1.00  0.00    -0.248 NA
ATOM     46  C   UNL     1       7.517   5.819  10.334  1.00  0.00     0.031 C 
ATOM     47  C   UNL     1       5.764   8.241   6.293  1.00  0.00     0.029 A 
ATOM     48  N   UNL     1       5.587   9.273   8.269  1.00  0.00    -0.354 N 
ATOM     49  C   UNL     1       6.976   7.404  11.893  1.00  0.00     0.074 A 
ATOM     50  C   UNL     1       7.444   6.059  11.635  1.00  0.00     0.031 C 
ATOM     51  C   UNL     1       5.135   9.408   6.082  1.00  0.00     0.029 A 
ATOM     52  C   UNL     1       5.010  10.118   7.350  1.00  0.00     0.049 A 
ATOM     53  H   UNL     1       5.628   9.471   9.232  1.00  0.00     0.167 HD
ATOM     54  C   UNL     1       6.923   7.968  13.124  1.00  0.00     0.034 A 
ATOM     55  C   UNL     1       4.465  11.340   7.507  1.00  0.00     0.034 A 
ATOM     56  C   UNL     1       6.489   9.318  13.370  1.00  0.00     0.049 A 
ATOM     57  C   UNL     1       4.479  11.975   8.870  1.00  0.00     0.074 A 
ATOM     58  C   UNL     1       6.479  10.018  14.564  1.00  0.00     0.029 A 
ATOM     59  N   UNL     1       5.981  10.174  12.404  1.00  0.00    -0.354 N 
ATOM     60  N   UNL     1       4.955  11.503   9.996  1.00  0.00    -0.248 NA
ATOM     61  C   UNL     1       3.924  13.331   8.972  1.00  0.00     0.031 C 
ATOM     62  C   UNL     1       5.948  11.291  14.322  1.00  0.00     0.029 A 
ATOM     63  C   UNL     1       5.647  11.392  12.973  1.00  0.00     0.049 A 
ATOM     64  H   UNL     1       5.872   9.948  11.452  1.00  0.00     0.167 HD
ATOM     65  C   UNL     1       4.789  12.514  10.935  1.00  0.00     0.074 A 
ATOM     66  C   UNL     1       4.190  13.634  10.236  1.00  0.00     0.031 C 
ATOM     67  C   UNL     1       5.091  12.512  12.257  1.00  0.00     0.034 A 
BRANCH  54  68
ATOM     68  C   UNL     1       7.404   7.138  14.287  1.00  0.00     0.023 A 
ATOM     69  C   UNL     1       8.780   6.847  14.407  1.00  0.00     0.012 A 
ATOM     70  C   UNL     1       6.514   6.667  15.271  1.00  0.00     0.148 A 
ATOM     71  C   UNL     1       9.255   6.061  15.457  1.00  0.00     0.002 A 
ATOM     72  C   UNL     1       7.002   5.922  16.341  1.00  0.00     0.091 A 
ATOM     73  F   UNL     1       5.207   6.929  15.134  1.00  0.00    -0.205 F 
ATOM     74  C   UNL     1       8.367   5.607  16.428  1.00  0.00     0.022 A 
BRANCH  72  75
ATOM     75  S   UNL     1       5.944   5.363  17.682  1.00  0.00     0.127 S 
ATOM     76  O   UNL     1       5.746   3.956  17.335  1.00  0.00    -0.237 OA
ATOM     77  O   UNL     1       6.786   5.586  18.858  1.00  0.00    -0.237 OA
ATOM     78  O   UNL     1       4.756   6.203  17.624  1.00  0.00    -0.744 OA
ENDBRANCH  72  75
ENDBRANCH  54  68
BRANCH  55  79
ATOM     79  C   UNL     1       3.980  12.086   6.313  1.00  0.00     0.023 A 
ATOM     80  C   UNL     1       4.727  13.183   5.841  1.00  0.00     0.012 A 
ATOM     81  C   UNL     1       2.830  11.682   5.608  1.00  0.00     0.148 A 
ATOM     82  C   UNL     1       4.327  13.880   4.702  1.00  0.00     0.002 A 
ATOM     83  C   UNL     1       2.467  12.348   4.442  1.00  0.00     0.091 A 
ATOM     84  F   UNL     1       2.132  10.639   6.077  1.00  0.00    -0.205 F 
ATOM     85  C   UNL     1       3.204  13.456   3.997  1.00  0.00     0.022 A 
BRANCH  83  86
ATOM     86  S   UNL     1       1.118  11.792   3.394  1.00  0.00     0.127 S 
ATOM     87  O   UNL     1       0.150  12.876   3.554  1.00  0.00    -0.237 OA
ATOM     88  O   UNL     1       1.765  11.733   2.082  1.00  0.00    -0.237 OA
ATOM     89  O   UNL     1       0.713  10.501   3.924  1.00  0.00    -0.744 OA
ENDBRANCH  83  86
ENDBRANCH  55  79
BRANCH  67  90
ATOM     90  C   UNL     1       4.798  13.770  13.034  1.00  0.00     0.023 A 
ATOM     91  C   UNL     1       3.463  14.124  13.316  1.00  0.00     0.012 A 
ATOM     92  C   UNL     1       5.843  14.579  13.522  1.00  0.00     0.148 A 
ATOM     93  C   UNL     1       3.172  15.284  14.033  1.00  0.00     0.002 A 
ATOM     94  C   UNL     1       5.547  15.708  14.277  1.00  0.00     0.091 A 
ATOM     95  F   UNL     1       7.108  14.242  13.226  1.00  0.00    -0.205 F 
ATOM     96  C   UNL     1       4.213  16.070  14.522  1.00  0.00     0.022 A 
BRANCH  94  97
ATOM     97  S   UNL     1       6.833  16.718  15.022  1.00  0.00     0.127 S 
ATOM     98  O   UNL     1       6.917  17.836  14.084  1.00  0.00    -0.237 OA
ATOM     99  O   UNL     1       6.256  17.056  16.324  1.00  0.00    -0.237 OA
ATOM    100  O   UNL     1       8.011  15.863  15.094  1.00  0.00    -0.744 OA
ENDBRANCH  94  97
ENDBRANCH  67  90
ENDBRANCH  41  42
ENDBRANCH  33  36
ENDBRANCH  31  32
ENDBRANCH   1  31
TORSDOF 19
