REMARK SMILES Cn1ccc(NC(=O)[C@@H]2CCCC[C@@H]2C(=O)NCCCNC(=O)c2ccc(-c3c4nc(c(-c5cccc(S(=O)(=O)[O-])c5F)c5ccc([nH]5)c(-c5cccc(S(=O)(=O)[O-])c5F)c5nc(c(-c6cccc(S(=O)(=O)[O-])c6F)c6ccc3[nH]6)C=C5)C=C4)cc2)n1
REMARK SMILES IDX 19 1 18 2 17 3 15 4 16 5 14 7 9 8 10 9 11 10 13 11 12 12
REMARK SMILES IDX 7 13 6 14 8 16 5 17 1 18 2 19 3 20 87 21 4 22 20 23 21 24
REMARK SMILES IDX 22 25 23 27 24 28 25 29 86 30 26 31 85 32 27 33 28 34 29 35
REMARK SMILES IDX 79 36 30 37 84 38 78 39 80 40 31 41 83 42 77 43 76 44 32 46
REMARK SMILES IDX 64 47 44 48 63 49 45 50 48 51 62 52 81 53 46 54 47 55 61 57
REMARK SMILES IDX 82 58 49 59 33 60 34 61 42 62 35 63 37 64 43 65 36 66 38 67
REMARK SMILES IDX 39 68 40 69 41 70 65 71 66 72 74 73 67 74 69 75 75 76 68 77
REMARK SMILES IDX 70 78 71 79 72 80 73 81 50 82 51 83 59 84 52 85 54 86 60 87
REMARK SMILES IDX 53 88 55 89 56 90 57 91 58 92
REMARK H PARENT 17 6 6 15 21 26 80 45 48 56
REMARK Flexibility Score: inf
ROOT
ATOM      1  C   UNL     1       3.874   1.941   1.559  1.00  0.00     0.042 C 
ENDROOT
BRANCH   1   2
ATOM      2  C   UNL     1       2.583   1.361   2.113  1.00  0.00     0.117 C 
BRANCH   2   3
ATOM      3  N   UNL     1       1.871   2.338   2.896  1.00  0.00    -0.356 N 
ATOM      4  C   UNL     1       0.746   3.043   2.614  1.00  0.00     0.223 C 
ATOM      5  O   UNL     1       0.317   3.741   3.536  1.00  0.00    -0.275 OA
ATOM      6  H   UNL     1       2.264   2.525   3.779  1.00  0.00     0.163 HD
BRANCH   4   7
ATOM      7  C   UNL     1       0.001   2.880   1.275  1.00  0.00     0.091 C 
ATOM      8  C   UNL     1       0.583   3.565   0.010  1.00  0.00     0.091 C 
ATOM      9  C   UNL     1       0.733   5.069   0.295  1.00  0.00     0.014 C 
ATOM     10  C   UNL     1      -0.636   5.705   0.531  1.00  0.00     0.001 C 
ATOM     11  C   UNL     1      -1.440   3.432   1.427  1.00  0.00     0.014 C 
ATOM     12  C   UNL     1      -1.496   4.961   1.552  1.00  0.00     0.001 C 
BRANCH   8  13
ATOM     13  C   UNL     1       1.820   2.990  -0.688  1.00  0.00     0.229 C 
ATOM     14  N   UNL     1       1.889   1.706  -1.143  1.00  0.00    -0.309 N 
ATOM     15  H   UNL     1       2.736   1.457  -1.580  1.00  0.00     0.171 HD
ATOM     16  O   UNL     1       2.826   3.687  -0.866  1.00  0.00    -0.274 OA
BRANCH  14  17
ATOM     17  C   UNL     1       0.945   0.714  -1.076  1.00  0.00     0.154 A 
ATOM     18  C   UNL     1      -2.259  -0.380  -0.297  1.00  0.00     0.173 C 
ATOM     19  N   UNL     1      -0.870  -0.288  -0.676  1.00  0.00    -0.274 N 
ATOM     20  C   UNL     1       0.069  -1.273  -0.640  1.00  0.00     0.110 A 
ATOM     21  N   UNL     1      -0.367   0.914  -0.988  1.00  0.00    -0.155 NA
ATOM     22  C   UNL     1       1.258  -0.664  -0.973  1.00  0.00     0.068 A 
ENDBRANCH  14  17
ENDBRANCH   8  13
ENDBRANCH   4   7
ENDBRANCH   2   3
ENDBRANCH   1   2
BRANCH   1  23
ATOM     23  C   UNL     1       5.019   1.895   2.552  1.00  0.00     0.118 C 
BRANCH  23  24
ATOM     24  N   UNL     1       5.463   0.531   2.806  1.00  0.00    -0.352 N 
ATOM     25  C   UNL     1       6.715  -0.016   2.683  1.00  0.00     0.251 C 
ATOM     26  H   UNL     1       4.762  -0.090   3.110  1.00  0.00     0.163 HD
ATOM     27  O   UNL     1       6.844  -1.240   2.743  1.00  0.00    -0.269 OA
BRANCH  25  28
ATOM     28  C   UNL     1       7.892   0.850   2.462  1.00  0.00     0.039 A 
ATOM     29  C   UNL     1       8.902   0.413   1.602  1.00  0.00     0.014 A 
ATOM     30  C   UNL     1       8.005   2.088   3.100  1.00  0.00     0.014 A 
ATOM     31  C   UNL     1       9.996   1.241   1.343  1.00  0.00     0.010 A 
ATOM     32  C   UNL     1       9.036   2.954   2.756  1.00  0.00     0.010 A 
ATOM     33  C   UNL     1      10.054   2.533   1.891  1.00  0.00    -0.014 A 
BRANCH  33  34
ATOM     34  C   UNL     1      11.176   3.456   1.584  1.00  0.00     0.031 A 
ATOM     35  C   UNL     1      12.050   3.974   2.696  1.00  0.00     0.074 A 
ATOM     36  C   UNL     1      11.352   3.893   0.322  1.00  0.00     0.049 A 
ATOM     37  N   UNL     1      13.035   4.832   2.638  1.00  0.00    -0.248 NA
ATOM     38  C   UNL     1      11.760   3.492   4.058  1.00  0.00     0.031 C 
ATOM     39  C   UNL     1      10.519   3.526  -0.826  1.00  0.00     0.029 A 
ATOM     40  N   UNL     1      12.275   4.761  -0.204  1.00  0.00    -0.354 N 
ATOM     41  C   UNL     1      13.449   5.024   3.950  1.00  0.00     0.074 A 
ATOM     42  C   UNL     1      12.586   4.223   4.789  1.00  0.00     0.031 C 
ATOM     43  C   UNL     1      10.976   4.154  -1.921  1.00  0.00     0.029 A 
ATOM     44  C   UNL     1      12.107   4.997  -1.549  1.00  0.00     0.049 A 
ATOM     45  H   UNL     1      12.990   5.177   0.331  1.00  0.00     0.167 HD
ATOM     46  C   UNL     1      14.474   5.777   4.415  1.00  0.00     0.034 A 
ATOM     47  C   UNL     1      12.782   5.809  -2.385  1.00  0.00     0.034 A 
ATOM     48  C   UNL     1      15.356   6.535   3.571  1.00  0.00     0.049 A 
ATOM     49  C   UNL     1      13.940   6.606  -1.849  1.00  0.00     0.074 A 
ATOM     50  C   UNL     1      16.483   7.252   3.930  1.00  0.00     0.029 A 
ATOM     51  N   UNL     1      15.204   6.686   2.202  1.00  0.00    -0.354 N 
ATOM     52  N   UNL     1      14.418   6.649  -0.629  1.00  0.00    -0.248 NA
ATOM     53  C   UNL     1      14.673   7.441  -2.810  1.00  0.00     0.031 C 
ATOM     54  C   UNL     1      16.992   7.867   2.782  1.00  0.00     0.029 A 
ATOM     55  C   UNL     1      16.207   7.498   1.702  1.00  0.00     0.049 A 
ATOM     56  H   UNL     1      14.488   6.276   1.665  1.00  0.00     0.167 HD
ATOM     57  C   UNL     1      15.530   7.481  -0.683  1.00  0.00     0.074 A 
ATOM     58  C   UNL     1      15.665   7.905  -2.062  1.00  0.00     0.031 C 
ATOM     59  C   UNL     1      16.357   7.869   0.318  1.00  0.00     0.034 A 
BRANCH  46  60
ATOM     60  C   UNL     1      14.725   5.784   5.901  1.00  0.00     0.023 A 
ATOM     61  C   UNL     1      15.218   4.624   6.535  1.00  0.00     0.012 A 
ATOM     62  C   UNL     1      14.528   6.953   6.661  1.00  0.00     0.148 A 
ATOM     63  C   UNL     1      15.474   4.616   7.905  1.00  0.00     0.002 A 
ATOM     64  C   UNL     1      14.833   6.953   8.017  1.00  0.00     0.091 A 
ATOM     65  F   UNL     1      14.040   8.040   6.047  1.00  0.00    -0.205 F 
ATOM     66  C   UNL     1      15.293   5.783   8.643  1.00  0.00     0.022 A 
BRANCH  64  67
ATOM     67  S   UNL     1      14.716   8.425   9.039  1.00  0.00     0.127 S 
ATOM     68  O   UNL     1      13.595   8.087   9.915  1.00  0.00    -0.237 OA
ATOM     69  O   UNL     1      16.022   8.445   9.699  1.00  0.00    -0.237 OA
ATOM     70  O   UNL     1      14.479   9.533   8.124  1.00  0.00    -0.744 OA
ENDBRANCH  64  67
ENDBRANCH  46  60
BRANCH  47  71
ATOM     71  C   UNL     1      12.418   5.865  -3.830  1.00  0.00     0.023 A 
ATOM     72  C   UNL     1      13.303   5.331  -4.787  1.00  0.00     0.012 A 
ATOM     73  C   UNL     1      11.200   6.425  -4.259  1.00  0.00     0.148 A 
ATOM     74  C   UNL     1      12.999   5.388  -6.148  1.00  0.00     0.002 A 
ATOM     75  C   UNL     1      10.877   6.427  -5.611  1.00  0.00     0.091 A 
ATOM     76  F   UNL     1      10.374   6.934  -3.334  1.00  0.00    -0.205 F 
ATOM     77  C   UNL     1      11.784   5.927  -6.559  1.00  0.00     0.022 A 
BRANCH  75  78
ATOM     78  S   UNL     1       9.284   6.985  -6.224  1.00  0.00     0.127 S 
ATOM     79  O   UNL     1       9.652   8.197  -6.952  1.00  0.00    -0.237 OA
ATOM     80  O   UNL     1       8.877   5.860  -7.068  1.00  0.00    -0.237 OA
ATOM     81  O   UNL     1       8.455   7.183  -5.044  1.00  0.00    -0.744 OA
ENDBRANCH  75  78
ENDBRANCH  47  71
BRANCH  59  82
ATOM     82  C   UNL     1      17.517   8.761  -0.039  1.00  0.00     0.023 A 
ATOM     83  C   UNL     1      17.293  10.107  -0.387  1.00  0.00     0.012 A 
ATOM     84  C   UNL     1      18.839   8.279   0.047  1.00  0.00     0.148 A 
ATOM     85  C   UNL     1      18.364  10.951  -0.677  1.00  0.00     0.002 A 
ATOM     86  C   UNL     1      19.903   9.139  -0.190  1.00  0.00     0.091 A 
ATOM     87  F   UNL     1      19.030   6.990   0.364  1.00  0.00    -0.205 F 
ATOM     88  C   UNL     1      19.668  10.472  -0.566  1.00  0.00     0.022 A 
BRANCH  86  89
ATOM     89  S   UNL     1      21.614   8.639   0.029  1.00  0.00     0.127 S 
ATOM     90  O   UNL     1      22.094   8.611  -1.351  1.00  0.00    -0.237 OA
ATOM     91  O   UNL     1      22.153   9.730   0.841  1.00  0.00    -0.237 OA
ATOM     92  O   UNL     1      21.574   7.347   0.701  1.00  0.00    -0.744 OA
ENDBRANCH  86  89
ENDBRANCH  59  82
ENDBRANCH  33  34
ENDBRANCH  25  28
ENDBRANCH  23  24
ENDBRANCH   1  23
TORSDOF 15
