REMARK SMILES CN(CC(C)(C)O)S(=O)(=O)c1cc(Cl)cc(C(=O)NCCCNC(=O)c2ccc(-c3c4nc(c(-c5cccc(S(=O)(=O)[O-])c5F)c5ccc([nH]5)c(-c5cccc(S(=O)(=O)[O-])c5F)c5nc(c(-c6cccc(S(=O)(=O)[O-])c6F)c6ccc3[nH]6)C=C5)C=C4)cc2)c1Cl
REMARK SMILES IDX 20 1 19 2 17 3 18 4 16 6 11 7 12 8 89 9 13 10 90 11 14 12
REMARK SMILES IDX 15 13 8 14 9 15 10 16 2 17 1 18 3 19 4 20 5 21 6 22 7 23
REMARK SMILES IDX 21 25 22 26 23 27 24 28 25 30 26 31 27 32 88 33 28 34 87 35
REMARK SMILES IDX 29 36 30 37 31 38 81 39 32 40 86 41 80 42 82 43 33 44 85 45
REMARK SMILES IDX 79 46 78 47 34 49 66 50 46 51 65 52 47 53 50 54 64 55 83 56
REMARK SMILES IDX 48 57 49 58 63 60 84 61 51 62 35 63 36 64 44 65 37 66 39 67
REMARK SMILES IDX 45 68 38 69 40 70 41 71 42 72 43 73 67 74 68 75 76 76 69 77
REMARK SMILES IDX 71 78 77 79 70 80 72 81 73 82 74 83 75 84 52 85 53 86 61 87
REMARK SMILES IDX 54 88 56 89 62 90 55 91 57 92 58 93 59 94 60 95
REMARK H PARENT 19 5 7 24 23 29 82 48 50 59
REMARK Flexibility Score: inf
ROOT
ATOM      1  C   UNL     1      -3.000   3.000   4.419  1.00  0.00     0.118 C 
ENDROOT
BRANCH   1   2
ATOM      2  N   UNL     1      -2.734   4.354   4.886  1.00  0.00    -0.352 N 
ATOM      3  C   UNL     1      -1.721   5.244   4.616  1.00  0.00     0.252 C 
ATOM      4  O   UNL     1      -1.773   6.360   5.131  1.00  0.00    -0.269 OA
ATOM      5  H   UNL     1      -3.408   4.697   5.515  1.00  0.00     0.163 HD
BRANCH   3   6
ATOM      6  C   UNL     1      -0.655   4.975   3.615  1.00  0.00     0.061 A 
ATOM      7  C   UNL     1       0.922   3.594   2.417  1.00  0.00     0.103 A 
ATOM      8  C   UNL     1       1.157   4.641   1.511  1.00  0.00     0.044 A 
ATOM      9  C   UNL     1       0.131   3.813   3.552  1.00  0.00     0.073 A 
ATOM     10  C   UNL     1       0.538   5.869   1.703  1.00  0.00     0.043 A 
ATOM     11  Cl  UNL     1       0.328   2.874   4.984  1.00  0.00    -0.082 Cl
ATOM     12  Cl  UNL     1       0.924   7.195   0.680  1.00  0.00    -0.084 Cl
ATOM     13  C   UNL     1      -0.405   6.023   2.711  1.00  0.00     0.036 A 
BRANCH   7  14
ATOM     14  S   UNL     1       1.668   2.028   2.019  1.00  0.00     0.244 S 
ATOM     15  O   UNL     1       1.531   1.099   3.120  1.00  0.00    -0.207 OA
ATOM     16  O   UNL     1       2.973   2.324   1.478  1.00  0.00    -0.207 OA
BRANCH  14  17
ATOM     17  N   UNL     1       0.715   1.427   0.733  1.00  0.00    -0.198 NA
ATOM     18  C   UNL     1       1.299   0.231   0.081  1.00  0.00     0.124 C 
BRANCH  17  19
ATOM     19  C   UNL     1      -0.781   1.400   0.800  1.00  0.00     0.136 C 
BRANCH  19  20
ATOM     20  C   UNL     1      -1.501   0.150   1.385  1.00  0.00     0.073 C 
ATOM     21  C   UNL     1      -1.135  -0.148   2.834  1.00  0.00     0.043 C 
ATOM     22  C   UNL     1      -3.019   0.385   1.284  1.00  0.00     0.043 C 
BRANCH  20  23
ATOM     23  O   UNL     1      -1.232  -1.010   0.590  1.00  0.00    -0.389 OA
ATOM     24  H   UNL     1      -0.282  -1.207   0.616  1.00  0.00     0.211 HD
ENDBRANCH  20  23
ENDBRANCH  19  20
ENDBRANCH  17  19
ENDBRANCH  14  17
ENDBRANCH   7  14
ENDBRANCH   3   6
ENDBRANCH   1   2
BRANCH   1  25
ATOM     25  C   UNL     1      -2.803   1.974   5.535  1.00  0.00     0.042 C 
BRANCH  25  26
ATOM     26  C   UNL     1      -3.965   1.855   6.508  1.00  0.00     0.118 C 
BRANCH  26  27
ATOM     27  N   UNL     1      -5.074   1.097   5.952  1.00  0.00    -0.352 N 
ATOM     28  C   UNL     1      -5.637  -0.090   6.359  1.00  0.00     0.251 C 
ATOM     29  H   UNL     1      -5.489   1.498   5.154  1.00  0.00     0.163 HD
ATOM     30  O   UNL     1      -6.434  -0.643   5.603  1.00  0.00    -0.269 OA
BRANCH  28  31
ATOM     31  C   UNL     1      -5.300  -0.717   7.664  1.00  0.00     0.039 A 
ATOM     32  C   UNL     1      -5.317  -2.114   7.755  1.00  0.00     0.014 A 
ATOM     33  C   UNL     1      -5.029   0.034   8.811  1.00  0.00     0.014 A 
ATOM     34  C   UNL     1      -5.028  -2.745   8.970  1.00  0.00     0.010 A 
ATOM     35  C   UNL     1      -4.642  -0.597   9.995  1.00  0.00     0.010 A 
ATOM     36  C   UNL     1      -4.663  -1.994  10.099  1.00  0.00    -0.014 A 
BRANCH  36  37
ATOM     37  C   UNL     1      -4.323  -2.660  11.386  1.00  0.00     0.031 A 
ATOM     38  C   UNL     1      -5.144  -2.408  12.626  1.00  0.00     0.074 A 
ATOM     39  C   UNL     1      -3.242  -3.464  11.454  1.00  0.00     0.049 A 
ATOM     40  N   UNL     1      -5.013  -2.925  13.821  1.00  0.00    -0.248 NA
ATOM     41  C   UNL     1      -6.238  -1.429  12.519  1.00  0.00     0.031 C 
ATOM     42  C   UNL     1      -2.309  -3.720  10.355  1.00  0.00     0.029 A 
ATOM     43  N   UNL     1      -2.738  -4.205  12.495  1.00  0.00    -0.354 N 
ATOM     44  C   UNL     1      -5.982  -2.316  14.611  1.00  0.00     0.074 A 
ATOM     45  C   UNL     1      -6.664  -1.356  13.772  1.00  0.00     0.031 C 
ATOM     46  C   UNL     1      -1.364  -4.579  10.771  1.00  0.00     0.029 A 
ATOM     47  C   UNL     1      -1.608  -4.917  12.169  1.00  0.00     0.049 A 
ATOM     48  H   UNL     1      -3.148  -4.224  13.390  1.00  0.00     0.167 HD
ATOM     49  C   UNL     1      -6.304  -2.555  15.906  1.00  0.00     0.034 A 
ATOM     50  C   UNL     1      -0.859  -5.759  12.908  1.00  0.00     0.034 A 
ATOM     51  C   UNL     1      -5.653  -3.540  16.728  1.00  0.00     0.049 A 
ATOM     52  C   UNL     1      -1.274  -6.056  14.324  1.00  0.00     0.074 A 
ATOM     53  C   UNL     1      -5.954  -3.916  18.026  1.00  0.00     0.029 A 
ATOM     54  N   UNL     1      -4.566  -4.306  16.334  1.00  0.00    -0.354 N 
ATOM     55  N   UNL     1      -2.295  -5.589  15.001  1.00  0.00    -0.248 NA
ATOM     56  C   UNL     1      -0.459  -7.032  15.062  1.00  0.00     0.031 C 
ATOM     57  C   UNL     1      -5.038  -4.897  18.422  1.00  0.00     0.029 A 
ATOM     58  C   UNL     1      -4.184  -5.152  17.361  1.00  0.00     0.049 A 
ATOM     59  H   UNL     1      -4.130  -4.255  15.453  1.00  0.00     0.167 HD
ATOM     60  C   UNL     1      -2.270  -6.243  16.227  1.00  0.00     0.074 A 
ATOM     61  C   UNL     1      -1.145  -7.155  16.190  1.00  0.00     0.031 C 
ATOM     62  C   UNL     1      -3.095  -6.093  17.293  1.00  0.00     0.034 A 
BRANCH  49  63
ATOM     63  C   UNL     1      -7.456  -1.778  16.494  1.00  0.00     0.023 A 
ATOM     64  C   UNL     1      -8.770  -2.049  16.057  1.00  0.00     0.012 A 
ATOM     65  C   UNL     1      -7.251  -0.819  17.506  1.00  0.00     0.148 A 
ATOM     66  C   UNL     1      -9.855  -1.350  16.584  1.00  0.00     0.002 A 
ATOM     67  C   UNL     1      -8.344  -0.159  18.059  1.00  0.00     0.091 A 
ATOM     68  F   UNL     1      -5.996  -0.558  17.897  1.00  0.00    -0.205 F 
ATOM     69  C   UNL     1      -9.643  -0.413  17.591  1.00  0.00     0.022 A 
BRANCH  67  70
ATOM     70  S   UNL     1      -8.185   1.006  19.418  1.00  0.00     0.127 S 
ATOM     71  O   UNL     1      -8.432   2.280  18.743  1.00  0.00    -0.237 OA
ATOM     72  O   UNL     1      -9.254   0.578  20.320  1.00  0.00    -0.237 OA
ATOM     73  O   UNL     1      -6.839   0.826  19.944  1.00  0.00    -0.744 OA
ENDBRANCH  67  70
ENDBRANCH  49  63
BRANCH  50  74
ATOM     74  C   UNL     1       0.303  -6.458  12.289  1.00  0.00     0.023 A 
ATOM     75  C   UNL     1       0.220  -7.842  12.035  1.00  0.00     0.012 A 
ATOM     76  C   UNL     1       1.470  -5.762  11.921  1.00  0.00     0.148 A 
ATOM     77  C   UNL     1       1.289  -8.526  11.456  1.00  0.00     0.002 A 
ATOM     78  C   UNL     1       2.510  -6.439  11.294  1.00  0.00     0.091 A 
ATOM     79  F   UNL     1       1.534  -4.449  12.180  1.00  0.00    -0.205 F 
ATOM     80  C   UNL     1       2.429  -7.823  11.076  1.00  0.00     0.022 A 
BRANCH  78  81
ATOM     81  S   UNL     1       3.960  -5.596  10.652  1.00  0.00     0.127 S 
ATOM     82  O   UNL     1       5.001  -6.049  11.571  1.00  0.00    -0.237 OA
ATOM     83  O   UNL     1       4.052  -6.144   9.298  1.00  0.00    -0.237 OA
ATOM     84  O   UNL     1       3.643  -4.175  10.704  1.00  0.00    -0.744 OA
ENDBRANCH  78  81
ENDBRANCH  50  74
BRANCH  62  85
ATOM     85  C   UNL     1      -2.842  -6.965  18.496  1.00  0.00     0.023 A 
ATOM     86  C   UNL     1      -1.716  -6.731  19.310  1.00  0.00     0.012 A 
ATOM     87  C   UNL     1      -3.750  -7.983  18.848  1.00  0.00     0.148 A 
ATOM     88  C   UNL     1      -1.474  -7.526  20.431  1.00  0.00     0.002 A 
ATOM     89  C   UNL     1      -3.530  -8.737  19.995  1.00  0.00     0.091 A 
ATOM     90  F   UNL     1      -4.806  -8.206  18.051  1.00  0.00    -0.205 F 
ATOM     91  C   UNL     1      -2.386  -8.520  20.779  1.00  0.00     0.022 A 
BRANCH  89  92
ATOM     92  S   UNL     1      -4.704  -9.970  20.567  1.00  0.00     0.127 S 
ATOM     93  O   UNL     1      -4.053 -11.214  20.160  1.00  0.00    -0.237 OA
ATOM     94  O   UNL     1      -4.723  -9.738  22.012  1.00  0.00    -0.237 OA
ATOM     95  O   UNL     1      -5.959  -9.665  19.894  1.00  0.00    -0.744 OA
ENDBRANCH  89  92
ENDBRANCH  62  85
ENDBRANCH  36  37
ENDBRANCH  28  31
ENDBRANCH  26  27
ENDBRANCH  25  26
ENDBRANCH   1  25
TORSDOF 18
