REMARK SMILES O=C(NCCCNC(=O)[C@@H]1CCCC[C@@H]1C(=O)Nc1nc(-c2ccc(Cl)c(Cl)c2)cs1)c1ccc(-c2c3nc(c(-c4cccc(S(=O)(=O)[O-])c4F)c4ccc([nH]4)c(-c4cccc(S(=O)(=O)[O-])c4F)c4nc(c(-c5cccc(S(=O)(=O)[O-])c5F)c5ccc2[nH]5)C=C4)C=C3)cc1
REMARK SMILES IDX 5 1 4 2 3 3 1 4 2 5 32 7 33 8 94 9 34 10 93 11 35 12 36 13
REMARK SMILES IDX 37 14 87 15 38 16 92 17 86 18 88 19 39 20 91 21 85 22 84 23
REMARK SMILES IDX 40 25 72 26 52 27 71 28 53 29 56 30 70 31 89 32 54 33 55 34
REMARK SMILES IDX 69 36 90 37 57 38 41 39 42 40 50 41 43 42 45 43 51 44 44 45
REMARK SMILES IDX 46 46 47 47 48 48 49 49 73 50 74 51 82 52 75 53 77 54 83 55
REMARK SMILES IDX 76 56 78 57 79 58 80 59 81 60 58 61 59 62 67 63 60 64 62 65
REMARK SMILES IDX 68 66 61 67 63 68 64 69 65 70 66 71 6 72 7 73 8 74 9 76
REMARK SMILES IDX 10 77 11 78 15 79 12 80 14 81 13 82 16 83 17 84 18 85 19 87
REMARK SMILES IDX 20 88 31 89 21 90 30 91 22 92 23 93 29 94 24 95 27 96 25 97
REMARK SMILES IDX 28 98 26 99
REMARK H PARENT 3 6 88 24 56 35 7 75 18 86
REMARK Flexibility Score: inf
ROOT
ATOM      1  C   UNL     1       4.645   1.683  -2.040  1.00  0.00     0.042 C 
ENDROOT
BRANCH   1   2
ATOM      2  C   UNL     1       4.355   1.296  -0.600  1.00  0.00     0.118 C 
BRANCH   2   3
ATOM      3  N   UNL     1       2.941   1.059  -0.357  1.00  0.00    -0.352 N 
ATOM      4  O   UNL     1       1.060  -0.129  -0.050  1.00  0.00    -0.269 OA
ATOM      5  C   UNL     1       2.289  -0.101  -0.013  1.00  0.00     0.251 C 
ATOM      6  H   UNL     1       2.363   1.850  -0.455  1.00  0.00     0.163 HD
BRANCH   5   7
ATOM      7  C   UNL     1       3.052  -1.310   0.376  1.00  0.00     0.039 A 
ATOM      8  C   UNL     1       4.190  -1.214   1.179  1.00  0.00     0.014 A 
ATOM      9  C   UNL     1       2.604  -2.567  -0.042  1.00  0.00     0.014 A 
ATOM     10  C   UNL     1       4.963  -2.342   1.428  1.00  0.00     0.010 A 
ATOM     11  C   UNL     1       3.326  -3.717   0.301  1.00  0.00     0.010 A 
ATOM     12  C   UNL     1       4.528  -3.612   1.016  1.00  0.00    -0.014 A 
BRANCH  12  13
ATOM     13  C   UNL     1       5.301  -4.808   1.440  1.00  0.00     0.031 A 
ATOM     14  C   UNL     1       5.960  -5.721   0.442  1.00  0.00     0.074 A 
ATOM     15  C   UNL     1       5.419  -5.054   2.761  1.00  0.00     0.049 A 
ATOM     16  N   UNL     1       6.713  -6.768   0.663  1.00  0.00    -0.248 NA
ATOM     17  C   UNL     1       5.743  -5.434  -0.985  1.00  0.00     0.031 C 
ATOM     18  C   UNL     1       4.777  -4.271   3.821  1.00  0.00     0.029 A 
ATOM     19  N   UNL     1       6.117  -6.018   3.441  1.00  0.00    -0.354 N 
ATOM     20  C   UNL     1       7.035  -7.283  -0.586  1.00  0.00     0.074 A 
ATOM     21  C   UNL     1       6.385  -6.439  -1.567  1.00  0.00     0.031 C 
ATOM     22  C   UNL     1       5.139  -4.761   5.014  1.00  0.00     0.029 A 
ATOM     23  C   UNL     1       5.994  -5.923   4.808  1.00  0.00     0.049 A 
ATOM     24  H   UNL     1       6.656  -6.711   2.994  1.00  0.00     0.167 HD
ATOM     25  C   UNL     1       7.816  -8.350  -0.888  1.00  0.00     0.034 A 
ATOM     26  C   UNL     1       6.500  -6.691   5.790  1.00  0.00     0.034 A 
ATOM     27  C   UNL     1       8.487  -9.165   0.092  1.00  0.00     0.049 A 
ATOM     28  C   UNL     1       7.388  -7.844   5.422  1.00  0.00     0.074 A 
ATOM     29  C   UNL     1       9.344 -10.231  -0.118  1.00  0.00     0.029 A 
ATOM     30  N   UNL     1       8.376  -9.009   1.466  1.00  0.00    -0.354 N 
ATOM     31  N   UNL     1       7.786  -8.231   4.234  1.00  0.00    -0.248 NA
ATOM     32  C   UNL     1       7.918  -8.651   6.529  1.00  0.00     0.031 C 
ATOM     33  C   UNL     1       9.738 -10.731   1.128  1.00  0.00     0.029 A 
ATOM     34  C   UNL     1       9.142  -9.964   2.115  1.00  0.00     0.049 A 
ATOM     35  H   UNL     1       7.832  -8.322   1.914  1.00  0.00     0.167 HD
ATOM     36  C   UNL     1       8.627  -9.314   4.451  1.00  0.00     0.074 A 
ATOM     37  C   UNL     1       8.712  -9.496   5.886  1.00  0.00     0.031 C 
ATOM     38  C   UNL     1       9.251 -10.105   3.544  1.00  0.00     0.034 A 
BRANCH  25  39
ATOM     39  C   UNL     1       8.037  -8.677  -2.342  1.00  0.00     0.023 A 
ATOM     40  C   UNL     1       8.904  -7.870  -3.107  1.00  0.00     0.012 A 
ATOM     41  C   UNL     1       7.471  -9.829  -2.925  1.00  0.00     0.148 A 
ATOM     42  C   UNL     1       9.189  -8.193  -4.434  1.00  0.00     0.002 A 
ATOM     43  C   UNL     1       7.790 -10.164  -4.237  1.00  0.00     0.091 A 
ATOM     44  F   UNL     1       6.637 -10.574  -2.187  1.00  0.00    -0.205 F 
ATOM     45  C   UNL     1       8.642  -9.344  -4.994  1.00  0.00     0.022 A 
BRANCH  43  46
ATOM     46  S   UNL     1       7.197 -11.664  -5.029  1.00  0.00     0.127 S 
ATOM     47  O   UNL     1       6.267 -11.126  -6.021  1.00  0.00    -0.237 OA
ATOM     48  O   UNL     1       8.428 -12.223  -5.590  1.00  0.00    -0.237 OA
ATOM     49  O   UNL     1       6.591 -12.464  -3.975  1.00  0.00    -0.744 OA
ENDBRANCH  43  46
ENDBRANCH  25  39
BRANCH  26  50
ATOM     50  C   UNL     1       6.209  -6.363   7.213  1.00  0.00     0.023 A 
ATOM     51  C   UNL     1       7.243  -5.896   8.046  1.00  0.00     0.012 A 
ATOM     52  C   UNL     1       4.905  -6.473   7.735  1.00  0.00     0.148 A 
ATOM     53  C   UNL     1       6.990  -5.573   9.380  1.00  0.00     0.002 A 
ATOM     54  C   UNL     1       4.648  -6.090   9.045  1.00  0.00     0.091 A 
ATOM     55  F   UNL     1       3.935  -6.939   6.934  1.00  0.00    -0.205 F 
ATOM     56  C   UNL     1       5.691  -5.656   9.876  1.00  0.00     0.022 A 
BRANCH  54  57
ATOM     57  S   UNL     1       2.977  -6.027   9.701  1.00  0.00     0.127 S 
ATOM     58  O   UNL     1       2.912  -7.263  10.476  1.00  0.00    -0.237 OA
ATOM     59  O   UNL     1       3.002  -4.800  10.498  1.00  0.00    -0.237 OA
ATOM     60  O   UNL     1       2.110  -5.957   8.531  1.00  0.00    -0.744 OA
ENDBRANCH  54  57
ENDBRANCH  26  50
BRANCH  38  61
ATOM     61  C   UNL     1      10.091 -11.233   4.081  1.00  0.00     0.023 A 
ATOM     62  C   UNL     1       9.460 -12.360   4.646  1.00  0.00     0.012 A 
ATOM     63  C   UNL     1      11.495 -11.199   3.989  1.00  0.00     0.148 A 
ATOM     64  C   UNL     1      10.216 -13.418   5.146  1.00  0.00     0.002 A 
ATOM     65  C   UNL     1      12.240 -12.279   4.447  1.00  0.00     0.091 A 
ATOM     66  F   UNL     1      12.078 -10.110   3.468  1.00  0.00    -0.205 F 
ATOM     67  C   UNL     1      11.604 -13.383   5.038  1.00  0.00     0.022 A 
BRANCH  65  68
ATOM     68  S   UNL     1      14.026 -12.356   4.268  1.00  0.00     0.127 S 
ATOM     69  O   UNL     1      14.476 -12.058   5.626  1.00  0.00    -0.237 OA
ATOM     70  O   UNL     1      14.239 -13.740   3.844  1.00  0.00    -0.237 OA
ATOM     71  O   UNL     1      14.366 -11.360   3.260  1.00  0.00    -0.744 OA
ENDBRANCH  65  68
ENDBRANCH  38  61
ENDBRANCH  12  13
ENDBRANCH   5   7
ENDBRANCH   2   3
ENDBRANCH   1   2
BRANCH   1  72
ATOM     72  C   UNL     1       4.149   3.073  -2.423  1.00  0.00     0.117 C 
BRANCH  72  73
ATOM     73  N   UNL     1       4.799   4.133  -1.668  1.00  0.00    -0.356 N 
ATOM     74  C   UNL     1       5.702   5.078  -2.069  1.00  0.00     0.223 C 
ATOM     75  H   UNL     1       4.549   4.176  -0.717  1.00  0.00     0.163 HD
ATOM     76  O   UNL     1       5.933   6.007  -1.294  1.00  0.00    -0.275 OA
BRANCH  74  77
ATOM     77  C   UNL     1       6.293   5.008  -3.476  1.00  0.00     0.091 C 
ATOM     78  C   UNL     1       7.130   3.746  -3.755  1.00  0.00     0.014 C 
ATOM     79  C   UNL     1       7.068   6.298  -3.869  1.00  0.00     0.091 C 
ATOM     80  C   UNL     1       7.592   3.669  -5.207  1.00  0.00     0.001 C 
ATOM     81  C   UNL     1       7.387   6.170  -5.377  1.00  0.00     0.014 C 
ATOM     82  C   UNL     1       8.254   4.952  -5.680  1.00  0.00     0.001 C 
BRANCH  79  83
ATOM     83  C   UNL     1       8.344   6.527  -3.026  1.00  0.00     0.230 C 
ATOM     84  O   UNL     1       8.726   5.719  -2.175  1.00  0.00    -0.274 OA
ATOM     85  N   UNL     1       9.174   7.581  -3.260  1.00  0.00    -0.302 N 
ATOM     86  H   UNL     1      10.035   7.575  -2.783  1.00  0.00     0.172 HD
BRANCH  85  87
ATOM     87  C   UNL     1       8.947   8.640  -4.080  1.00  0.00     0.189 A 
ATOM     88  N   UNL     1       7.813   9.096  -4.542  1.00  0.00    -0.220 NA
ATOM     89  S   UNL     1      10.365   9.418  -4.627  1.00  0.00    -0.105 S 
ATOM     90  C   UNL     1       8.070  10.076  -5.479  1.00  0.00     0.084 A 
ATOM     91  C   UNL     1       9.405  10.343  -5.712  1.00  0.00     0.097 A 
BRANCH  90  92
ATOM     92  C   UNL     1       6.989  10.780  -6.131  1.00  0.00     0.003 A 
ATOM     93  C   UNL     1       6.173  11.624  -5.370  1.00  0.00     0.012 A 
ATOM     94  C   UNL     1       6.742  10.619  -7.498  1.00  0.00     0.032 A 
ATOM     95  C   UNL     1       5.133  12.329  -5.976  1.00  0.00     0.023 A 
ATOM     96  C   UNL     1       5.692  11.319  -8.104  1.00  0.00     0.060 A 
ATOM     97  C   UNL     1       4.892  12.182  -7.344  1.00  0.00     0.059 A 
ATOM     98  Cl  UNL     1       5.438  11.075  -9.796  1.00  0.00    -0.083 Cl
ATOM     99  Cl  UNL     1       3.597  13.094  -8.033  1.00  0.00    -0.083 Cl
ENDBRANCH  90  92
ENDBRANCH  85  87
ENDBRANCH  79  83
ENDBRANCH  74  77
ENDBRANCH  72  73
ENDBRANCH   1  72
TORSDOF 16
