REMARK SMILES CCCCCNC(=O)Oc1cccc(-c2ccc([C@@H](C)C(=O)NCCCNC(=O)c3ccc(-c4c5nc(c(-c6cccc(S(=O)(=O)[O-])c6F)c6ccc([nH]6)c(-c6cccc(S(=O)(=O)[O-])c6F)c6nc(c(-c7cccc(S(=O)(=O)[O-])c7F)c7ccc4[nH]7)C=C6)C=C5)cc3)cc2F)c1
REMARK SMILES IDX 19 1 20 2 18 3 15 4 16 5 94 6 17 7 93 8 95 9 14 10 10 11
REMARK SMILES IDX 11 12 96 13 12 14 13 15 9 16 7 17 6 18 8 20 5 21 4 22 3 23
REMARK SMILES IDX 2 24 1 25 21 26 22 27 23 28 24 30 25 31 26 32 27 33 28 34
REMARK SMILES IDX 29 36 30 37 31 38 92 39 32 40 91 41 33 42 34 43 35 44 85 45
REMARK SMILES IDX 36 46 90 47 84 48 86 49 37 50 89 51 83 52 82 53 38 55 70 56
REMARK SMILES IDX 50 57 69 58 51 59 54 60 68 61 87 62 52 63 53 64 67 66 88 67
REMARK SMILES IDX 55 68 39 69 40 70 48 71 41 72 43 73 49 74 42 75 44 76 45 77
REMARK SMILES IDX 46 78 47 79 71 80 72 81 80 82 73 83 75 84 81 85 74 86 76 87
REMARK SMILES IDX 77 88 78 89 79 90 56 91 57 92 65 93 58 94 60 95 66 96 59 97
REMARK SMILES IDX 61 98 62 99 63 100 64 101
REMARK H PARENT 6 19 23 29 27 35 86 54 54 65
REMARK Flexibility Score: inf
ROOT
ATOM      1  C   UNL     1      -2.988  13.587  -3.360  1.00  0.00     0.105 C 
ATOM      2  C   UNL     1      -3.674  14.525  -4.352  1.00  0.00     0.023 C 
ENDROOT
BRANCH   1   3
ATOM      3  C   UNL     1      -3.245  12.105  -3.576  1.00  0.00    -0.033 A 
ATOM      4  C   UNL     1      -3.678   9.280  -3.779  1.00  0.00     0.018 A 
ATOM      5  C   UNL     1      -4.739  10.199  -3.828  1.00  0.00     0.012 A 
ATOM      6  C   UNL     1      -2.390   9.823  -3.669  1.00  0.00     0.131 A 
ATOM      7  C   UNL     1      -4.524  11.580  -3.773  1.00  0.00     0.005 A 
ATOM      8  C   UNL     1      -2.175  11.201  -3.547  1.00  0.00     0.044 A 
ATOM      9  F   UNL     1      -1.308   9.029  -3.683  1.00  0.00    -0.206 F 
BRANCH   4  10
ATOM     10  C   UNL     1      -3.946   7.825  -3.820  1.00  0.00    -0.012 A 
ATOM     11  C   UNL     1      -3.506   5.555  -3.070  1.00  0.00     0.133 A 
ATOM     12  C   UNL     1      -4.561   5.059  -3.828  1.00  0.00     0.047 A 
ATOM     13  C   UNL     1      -3.190   6.915  -3.063  1.00  0.00     0.056 A 
ATOM     14  C   UNL     1      -5.318   5.940  -4.590  1.00  0.00     0.004 A 
ATOM     15  C   UNL     1      -5.005   7.303  -4.593  1.00  0.00     0.009 A 
BRANCH  11  16
ATOM     16  O   UNL     1      -2.709   4.608  -2.411  1.00  0.00    -0.410 OA
BRANCH  16  17
ATOM     17  C   UNL     1      -2.450   4.771  -1.060  1.00  0.00     0.412 C 
ATOM     18  N   UNL     1      -1.657   3.777  -0.554  1.00  0.00    -0.321 N 
ATOM     19  H   UNL     1      -1.456   3.815   0.409  1.00  0.00     0.167 HD
ATOM     20  O   UNL     1      -2.844   5.686  -0.349  1.00  0.00    -0.224 OA
BRANCH  18  21
ATOM     21  C   UNL     1      -1.084   2.674  -1.298  1.00  0.00     0.119 C 
BRANCH  21  22
ATOM     22  C   UNL     1       0.443   2.688  -1.237  1.00  0.00     0.021 C 
BRANCH  22  23
ATOM     23  C   UNL     1       1.031   2.446   0.159  1.00  0.00     0.002 C 
BRANCH  23  24
ATOM     24  C   UNL     1       0.617   1.134   0.828  1.00  0.00    -0.003 C 
ATOM     25  C   UNL     1       1.017  -0.102   0.038  1.00  0.00     0.004 C 
ENDBRANCH  23  24
ENDBRANCH  22  23
ENDBRANCH  21  22
ENDBRANCH  18  21
ENDBRANCH  16  17
ENDBRANCH  11  16
ENDBRANCH   4  10
ENDBRANCH   1   3
BRANCH   1  26
ATOM     26  C   UNL     1      -3.099  14.029  -1.892  1.00  0.00     0.227 C 
ATOM     27  O   UNL     1      -2.072  14.279  -1.248  1.00  0.00    -0.274 OA
ATOM     28  N   UNL     1      -4.276  14.192  -1.231  1.00  0.00    -0.356 N 
ATOM     29  H   UNL     1      -4.176  14.523  -0.309  1.00  0.00     0.163 HD
BRANCH  28  30
ATOM     30  C   UNL     1      -5.651  13.970  -1.630  1.00  0.00     0.117 C 
BRANCH  30  31
ATOM     31  C   UNL     1      -6.194  12.633  -1.133  1.00  0.00     0.042 C 
BRANCH  31  32
ATOM     32  C   UNL     1      -6.679  12.662   0.309  1.00  0.00     0.118 C 
BRANCH  32  33
ATOM     33  N   UNL     1      -7.853  13.509   0.472  1.00  0.00    -0.352 N 
ATOM     34  C   UNL     1      -9.129  13.203   0.869  1.00  0.00     0.251 C 
ATOM     35  H   UNL     1      -7.705  14.459   0.262  1.00  0.00     0.163 HD
ATOM     36  O   UNL     1     -10.013  14.041   0.698  1.00  0.00    -0.269 OA
BRANCH  34  37
ATOM     37  C   UNL     1      -9.457  11.902   1.497  1.00  0.00     0.039 A 
ATOM     38  C   UNL     1     -10.735  11.368   1.300  1.00  0.00     0.014 A 
ATOM     39  C   UNL     1      -8.559  11.243   2.341  1.00  0.00     0.014 A 
ATOM     40  C   UNL     1     -11.101  10.179   1.935  1.00  0.00     0.010 A 
ATOM     41  C   UNL     1      -8.886  10.005   2.885  1.00  0.00     0.010 A 
ATOM     42  C   UNL     1     -10.175   9.481   2.727  1.00  0.00    -0.014 A 
BRANCH  42  43
ATOM     43  C   UNL     1     -10.562   8.235   3.437  1.00  0.00     0.031 A 
ATOM     44  C   UNL     1     -10.526   8.175   4.942  1.00  0.00     0.074 A 
ATOM     45  C   UNL     1     -10.898   7.141   2.727  1.00  0.00     0.049 A 
ATOM     46  N   UNL     1     -10.840   7.185   5.737  1.00  0.00    -0.248 NA
ATOM     47  C   UNL     1     -10.045   9.375   5.648  1.00  0.00     0.031 C 
ATOM     48  C   UNL     1     -10.878   7.044   1.267  1.00  0.00     0.029 A 
ATOM     49  N   UNL     1     -11.302   5.897   3.139  1.00  0.00    -0.354 N 
ATOM     50  C   UNL     1     -10.560   7.626   7.025  1.00  0.00     0.074 A 
ATOM     51  C   UNL     1     -10.003   8.955   6.903  1.00  0.00     0.031 C 
ATOM     52  C   UNL     1     -11.264   5.811   0.904  1.00  0.00     0.029 A 
ATOM     53  C   UNL     1     -11.536   5.025   2.104  1.00  0.00     0.049 A 
ATOM     54  H   UNL     1     -11.415   5.653   4.086  1.00  0.00     0.167 HD
ATOM     55  C   UNL     1     -10.779   7.002   8.208  1.00  0.00     0.034 A 
ATOM     56  C   UNL     1     -11.928   3.736   2.118  1.00  0.00     0.034 A 
ATOM     57  C   UNL     1     -11.363   5.693   8.324  1.00  0.00     0.049 A 
ATOM     58  C   UNL     1     -12.232   3.083   3.438  1.00  0.00     0.074 A 
ATOM     59  C   UNL     1     -11.706   4.999   9.470  1.00  0.00     0.029 A 
ATOM     60  N   UNL     1     -11.682   4.874   7.251  1.00  0.00    -0.354 N 
ATOM     61  N   UNL     1     -12.115   3.574   4.648  1.00  0.00    -0.248 NA
ATOM     62  C   UNL     1     -12.772   1.718   3.393  1.00  0.00     0.031 C 
ATOM     63  C   UNL     1     -12.206   3.748   9.090  1.00  0.00     0.029 A 
ATOM     64  C   UNL     1     -12.213   3.679   7.705  1.00  0.00     0.049 A 
ATOM     65  H   UNL     1     -11.550   5.108   6.304  1.00  0.00     0.167 HD
ATOM     66  C   UNL     1     -12.600   2.594   5.507  1.00  0.00     0.074 A 
ATOM     67  C   UNL     1     -13.030   1.490   4.673  1.00  0.00     0.031 C 
ATOM     68  C   UNL     1     -12.674   2.604   6.862  1.00  0.00     0.034 A 
BRANCH  55  69
ATOM     69  C   UNL     1     -10.419   7.755   9.466  1.00  0.00     0.023 A 
ATOM     70  C   UNL     1     -11.149   8.909   9.825  1.00  0.00     0.012 A 
ATOM     71  C   UNL     1      -9.371   7.320  10.301  1.00  0.00     0.148 A 
ATOM     72  C   UNL     1     -10.807   9.648  10.956  1.00  0.00     0.002 A 
ATOM     73  C   UNL     1      -9.070   8.033  11.457  1.00  0.00     0.091 A 
ATOM     74  F   UNL     1      -8.672   6.235   9.940  1.00  0.00    -0.205 F 
ATOM     75  C   UNL     1      -9.773   9.206  11.776  1.00  0.00     0.022 A 
BRANCH  73  76
ATOM     76  S   UNL     1      -7.814   7.495  12.623  1.00  0.00     0.127 S 
ATOM     77  O   UNL     1      -6.742   8.457  12.368  1.00  0.00    -0.237 OA
ATOM     78  O   UNL     1      -8.493   7.667  13.908  1.00  0.00    -0.237 OA
ATOM     79  O   UNL     1      -7.514   6.113  12.278  1.00  0.00    -0.744 OA
ENDBRANCH  73  76
ENDBRANCH  55  69
BRANCH  56  80
ATOM     80  C   UNL     1     -12.132   3.019   0.828  1.00  0.00     0.023 A 
ATOM     81  C   UNL     1     -13.440   2.730   0.393  1.00  0.00     0.012 A 
ATOM     82  C   UNL     1     -11.041   2.684   0.002  1.00  0.00     0.148 A 
ATOM     83  C   UNL     1     -13.657   2.096  -0.831  1.00  0.00     0.002 A 
ATOM     84  C   UNL     1     -11.268   2.105  -1.241  1.00  0.00     0.091 A 
ATOM     85  F   UNL     1      -9.806   2.969   0.437  1.00  0.00    -0.205 F 
ATOM     86  C   UNL     1     -12.573   1.795  -1.652  1.00  0.00     0.022 A 
BRANCH  84  87
ATOM     87  S   UNL     1      -9.950   1.803  -2.424  1.00  0.00     0.127 S 
ATOM     88  O   UNL     1      -9.959   0.345  -2.517  1.00  0.00    -0.237 OA
ATOM     89  O   UNL     1     -10.448   2.499  -3.611  1.00  0.00    -0.237 OA
ATOM     90  O   UNL     1      -8.749   2.386  -1.843  1.00  0.00    -0.744 OA
ENDBRANCH  84  87
ENDBRANCH  56  80
BRANCH  68  91
ATOM     91  C   UNL     1     -13.285   1.400   7.532  1.00  0.00     0.023 A 
ATOM     92  C   UNL     1     -12.597   0.171   7.545  1.00  0.00     0.012 A 
ATOM     93  C   UNL     1     -14.524   1.505   8.195  1.00  0.00     0.148 A 
ATOM     94  C   UNL     1     -13.154  -0.947   8.166  1.00  0.00     0.002 A 
ATOM     95  C   UNL     1     -15.047   0.401   8.858  1.00  0.00     0.091 A 
ATOM     96  F   UNL     1     -15.175   2.676   8.156  1.00  0.00    -0.205 F 
ATOM     97  C   UNL     1     -14.372  -0.829   8.831  1.00  0.00     0.022 A 
BRANCH  95  98
ATOM     98  S   UNL     1     -16.559   0.494   9.823  1.00  0.00     0.127 S 
ATOM     99  O   UNL     1     -17.516  -0.174   8.943  1.00  0.00    -0.237 OA
ATOM    100  O   UNL     1     -16.208  -0.261  11.027  1.00  0.00    -0.237 OA
ATOM    101  O   UNL     1     -16.799   1.912  10.053  1.00  0.00    -0.744 OA
ENDBRANCH  95  98
ENDBRANCH  68  91
ENDBRANCH  42  43
ENDBRANCH  34  37
ENDBRANCH  32  33
ENDBRANCH  31  32
ENDBRANCH  30  31
ENDBRANCH  28  30
ENDBRANCH   1  26
TORSDOF 21
