REMARK SMILES CC1(C)CCN(C(=O)CC(C)(C)C(=O)NCCCNC(=O)c2ccc(-c3c4nc(c(-c5cccc(S(=O)(=O)[O-])c5F)c5ccc([nH]5)c(-c5cccc(S(=O)(=O)[O-])c5F)c5nc(c(-c6cccc(S(=O)(=O)[O-])c6F)c6ccc3[nH]6)C=C5)C=C4)cc2)C1
REMARK SMILES IDX 17 1 16 2 15 3 13 4 14 5 10 7 11 8 12 9 9 10 7 11 8 12 6 13
REMARK SMILES IDX 1 14 2 15 3 16 4 17 85 18 5 19 18 20 19 21 20 22 21 24 22 25
REMARK SMILES IDX 23 26 84 27 24 28 83 29 25 30 26 31 27 32 77 33 28 34 82 35
REMARK SMILES IDX 76 36 78 37 29 38 81 39 75 40 74 41 30 43 62 44 42 45 61 46
REMARK SMILES IDX 43 47 46 48 60 49 79 50 44 51 45 52 59 54 80 55 47 56 31 57
REMARK SMILES IDX 32 58 40 59 33 60 35 61 41 62 34 63 36 64 37 65 38 66 39 67
REMARK SMILES IDX 63 68 64 69 72 70 65 71 67 72 73 73 66 74 68 75 69 76 70 77
REMARK SMILES IDX 71 78 48 79 49 80 57 81 50 82 52 83 58 84 51 85 53 86 54 87
REMARK SMILES IDX 55 88 56 89
REMARK H PARENT 15 6 19 23 78 42 46 53
REMARK Flexibility Score: inf
ROOT
ATOM      1  C   UNL     1      -0.465   5.175  -4.894  1.00  0.00     0.042 C 
ENDROOT
BRANCH   1   2
ATOM      2  C   UNL     1      -0.568   4.060  -3.869  1.00  0.00     0.117 C 
BRANCH   2   3
ATOM      3  N   UNL     1       0.673   3.325  -3.706  1.00  0.00    -0.356 N 
ATOM      4  C   UNL     1       1.482   3.072  -2.646  1.00  0.00     0.226 C 
ATOM      5  O   UNL     1       2.497   2.427  -2.919  1.00  0.00    -0.274 OA
ATOM      6  H   UNL     1       0.997   2.924  -4.544  1.00  0.00     0.163 HD
BRANCH   4   7
ATOM      7  C   UNL     1       1.234   3.626  -1.228  1.00  0.00     0.052 C 
ATOM      8  C   UNL     1      -0.226   3.534  -0.771  1.00  0.00     0.022 C 
ATOM      9  C   UNL     1       1.608   5.124  -1.250  1.00  0.00     0.022 C 
BRANCH   7  10
ATOM     10  C   UNL     1       2.158   2.914  -0.176  1.00  0.00     0.116 C 
BRANCH  10  11
ATOM     11  C   UNL     1       2.421   1.403  -0.253  1.00  0.00     0.223 C 
ATOM     12  O   UNL     1       3.512   0.987  -0.656  1.00  0.00    -0.275 OA
BRANCH  11  13
ATOM     13  N   UNL     1       1.485   0.507   0.212  1.00  0.00    -0.342 N 
ATOM     14  C   UNL     1      -1.082  -0.201  -1.113  1.00  0.00     0.013 C 
ATOM     15  C   UNL     1      -0.653  -0.416   0.353  1.00  0.00    -0.016 C 
ATOM     16  C   UNL     1      -1.898  -0.607   1.213  1.00  0.00     0.013 C 
ATOM     17  C   UNL     1       0.358  -1.573   0.449  1.00  0.00     0.030 C 
ATOM     18  C   UNL     1       0.221   0.730   0.876  1.00  0.00     0.126 C 
ATOM     19  C   UNL     1       1.684  -0.927   0.020  1.00  0.00     0.120 C 
ENDBRANCH  11  13
ENDBRANCH  10  11
ENDBRANCH   7  10
ENDBRANCH   4   7
ENDBRANCH   2   3
ENDBRANCH   1   2
BRANCH   1  20
ATOM     20  C   UNL     1      -0.226   4.683  -6.311  1.00  0.00     0.118 C 
BRANCH  20  21
ATOM     21  N   UNL     1      -1.355   3.922  -6.840  1.00  0.00    -0.352 N 
ATOM     22  C   UNL     1      -2.312   4.280  -7.765  1.00  0.00     0.251 C 
ATOM     23  H   UNL     1      -1.448   3.011  -6.479  1.00  0.00     0.163 HD
ATOM     24  O   UNL     1      -3.298   3.576  -7.929  1.00  0.00    -0.269 OA
BRANCH  22  25
ATOM     25  C   UNL     1      -2.150   5.532  -8.537  1.00  0.00     0.039 A 
ATOM     26  C   UNL     1      -3.247   6.380  -8.719  1.00  0.00     0.014 A 
ATOM     27  C   UNL     1      -0.906   5.875  -9.065  1.00  0.00     0.014 A 
ATOM     28  C   UNL     1      -3.069   7.616  -9.349  1.00  0.00     0.010 A 
ATOM     29  C   UNL     1      -0.708   7.146  -9.585  1.00  0.00     0.010 A 
ATOM     30  C   UNL     1      -1.787   8.028  -9.744  1.00  0.00    -0.014 A 
BRANCH  30  31
ATOM     31  C   UNL     1      -1.520   9.356 -10.355  1.00  0.00     0.031 A 
ATOM     32  C   UNL     1      -0.876   9.417 -11.717  1.00  0.00     0.074 A 
ATOM     33  C   UNL     1      -1.719  10.486  -9.645  1.00  0.00     0.049 A 
ATOM     34  N   UNL     1      -0.349  10.439 -12.338  1.00  0.00    -0.248 NA
ATOM     35  C   UNL     1      -0.770   8.147 -12.458  1.00  0.00     0.031 C 
ATOM     36  C   UNL     1      -2.278  10.555  -8.293  1.00  0.00     0.029 A 
ATOM     37  N   UNL     1      -1.433  11.794  -9.950  1.00  0.00    -0.354 N 
ATOM     38  C   UNL     1       0.197   9.927 -13.509  1.00  0.00     0.074 A 
ATOM     39  C   UNL     1      -0.028   8.499 -13.498  1.00  0.00     0.031 C 
ATOM     40  C   UNL     1      -2.287  11.835  -7.883  1.00  0.00     0.029 A 
ATOM     41  C   UNL     1      -1.697  12.672  -8.922  1.00  0.00     0.049 A 
ATOM     42  H   UNL     1      -1.071  12.078 -10.820  1.00  0.00     0.167 HD
ATOM     43  C   UNL     1       0.802  10.589 -14.523  1.00  0.00     0.034 A 
ATOM     44  C   UNL     1      -1.471  13.997  -8.824  1.00  0.00     0.034 A 
ATOM     45  C   UNL     1       0.956  12.016 -14.563  1.00  0.00     0.049 A 
ATOM     46  C   UNL     1      -0.846  14.716  -9.992  1.00  0.00     0.074 A 
ATOM     47  C   UNL     1       1.496  12.795 -15.571  1.00  0.00     0.029 A 
ATOM     48  N   UNL     1       0.550  12.881 -13.560  1.00  0.00    -0.354 N 
ATOM     49  N   UNL     1      -0.438  14.229 -11.138  1.00  0.00    -0.248 NA
ATOM     50  C   UNL     1      -0.681  16.173  -9.869  1.00  0.00     0.031 C 
ATOM     51  C   UNL     1       1.414  14.133 -15.177  1.00  0.00     0.029 A 
ATOM     52  C   UNL     1       0.808  14.186 -13.932  1.00  0.00     0.049 A 
ATOM     53  H   UNL     1       0.138  12.606 -12.709  1.00  0.00     0.167 HD
ATOM     54  C   UNL     1      -0.024  15.321 -11.891  1.00  0.00     0.074 A 
ATOM     55  C   UNL     1      -0.234  16.497 -11.075  1.00  0.00     0.031 C 
ATOM     56  C   UNL     1       0.499  15.348 -13.141  1.00  0.00     0.034 A 
BRANCH  43  57
ATOM     57  C   UNL     1       1.272   9.790 -15.708  1.00  0.00     0.023 A 
ATOM     58  C   UNL     1       0.319   9.251 -16.597  1.00  0.00     0.012 A 
ATOM     59  C   UNL     1       2.643   9.635 -15.988  1.00  0.00     0.148 A 
ATOM     60  C   UNL     1       0.722   8.546 -17.729  1.00  0.00     0.002 A 
ATOM     61  C   UNL     1       3.038   8.970 -17.143  1.00  0.00     0.091 A 
ATOM     62  F   UNL     1       3.534  10.139 -15.122  1.00  0.00    -0.205 F 
ATOM     63  C   UNL     1       2.079   8.416 -18.008  1.00  0.00     0.022 A 
BRANCH  61  64
ATOM     64  S   UNL     1       4.757   8.817 -17.640  1.00  0.00     0.127 S 
ATOM     65  O   UNL     1       4.976   7.377 -17.505  1.00  0.00    -0.237 OA
ATOM     66  O   UNL     1       4.721   9.301 -19.020  1.00  0.00    -0.237 OA
ATOM     67  O   UNL     1       5.519   9.650 -16.721  1.00  0.00    -0.744 OA
ENDBRANCH  61  64
ENDBRANCH  43  57
BRANCH  44  68
ATOM     68  C   UNL     1      -1.893  14.750  -7.607  1.00  0.00     0.023 A 
ATOM     69  C   UNL     1      -2.956  15.670  -7.703  1.00  0.00     0.012 A 
ATOM     70  C   UNL     1      -1.256  14.570  -6.365  1.00  0.00     0.148 A 
ATOM     71  C   UNL     1      -3.345  16.430  -6.599  1.00  0.00     0.002 A 
ATOM     72  C   UNL     1      -1.686  15.290  -5.254  1.00  0.00     0.091 A 
ATOM     73  F   UNL     1      -0.237  13.702  -6.290  1.00  0.00    -0.205 F 
ATOM     74  C   UNL     1      -2.716  16.235  -5.374  1.00  0.00     0.022 A 
BRANCH  72  75
ATOM     75  S   UNL     1      -1.016  15.000  -3.613  1.00  0.00     0.127 S 
ATOM     76  O   UNL     1      -0.099  16.125  -3.458  1.00  0.00    -0.237 OA
ATOM     77  O   UNL     1      -2.214  15.062  -2.774  1.00  0.00    -0.237 OA
ATOM     78  O   UNL     1      -0.405  13.678  -3.676  1.00  0.00    -0.744 OA
ENDBRANCH  72  75
ENDBRANCH  44  68
BRANCH  56  79
ATOM     79  C   UNL     1       0.803  16.688 -13.753  1.00  0.00     0.023 A 
ATOM     80  C   UNL     1       1.939  17.409 -13.340  1.00  0.00     0.012 A 
ATOM     81  C   UNL     1       0.022  17.169 -14.822  1.00  0.00     0.148 A 
ATOM     82  C   UNL     1       2.283  18.602 -13.972  1.00  0.00     0.002 A 
ATOM     83  C   UNL     1       0.398  18.334 -15.478  1.00  0.00     0.091 A 
ATOM     84  F   UNL     1      -1.065  16.471 -15.185  1.00  0.00    -0.205 F 
ATOM     85  C   UNL     1       1.523  19.056 -15.049  1.00  0.00     0.022 A 
BRANCH  83  86
ATOM     86  S   UNL     1      -0.461  18.939 -16.935  1.00  0.00     0.127 S 
ATOM     87  O   UNL     1      -1.119  20.137 -16.415  1.00  0.00    -0.237 OA
ATOM     88  O   UNL     1       0.643  19.201 -17.858  1.00  0.00    -0.237 OA
ATOM     89  O   UNL     1      -1.356  17.868 -17.350  1.00  0.00    -0.744 OA
ENDBRANCH  83  86
ENDBRANCH  56  79
ENDBRANCH  30  31
ENDBRANCH  22  25
ENDBRANCH  20  21
ENDBRANCH   1  20
TORSDOF 16
