REMARK SMILES C[C@@H](C(=O)NCCCNC(=O)c1ccc(-c2c3nc(c(-c4cccc(S(=O)(=O)[O-])c4F)c4ccc([nH]4)c(-c4cccc(S(=O)(=O)[O-])c4F)c4nc(c(-c5cccc(S(=O)(=O)[O-])c5F)c5ccc2[nH]5)C=C4)C=C3)cc1)n1ccc(C(=O)N2CC[NH+](Cc3cccc(F)c3)CC2)n1
REMARK SMILES IDX 6 1 5 2 3 3 4 4 2 6 1 7 75 8 76 9 95 10 77 11 78 12 79 13
REMARK SMILES IDX 80 14 81 15 82 16 94 17 83 18 93 19 84 20 85 22 86 23 87 24
REMARK SMILES IDX 92 25 88 26 90 27 89 28 91 29 7 30 8 31 9 32 10 33 11 35
REMARK SMILES IDX 12 36 13 37 74 38 14 39 73 40 15 41 16 42 17 43 67 44 18 45
REMARK SMILES IDX 72 46 66 47 68 48 19 49 71 50 65 51 64 52 20 54 52 55 32 56
REMARK SMILES IDX 51 57 33 58 36 59 50 60 69 61 34 62 35 63 49 65 70 66 37 67
REMARK SMILES IDX 21 68 22 69 30 70 23 71 25 72 31 73 24 74 26 75 27 76 28 77
REMARK SMILES IDX 29 78 53 79 54 80 62 81 55 82 57 83 63 84 56 85 58 86 59 87
REMARK SMILES IDX 60 88 61 89 38 90 39 91 47 92 40 93 42 94 48 95 41 96 43 97
REMARK SMILES IDX 44 98 45 99 46 100
REMARK H PARENT 5 5 84 21 9 34 68 53 36 64
REMARK Flexibility Score: inf
ROOT
ATOM      1  C   UNL     1       3.466  -0.916   1.718  1.00  0.00     0.117 C 
ENDROOT
BRANCH   1   2
ATOM      2  N   UNL     1       2.390  -0.438   2.560  1.00  0.00    -0.354 N 
ATOM      3  C   UNL     1       1.040  -0.421   2.354  1.00  0.00     0.244 C 
ATOM      4  O   UNL     1       0.365  -0.075   3.326  1.00  0.00    -0.273 OA
ATOM      5  H   UNL     1       2.679  -0.062   3.423  1.00  0.00     0.163 HD
BRANCH   3   6
ATOM      6  C   UNL     1       0.448  -0.897   1.019  1.00  0.00     0.193 C 
ATOM      7  C   UNL     1       0.864  -0.045  -0.181  1.00  0.00     0.044 C 
BRANCH   6   8
ATOM      8  N   UNL     1      -1.012  -0.933   1.109  1.00  0.00    -0.260 N 
ATOM      9  C   UNL     1      -1.823  -2.030   1.138  1.00  0.00     0.110 A 
ATOM     10  N   UNL     1      -1.690   0.222   1.128  1.00  0.00    -0.167 NA
ATOM     11  C   UNL     1      -3.096  -1.540   1.332  1.00  0.00     0.056 A 
ATOM     12  C   UNL     1      -2.963  -0.123   1.367  1.00  0.00     0.150 A 
BRANCH  12  13
ATOM     13  C   UNL     1      -4.007   0.855   1.724  1.00  0.00     0.274 C 
ATOM     14  O   UNL     1      -5.045   0.472   2.274  1.00  0.00    -0.267 OA
ATOM     15  N   UNL     1      -3.771   2.221   1.492  1.00  0.00    -0.326 N 
ATOM     16  C   UNL     1      -4.662   3.151   2.170  1.00  0.00     0.181 C 
ATOM     17  C   UNL     1      -3.103   2.703   0.277  1.00  0.00     0.181 C 
ATOM     18  C   UNL     1      -4.210   4.622   2.135  1.00  0.00     0.284 C 
ATOM     19  C   UNL     1      -2.692   4.186   0.316  1.00  0.00     0.284 C 
ATOM     20  N   UNL     1      -3.690   5.114   0.857  1.00  0.00    -0.328 N 
ATOM     21  H   UNL     1      -3.200   5.982   1.070  1.00  0.00     0.348 HD
BRANCH  20  22
ATOM     22  C   UNL     1      -4.662   5.652  -0.095  1.00  0.00     0.299 C 
BRANCH  22  23
ATOM     23  C   UNL     1      -5.644   4.686  -0.718  1.00  0.00     0.009 A 
ATOM     24  C   UNL     1      -5.359   4.061  -1.944  1.00  0.00     0.010 A 
ATOM     25  C   UNL     1      -6.845   4.371  -0.070  1.00  0.00     0.048 A 
ATOM     26  C   UNL     1      -6.210   3.081  -2.462  1.00  0.00     0.004 A 
ATOM     27  C   UNL     1      -7.681   3.387  -0.587  1.00  0.00     0.123 A 
ATOM     28  C   UNL     1      -7.367   2.730  -1.770  1.00  0.00     0.039 A 
ATOM     29  F   UNL     1      -8.793   3.051   0.080  1.00  0.00    -0.207 F 
ENDBRANCH  22  23
ENDBRANCH  20  22
ENDBRANCH  12  13
ENDBRANCH   6   8
ENDBRANCH   3   6
ENDBRANCH   1   2
BRANCH   1  30
ATOM     30  C   UNL     1       4.277   0.225   1.115  1.00  0.00     0.042 C 
BRANCH  30  31
ATOM     31  C   UNL     1       4.972   1.112   2.143  1.00  0.00     0.118 C 
BRANCH  31  32
ATOM     32  N   UNL     1       5.974   0.394   2.919  1.00  0.00    -0.352 N 
ATOM     33  C   UNL     1       7.323   0.626   3.031  1.00  0.00     0.251 C 
ATOM     34  H   UNL     1       5.635  -0.369   3.439  1.00  0.00     0.163 HD
ATOM     35  O   UNL     1       8.038  -0.204   3.590  1.00  0.00    -0.269 OA
BRANCH  33  36
ATOM     36  C   UNL     1       7.917   1.858   2.470  1.00  0.00     0.039 A 
ATOM     37  C   UNL     1       9.108   1.771   1.742  1.00  0.00     0.014 A 
ATOM     38  C   UNL     1       7.308   3.098   2.675  1.00  0.00     0.014 A 
ATOM     39  C   UNL     1       9.654   2.920   1.164  1.00  0.00     0.010 A 
ATOM     40  C   UNL     1       7.813   4.228   2.041  1.00  0.00     0.010 A 
ATOM     41  C   UNL     1       8.994   4.152   1.285  1.00  0.00    -0.014 A 
BRANCH  41  42
ATOM     42  C   UNL     1       9.507   5.391   0.648  1.00  0.00     0.031 A 
ATOM     43  C   UNL     1       9.907   6.557   1.509  1.00  0.00     0.074 A 
ATOM     44  C   UNL     1       9.479   5.517  -0.693  1.00  0.00     0.049 A 
ATOM     45  N   UNL     1      10.200   7.781   1.159  1.00  0.00    -0.248 NA
ATOM     46  C   UNL     1       9.944   6.321   2.962  1.00  0.00     0.031 C 
ATOM     47  C   UNL     1       9.046   4.481  -1.631  1.00  0.00     0.029 A 
ATOM     48  N   UNL     1       9.777   6.591  -1.495  1.00  0.00    -0.354 N 
ATOM     49  C   UNL     1      10.399   8.476   2.346  1.00  0.00     0.074 A 
ATOM     50  C   UNL     1      10.175   7.540   3.427  1.00  0.00     0.031 C 
ATOM     51  C   UNL     1       9.086   4.975  -2.879  1.00  0.00     0.029 A 
ATOM     52  C   UNL     1       9.516   6.369  -2.828  1.00  0.00     0.049 A 
ATOM     53  H   UNL     1      10.141   7.438  -1.151  1.00  0.00     0.167 HD
ATOM     54  C   UNL     1      10.759   9.769   2.521  1.00  0.00     0.034 A 
ATOM     55  C   UNL     1       9.595   7.200  -3.886  1.00  0.00     0.034 A 
ATOM     56  C   UNL     1      11.045  10.675   1.443  1.00  0.00     0.049 A 
ATOM     57  C   UNL     1      10.070   8.612  -3.674  1.00  0.00     0.074 A 
ATOM     58  C   UNL     1      11.507  11.977   1.513  1.00  0.00     0.029 A 
ATOM     59  N   UNL     1      10.903  10.371   0.098  1.00  0.00    -0.354 N 
ATOM     60  N   UNL     1      10.391   9.213  -2.554  1.00  0.00    -0.248 NA
ATOM     61  C   UNL     1      10.229   9.451  -4.871  1.00  0.00     0.031 C 
ATOM     62  C   UNL     1      11.642  12.461   0.207  1.00  0.00     0.029 A 
ATOM     63  C   UNL     1      11.274  11.457  -0.674  1.00  0.00     0.049 A 
ATOM     64  H   UNL     1      10.585   9.509  -0.255  1.00  0.00     0.167 HD
ATOM     65  C   UNL     1      10.826  10.483  -2.911  1.00  0.00     0.074 A 
ATOM     66  C   UNL     1      10.738  10.564  -4.355  1.00  0.00     0.031 C 
ATOM     67  C   UNL     1      11.248  11.496  -2.114  1.00  0.00     0.034 A 
BRANCH  54  68
ATOM     68  C   UNL     1      10.923  10.258   3.935  1.00  0.00     0.023 A 
ATOM     69  C   UNL     1      12.031   9.827   4.693  1.00  0.00     0.012 A 
ATOM     70  C   UNL     1      10.007  11.164   4.505  1.00  0.00     0.148 A 
ATOM     71  C   UNL     1      12.203  10.256   6.008  1.00  0.00     0.002 A 
ATOM     72  C   UNL     1      10.209  11.620   5.803  1.00  0.00     0.091 A 
ATOM     73  F   UNL     1       8.943  11.543   3.782  1.00  0.00    -0.205 F 
ATOM     74  C   UNL     1      11.298  11.159   6.560  1.00  0.00     0.022 A 
BRANCH  72  75
ATOM     75  S   UNL     1       9.132  12.843   6.561  1.00  0.00     0.127 S 
ATOM     76  O   UNL     1       8.250  12.002   7.368  1.00  0.00    -0.237 OA
ATOM     77  O   UNL     1      10.072  13.656   7.333  1.00  0.00    -0.237 OA
ATOM     78  O   UNL     1       8.501  13.546   5.452  1.00  0.00    -0.744 OA
ENDBRANCH  72  75
ENDBRANCH  54  68
BRANCH  55  79
ATOM     79  C   UNL     1       9.287   6.683  -5.248  1.00  0.00     0.023 A 
ATOM     80  C   UNL     1      10.344   6.454  -6.150  1.00  0.00     0.012 A 
ATOM     81  C   UNL     1       7.973   6.349  -5.630  1.00  0.00     0.148 A 
ATOM     82  C   UNL     1      10.097   5.921  -7.415  1.00  0.00     0.002 A 
ATOM     83  C   UNL     1       7.739   5.770  -6.873  1.00  0.00     0.091 A 
ATOM     84  F   UNL     1       6.980   6.583  -4.760  1.00  0.00    -0.205 F 
ATOM     85  C   UNL     1       8.798   5.568  -7.772  1.00  0.00     0.022 A 
BRANCH  83  86
ATOM     86  S   UNL     1       6.122   5.157  -7.363  1.00  0.00     0.127 S 
ATOM     87  O   UNL     1       5.741   6.114  -8.400  1.00  0.00    -0.237 OA
ATOM     88  O   UNL     1       6.444   3.815  -7.853  1.00  0.00    -0.237 OA
ATOM     89  O   UNL     1       5.311   5.174  -6.156  1.00  0.00    -0.744 OA
ENDBRANCH  83  86
ENDBRANCH  55  79
BRANCH  67  90
ATOM     90  C   UNL     1      11.693  12.773  -2.773  1.00  0.00     0.023 A 
ATOM     91  C   UNL     1      10.732  13.674  -3.269  1.00  0.00     0.012 A 
ATOM     92  C   UNL     1      13.057  13.128  -2.797  1.00  0.00     0.148 A 
ATOM     93  C   UNL     1      11.122  14.906  -3.793  1.00  0.00     0.002 A 
ATOM     94  C   UNL     1      13.434  14.374  -3.284  1.00  0.00     0.091 A 
ATOM     95  F   UNL     1      13.956  12.245  -2.339  1.00  0.00    -0.205 F 
ATOM     96  C   UNL     1      12.470  15.261  -3.788  1.00  0.00     0.022 A 
BRANCH  94  97
ATOM     97  S   UNL     1      15.136  14.950  -3.230  1.00  0.00     0.127 S 
ATOM     98  O   UNL     1      15.529  14.847  -4.634  1.00  0.00    -0.237 OA
ATOM     99  O   UNL     1      14.986  16.320  -2.737  1.00  0.00    -0.237 OA
ATOM    100  O   UNL     1      15.832  14.055  -2.316  1.00  0.00    -0.744 OA
ENDBRANCH  94  97
ENDBRANCH  67  90
ENDBRANCH  41  42
ENDBRANCH  33  36
ENDBRANCH  31  32
ENDBRANCH  30  31
ENDBRANCH   1  30
TORSDOF 17
