REMARK SMILES CC(C)(C[S@](=O)c1cccc(Cl)c1)C(=O)NCCCNC(=O)c1ccc(-c2c3nc(c(-c4cccc(S(=O)(=O)[O-])c4F)c4ccc([nH]4)c(-c4cccc(S(=O)(=O)[O-])c4F)c4nc(c(-c5cccc(S(=O)(=O)[O-])c5F)c5ccc2[nH]5)C=C4)C=C3)cc1
REMARK SMILES IDX 18 1 17 2 16 3 14 4 15 5 2 7 1 8 3 9 4 10 5 11 6 12 7 13
REMARK SMILES IDX 8 14 13 15 9 16 11 17 10 18 12 19 19 20 20 21 21 22 22 24
REMARK SMILES IDX 23 25 24 26 85 27 25 28 84 29 26 30 27 31 28 32 78 33 29 34
REMARK SMILES IDX 83 35 77 36 79 37 30 38 82 39 76 40 75 41 31 43 63 44 43 45
REMARK SMILES IDX 62 46 44 47 47 48 61 49 80 50 45 51 46 52 60 54 81 55 48 56
REMARK SMILES IDX 32 57 33 58 41 59 34 60 36 61 42 62 35 63 37 64 38 65 39 66
REMARK SMILES IDX 40 67 64 68 65 69 73 70 66 71 68 72 74 73 67 74 69 75 70 76
REMARK SMILES IDX 71 77 72 78 49 79 50 80 58 81 51 82 53 83 59 84 52 85 54 86
REMARK SMILES IDX 55 87 56 88 57 89
REMARK H PARENT 16 6 20 23 79 42 47 53
REMARK Flexibility Score: inf
ROOT
ATOM      1  C   UNL     1      -3.837  -1.435   3.820  1.00  0.00     0.042 C 
ENDROOT
BRANCH   1   2
ATOM      2  C   UNL     1      -4.715  -0.666   2.848  1.00  0.00     0.117 C 
BRANCH   2   3
ATOM      3  N   UNL     1      -4.040   0.445   2.204  1.00  0.00    -0.356 N 
ATOM      4  C   UNL     1      -3.797   0.748   0.901  1.00  0.00     0.226 C 
ATOM      5  O   UNL     1      -3.353   1.879   0.677  1.00  0.00    -0.274 OA
ATOM      6  H   UNL     1      -3.687   1.112   2.836  1.00  0.00     0.163 HD
BRANCH   4   7
ATOM      7  C   UNL     1      -4.099  -0.228  -0.253  1.00  0.00     0.055 C 
ATOM      8  C   UNL     1      -3.765   0.466  -1.595  1.00  0.00     0.022 C 
ATOM      9  C   UNL     1      -5.627  -0.466  -0.341  1.00  0.00     0.022 C 
BRANCH   7  10
ATOM     10  C   UNL     1      -3.353  -1.579  -0.132  1.00  0.00     0.126 C 
BRANCH  10  11
ATOM     11  S   UNL     1      -1.563  -1.585   0.256  1.00  0.00     0.054 S 
ATOM     12  O   UNL     1      -1.230  -0.416   1.129  1.00  0.00    -0.254 OA
BRANCH  11  13
ATOM     13  C   UNL     1      -0.871  -1.234  -1.367  1.00  0.00     0.040 A 
ATOM     14  C   UNL     1      -0.720  -2.273  -2.293  1.00  0.00     0.018 A 
ATOM     15  C   UNL     1      -0.476   0.060  -1.717  1.00  0.00     0.038 A 
ATOM     16  C   UNL     1      -0.250  -2.006  -3.581  1.00  0.00     0.003 A 
ATOM     17  C   UNL     1      -0.054   0.331  -3.016  1.00  0.00     0.042 A 
ATOM     18  C   UNL     1       0.057  -0.697  -3.951  1.00  0.00     0.020 A 
ATOM     19  Cl  UNL     1       0.283   1.951  -3.489  1.00  0.00    -0.084 Cl
ENDBRANCH  11  13
ENDBRANCH  10  11
ENDBRANCH   7  10
ENDBRANCH   4   7
ENDBRANCH   2   3
ENDBRANCH   1   2
BRANCH   1  20
ATOM     20  C   UNL     1      -3.380  -0.630   5.027  1.00  0.00     0.118 C 
BRANCH  20  21
ATOM     21  N   UNL     1      -4.493  -0.151   5.841  1.00  0.00    -0.352 N 
ATOM     22  C   UNL     1      -4.878  -0.487   7.116  1.00  0.00     0.251 C 
ATOM     23  H   UNL     1      -5.061   0.524   5.405  1.00  0.00     0.163 HD
ATOM     24  O   UNL     1      -5.968  -0.099   7.537  1.00  0.00    -0.269 OA
BRANCH  22  25
ATOM     25  C   UNL     1      -4.011  -1.321   7.976  1.00  0.00     0.039 A 
ATOM     26  C   UNL     1      -4.596  -2.293   8.794  1.00  0.00     0.014 A 
ATOM     27  C   UNL     1      -2.626  -1.141   7.996  1.00  0.00     0.014 A 
ATOM     28  C   UNL     1      -3.787  -3.128   9.569  1.00  0.00     0.010 A 
ATOM     29  C   UNL     1      -1.819  -2.039   8.686  1.00  0.00     0.010 A 
ATOM     30  C   UNL     1      -2.388  -3.037   9.489  1.00  0.00    -0.014 A 
BRANCH  30  31
ATOM     31  C   UNL     1      -1.504  -3.975  10.228  1.00  0.00     0.031 A 
ATOM     32  C   UNL     1      -0.521  -3.453  11.243  1.00  0.00     0.074 A 
ATOM     33  C   UNL     1      -1.519  -5.287   9.919  1.00  0.00     0.049 A 
ATOM     34  N   UNL     1       0.374  -4.109  11.937  1.00  0.00    -0.248 NA
ATOM     35  C   UNL     1      -0.523  -2.001  11.492  1.00  0.00     0.031 C 
ATOM     36  C   UNL     1      -2.366  -5.906   8.896  1.00  0.00     0.029 A 
ATOM     37  N   UNL     1      -0.781  -6.334  10.413  1.00  0.00    -0.354 N 
ATOM     38  C   UNL     1       1.064  -3.151  12.670  1.00  0.00     0.074 A 
ATOM     39  C   UNL     1       0.510  -1.864  12.310  1.00  0.00     0.031 C 
ATOM     40  C   UNL     1      -2.106  -7.221   8.844  1.00  0.00     0.029 A 
ATOM     41  C   UNL     1      -1.049  -7.536   9.799  1.00  0.00     0.049 A 
ATOM     42  H   UNL     1      -0.123  -6.234  11.138  1.00  0.00     0.167 HD
ATOM     43  C   UNL     1       2.050  -3.325  13.581  1.00  0.00     0.034 A 
ATOM     44  C   UNL     1      -0.497  -8.753   9.975  1.00  0.00     0.034 A 
ATOM     45  C   UNL     1       2.573  -4.609  13.964  1.00  0.00     0.049 A 
ATOM     46  C   UNL     1       0.575  -8.925  11.018  1.00  0.00     0.074 A 
ATOM     47  C   UNL     1       3.507  -4.900  14.942  1.00  0.00     0.029 A 
ATOM     48  N   UNL     1       2.219  -5.814  13.378  1.00  0.00    -0.354 N 
ATOM     49  N   UNL     1       1.101  -8.028  11.816  1.00  0.00    -0.248 NA
ATOM     50  C   UNL     1       1.103 -10.283  11.210  1.00  0.00     0.031 C 
ATOM     51  C   UNL     1       3.744  -6.278  14.924  1.00  0.00     0.029 A 
ATOM     52  C   UNL     1       2.926  -6.851  13.963  1.00  0.00     0.049 A 
ATOM     53  H   UNL     1       1.561  -5.918  12.653  1.00  0.00     0.167 HD
ATOM     54  C   UNL     1       1.993  -8.718  12.629  1.00  0.00     0.074 A 
ATOM     55  C   UNL     1       1.920 -10.111  12.240  1.00  0.00     0.031 C 
ATOM     56  C   UNL     1       2.809  -8.240  13.601  1.00  0.00     0.034 A 
BRANCH  43  57
ATOM     57  C   UNL     1       2.602  -2.099  14.263  1.00  0.00     0.023 A 
ATOM     58  C   UNL     1       1.802  -1.392  15.185  1.00  0.00     0.012 A 
ATOM     59  C   UNL     1       3.928  -1.681  14.038  1.00  0.00     0.148 A 
ATOM     60  C   UNL     1       2.299  -0.267  15.842  1.00  0.00     0.002 A 
ATOM     61  C   UNL     1       4.433  -0.589  14.735  1.00  0.00     0.091 A 
ATOM     62  F   UNL     1       4.668  -2.353  13.145  1.00  0.00    -0.205 F 
ATOM     63  C   UNL     1       3.616   0.127  15.626  1.00  0.00     0.022 A 
BRANCH  61  64
ATOM     64  S   UNL     1       6.141  -0.052  14.593  1.00  0.00     0.127 S 
ATOM     65  O   UNL     1       5.991   1.228  13.900  1.00  0.00    -0.237 OA
ATOM     66  O   UNL     1       6.545   0.058  15.995  1.00  0.00    -0.237 OA
ATOM     67  O   UNL     1       6.829  -1.091  13.841  1.00  0.00    -0.744 OA
ENDBRANCH  61  64
ENDBRANCH  43  57
BRANCH  44  68
ATOM     68  C   UNL     1      -0.987  -9.916   9.182  1.00  0.00     0.023 A 
ATOM     69  C   UNL     1      -1.707 -10.941   9.827  1.00  0.00     0.012 A 
ATOM     70  C   UNL     1      -0.766 -10.002   7.794  1.00  0.00     0.148 A 
ATOM     71  C   UNL     1      -2.165 -12.048   9.111  1.00  0.00     0.002 A 
ATOM     72  C   UNL     1      -1.276 -11.078   7.077  1.00  0.00     0.091 A 
ATOM     73  F   UNL     1      -0.072  -9.021   7.200  1.00  0.00    -0.205 F 
ATOM     74  C   UNL     1      -1.958 -12.112   7.736  1.00  0.00     0.022 A 
BRANCH  72  75
ATOM     75  S   UNL     1      -1.175 -11.178   5.286  1.00  0.00     0.127 S 
ATOM     76  O   UNL     1      -0.245 -12.289   5.099  1.00  0.00    -0.237 OA
ATOM     77  O   UNL     1      -2.562 -11.467   4.922  1.00  0.00    -0.237 OA
ATOM     78  O   UNL     1      -0.699  -9.875   4.843  1.00  0.00    -0.744 OA
ENDBRANCH  72  75
ENDBRANCH  44  68
BRANCH  56  79
ATOM     79  C   UNL     1       3.661  -9.231  14.350  1.00  0.00     0.023 A 
ATOM     80  C   UNL     1       4.759  -9.843  13.713  1.00  0.00     0.012 A 
ATOM     81  C   UNL     1       3.414  -9.499  15.711  1.00  0.00     0.148 A 
ATOM     82  C   UNL     1       5.575 -10.733  14.409  1.00  0.00     0.002 A 
ATOM     83  C   UNL     1       4.264 -10.346  16.412  1.00  0.00     0.091 A 
ATOM     84  F   UNL     1       2.355  -8.920  16.295  1.00  0.00    -0.205 F 
ATOM     85  C   UNL     1       5.336 -10.975  15.759  1.00  0.00     0.022 A 
BRANCH  83  86
ATOM     86  S   UNL     1       4.093 -10.638  18.176  1.00  0.00     0.127 S 
ATOM     87  O   UNL     1       3.633 -12.026  18.205  1.00  0.00    -0.237 OA
ATOM     88  O   UNL     1       5.462 -10.440  18.656  1.00  0.00    -0.237 OA
ATOM     89  O   UNL     1       3.135  -9.653  18.658  1.00  0.00    -0.744 OA
ENDBRANCH  83  86
ENDBRANCH  56  79
ENDBRANCH  30  31
ENDBRANCH  22  25
ENDBRANCH  20  21
ENDBRANCH   1  20
TORSDOF 16
