REMARK SMILES Cc1ccc(C(=O)Nc2cccc(F)c2C(=O)NCCCNC(=O)c2ccc(-c3c4nc(c(-c5cccc(S(=O)(=O)[O-])c5F)c5ccc([nH]5)c(-c5cccc(S(=O)(=O)[O-])c5F)c5nc(c(-c6cccc(S(=O)(=O)[O-])c6F)c6ccc3[nH]6)C=C5)C=C4)cc2)c(F)c1
REMARK SMILES IDX 20 1 19 2 18 3 16 4 17 5 15 7 9 8 10 9 11 10 13 11 12 12
REMARK SMILES IDX 14 13 8 14 6 15 7 16 5 18 1 19 2 20 3 21 90 22 4 23 88 24
REMARK SMILES IDX 89 25 21 26 22 27 23 28 24 30 25 31 26 32 87 33 27 34 86 35
REMARK SMILES IDX 28 36 29 37 30 38 80 39 31 40 85 41 79 42 81 43 32 44 84 45
REMARK SMILES IDX 78 46 77 47 33 49 65 50 45 51 64 52 46 53 49 54 63 55 82 56
REMARK SMILES IDX 47 57 48 58 62 60 83 61 50 62 34 63 35 64 43 65 36 66 38 67
REMARK SMILES IDX 44 68 37 69 39 70 40 71 41 72 42 73 66 74 67 75 75 76 68 77
REMARK SMILES IDX 70 78 76 79 69 80 71 81 72 82 73 83 74 84 51 85 52 86 60 87
REMARK SMILES IDX 53 88 55 89 61 90 54 91 56 92 57 93 58 94 59 95
REMARK H PARENT 18 6 8 17 22 29 81 48 49 59
REMARK Flexibility Score: inf
ROOT
ATOM      1  C   UNL     1      -0.458  -8.932  -2.282  1.00  0.00     0.042 C 
ENDROOT
BRANCH   1   2
ATOM      2  C   UNL     1      -0.322  -7.524  -2.861  1.00  0.00     0.118 C 
BRANCH   2   3
ATOM      3  N   UNL     1      -1.368  -6.649  -2.371  1.00  0.00    -0.352 N 
ATOM      4  C   UNL     1      -1.521  -5.742  -1.363  1.00  0.00     0.256 C 
ATOM      5  O   UNL     1      -2.667  -5.274  -1.308  1.00  0.00    -0.269 OA
ATOM      6  H   UNL     1      -2.188  -6.731  -2.909  1.00  0.00     0.163 HD
BRANCH   4   7
ATOM      7  C   UNL     1      -0.511  -5.259  -0.362  1.00  0.00     0.099 A 
ATOM      8  C   UNL     1      -0.841  -4.109   0.414  1.00  0.00     0.057 A 
ATOM      9  C   UNL     1      -0.015  -3.676   1.468  1.00  0.00     0.027 A 
ATOM     10  C   UNL     1       1.222  -4.265   1.678  1.00  0.00     0.005 A 
ATOM     11  C   UNL     1       0.752  -5.811  -0.130  1.00  0.00     0.138 A 
ATOM     12  C   UNL     1       1.621  -5.300   0.846  1.00  0.00     0.040 A 
ATOM     13  F   UNL     1       1.225  -6.856  -0.809  1.00  0.00    -0.206 F 
BRANCH   8  14
ATOM     14  N   UNL     1      -1.980  -3.335   0.096  1.00  0.00    -0.321 N 
ATOM     15  C   UNL     1      -2.127  -1.964  -0.000  1.00  0.00     0.258 C 
ATOM     16  O   UNL     1      -3.246  -1.481  -0.160  1.00  0.00    -0.269 OA
ATOM     17  H   UNL     1      -2.797  -3.854  -0.086  1.00  0.00     0.170 HD
BRANCH  15  18
ATOM     18  C   UNL     1      -0.938  -1.069  -0.057  1.00  0.00     0.075 A 
ATOM     19  C   UNL     1       2.514   1.526  -0.043  1.00  0.00     0.044 C 
ATOM     20  C   UNL     1       1.311   0.633  -0.067  1.00  0.00    -0.048 A 
ATOM     21  C   UNL     1       1.385  -0.635  -0.646  1.00  0.00     0.004 A 
ATOM     22  C   UNL     1       0.083   1.075   0.439  1.00  0.00     0.043 A 
ATOM     23  C   UNL     1       0.259  -1.462  -0.674  1.00  0.00     0.017 A 
ATOM     24  C   UNL     1      -1.025   0.224   0.454  1.00  0.00     0.136 A 
ATOM     25  F   UNL     1      -2.162   0.689   0.993  1.00  0.00    -0.206 F 
ENDBRANCH  15  18
ENDBRANCH   8  14
ENDBRANCH   4   7
ENDBRANCH   2   3
ENDBRANCH   1   2
BRANCH   1  26
ATOM     26  C   UNL     1      -1.576  -9.749  -2.939  1.00  0.00     0.118 C 
BRANCH  26  27
ATOM     27  N   UNL     1      -1.341  -9.951  -4.365  1.00  0.00    -0.352 N 
ATOM     28  C   UNL     1      -1.000 -11.074  -5.074  1.00  0.00     0.251 C 
ATOM     29  H   UNL     1      -1.446  -9.140  -4.914  1.00  0.00     0.163 HD
ATOM     30  O   UNL     1      -0.562 -10.941  -6.216  1.00  0.00    -0.269 OA
BRANCH  28  31
ATOM     31  C   UNL     1      -1.169 -12.428  -4.505  1.00  0.00     0.039 A 
ATOM     32  C   UNL     1      -0.265 -13.432  -4.870  1.00  0.00     0.014 A 
ATOM     33  C   UNL     1      -2.263 -12.743  -3.696  1.00  0.00     0.014 A 
ATOM     34  C   UNL     1      -0.444 -14.736  -4.404  1.00  0.00     0.010 A 
ATOM     35  C   UNL     1      -2.390 -14.021  -3.159  1.00  0.00     0.010 A 
ATOM     36  C   UNL     1      -1.502 -15.039  -3.531  1.00  0.00    -0.014 A 
BRANCH  36  37
ATOM     37  C   UNL     1      -1.715 -16.421  -3.030  1.00  0.00     0.031 A 
ATOM     38  C   UNL     1      -2.982 -17.162  -3.372  1.00  0.00     0.074 A 
ATOM     39  C   UNL     1      -0.801 -16.983  -2.216  1.00  0.00     0.049 A 
ATOM     40  N   UNL     1      -3.361 -18.356  -3.001  1.00  0.00    -0.248 NA
ATOM     41  C   UNL     1      -3.965 -16.461  -4.216  1.00  0.00     0.031 C 
ATOM     42  C   UNL     1       0.425 -16.333  -1.750  1.00  0.00     0.029 A 
ATOM     43  N   UNL     1      -0.767 -18.220  -1.623  1.00  0.00    -0.354 N 
ATOM     44  C   UNL     1      -4.635 -18.532  -3.529  1.00  0.00     0.074 A 
ATOM     45  C   UNL     1      -4.984 -17.309  -4.213  1.00  0.00     0.031 C 
ATOM     46  C   UNL     1       1.100 -17.183  -0.959  1.00  0.00     0.029 A 
ATOM     47  C   UNL     1       0.344 -18.426  -0.838  1.00  0.00     0.049 A 
ATOM     48  H   UNL     1      -1.472 -18.896  -1.747  1.00  0.00     0.167 HD
ATOM     49  C   UNL     1      -5.426 -19.629  -3.484  1.00  0.00     0.034 A 
ATOM     50  C   UNL     1       0.715 -19.497  -0.109  1.00  0.00     0.034 A 
ATOM     51  C   UNL     1      -5.040 -20.868  -2.867  1.00  0.00     0.049 A 
ATOM     52  C   UNL     1      -0.155 -20.725  -0.122  1.00  0.00     0.074 A 
ATOM     53  C   UNL     1      -5.721 -22.072  -2.864  1.00  0.00     0.029 A 
ATOM     54  N   UNL     1      -3.872 -21.063  -2.148  1.00  0.00    -0.354 N 
ATOM     55  N   UNL     1      -1.281 -20.928  -0.763  1.00  0.00    -0.248 NA
ATOM     56  C   UNL     1       0.307 -21.882   0.659  1.00  0.00     0.031 C 
ATOM     57  C   UNL     1      -4.973 -22.991  -2.125  1.00  0.00     0.029 A 
ATOM     58  C   UNL     1      -3.817 -22.365  -1.685  1.00  0.00     0.049 A 
ATOM     59  H   UNL     1      -3.184 -20.377  -1.990  1.00  0.00     0.167 HD
ATOM     60  C   UNL     1      -1.650 -22.238  -0.484  1.00  0.00     0.074 A 
ATOM     61  C   UNL     1      -0.616 -22.791   0.367  1.00  0.00     0.031 C 
ATOM     62  C   UNL     1      -2.755 -22.915  -0.882  1.00  0.00     0.034 A 
BRANCH  49  63
ATOM     63  C   UNL     1      -6.757 -19.575  -4.187  1.00  0.00     0.023 A 
ATOM     64  C   UNL     1      -6.794 -19.584  -5.597  1.00  0.00     0.012 A 
ATOM     65  C   UNL     1      -7.965 -19.606  -3.464  1.00  0.00     0.148 A 
ATOM     66  C   UNL     1      -8.011 -19.599  -6.276  1.00  0.00     0.002 A 
ATOM     67  C   UNL     1      -9.174 -19.666  -4.148  1.00  0.00     0.091 A 
ATOM     68  F   UNL     1      -7.910 -19.578  -2.125  1.00  0.00    -0.205 F 
ATOM     69  C   UNL     1      -9.199 -19.652  -5.552  1.00  0.00     0.022 A 
BRANCH  67  70
ATOM     70  S   UNL     1     -10.758 -19.822  -3.313  1.00  0.00     0.127 S 
ATOM     71  O   UNL     1     -11.369 -18.524  -3.596  1.00  0.00    -0.237 OA
ATOM     72  O   UNL     1     -11.367 -20.949  -4.020  1.00  0.00    -0.237 OA
ATOM     73  O   UNL     1     -10.452 -20.073  -1.912  1.00  0.00    -0.744 OA
ENDBRANCH  67  70
ENDBRANCH  49  63
BRANCH  50  74
ATOM     74  C   UNL     1       2.017 -19.475   0.616  1.00  0.00     0.023 A 
ATOM     75  C   UNL     1       3.084 -20.258   0.134  1.00  0.00     0.012 A 
ATOM     76  C   UNL     1       2.230 -18.632   1.724  1.00  0.00     0.148 A 
ATOM     77  C   UNL     1       4.335 -20.215   0.752  1.00  0.00     0.002 A 
ATOM     78  C   UNL     1       3.493 -18.552   2.301  1.00  0.00     0.091 A 
ATOM     79  F   UNL     1       1.200 -17.902   2.174  1.00  0.00    -0.205 F 
ATOM     80  C   UNL     1       4.543 -19.353   1.825  1.00  0.00     0.022 A 
BRANCH  78  81
ATOM     81  S   UNL     1       3.894 -17.368   3.592  1.00  0.00     0.127 S 
ATOM     82  O   UNL     1       4.097 -18.239   4.745  1.00  0.00    -0.237 OA
ATOM     83  O   UNL     1       5.109 -16.746   3.066  1.00  0.00    -0.237 OA
ATOM     84  O   UNL     1       2.748 -16.470   3.672  1.00  0.00    -0.744 OA
ENDBRANCH  78  81
ENDBRANCH  50  74
BRANCH  62  85
ATOM     85  C   UNL     1      -2.925 -24.337  -0.416  1.00  0.00     0.023 A 
ATOM     86  C   UNL     1      -3.322 -24.584   0.912  1.00  0.00     0.012 A 
ATOM     87  C   UNL     1      -2.841 -25.408  -1.328  1.00  0.00     0.148 A 
ATOM     88  C   UNL     1      -3.624 -25.879   1.329  1.00  0.00     0.002 A 
ATOM     89  C   UNL     1      -3.189 -26.688  -0.917  1.00  0.00     0.091 A 
ATOM     90  F   UNL     1      -2.450 -25.147  -2.584  1.00  0.00    -0.205 F 
ATOM     91  C   UNL     1      -3.574 -26.927   0.413  1.00  0.00     0.022 A 
BRANCH  89  92
ATOM     92  S   UNL     1      -3.259 -28.083  -2.048  1.00  0.00     0.127 S 
ATOM     93  O   UNL     1      -2.161 -28.916  -1.560  1.00  0.00    -0.237 OA
ATOM     94  O   UNL     1      -4.595 -28.621  -1.793  1.00  0.00    -0.237 OA
ATOM     95  O   UNL     1      -3.071 -27.531  -3.383  1.00  0.00    -0.744 OA
ENDBRANCH  89  92
ENDBRANCH  62  85
ENDBRANCH  36  37
ENDBRANCH  28  31
ENDBRANCH  26  27
ENDBRANCH   1  26
TORSDOF 15
