REMARK SMILES O=C(CCCNC(=O)[C@@H]1CCCN(S(=O)(=O)c2ccc(F)cc2)C1)NCCCNC(=O)c1ccc(-c2c3nc(c(-c4cccc(S(=O)(=O)[O-])c4F)c4ccc([nH]4)c(-c4cccc(S(=O)(=O)[O-])c4F)c4nc(c(-c5cccc(S(=O)(=O)[O-])c5F)c5ccc2[nH]5)C=C4)C=C3)cc1
REMARK SMILES IDX 1 1 2 2 25 3 3 5 4 6 5 7 6 8 7 9 8 11 9 12 10 13 24 14 11 15
REMARK SMILES IDX 13 16 12 17 14 18 15 19 16 20 17 21 18 22 23 23 19 24 22 25
REMARK SMILES IDX 20 26 21 27 26 28 27 29 28 30 29 31 30 32 31 34 32 35 33 36
REMARK SMILES IDX 94 37 34 38 93 39 35 40 36 41 37 42 87 43 38 44 92 45 86 46
REMARK SMILES IDX 88 47 39 48 91 49 85 50 84 51 40 53 72 54 52 55 71 56 53 57
REMARK SMILES IDX 56 58 70 59 89 60 54 61 55 62 69 64 90 65 57 66 41 67 42 68
REMARK SMILES IDX 50 69 43 70 45 71 51 72 44 73 46 74 47 75 48 76 49 77 73 78
REMARK SMILES IDX 74 79 82 80 75 81 77 82 83 83 76 84 78 85 79 86 80 87 81 88
REMARK SMILES IDX 58 89 59 90 67 91 60 92 62 93 68 94 61 95 63 96 64 97 65 98
REMARK SMILES IDX 66 99
REMARK H PARENT 25 4 6 10 29 33 88 52 56 63
REMARK Flexibility Score: inf
ROOT
ATOM      1  O   UNL     1       0.973  -0.707  -0.570  1.00  0.00    -0.275 OA
ATOM      2  C   UNL     1       2.032  -0.207  -0.210  1.00  0.00     0.220 C 
ATOM      3  N   UNL     1       2.619   0.880  -0.818  1.00  0.00    -0.356 N 
ATOM      4  H   UNL     1       3.455   1.242  -0.446  1.00  0.00     0.163 HD
ENDROOT
BRANCH   2   5
ATOM      5  C   UNL     1       2.849  -0.793   0.920  1.00  0.00     0.102 C 
BRANCH   5   6
ATOM      6  C   UNL     1       3.812  -1.871   0.415  1.00  0.00     0.031 C 
BRANCH   6   7
ATOM      7  C   UNL     1       4.927  -1.364  -0.502  1.00  0.00     0.116 C 
BRANCH   7   8
ATOM      8  N   UNL     1       5.748  -0.358   0.147  1.00  0.00    -0.356 N 
ATOM      9  C   UNL     1       7.099  -0.174   0.132  1.00  0.00     0.224 C 
ATOM     10  H   UNL     1       5.249   0.297   0.686  1.00  0.00     0.163 HD
ATOM     11  O   UNL     1       7.514   0.867   0.637  1.00  0.00    -0.275 OA
BRANCH   9  12
ATOM     12  C   UNL     1       8.005  -1.244  -0.465  1.00  0.00     0.093 C 
ATOM     13  C   UNL     1       8.044  -2.499   0.410  1.00  0.00     0.016 C 
ATOM     14  C   UNL     1       9.421  -0.709  -0.721  1.00  0.00     0.116 C 
ATOM     15  C   UNL     1       8.850  -2.261   1.680  1.00  0.00     0.018 C 
ATOM     16  N   UNL     1      10.230  -0.557   0.531  1.00  0.00    -0.197 NA
ATOM     17  C   UNL     1      10.260  -1.790   1.357  1.00  0.00     0.102 C 
BRANCH  16  18
ATOM     18  S   UNL     1      11.781   0.128   0.213  1.00  0.00     0.243 S 
ATOM     19  O   UNL     1      12.661  -0.965  -0.149  1.00  0.00    -0.207 OA
ATOM     20  O   UNL     1      11.603   1.255  -0.678  1.00  0.00    -0.207 OA
BRANCH  18  21
ATOM     21  C   UNL     1      12.314   0.759   1.791  1.00  0.00     0.082 A 
ATOM     22  C   UNL     1      12.957  -0.098   2.695  1.00  0.00     0.025 A 
ATOM     23  C   UNL     1      12.193   2.125   2.074  1.00  0.00     0.025 A 
ATOM     24  C   UNL     1      13.421   0.404   3.911  1.00  0.00     0.040 A 
ATOM     25  C   UNL     1      12.685   2.625   3.283  1.00  0.00     0.040 A 
ATOM     26  C   UNL     1      13.282   1.759   4.194  1.00  0.00     0.123 A 
ATOM     27  F   UNL     1      13.744   2.234   5.358  1.00  0.00    -0.207 F 
ENDBRANCH  18  21
ENDBRANCH  16  18
ENDBRANCH   9  12
ENDBRANCH   7   8
ENDBRANCH   6   7
ENDBRANCH   5   6
ENDBRANCH   2   5
BRANCH   3  28
ATOM     28  C   UNL     1       2.042   1.507  -1.991  1.00  0.00     0.117 C 
BRANCH  28  29
ATOM     29  C   UNL     1       2.346   2.998  -2.077  1.00  0.00     0.042 C 
BRANCH  29  30
ATOM     30  C   UNL     1       3.822   3.357  -2.233  1.00  0.00     0.118 C 
BRANCH  30  31
ATOM     31  N   UNL     1       4.404   2.887  -3.480  1.00  0.00    -0.352 N 
ATOM     32  C   UNL     1       5.172   3.563  -4.399  1.00  0.00     0.251 C 
ATOM     33  H   UNL     1       4.221   1.944  -3.699  1.00  0.00     0.163 HD
ATOM     34  O   UNL     1       5.469   3.007  -5.454  1.00  0.00    -0.269 OA
BRANCH  32  35
ATOM     35  C   UNL     1       5.614   4.955  -4.146  1.00  0.00     0.039 A 
ATOM     36  C   UNL     1       5.539   5.883  -5.191  1.00  0.00     0.014 A 
ATOM     37  C   UNL     1       6.120   5.350  -2.904  1.00  0.00     0.014 A 
ATOM     38  C   UNL     1       5.914   7.213  -4.975  1.00  0.00     0.010 A 
ATOM     39  C   UNL     1       6.430   6.691  -2.672  1.00  0.00     0.010 A 
ATOM     40  C   UNL     1       6.337   7.636  -3.704  1.00  0.00    -0.014 A 
BRANCH  40  41
ATOM     41  C   UNL     1       6.681   9.059  -3.440  1.00  0.00     0.031 A 
ATOM     42  C   UNL     1       8.083   9.446  -3.050  1.00  0.00     0.074 A 
ATOM     43  C   UNL     1       5.715  10.000  -3.475  1.00  0.00     0.049 A 
ATOM     44  N   UNL     1       8.554  10.625  -2.735  1.00  0.00    -0.248 NA
ATOM     45  C   UNL     1       9.082   8.366  -2.984  1.00  0.00     0.031 C 
ATOM     46  C   UNL     1       4.303   9.750  -3.768  1.00  0.00     0.029 A 
ATOM     47  N   UNL     1       5.771  11.353  -3.242  1.00  0.00    -0.354 N 
ATOM     48  C   UNL     1       9.887  10.425  -2.399  1.00  0.00     0.074 A 
ATOM     49  C   UNL     1      10.146   9.007  -2.521  1.00  0.00     0.031 C 
ATOM     50  C   UNL     1       3.629  10.909  -3.704  1.00  0.00     0.029 A 
ATOM     51  C   UNL     1       4.551  11.982  -3.343  1.00  0.00     0.049 A 
ATOM     52  H   UNL     1       6.605  11.828  -3.024  1.00  0.00     0.167 HD
ATOM     53  C   UNL     1      10.823  11.342  -2.055  1.00  0.00     0.034 A 
ATOM     54  C   UNL     1       4.211  13.275  -3.167  1.00  0.00     0.034 A 
ATOM     55  C   UNL     1      10.586  12.758  -2.000  1.00  0.00     0.049 A 
ATOM     56  C   UNL     1       5.279  14.281  -2.829  1.00  0.00     0.074 A 
ATOM     57  C   UNL     1      11.500  13.771  -1.762  1.00  0.00     0.029 A 
ATOM     58  N   UNL     1       9.355  13.365  -2.184  1.00  0.00    -0.354 N 
ATOM     59  N   UNL     1       6.566  14.092  -2.672  1.00  0.00    -0.248 NA
ATOM     60  C   UNL     1       4.855  15.681  -2.673  1.00  0.00     0.031 C 
ATOM     61  C   UNL     1      10.817  14.990  -1.791  1.00  0.00     0.029 A 
ATOM     62  C   UNL     1       9.481  14.738  -2.057  1.00  0.00     0.049 A 
ATOM     63  H   UNL     1       8.514  12.890  -2.377  1.00  0.00     0.167 HD
ATOM     64  C   UNL     1       7.110  15.348  -2.425  1.00  0.00     0.074 A 
ATOM     65  C   UNL     1       6.015  16.295  -2.475  1.00  0.00     0.031 C 
ATOM     66  C   UNL     1       8.397  15.680  -2.162  1.00  0.00     0.034 A 
BRANCH  53  67
ATOM     67  C   UNL     1      12.222  10.854  -1.787  1.00  0.00     0.023 A 
ATOM     68  C   UNL     1      13.031  10.459  -2.871  1.00  0.00     0.012 A 
ATOM     69  C   UNL     1      12.765  10.873  -0.487  1.00  0.00     0.148 A 
ATOM     70  C   UNL     1      14.352  10.067  -2.665  1.00  0.00     0.002 A 
ATOM     71  C   UNL     1      14.096  10.518  -0.295  1.00  0.00     0.091 A 
ATOM     72  F   UNL     1      11.973  11.233   0.532  1.00  0.00    -0.205 F 
ATOM     73  C   UNL     1      14.887  10.108  -1.380  1.00  0.00     0.022 A 
BRANCH  71  74
ATOM     74  S   UNL     1      14.902  10.612   1.308  1.00  0.00     0.127 S 
ATOM     75  O   UNL     1      15.056   9.198   1.645  1.00  0.00    -0.237 OA
ATOM     76  O   UNL     1      16.151  11.302   0.986  1.00  0.00    -0.237 OA
ATOM     77  O   UNL     1      13.998  11.364   2.168  1.00  0.00    -0.744 OA
ENDBRANCH  71  74
ENDBRANCH  53  67
BRANCH  54  78
ATOM     78  C   UNL     1       2.800  13.701  -3.394  1.00  0.00     0.023 A 
ATOM     79  C   UNL     1       2.489  14.453  -4.543  1.00  0.00     0.012 A 
ATOM     80  C   UNL     1       1.763  13.317  -2.522  1.00  0.00     0.148 A 
ATOM     81  C   UNL     1       1.173  14.829  -4.813  1.00  0.00     0.002 A 
ATOM     82  C   UNL     1       0.447  13.651  -2.824  1.00  0.00     0.091 A 
ATOM     83  F   UNL     1       2.082  12.615  -1.425  1.00  0.00    -0.205 F 
ATOM     84  C   UNL     1       0.151  14.418  -3.962  1.00  0.00     0.022 A 
BRANCH  82  85
ATOM     85  S   UNL     1      -0.945  13.049  -1.860  1.00  0.00     0.127 S 
ATOM     86  O   UNL     1      -1.396  14.267  -1.192  1.00  0.00    -0.237 OA
ATOM     87  O   UNL     1      -1.843  12.550  -2.903  1.00  0.00    -0.237 OA
ATOM     88  O   UNL     1      -0.403  12.013  -0.992  1.00  0.00    -0.744 OA
ENDBRANCH  82  85
ENDBRANCH  54  78
BRANCH  66  89
ATOM     89  C   UNL     1       8.720  17.129  -1.906  1.00  0.00     0.023 A 
ATOM     90  C   UNL     1       8.378  17.702  -0.666  1.00  0.00     0.012 A 
ATOM     91  C   UNL     1       9.471  17.879  -2.833  1.00  0.00     0.148 A 
ATOM     92  C   UNL     1       8.767  19.005  -0.356  1.00  0.00     0.002 A 
ATOM     93  C   UNL     1       9.892  19.162  -2.500  1.00  0.00     0.091 A 
ATOM     94  F   UNL     1       9.772  17.320  -4.014  1.00  0.00    -0.205 F 
ATOM     95  C   UNL     1       9.535  19.728  -1.265  1.00  0.00     0.022 A 
BRANCH  93  96
ATOM     96  S   UNL     1      10.965  20.132  -3.566  1.00  0.00     0.127 S 
ATOM     97  O   UNL     1      10.047  21.157  -4.059  1.00  0.00    -0.237 OA
ATOM     98  O   UNL     1      11.977  20.621  -2.628  1.00  0.00    -0.237 OA
ATOM     99  O   UNL     1      11.471  19.210  -4.573  1.00  0.00    -0.744 OA
ENDBRANCH  93  96
ENDBRANCH  66  89
ENDBRANCH  40  41
ENDBRANCH  32  35
ENDBRANCH  30  31
ENDBRANCH  29  30
ENDBRANCH  28  29
ENDBRANCH   3  28
TORSDOF 19
