REMARK SMILES Nc1ccc(SCc2ccc(C(=O)NCCCNC(=O)c3ccc(-c4c5nc(c(-c6cccc(S(=O)(=O)[O-])c6F)c6ccc([nH]6)c(-c6cccc(S(=O)(=O)[O-])c6F)c6nc(c(-c7cccc(S(=O)(=O)[O-])c7F)c7ccc4[nH]7)C=C6)C=C5)cc3)o2)cc1
REMARK SMILES IDX 15 1 14 2 12 3 13 4 11 6 8 7 9 8 84 9 10 10 7 11 6 12 5 13
REMARK SMILES IDX 2 14 3 15 86 16 4 17 85 18 1 19 16 22 17 23 18 24 19 25
REMARK SMILES IDX 20 27 21 28 22 29 83 30 23 31 82 32 24 33 25 34 26 35 76 36
REMARK SMILES IDX 27 37 81 38 75 39 77 40 28 41 80 42 74 43 73 44 29 46 61 47
REMARK SMILES IDX 41 48 60 49 42 50 45 51 59 52 78 53 43 54 44 55 58 57 79 58
REMARK SMILES IDX 46 59 30 60 31 61 39 62 32 63 34 64 40 65 33 66 35 67 36 68
REMARK SMILES IDX 37 69 38 70 62 71 63 72 71 73 64 74 66 75 72 76 65 77 67 78
REMARK SMILES IDX 68 79 69 80 70 81 47 82 48 83 56 84 49 85 51 86 57 87 50 88
REMARK SMILES IDX 52 89 53 90 54 91 55 92
REMARK H PARENT 14 5 1 20 1 21 18 26 77 45 45 56
REMARK Flexibility Score: inf
ROOT
ATOM      1  C   UNL     1      -2.298   5.145   5.094  1.00  0.00     0.118 C 
ENDROOT
BRANCH   1   2
ATOM      2  N   UNL     1      -2.240   3.703   5.201  1.00  0.00    -0.349 N 
ATOM      3  C   UNL     1      -2.637   2.705   4.340  1.00  0.00     0.286 C 
ATOM      4  O   UNL     1      -2.357   1.560   4.705  1.00  0.00    -0.266 OA
ATOM      5  H   UNL     1      -1.845   3.376   6.041  1.00  0.00     0.163 HD
BRANCH   3   6
ATOM      6  C   UNL     1      -3.311   2.995   3.086  1.00  0.00     0.191 A 
ATOM      7  C   UNL     1      -4.031   2.393   1.069  1.00  0.00     0.115 A 
ATOM      8  C   UNL     1      -4.372   3.718   1.226  1.00  0.00     0.047 A 
ATOM      9  O   UNL     1      -3.396   1.955   2.190  1.00  0.00    -0.455 OA
ATOM     10  C   UNL     1      -3.941   4.092   2.524  1.00  0.00     0.056 A 
BRANCH   7  11
ATOM     11  C   UNL     1      -4.229   1.448  -0.066  1.00  0.00     0.150 C 
BRANCH  11  12
ATOM     12  S   UNL     1      -3.581  -0.239   0.143  1.00  0.00    -0.118 SA
BRANCH  12  13
ATOM     13  C   UNL     1      -1.805  -0.069   0.025  1.00  0.00     0.008 A 
ATOM     14  C   UNL     1       1.029  -0.036  -0.046  1.00  0.00     0.031 A 
ATOM     15  C   UNL     1       0.333  -1.243  -0.019  1.00  0.00     0.026 A 
ATOM     16  C   UNL     1       0.297   1.148  -0.109  1.00  0.00     0.026 A 
ATOM     17  C   UNL     1      -1.065  -1.259   0.034  1.00  0.00     0.017 A 
ATOM     18  C   UNL     1      -1.104   1.135  -0.064  1.00  0.00     0.017 A 
BRANCH  14  19
ATOM     19  N   UNL     1       2.412  -0.019  -0.151  1.00  0.00    -0.399 N 
ATOM     20  H   UNL     1       2.920  -0.861  -0.106  1.00  0.00     0.156 HD
ATOM     21  H   UNL     1       2.886   0.836  -0.272  1.00  0.00     0.156 HD
ENDBRANCH  14  19
ENDBRANCH  12  13
ENDBRANCH  11  12
ENDBRANCH   7  11
ENDBRANCH   3   6
ENDBRANCH   1   2
BRANCH   1  22
ATOM     22  C   UNL     1      -3.476   5.724   5.872  1.00  0.00     0.042 C 
BRANCH  22  23
ATOM     23  C   UNL     1      -3.236   5.768   7.381  1.00  0.00     0.118 C 
BRANCH  23  24
ATOM     24  N   UNL     1      -2.146   6.672   7.734  1.00  0.00    -0.352 N 
ATOM     25  C   UNL     1      -2.144   7.809   8.503  1.00  0.00     0.251 C 
ATOM     26  H   UNL     1      -1.269   6.427   7.359  1.00  0.00     0.163 HD
ATOM     27  O   UNL     1      -1.167   8.553   8.466  1.00  0.00    -0.269 OA
BRANCH  25  28
ATOM     28  C   UNL     1      -3.296   8.141   9.367  1.00  0.00     0.039 A 
ATOM     29  C   UNL     1      -3.684   9.479   9.491  1.00  0.00     0.014 A 
ATOM     30  C   UNL     1      -3.960   7.151  10.095  1.00  0.00     0.014 A 
ATOM     31  C   UNL     1      -4.771   9.814  10.302  1.00  0.00     0.010 A 
ATOM     32  C   UNL     1      -5.092   7.476  10.838  1.00  0.00     0.010 A 
ATOM     33  C   UNL     1      -5.503   8.811  10.958  1.00  0.00    -0.014 A 
BRANCH  33  34
ATOM     34  C   UNL     1      -6.707   9.138  11.764  1.00  0.00     0.031 A 
ATOM     35  C   UNL     1      -6.744   8.838  13.238  1.00  0.00     0.074 A 
ATOM     36  C   UNL     1      -7.801   9.628  11.147  1.00  0.00     0.049 A 
ATOM     37  N   UNL     1      -7.721   9.011  14.090  1.00  0.00    -0.248 NA
ATOM     38  C   UNL     1      -5.535   8.240  13.827  1.00  0.00     0.031 C 
ATOM     39  C   UNL     1      -7.914   9.889   9.711  1.00  0.00     0.029 A 
ATOM     40  N   UNL     1      -9.032   9.970  11.645  1.00  0.00    -0.354 N 
ATOM     41  C   UNL     1      -7.261   8.512  15.303  1.00  0.00     0.074 A 
ATOM     42  C   UNL     1      -5.931   7.994  15.067  1.00  0.00     0.031 C 
ATOM     43  C   UNL     1      -9.141  10.363   9.445  1.00  0.00     0.029 A 
ATOM     44  C   UNL     1      -9.913  10.405  10.683  1.00  0.00     0.049 A 
ATOM     45  H   UNL     1      -9.264   9.911  12.600  1.00  0.00     0.167 HD
ATOM     46  C   UNL     1      -7.877   8.509  16.510  1.00  0.00     0.034 A 
ATOM     47  C   UNL     1     -11.200  10.790  10.784  1.00  0.00     0.034 A 
ATOM     48  C   UNL     1      -9.188   9.053  16.744  1.00  0.00     0.049 A 
ATOM     49  C   UNL     1     -11.853  10.803  12.138  1.00  0.00     0.074 A 
ATOM     50  C   UNL     1      -9.867   9.178  17.942  1.00  0.00     0.029 A 
ATOM     51  N   UNL     1     -10.026   9.549  15.756  1.00  0.00    -0.354 N 
ATOM     52  N   UNL     1     -11.348  10.472  13.302  1.00  0.00    -0.248 NA
ATOM     53  C   UNL     1     -13.243  11.277  12.199  1.00  0.00     0.031 C 
ATOM     54  C   UNL     1     -11.130   9.719  17.674  1.00  0.00     0.029 A 
ATOM     55  C   UNL     1     -11.222   9.967  16.314  1.00  0.00     0.049 A 
ATOM     56  H   UNL     1      -9.803   9.597  14.799  1.00  0.00     0.167 HD
ATOM     57  C   UNL     1     -12.342  10.731  14.238  1.00  0.00     0.074 A 
ATOM     58  C   UNL     1     -13.473  11.265  13.505  1.00  0.00     0.031 C 
ATOM     59  C   UNL     1     -12.325  10.536  15.580  1.00  0.00     0.034 A 
BRANCH  46  60
ATOM     60  C   UNL     1      -7.116   7.932  17.679  1.00  0.00     0.023 A 
ATOM     61  C   UNL     1      -5.980   8.605  18.175  1.00  0.00     0.012 A 
ATOM     62  C   UNL     1      -7.542   6.746  18.308  1.00  0.00     0.148 A 
ATOM     63  C   UNL     1      -5.251   8.083  19.243  1.00  0.00     0.002 A 
ATOM     64  C   UNL     1      -6.840   6.258  19.405  1.00  0.00     0.091 A 
ATOM     65  F   UNL     1      -8.612   6.107  17.814  1.00  0.00    -0.205 F 
ATOM     66  C   UNL     1      -5.686   6.916  19.863  1.00  0.00     0.022 A 
BRANCH  64  67
ATOM     67  S   UNL     1      -7.367   4.808  20.325  1.00  0.00     0.127 S 
ATOM     68  O   UNL     1      -6.357   3.826  19.931  1.00  0.00    -0.237 OA
ATOM     69  O   UNL     1      -7.261   5.268  21.710  1.00  0.00    -0.237 OA
ATOM     70  O   UNL     1      -8.724   4.524  19.882  1.00  0.00    -0.744 OA
ENDBRANCH  64  67
ENDBRANCH  46  60
BRANCH  47  71
ATOM     71  C   UNL     1     -11.928  11.265   9.573  1.00  0.00     0.023 A 
ATOM     72  C   UNL     1     -12.244  12.632   9.450  1.00  0.00     0.012 A 
ATOM     73  C   UNL     1     -12.267  10.384   8.528  1.00  0.00     0.148 A 
ATOM     74  C   UNL     1     -12.910  13.110   8.322  1.00  0.00     0.002 A 
ATOM     75  C   UNL     1     -12.880  10.876   7.381  1.00  0.00     0.091 A 
ATOM     76  F   UNL     1     -11.961   9.087   8.667  1.00  0.00    -0.205 F 
ATOM     77  C   UNL     1     -13.219  12.235   7.284  1.00  0.00     0.022 A 
BRANCH  75  78
ATOM     78  S   UNL     1     -13.196   9.853   5.939  1.00  0.00     0.127 S 
ATOM     79  O   UNL     1     -14.656   9.826   5.905  1.00  0.00    -0.237 OA
ATOM     80  O   UNL     1     -12.569  10.636   4.874  1.00  0.00    -0.237 OA
ATOM     81  O   UNL     1     -12.549   8.577   6.208  1.00  0.00    -0.744 OA
ENDBRANCH  75  78
ENDBRANCH  47  71
BRANCH  59  82
ATOM     82  C   UNL     1     -13.552  10.935  16.358  1.00  0.00     0.023 A 
ATOM     83  C   UNL     1     -14.736  10.180  16.246  1.00  0.00     0.012 A 
ATOM     84  C   UNL     1     -13.509  12.023  17.253  1.00  0.00     0.148 A 
ATOM     85  C   UNL     1     -15.868  10.523  16.983  1.00  0.00     0.002 A 
ATOM     86  C   UNL     1     -14.624  12.327  18.024  1.00  0.00     0.091 A 
ATOM     87  F   UNL     1     -12.379  12.742  17.332  1.00  0.00    -0.205 F 
ATOM     88  C   UNL     1     -15.809  11.587  17.880  1.00  0.00     0.022 A 
BRANCH  86  89
ATOM     89  S   UNL     1     -14.609  13.615  19.275  1.00  0.00     0.127 S 
ATOM     90  O   UNL     1     -15.456  14.636  18.661  1.00  0.00    -0.237 OA
ATOM     91  O   UNL     1     -15.207  12.937  20.425  1.00  0.00    -0.237 OA
ATOM     92  O   UNL     1     -13.212  13.988  19.452  1.00  0.00    -0.744 OA
ENDBRANCH  86  89
ENDBRANCH  59  82
ENDBRANCH  33  34
ENDBRANCH  25  28
ENDBRANCH  23  24
ENDBRANCH  22  23
ENDBRANCH   1  22
TORSDOF 17
