REMARK SMILES CCn1ncc(Br)c1C(=O)N[C@H]1C(=O)N2C(C(=O)NCCCNC(=O)c3ccc(-c4c5nc(c(-c6cccc(S(=O)(=O)[O-])c6F)c6ccc([nH]6)c(-c6cccc(S(=O)(=O)[O-])c6F)c6nc(c(-c7cccc(S(=O)(=O)[O-])c7F)c7ccc4[nH]7)C=C6)C=C5)cc3)=C(COC(C)=O)CS[C@H]12
REMARK SMILES IDX 21 1 20 2 19 3 17 4 18 5 16 7 12 8 13 9 97 10 14 11 15 12
REMARK SMILES IDX 96 13 95 14 89 15 11 16 9 17 10 18 8 20 3 21 4 22 5 23 6 24
REMARK SMILES IDX 7 25 2 26 1 27 90 28 91 29 92 30 93 31 94 32 22 33 23 34
REMARK SMILES IDX 24 35 25 37 26 38 27 39 88 40 28 41 87 42 29 43 30 44 31 45
REMARK SMILES IDX 81 46 32 47 86 48 80 49 82 50 33 51 85 52 79 53 78 54 34 56
REMARK SMILES IDX 66 57 46 58 65 59 47 60 50 61 64 62 83 63 48 64 49 65 63 67
REMARK SMILES IDX 84 68 51 69 35 70 36 71 44 72 37 73 39 74 45 75 38 76 40 77
REMARK SMILES IDX 41 78 42 79 43 80 67 81 68 82 76 83 69 84 71 85 77 86 70 87
REMARK SMILES IDX 72 88 73 89 74 90 75 91 52 92 53 93 61 94 54 95 56 96 62 97
REMARK SMILES IDX 55 98 57 99 58 100 59 101 60 102
REMARK H PARENT 19 6 11 19 23 36 82 55 50 66
REMARK Flexibility Score: inf
ROOT
ATOM      1  C   UNL     1      -3.848   3.352   1.027  1.00  0.00     0.042 C 
ENDROOT
BRANCH   1   2
ATOM      2  C   UNL     1      -3.980   2.187   2.003  1.00  0.00     0.118 C 
BRANCH   2   3
ATOM      3  N   UNL     1      -4.244   0.954   1.310  1.00  0.00    -0.351 N 
ATOM      4  C   UNL     1      -3.549   0.046   0.597  1.00  0.00     0.268 C 
ATOM      5  O   UNL     1      -4.263  -0.911   0.279  1.00  0.00    -0.268 OA
ATOM      6  H   UNL     1      -5.194   0.705   1.375  1.00  0.00     0.163 HD
BRANCH   4   7
ATOM      7  C   UNL     1      -2.058   0.022   0.213  1.00  0.00     0.114 C 
ATOM      8  C   UNL     1      -0.560  -3.011  -0.507  1.00  0.00     0.206 C 
ATOM      9  C   UNL     1      -2.030  -2.554  -0.274  1.00  0.00     0.253 C 
ATOM     10  C   UNL     1      -0.227  -1.582  -0.158  1.00  0.00     0.181 C 
ATOM     11  O   UNL     1      -3.074  -3.182  -0.265  1.00  0.00    -0.272 OA
ATOM     12  N   UNL     1      -1.627  -1.268  -0.117  1.00  0.00    -0.290 N 
ATOM     13  S   UNL     1       0.494  -0.608  -1.484  1.00  0.00    -0.129 SA
ATOM     14  C   UNL     1       0.322   0.791  -0.395  1.00  0.00     0.108 C 
ATOM     15  C   UNL     1      -1.099   1.014   0.131  1.00  0.00     0.007 C 
BRANCH   8  16
ATOM     16  N   UNL     1      -0.005  -4.115   0.325  1.00  0.00    -0.336 N 
ATOM     17  C   UNL     1       0.900  -4.258   1.354  1.00  0.00     0.271 C 
ATOM     18  O   UNL     1       1.241  -5.420   1.585  1.00  0.00    -0.267 OA
ATOM     19  H   UNL     1      -0.393  -4.983   0.068  1.00  0.00     0.164 HD
BRANCH  17  20
ATOM     20  C   UNL     1       1.359  -3.185   2.208  1.00  0.00     0.140 A 
ATOM     21  N   UNL     1       2.221  -2.131   1.952  1.00  0.00    -0.259 N 
ATOM     22  N   UNL     1       2.407  -1.317   3.020  1.00  0.00    -0.180 NA
ATOM     23  C   UNL     1       1.874  -1.992   4.035  1.00  0.00     0.151 A 
ATOM     24  C   UNL     1       1.254  -3.159   3.591  1.00  0.00     0.069 A 
ATOM     25  Br  UNL     1       0.495  -4.420   4.752  1.00  0.00    -0.047 Br
BRANCH  21  26
ATOM     26  C   UNL     1       2.977  -1.848   0.742  1.00  0.00     0.142 C 
ATOM     27  C   UNL     1       3.551  -0.429   0.646  1.00  0.00     0.029 C 
ENDBRANCH  21  26
ENDBRANCH  17  20
ENDBRANCH   8  16
BRANCH  15  28
ATOM     28  C   UNL     1      -1.064   2.442   0.610  1.00  0.00     0.267 C 
BRANCH  28  29
ATOM     29  O   UNL     1      -1.226   3.512  -0.341  1.00  0.00    -0.461 OA
BRANCH  29  30
ATOM     30  C   UNL     1      -1.428   3.248  -1.655  1.00  0.00     0.302 C 
ATOM     31  C   UNL     1      -0.174   3.465  -2.449  1.00  0.00     0.139 C 
ATOM     32  O   UNL     1      -2.508   2.950  -2.136  1.00  0.00    -0.253 OA
ENDBRANCH  29  30
ENDBRANCH  28  29
ENDBRANCH  15  28
ENDBRANCH   4   7
ENDBRANCH   2   3
ENDBRANCH   1   2
BRANCH   1  33
ATOM     33  C   UNL     1      -5.119   4.111   0.796  1.00  0.00     0.118 C 
BRANCH  33  34
ATOM     34  N   UNL     1      -5.409   5.013   1.913  1.00  0.00    -0.352 N 
ATOM     35  C   UNL     1      -6.455   5.911   1.993  1.00  0.00     0.251 C 
ATOM     36  H   UNL     1      -4.798   4.974   2.684  1.00  0.00     0.163 HD
ATOM     37  O   UNL     1      -6.416   6.860   2.766  1.00  0.00    -0.269 OA
BRANCH  35  38
ATOM     38  C   UNL     1      -7.598   5.689   1.095  1.00  0.00     0.039 A 
ATOM     39  C   UNL     1      -8.168   6.729   0.365  1.00  0.00     0.014 A 
ATOM     40  C   UNL     1      -7.976   4.369   0.882  1.00  0.00     0.014 A 
ATOM     41  C   UNL     1      -9.057   6.402  -0.653  1.00  0.00     0.010 A 
ATOM     42  C   UNL     1      -8.630   4.048  -0.274  1.00  0.00     0.010 A 
ATOM     43  C   UNL     1      -9.253   5.051  -0.996  1.00  0.00    -0.014 A 
BRANCH  43  44
ATOM     44  C   UNL     1     -10.046   4.675  -2.159  1.00  0.00     0.031 A 
ATOM     45  C   UNL     1      -9.764   5.473  -3.379  1.00  0.00     0.074 A 
ATOM     46  C   UNL     1     -10.882   3.613  -2.191  1.00  0.00     0.049 A 
ATOM     47  N   UNL     1     -10.491   6.429  -3.854  1.00  0.00    -0.248 NA
ATOM     48  C   UNL     1      -8.460   5.330  -4.042  1.00  0.00     0.031 C 
ATOM     49  C   UNL     1     -11.067   2.541  -1.202  1.00  0.00     0.029 A 
ATOM     50  N   UNL     1     -11.682   3.205  -3.210  1.00  0.00    -0.354 N 
ATOM     51  C   UNL     1      -9.864   6.833  -5.028  1.00  0.00     0.074 A 
ATOM     52  C   UNL     1      -8.534   6.284  -4.975  1.00  0.00     0.031 C 
ATOM     53  C   UNL     1     -11.696   1.494  -1.780  1.00  0.00     0.029 A 
ATOM     54  C   UNL     1     -12.140   1.898  -3.096  1.00  0.00     0.049 A 
ATOM     55  H   UNL     1     -11.918   3.788  -3.967  1.00  0.00     0.167 HD
ATOM     56  C   UNL     1     -10.586   7.366  -6.053  1.00  0.00     0.034 A 
ATOM     57  C   UNL     1     -12.818   1.196  -4.036  1.00  0.00     0.034 A 
ATOM     58  C   UNL     1     -11.914   7.734  -5.618  1.00  0.00     0.049 A 
ATOM     59  C   UNL     1     -13.437   2.191  -4.942  1.00  0.00     0.074 A 
ATOM     60  C   UNL     1     -12.424   8.552  -4.627  1.00  0.00     0.029 A 
ATOM     61  N   UNL     1     -12.942   6.890  -5.970  1.00  0.00    -0.354 N 
ATOM     62  N   UNL     1     -14.384   3.007  -4.569  1.00  0.00    -0.248 NA
ATOM     63  C   UNL     1     -12.690   2.591  -6.122  1.00  0.00     0.031 C 
ATOM     64  C   UNL     1     -13.530   7.827  -4.092  1.00  0.00     0.029 A 
ATOM     65  C   UNL     1     -13.683   6.658  -4.841  1.00  0.00     0.049 A 
ATOM     66  H   UNL     1     -13.114   6.522  -6.866  1.00  0.00     0.167 HD
ATOM     67  C   UNL     1     -14.042   4.217  -5.157  1.00  0.00     0.074 A 
ATOM     68  C   UNL     1     -13.055   3.874  -6.183  1.00  0.00     0.031 C 
ATOM     69  C   UNL     1     -14.361   5.409  -4.570  1.00  0.00     0.034 A 
BRANCH  56  70
ATOM     70  C   UNL     1     -10.262   7.213  -7.521  1.00  0.00     0.023 A 
ATOM     71  C   UNL     1     -11.065   7.936  -8.434  1.00  0.00     0.012 A 
ATOM     72  C   UNL     1      -9.427   6.210  -8.062  1.00  0.00     0.148 A 
ATOM     73  C   UNL     1     -11.090   7.627  -9.798  1.00  0.00     0.002 A 
ATOM     74  C   UNL     1      -9.396   5.960  -9.430  1.00  0.00     0.091 A 
ATOM     75  F   UNL     1      -8.748   5.393  -7.255  1.00  0.00    -0.205 F 
ATOM     76  C   UNL     1     -10.252   6.640 -10.297  1.00  0.00     0.022 A 
BRANCH  74  77
ATOM     77  S   UNL     1      -8.294   4.729 -10.139  1.00  0.00     0.127 S 
ATOM     78  O   UNL     1      -9.234   3.673 -10.505  1.00  0.00    -0.237 OA
ATOM     79  O   UNL     1      -7.715   5.463 -11.264  1.00  0.00    -0.237 OA
ATOM     80  O   UNL     1      -7.340   4.403  -9.086  1.00  0.00    -0.744 OA
ENDBRANCH  74  77
ENDBRANCH  56  70
BRANCH  57  81
ATOM     81  C   UNL     1     -12.790  -0.248  -4.356  1.00  0.00     0.023 A 
ATOM     82  C   UNL     1     -13.821  -0.801  -5.142  1.00  0.00     0.012 A 
ATOM     83  C   UNL     1     -11.617  -1.012  -4.161  1.00  0.00     0.148 A 
ATOM     84  C   UNL     1     -13.671  -2.049  -5.758  1.00  0.00     0.002 A 
ATOM     85  C   UNL     1     -11.473  -2.253  -4.777  1.00  0.00     0.091 A 
ATOM     86  F   UNL     1     -10.610  -0.481  -3.456  1.00  0.00    -0.205 F 
ATOM     87  C   UNL     1     -12.492  -2.768  -5.587  1.00  0.00     0.022 A 
BRANCH  85  88
ATOM     88  S   UNL     1      -9.967  -3.225  -4.636  1.00  0.00     0.127 S 
ATOM     89  O   UNL     1     -10.493  -4.557  -4.334  1.00  0.00    -0.237 OA
ATOM     90  O   UNL     1      -9.392  -3.083  -5.971  1.00  0.00    -0.237 OA
ATOM     91  O   UNL     1      -9.210  -2.619  -3.549  1.00  0.00    -0.744 OA
ENDBRANCH  85  88
ENDBRANCH  57  81
BRANCH  69  92
ATOM     92  C   UNL     1     -15.299   5.402  -3.386  1.00  0.00     0.023 A 
ATOM     93  C   UNL     1     -14.999   4.736  -2.179  1.00  0.00     0.012 A 
ATOM     94  C   UNL     1     -16.427   6.239  -3.433  1.00  0.00     0.148 A 
ATOM     95  C   UNL     1     -15.816   4.885  -1.054  1.00  0.00     0.002 A 
ATOM     96  C   UNL     1     -17.209   6.423  -2.300  1.00  0.00     0.091 A 
ATOM     97  F   UNL     1     -16.700   6.869  -4.585  1.00  0.00    -0.205 F 
ATOM     98  C   UNL     1     -16.914   5.741  -1.110  1.00  0.00     0.022 A 
BRANCH  96  99
ATOM     99  S   UNL     1     -18.558   7.607  -2.277  1.00  0.00     0.127 S 
ATOM    100  O   UNL     1     -19.730   6.737  -2.343  1.00  0.00    -0.237 OA
ATOM    101  O   UNL     1     -18.366   8.280  -0.990  1.00  0.00    -0.237 OA
ATOM    102  O   UNL     1     -18.352   8.472  -3.433  1.00  0.00    -0.744 OA
ENDBRANCH  96  99
ENDBRANCH  69  92
ENDBRANCH  43  44
ENDBRANCH  35  38
ENDBRANCH  33  34
ENDBRANCH   1  33
TORSDOF 19
