REMARK SMILES O=C(NCCCNC(=O)c1ccc2c(c1)=N[C@H](C(F)(F)F)N=2)c1ccc(-c2c3nc(c(-c4cccc(S(=O)(=O)[O-])c4F)c4ccc([nH]4)c(-c4cccc(S(=O)(=O)[O-])c4F)c4nc(c(-c5cccc(S(=O)(=O)[O-])c5F)c5ccc2[nH]5)C=C4)C=C3)cc1
REMARK SMILES IDX 4 1 3 2 1 3 2 4 23 6 24 7 85 8 25 9 84 10 26 11 27 12 28 13
REMARK SMILES IDX 78 14 29 15 83 16 77 17 79 18 30 19 82 20 76 21 75 22 31 24
REMARK SMILES IDX 63 25 43 26 62 27 44 28 47 29 61 30 80 31 45 32 46 33 60 35
REMARK SMILES IDX 81 36 48 37 32 38 33 39 41 40 34 41 36 42 42 43 35 44 37 45
REMARK SMILES IDX 38 46 39 47 40 48 64 49 65 50 73 51 66 52 68 53 74 54 67 55
REMARK SMILES IDX 69 56 70 57 71 58 72 59 49 60 50 61 58 62 51 63 53 64 59 65
REMARK SMILES IDX 52 66 54 67 55 68 56 69 57 70 5 71 6 72 7 73 8 74 9 76 10 77
REMARK SMILES IDX 11 78 15 79 12 80 14 81 13 82 16 83 22 84 17 85 18 86 19 87
REMARK SMILES IDX 20 88 21 89
REMARK H PARENT 3 5 79 23 47 34 7 75
REMARK Flexibility Score: inf
ROOT
ATOM      1  C   UNL     1       4.600  -1.222   0.249  1.00  0.00     0.118 C 
ENDROOT
BRANCH   1   2
ATOM      2  N   UNL     1       3.160  -1.061   0.107  1.00  0.00    -0.352 N 
ATOM      3  O   UNL     1       1.177  -0.021   0.065  1.00  0.00    -0.269 OA
ATOM      4  C   UNL     1       2.398   0.069  -0.052  1.00  0.00     0.251 C 
ATOM      5  H   UNL     1       2.649  -1.902   0.129  1.00  0.00     0.163 HD
BRANCH   4   6
ATOM      6  C   UNL     1       3.014   1.380  -0.362  1.00  0.00     0.039 A 
ATOM      7  C   UNL     1       2.430   2.540   0.161  1.00  0.00     0.014 A 
ATOM      8  C   UNL     1       4.104   1.487  -1.230  1.00  0.00     0.014 A 
ATOM      9  C   UNL     1       2.947   3.796  -0.171  1.00  0.00     0.010 A 
ATOM     10  C   UNL     1       4.673   2.730  -1.488  1.00  0.00     0.010 A 
ATOM     11  C   UNL     1       4.076   3.900  -0.996  1.00  0.00    -0.014 A 
BRANCH  11  12
ATOM     12  C   UNL     1       4.593   5.213  -1.454  1.00  0.00     0.031 A 
ATOM     13  C   UNL     1       4.562   5.544  -2.924  1.00  0.00     0.074 A 
ATOM     14  C   UNL     1       5.145   6.077  -0.582  1.00  0.00     0.049 A 
ATOM     15  N   UNL     1       5.087   6.563  -3.553  1.00  0.00    -0.248 NA
ATOM     16  C   UNL     1       3.875   4.585  -3.807  1.00  0.00     0.031 C 
ATOM     17  C   UNL     1       5.268   5.865   0.860  1.00  0.00     0.029 A 
ATOM     18  N   UNL     1       5.726   7.303  -0.792  1.00  0.00    -0.354 N 
ATOM     19  C   UNL     1       4.841   6.340  -4.902  1.00  0.00     0.074 A 
ATOM     20  C   UNL     1       4.143   5.079  -5.006  1.00  0.00     0.031 C 
ATOM     21  C   UNL     1       5.877   6.929   1.408  1.00  0.00     0.029 A 
ATOM     22  C   UNL     1       6.217   7.882   0.354  1.00  0.00     0.049 A 
ATOM     23  H   UNL     1       5.786   7.727  -1.678  1.00  0.00     0.167 HD
ATOM     24  C   UNL     1       5.134   7.131  -5.960  1.00  0.00     0.034 A 
ATOM     25  C   UNL     1       6.875   9.044   0.534  1.00  0.00     0.034 A 
ATOM     26  C   UNL     1       5.750   8.423  -5.854  1.00  0.00     0.049 A 
ATOM     27  C   UNL     1       7.163   9.923  -0.651  1.00  0.00     0.074 A 
ATOM     28  C   UNL     1       6.014   9.333  -6.862  1.00  0.00     0.029 A 
ATOM     29  N   UNL     1       6.184   8.995  -4.670  1.00  0.00    -0.354 N 
ATOM     30  N   UNL     1       6.849   9.735  -1.909  1.00  0.00    -0.248 NA
ATOM     31  C   UNL     1       7.880  11.180  -0.391  1.00  0.00     0.031 C 
ATOM     32  C   UNL     1       6.609  10.459  -6.285  1.00  0.00     0.029 A 
ATOM     33  C   UNL     1       6.714  10.248  -4.919  1.00  0.00     0.049 A 
ATOM     34  H   UNL     1       6.124   8.573  -3.783  1.00  0.00     0.167 HD
ATOM     35  C   UNL     1       7.321  10.851  -2.591  1.00  0.00     0.074 A 
ATOM     36  C   UNL     1       7.923  11.722  -1.602  1.00  0.00     0.031 C 
ATOM     37  C   UNL     1       7.276  11.119  -3.919  1.00  0.00     0.034 A 
BRANCH  24  38
ATOM     38  C   UNL     1       4.720   6.647  -7.322  1.00  0.00     0.023 A 
ATOM     39  C   UNL     1       3.364   6.726  -7.696  1.00  0.00     0.012 A 
ATOM     40  C   UNL     1       5.669   6.162  -8.242  1.00  0.00     0.148 A 
ATOM     41  C   UNL     1       2.951   6.305  -8.959  1.00  0.00     0.002 A 
ATOM     42  C   UNL     1       5.255   5.775  -9.511  1.00  0.00     0.091 A 
ATOM     43  F   UNL     1       6.949   6.077  -7.856  1.00  0.00    -0.205 F 
ATOM     44  C   UNL     1       3.897   5.839  -9.868  1.00  0.00     0.022 A 
BRANCH  42  45
ATOM     45  S   UNL     1       6.396   5.206 -10.776  1.00  0.00     0.127 S 
ATOM     46  O   UNL     1       6.019   3.798 -10.900  1.00  0.00    -0.237 OA
ATOM     47  O   UNL     1       6.026   6.040 -11.920  1.00  0.00    -0.237 OA
ATOM     48  O   UNL     1       7.732   5.448 -10.251  1.00  0.00    -0.744 OA
ENDBRANCH  42  45
ENDBRANCH  24  38
BRANCH  25  49
ATOM     49  C   UNL     1       7.239   9.462   1.914  1.00  0.00     0.023 A 
ATOM     50  C   UNL     1       6.457  10.440   2.557  1.00  0.00     0.012 A 
ATOM     51  C   UNL     1       8.286   8.839   2.619  1.00  0.00     0.148 A 
ATOM     52  C   UNL     1       6.713  10.794   3.881  1.00  0.00     0.002 A 
ATOM     53  C   UNL     1       8.511   9.169   3.950  1.00  0.00     0.091 A 
ATOM     54  F   UNL     1       9.011   7.908   1.983  1.00  0.00    -0.205 F 
ATOM     55  C   UNL     1       7.732  10.153   4.580  1.00  0.00     0.022 A 
BRANCH  53  56
ATOM     56  S   UNL     1       9.730   8.328   4.967  1.00  0.00     0.127 S 
ATOM     57  O   UNL     1      10.586   9.437   5.389  1.00  0.00    -0.237 OA
ATOM     58  O   UNL     1       8.891   7.763   6.025  1.00  0.00    -0.237 OA
ATOM     59  O   UNL     1      10.366   7.349   4.101  1.00  0.00    -0.744 OA
ENDBRANCH  53  56
ENDBRANCH  25  49
BRANCH  37  60
ATOM     60  C   UNL     1       7.901  12.398  -4.402  1.00  0.00     0.023 A 
ATOM     61  C   UNL     1       9.300  12.461  -4.552  1.00  0.00     0.012 A 
ATOM     62  C   UNL     1       7.106  13.482  -4.820  1.00  0.00     0.148 A 
ATOM     63  C   UNL     1       9.901  13.590  -5.105  1.00  0.00     0.002 A 
ATOM     64  C   UNL     1       7.709  14.592  -5.400  1.00  0.00     0.091 A 
ATOM     65  F   UNL     1       5.778  13.400  -4.658  1.00  0.00    -0.205 F 
ATOM     66  C   UNL     1       9.106  14.649  -5.539  1.00  0.00     0.022 A 
BRANCH  64  67
ATOM     67  S   UNL     1       6.768  15.973  -6.059  1.00  0.00     0.127 S 
ATOM     68  O   UNL     1       7.104  17.038  -5.116  1.00  0.00    -0.237 OA
ATOM     69  O   UNL     1       7.345  16.133  -7.394  1.00  0.00    -0.237 OA
ATOM     70  O   UNL     1       5.373  15.551  -6.048  1.00  0.00    -0.744 OA
ENDBRANCH  64  67
ENDBRANCH  37  60
ENDBRANCH  11  12
ENDBRANCH   4   6
ENDBRANCH   1   2
BRANCH   1  71
ATOM     71  C   UNL     1       4.996  -1.755   1.619  1.00  0.00     0.042 C 
BRANCH  71  72
ATOM     72  C   UNL     1       4.422  -3.124   1.954  1.00  0.00     0.118 C 
BRANCH  72  73
ATOM     73  N   UNL     1       4.880  -4.165   1.046  1.00  0.00    -0.352 N 
ATOM     74  C   UNL     1       5.670  -5.252   1.269  1.00  0.00     0.251 C 
ATOM     75  H   UNL     1       4.568  -4.067   0.117  1.00  0.00     0.163 HD
ATOM     76  O   UNL     1       6.025  -5.954   0.325  1.00  0.00    -0.269 OA
BRANCH  74  77
ATOM     77  C   UNL     1       6.102  -5.570   2.659  1.00  0.00     0.042 A 
ATOM     78  C   UNL     1       5.136  -5.709   3.740  1.00  0.00     0.016 A 
ATOM     79  C   UNL     1       7.416  -5.796   2.820  1.00  0.00     0.044 A 
ATOM     80  C   UNL     1       5.486  -5.946   5.012  1.00  0.00     0.031 A 
ATOM     81  C   UNL     1       7.877  -6.127   4.169  1.00  0.00     0.087 A 
ATOM     82  C   UNL     1       6.908  -6.160   5.285  1.00  0.00     0.086 A 
ATOM     83  N   UNL     1       9.074  -6.392   4.560  1.00  0.00    -0.247 NA
ATOM     84  N   UNL     1       7.469  -6.402   6.418  1.00  0.00    -0.247 NA
ATOM     85  C   UNL     1       8.906  -6.638   6.035  1.00  0.00     0.326 C 
BRANCH  85  86
ATOM     86  C   UNL     1       9.365  -8.068   6.443  1.00  0.00     0.431 C 
ATOM     87  F   UNL     1       9.336  -8.230   7.789  1.00  0.00    -0.167 F 
ATOM     88  F   UNL     1       8.564  -9.021   5.904  1.00  0.00    -0.167 F 
ATOM     89  F   UNL     1      10.632  -8.328   6.043  1.00  0.00    -0.167 F 
ENDBRANCH  85  86
ENDBRANCH  74  77
ENDBRANCH  72  73
ENDBRANCH  71  72
ENDBRANCH   1  71
TORSDOF 14
