REMARK SMILES CC(C)[C@H](NC(=O)CC[NH3+])C(=O)NCCCNC(=O)c1ccc(-c2c3nc(c(-c4cccc(S(=O)(=O)[O-])c4F)c4ccc([nH]4)c(-c4cccc(S(=O)(=O)[O-])c4F)c4nc(c(-c5cccc(S(=O)(=O)[O-])c5F)c5ccc2[nH]5)C=C4)C=C3)cc1
REMARK SMILES IDX 14 1 13 2 11 3 12 4 4 6 2 7 1 8 3 9 5 10 6 11 7 13 8 14 9 15
REMARK SMILES IDX 10 16 15 20 16 21 17 22 18 23 19 25 20 26 21 27 82 28 22 29
REMARK SMILES IDX 81 30 23 31 24 32 25 33 75 34 26 35 80 36 74 37 76 38 27 39
REMARK SMILES IDX 79 40 73 41 72 42 28 44 60 45 40 46 59 47 41 48 44 49 58 50
REMARK SMILES IDX 77 51 42 52 43 53 57 55 78 56 45 57 29 58 30 59 38 60 31 61
REMARK SMILES IDX 33 62 39 63 32 64 34 65 35 66 36 67 37 68 61 69 62 70 70 71
REMARK SMILES IDX 63 72 65 73 71 74 64 75 66 76 67 77 68 78 69 79 46 80 47 81
REMARK SMILES IDX 55 82 48 83 50 84 56 85 49 86 51 87 52 88 53 89 54 90
REMARK H PARENT 13 5 5 12 10 17 10 18 10 19 17 24 76 43 44 54
REMARK Flexibility Score: inf
ROOT
ATOM      1  C   UNL     1      -0.321   3.607  -2.491  1.00  0.00     0.117 C 
ENDROOT
BRANCH   1   2
ATOM      2  N   UNL     1      -1.368   2.756  -3.023  1.00  0.00    -0.354 N 
ATOM      3  C   UNL     1      -1.785   1.535  -2.588  1.00  0.00     0.242 C 
ATOM      4  O   UNL     1      -2.756   1.014  -3.144  1.00  0.00    -0.273 OA
ATOM      5  H   UNL     1      -1.844   3.111  -3.809  1.00  0.00     0.163 HD
BRANCH   3   6
ATOM      6  C   UNL     1      -1.107   0.841  -1.392  1.00  0.00     0.173 C 
BRANCH   6   7
ATOM      7  C   UNL     1      -1.553   1.453  -0.011  1.00  0.00     0.015 C 
ATOM      8  C   UNL     1      -0.419   1.900   0.922  1.00  0.00     0.010 C 
ATOM      9  C   UNL     1      -2.606   2.572  -0.096  1.00  0.00     0.010 C 
ENDBRANCH   6   7
BRANCH   6  10
ATOM     10  N   UNL     1       0.346   0.671  -1.560  1.00  0.00    -0.344 N 
ATOM     11  C   UNL     1       1.034   0.018  -2.545  1.00  0.00     0.226 C 
ATOM     12  H   UNL     1       0.902   1.088  -0.863  1.00  0.00     0.164 HD
ATOM     13  O   UNL     1       2.137  -0.446  -2.251  1.00  0.00    -0.275 OA
BRANCH  11  14
ATOM     14  C   UNL     1       0.509  -0.070  -3.963  1.00  0.00     0.161 C 
BRANCH  14  15
ATOM     15  C   UNL     1      -0.070  -1.423  -4.354  1.00  0.00     0.268 C 
BRANCH  15  16
ATOM     16  N   UNL     1      -1.174  -1.893  -3.524  1.00  0.00    -0.357 N 
ATOM     17  H   UNL     1      -0.846  -2.029  -2.568  1.00  0.00     0.344 HD
ATOM     18  H   UNL     1      -1.524  -2.777  -3.892  1.00  0.00     0.344 HD
ATOM     19  H   UNL     1      -1.923  -1.201  -3.531  1.00  0.00     0.344 HD
ENDBRANCH  15  16
ENDBRANCH  14  15
ENDBRANCH  11  14
ENDBRANCH   6  10
ENDBRANCH   3   6
ENDBRANCH   1   2
BRANCH   1  20
ATOM     20  C   UNL     1       0.892   3.707  -3.399  1.00  0.00     0.042 C 
BRANCH  20  21
ATOM     21  C   UNL     1       0.556   4.176  -4.805  1.00  0.00     0.118 C 
BRANCH  21  22
ATOM     22  N   UNL     1      -0.147   5.454  -4.807  1.00  0.00    -0.352 N 
ATOM     23  C   UNL     1       0.287   6.699  -5.188  1.00  0.00     0.251 C 
ATOM     24  H   UNL     1      -1.077   5.418  -4.484  1.00  0.00     0.163 HD
ATOM     25  O   UNL     1      -0.362   7.691  -4.875  1.00  0.00    -0.269 OA
BRANCH  23  26
ATOM     26  C   UNL     1       1.536   6.834  -5.964  1.00  0.00     0.039 A 
ATOM     27  C   UNL     1       2.418   7.874  -5.665  1.00  0.00     0.014 A 
ATOM     28  C   UNL     1       1.832   5.933  -6.988  1.00  0.00     0.014 A 
ATOM     29  C   UNL     1       3.629   7.968  -6.353  1.00  0.00     0.010 A 
ATOM     30  C   UNL     1       3.081   5.962  -7.592  1.00  0.00     0.010 A 
ATOM     31  C   UNL     1       3.986   6.990  -7.296  1.00  0.00    -0.014 A 
BRANCH  31  32
ATOM     32  C   UNL     1       5.295   7.023  -7.996  1.00  0.00     0.031 A 
ATOM     33  C   UNL     1       5.341   7.119  -9.499  1.00  0.00     0.074 A 
ATOM     34  C   UNL     1       6.432   6.872  -7.290  1.00  0.00     0.049 A 
ATOM     35  N   UNL     1       6.378   7.085 -10.294  1.00  0.00    -0.248 NA
ATOM     36  C   UNL     1       4.052   7.231 -10.204  1.00  0.00     0.031 C 
ATOM     37  C   UNL     1       6.510   6.683  -5.839  1.00  0.00     0.029 A 
ATOM     38  N   UNL     1       7.741   6.824  -7.699  1.00  0.00    -0.354 N 
ATOM     39  C   UNL     1       5.867   7.129 -11.586  1.00  0.00     0.074 A 
ATOM     40  C   UNL     1       4.426   7.149 -11.471  1.00  0.00     0.031 C 
ATOM     41  C   UNL     1       7.797   6.551  -5.480  1.00  0.00     0.029 A 
ATOM     42  C   UNL     1       8.632   6.609  -6.675  1.00  0.00     0.049 A 
ATOM     43  H   UNL     1       8.015   6.934  -8.639  1.00  0.00     0.167 HD
ATOM     44  C   UNL     1       6.535   7.182 -12.762  1.00  0.00     0.034 A 
ATOM     45  C   UNL     1       9.972   6.465  -6.697  1.00  0.00     0.034 A 
ATOM     46  C   UNL     1       7.968   7.211 -12.867  1.00  0.00     0.049 A 
ATOM     47  C   UNL     1      10.693   6.572  -8.013  1.00  0.00     0.074 A 
ATOM     48  C   UNL     1       8.744   7.359 -14.002  1.00  0.00     0.029 A 
ATOM     49  N   UNL     1       8.841   7.082 -11.798  1.00  0.00    -0.354 N 
ATOM     50  N   UNL     1      10.199   6.775  -9.210  1.00  0.00    -0.248 NA
ATOM     51  C   UNL     1      12.158   6.466  -7.978  1.00  0.00     0.031 C 
ATOM     52  C   UNL     1      10.088   7.291 -13.623  1.00  0.00     0.029 A 
ATOM     53  C   UNL     1      10.149   7.137 -12.247  1.00  0.00     0.049 A 
ATOM     54  H   UNL     1       8.571   6.969 -10.858  1.00  0.00     0.167 HD
ATOM     55  C   UNL     1      11.292   6.860 -10.064  1.00  0.00     0.074 A 
ATOM     56  C   UNL     1      12.475   6.708  -9.243  1.00  0.00     0.031 C 
ATOM     57  C   UNL     1      11.316   7.036 -11.409  1.00  0.00     0.034 A 
BRANCH  44  58
ATOM     58  C   UNL     1       5.723   7.266 -14.028  1.00  0.00     0.023 A 
ATOM     59  C   UNL     1       5.005   8.444 -14.322  1.00  0.00     0.012 A 
ATOM     60  C   UNL     1       5.713   6.204 -14.954  1.00  0.00     0.148 A 
ATOM     61  C   UNL     1       4.261   8.551 -15.495  1.00  0.00     0.002 A 
ATOM     62  C   UNL     1       5.008   6.337 -16.145  1.00  0.00     0.091 A 
ATOM     63  F   UNL     1       6.383   5.083 -14.649  1.00  0.00    -0.205 F 
ATOM     64  C   UNL     1       4.272   7.503 -16.411  1.00  0.00     0.022 A 
BRANCH  62  65
ATOM     65  S   UNL     1       5.025   5.079 -17.428  1.00  0.00     0.127 S 
ATOM     66  O   UNL     1       3.651   4.584 -17.372  1.00  0.00    -0.237 OA
ATOM     67  O   UNL     1       5.343   5.864 -18.621  1.00  0.00    -0.237 OA
ATOM     68  O   UNL     1       6.050   4.121 -17.039  1.00  0.00    -0.744 OA
ENDBRANCH  62  65
ENDBRANCH  44  58
BRANCH  45  69
ATOM     69  C   UNL     1      10.724   6.268  -5.425  1.00  0.00     0.023 A 
ATOM     70  C   UNL     1      11.555   7.299  -4.946  1.00  0.00     0.012 A 
ATOM     71  C   UNL     1      10.605   5.080  -4.679  1.00  0.00     0.148 A 
ATOM     72  C   UNL     1      12.284   7.137  -3.767  1.00  0.00     0.002 A 
ATOM     73  C   UNL     1      11.289   4.947  -3.476  1.00  0.00     0.091 A 
ATOM     74  F   UNL     1       9.814   4.108  -5.155  1.00  0.00    -0.205 F 
ATOM     75  C   UNL     1      12.144   5.966  -3.028  1.00  0.00     0.022 A 
BRANCH  73  76
ATOM     76  S   UNL     1      11.069   3.532  -2.392  1.00  0.00     0.127 S 
ATOM     77  O   UNL     1      12.362   2.863  -2.508  1.00  0.00    -0.237 OA
ATOM     78  O   UNL     1      10.820   4.177  -1.102  1.00  0.00    -0.237 OA
ATOM     79  O   UNL     1       9.928   2.801  -2.928  1.00  0.00    -0.744 OA
ENDBRANCH  73  76
ENDBRANCH  45  69
BRANCH  57  80
ATOM     80  C   UNL     1      12.662   7.120 -12.079  1.00  0.00     0.023 A 
ATOM     81  C   UNL     1      13.457   5.964 -12.210  1.00  0.00     0.012 A 
ATOM     82  C   UNL     1      13.102   8.332 -12.646  1.00  0.00     0.148 A 
ATOM     83  C   UNL     1      14.686   6.022 -12.866  1.00  0.00     0.002 A 
ATOM     84  C   UNL     1      14.303   8.370 -13.344  1.00  0.00     0.091 A 
ATOM     85  F   UNL     1      12.338   9.424 -12.495  1.00  0.00    -0.205 F 
ATOM     86  C   UNL     1      15.102   7.220 -13.443  1.00  0.00     0.022 A 
BRANCH  84  87
ATOM     87  S   UNL     1      14.870   9.840 -14.205  1.00  0.00     0.127 S 
ATOM     88  O   UNL     1      15.997  10.257 -13.372  1.00  0.00    -0.237 OA
ATOM     89  O   UNL     1      15.245   9.306 -15.515  1.00  0.00    -0.237 OA
ATOM     90  O   UNL     1      13.738  10.756 -14.227  1.00  0.00    -0.744 OA
ENDBRANCH  84  87
ENDBRANCH  57  80
ENDBRANCH  31  32
ENDBRANCH  23  26
ENDBRANCH  21  22
ENDBRANCH  20  21
ENDBRANCH   1  20
TORSDOF 18
