REMARK SMILES CC1=C(CC(=O)NCCCNC(=O)c2ccc(-c3c4nc(c(-c5cccc(S(=O)(=O)[O-])c5F)c5ccc([nH]5)c(-c5cccc(S(=O)(=O)[O-])c5F)c5nc(c(-c6cccc(S(=O)(=O)[O-])c6F)c6ccc3[nH]6)C=C5)C=C4)cc2)c2cc(F)ccc2/C1=C\c1ccc([S@@+](C)[O-])cc1
REMARK SMILES IDX 9 1 8 2 7 3 5 4 6 5 4 7 3 8 1 9 2 10 84 11 77 12 83 13 85 14
REMARK SMILES IDX 78 15 82 16 79 17 81 18 80 19 86 20 87 21 94 22 88 23 93 24
REMARK SMILES IDX 89 25 90 26 91 27 92 28 10 29 11 30 12 31 13 33 14 34 15 35
REMARK SMILES IDX 76 36 16 37 75 38 17 39 18 40 19 41 69 42 20 43 74 44 68 45
REMARK SMILES IDX 70 46 21 47 73 48 67 49 66 50 22 52 54 53 34 54 53 55 35 56
REMARK SMILES IDX 38 57 52 58 71 59 36 60 37 61 51 63 72 64 39 65 23 66 24 67
REMARK SMILES IDX 32 68 25 69 27 70 33 71 26 72 28 73 29 74 30 75 31 76 55 77
REMARK SMILES IDX 56 78 64 79 57 80 59 81 65 82 58 83 60 84 61 85 62 86 63 87
REMARK SMILES IDX 40 88 41 89 49 90 42 91 44 92 50 93 43 94 45 95 46 96 47 97
REMARK SMILES IDX 48 98
REMARK H PARENT 7 6 11 32 70 51 38 62
REMARK Flexibility Score: inf
ROOT
ATOM      1  C   UNL     1      -2.937   0.574  -0.428  1.00  0.00     0.042 C 
ENDROOT
BRANCH   1   2
ATOM      2  C   UNL     1      -2.551  -0.898  -0.525  1.00  0.00     0.117 C 
BRANCH   2   3
ATOM      3  N   UNL     1      -2.702  -1.422  -1.868  1.00  0.00    -0.356 N 
ATOM      4  C   UNL     1      -1.758  -1.601  -2.834  1.00  0.00     0.224 C 
ATOM      5  O   UNL     1      -2.119  -2.048  -3.926  1.00  0.00    -0.275 OA
ATOM      6  H   UNL     1      -3.617  -1.687  -2.117  1.00  0.00     0.163 HD
BRANCH   4   7
ATOM      7  C   UNL     1      -0.289  -1.301  -2.549  1.00  0.00     0.136 C 
BRANCH   7   8
ATOM      8  C   UNL     1       0.022   0.157  -2.438  1.00  0.00    -0.027 C 
ATOM      9  C   UNL     1       1.022   0.313  -0.086  1.00  0.00     0.045 C 
ATOM     10  C   UNL     1       0.561   0.845  -1.403  1.00  0.00    -0.039 C 
ATOM     11  C   UNL     1       0.664   2.272  -1.754  1.00  0.00    -0.014 C 
ATOM     12  C   UNL     1      -0.177   1.105  -3.550  1.00  0.00    -0.011 A 
ATOM     13  C   UNL     1       0.257   2.389  -3.168  1.00  0.00    -0.010 A 
ATOM     14  C   UNL     1       1.015   3.245  -0.889  1.00  0.00     0.017 C 
ATOM     15  C   UNL     1      -0.671   0.878  -4.829  1.00  0.00     0.048 A 
ATOM     16  C   UNL     1       0.254   3.434  -4.082  1.00  0.00     0.012 A 
ATOM     17  C   UNL     1      -0.718   1.947  -5.719  1.00  0.00     0.123 A 
ATOM     18  C   UNL     1      -0.254   3.212  -5.364  1.00  0.00     0.040 A 
ATOM     19  F   UNL     1      -1.201   1.752  -6.954  1.00  0.00    -0.207 F 
BRANCH  14  20
ATOM     20  C   UNL     1       1.102   4.674  -1.203  1.00  0.00    -0.025 A 
ATOM     21  C   UNL     1      -0.045   5.434  -1.462  1.00  0.00     0.013 A 
ATOM     22  C   UNL     1       2.362   5.258  -1.353  1.00  0.00     0.013 A 
ATOM     23  C   UNL     1       0.071   6.723  -1.998  1.00  0.00     0.061 A 
ATOM     24  C   UNL     1       2.475   6.551  -1.868  1.00  0.00     0.061 A 
ATOM     25  C   UNL     1       1.334   7.275  -2.238  1.00  0.00     0.152 A 
BRANCH  25  26
ATOM     26  S   UNL     1       1.519   8.803  -3.194  1.00  0.00    -0.018 S 
ATOM     27  C   UNL     1       0.496   9.912  -2.209  1.00  0.00     0.346 C 
ATOM     28  O   UNL     1       3.019   9.250  -3.053  1.00  0.00    -0.612 OA
ENDBRANCH  25  26
ENDBRANCH  14  20
ENDBRANCH   7   8
ENDBRANCH   4   7
ENDBRANCH   2   3
ENDBRANCH   1   2
BRANCH   1  29
ATOM     29  C   UNL     1      -4.417   0.845  -0.673  1.00  0.00     0.118 C 
BRANCH  29  30
ATOM     30  N   UNL     1      -5.274   0.288   0.365  1.00  0.00    -0.352 N 
ATOM     31  C   UNL     1      -6.169   0.911   1.203  1.00  0.00     0.251 C 
ATOM     32  H   UNL     1      -5.202  -0.687   0.486  1.00  0.00     0.163 HD
ATOM     33  O   UNL     1      -6.671   0.275   2.127  1.00  0.00    -0.269 OA
BRANCH  31  34
ATOM     34  C   UNL     1      -6.499   2.341   1.016  1.00  0.00     0.039 A 
ATOM     35  C   UNL     1      -6.735   2.865  -0.257  1.00  0.00     0.014 A 
ATOM     36  C   UNL     1      -6.574   3.174   2.137  1.00  0.00     0.014 A 
ATOM     37  C   UNL     1      -6.870   4.239  -0.426  1.00  0.00     0.010 A 
ATOM     38  C   UNL     1      -6.793   4.545   1.972  1.00  0.00     0.010 A 
ATOM     39  C   UNL     1      -6.889   5.098   0.685  1.00  0.00    -0.014 A 
BRANCH  39  40
ATOM     40  C   UNL     1      -7.005   6.564   0.478  1.00  0.00     0.031 A 
ATOM     41  C   UNL     1      -5.881   7.488   0.867  1.00  0.00     0.074 A 
ATOM     42  C   UNL     1      -8.115   7.064  -0.100  1.00  0.00     0.049 A 
ATOM     43  N   UNL     1      -5.802   8.787   0.730  1.00  0.00    -0.248 NA
ATOM     44  C   UNL     1      -4.691   6.883   1.490  1.00  0.00     0.031 C 
ATOM     45  C   UNL     1      -9.280   6.275  -0.506  1.00  0.00     0.029 A 
ATOM     46  N   UNL     1      -8.443   8.348  -0.456  1.00  0.00    -0.354 N 
ATOM     47  C   UNL     1      -4.585   9.159   1.288  1.00  0.00     0.074 A 
ATOM     48  C   UNL     1      -3.951   7.949   1.763  1.00  0.00     0.031 C 
ATOM     49  C   UNL     1     -10.175   7.083  -1.092  1.00  0.00     0.029 A 
ATOM     50  C   UNL     1      -9.672   8.453  -1.062  1.00  0.00     0.049 A 
ATOM     51  H   UNL     1      -7.853   9.120  -0.294  1.00  0.00     0.167 HD
ATOM     52  C   UNL     1      -4.036  10.393   1.377  1.00  0.00     0.034 A 
ATOM     53  C   UNL     1     -10.329   9.530  -1.536  1.00  0.00     0.034 A 
ATOM     54  C   UNL     1      -4.639  11.588   0.855  1.00  0.00     0.049 A 
ATOM     55  C   UNL     1      -9.689  10.883  -1.441  1.00  0.00     0.074 A 
ATOM     56  C   UNL     1      -4.128  12.875   0.854  1.00  0.00     0.029 A 
ATOM     57  N   UNL     1      -5.880  11.649   0.242  1.00  0.00    -0.354 N 
ATOM     58  N   UNL     1      -8.502  11.198  -0.984  1.00  0.00    -0.248 NA
ATOM     59  C   UNL     1     -10.469  12.027  -1.934  1.00  0.00     0.031 C 
ATOM     60  C   UNL     1      -5.062  13.715   0.241  1.00  0.00     0.029 A 
ATOM     61  C   UNL     1      -6.151  12.950  -0.143  1.00  0.00     0.049 A 
ATOM     62  H   UNL     1      -6.479  10.881   0.102  1.00  0.00     0.167 HD
ATOM     63  C   UNL     1      -8.387  12.573  -1.144  1.00  0.00     0.074 A 
ATOM     64  C   UNL     1      -9.616  13.030  -1.759  1.00  0.00     0.031 C 
ATOM     65  C   UNL     1      -7.360  13.383  -0.794  1.00  0.00     0.034 A 
BRANCH  52  66
ATOM     66  C   UNL     1      -2.682  10.521   2.018  1.00  0.00     0.023 A 
ATOM     67  C   UNL     1      -1.534  10.206   1.266  1.00  0.00     0.012 A 
ATOM     68  C   UNL     1      -2.542  11.050   3.316  1.00  0.00     0.148 A 
ATOM     69  C   UNL     1      -0.262  10.410   1.799  1.00  0.00     0.002 A 
ATOM     70  C   UNL     1      -1.270  11.276   3.829  1.00  0.00     0.091 A 
ATOM     71  F   UNL     1      -3.651  11.327   4.015  1.00  0.00    -0.205 F 
ATOM     72  C   UNL     1      -0.130  10.956   3.073  1.00  0.00     0.022 A 
BRANCH  70  73
ATOM     73  S   UNL     1      -0.985  12.015   5.441  1.00  0.00     0.127 S 
ATOM     74  O   UNL     1      -0.345  10.912   6.159  1.00  0.00    -0.237 OA
ATOM     75  O   UNL     1      -0.096  13.129   5.114  1.00  0.00    -0.237 OA
ATOM     76  O   UNL     1      -2.296  12.402   5.944  1.00  0.00    -0.744 OA
ENDBRANCH  70  73
ENDBRANCH  52  66
BRANCH  53  77
ATOM     77  C   UNL     1     -11.650   9.342  -2.193  1.00  0.00     0.023 A 
ATOM     78  C   UNL     1     -11.737   9.424  -3.595  1.00  0.00     0.012 A 
ATOM     79  C   UNL     1     -12.793   8.998  -1.447  1.00  0.00     0.148 A 
ATOM     80  C   UNL     1     -12.944   9.167  -4.245  1.00  0.00     0.002 A 
ATOM     81  C   UNL     1     -13.981   8.701  -2.103  1.00  0.00     0.091 A 
ATOM     82  F   UNL     1     -12.682   8.936  -0.113  1.00  0.00    -0.205 F 
ATOM     83  C   UNL     1     -14.061   8.794  -3.502  1.00  0.00     0.022 A 
BRANCH  81  84
ATOM     84  S   UNL     1     -15.437   8.097  -1.242  1.00  0.00     0.127 S 
ATOM     85  O   UNL     1     -16.381   9.192  -1.450  1.00  0.00    -0.237 OA
ATOM     86  O   UNL     1     -15.737   6.873  -1.985  1.00  0.00    -0.237 OA
ATOM     87  O   UNL     1     -15.020   7.880   0.137  1.00  0.00    -0.744 OA
ENDBRANCH  81  84
ENDBRANCH  53  77
BRANCH  65  88
ATOM     88  C   UNL     1      -7.500  14.854  -1.064  1.00  0.00     0.023 A 
ATOM     89  C   UNL     1      -8.247  15.649  -0.174  1.00  0.00     0.012 A 
ATOM     90  C   UNL     1      -6.792  15.463  -2.118  1.00  0.00     0.148 A 
ATOM     91  C   UNL     1      -8.292  17.033  -0.333  1.00  0.00     0.002 A 
ATOM     92  C   UNL     1      -6.816  16.846  -2.251  1.00  0.00     0.091 A 
ATOM     93  F   UNL     1      -6.097  14.679  -2.955  1.00  0.00    -0.205 F 
ATOM     94  C   UNL     1      -7.568  17.632  -1.362  1.00  0.00     0.022 A 
BRANCH  92  95
ATOM     95  S   UNL     1      -5.856  17.713  -3.497  1.00  0.00     0.127 S 
ATOM     96  O   UNL     1      -6.906  18.242  -4.366  1.00  0.00    -0.237 OA
ATOM     97  O   UNL     1      -5.156  18.721  -2.700  1.00  0.00    -0.237 OA
ATOM     98  O   UNL     1      -4.990  16.713  -4.107  1.00  0.00    -0.744 OA
ENDBRANCH  92  95
ENDBRANCH  65  88
ENDBRANCH  39  40
ENDBRANCH  31  34
ENDBRANCH  29  30
ENDBRANCH   1  29
TORSDOF 16
