REMARK SMILES C[NH2+][C@@]1(C(=O)NCCCNC(=O)c2ccc(-c3c4nc(c(-c5cccc(S(=O)(=O)[O-])c5F)c5ccc([nH]5)c(-c5cccc(S(=O)(=O)[O-])c5F)c5nc(c(-c6cccc(S(=O)(=O)[O-])c6F)c6ccc3[nH]6)C=C5)C=C4)cc2)CC[C@H](SC(C)C)C1
REMARK SMILES IDX 8 1 7 2 6 3 4 4 5 5 3 7 76 8 83 9 77 10 78 11 2 12 1 13
REMARK SMILES IDX 79 16 80 17 81 18 82 19 9 20 10 21 11 22 12 24 13 25 14 26
REMARK SMILES IDX 75 27 15 28 74 29 16 30 17 31 18 32 68 33 19 34 73 35 67 36
REMARK SMILES IDX 69 37 20 38 72 39 66 40 65 41 21 43 53 44 33 45 52 46 34 47
REMARK SMILES IDX 37 48 51 49 70 50 35 51 36 52 50 54 71 55 38 56 22 57 23 58
REMARK SMILES IDX 31 59 24 60 26 61 32 62 25 63 27 64 28 65 29 66 30 67 54 68
REMARK SMILES IDX 55 69 63 70 56 71 58 72 64 73 57 74 59 75 60 76 61 77 62 78
REMARK SMILES IDX 39 79 40 80 48 81 41 82 43 83 49 84 42 85 44 86 45 87 46 88
REMARK SMILES IDX 47 89
REMARK H PARENT 6 6 2 14 2 15 10 23 69 42 37 53
REMARK Flexibility Score: inf
ROOT
ATOM      1  C   UNL     1      -4.620  -0.372   3.217  1.00  0.00     0.042 C 
ENDROOT
BRANCH   1   2
ATOM      2  C   UNL     1      -3.802   0.840   2.793  1.00  0.00     0.118 C 
BRANCH   2   3
ATOM      3  N   UNL     1      -2.430   0.756   3.233  1.00  0.00    -0.351 N 
ATOM      4  C   UNL     1      -1.257   0.589   2.581  1.00  0.00     0.281 C 
ATOM      5  O   UNL     1      -0.276   0.457   3.337  1.00  0.00    -0.268 OA
ATOM      6  H   UNL     1      -2.327   0.837   4.209  1.00  0.00     0.163 HD
BRANCH   4   7
ATOM      7  C   UNL     1      -1.028   0.525   1.000  1.00  0.00     0.176 C 
ATOM      8  C   UNL     1      -1.687   1.654   0.205  1.00  0.00     0.080 C 
ATOM      9  C   UNL     1      -1.582  -0.780   0.400  1.00  0.00     0.093 C 
ATOM     10  C   UNL     1      -2.900   1.079  -0.525  1.00  0.00     0.022 C 
ATOM     11  C   UNL     1      -2.807  -0.445  -0.493  1.00  0.00     0.054 C 
BRANCH   7  12
ATOM     12  N   UNL     1       0.452   0.743   0.874  1.00  0.00    -0.336 N 
ATOM     13  C   UNL     1       1.158   0.082  -0.204  1.00  0.00     0.331 C 
ATOM     14  H   UNL     1       0.601   1.746   0.761  1.00  0.00     0.346 HD
ATOM     15  H   UNL     1       0.839   0.325   1.720  1.00  0.00     0.346 HD
ENDBRANCH   7  12
BRANCH  11  16
ATOM     16  S   UNL     1      -4.172  -1.505   0.134  1.00  0.00    -0.155 SA
BRANCH  16  17
ATOM     17  C   UNL     1      -5.783  -0.952  -0.547  1.00  0.00     0.040 C 
ATOM     18  C   UNL     1      -6.088   0.536  -0.529  1.00  0.00     0.019 C 
ATOM     19  C   UNL     1      -6.061  -1.573  -1.907  1.00  0.00     0.019 C 
ENDBRANCH  16  17
ENDBRANCH  11  16
ENDBRANCH   4   7
ENDBRANCH   2   3
ENDBRANCH   1   2
BRANCH   1  20
ATOM     20  C   UNL     1      -5.218  -0.238   4.605  1.00  0.00     0.118 C 
BRANCH  20  21
ATOM     21  N   UNL     1      -6.324   0.715   4.621  1.00  0.00    -0.352 N 
ATOM     22  C   UNL     1      -7.682   0.548   4.484  1.00  0.00     0.251 C 
ATOM     23  H   UNL     1      -6.046   1.650   4.755  1.00  0.00     0.163 HD
ATOM     24  O   UNL     1      -8.366   1.544   4.246  1.00  0.00    -0.269 OA
BRANCH  22  25
ATOM     25  C   UNL     1      -8.339  -0.778   4.608  1.00  0.00     0.039 A 
ATOM     26  C   UNL     1      -9.543  -1.007   3.928  1.00  0.00     0.014 A 
ATOM     27  C   UNL     1      -7.841  -1.774   5.445  1.00  0.00     0.014 A 
ATOM     28  C   UNL     1     -10.206  -2.234   4.056  1.00  0.00     0.010 A 
ATOM     29  C   UNL     1      -8.427  -3.036   5.468  1.00  0.00     0.010 A 
ATOM     30  C   UNL     1      -9.637  -3.275   4.805  1.00  0.00    -0.014 A 
BRANCH  30  31
ATOM     31  C   UNL     1     -10.294  -4.603   4.955  1.00  0.00     0.031 A 
ATOM     32  C   UNL     1     -10.617  -5.135   6.332  1.00  0.00     0.074 A 
ATOM     33  C   UNL     1     -10.503  -5.378   3.872  1.00  0.00     0.049 A 
ATOM     34  N   UNL     1     -11.070  -6.312   6.679  1.00  0.00    -0.248 NA
ATOM     35  C   UNL     1     -10.356  -4.240   7.474  1.00  0.00     0.031 C 
ATOM     36  C   UNL     1     -10.162  -5.020   2.494  1.00  0.00     0.029 A 
ATOM     37  N   UNL     1     -11.024  -6.644   3.764  1.00  0.00    -0.354 N 
ATOM     38  C   UNL     1     -11.089  -6.319   8.071  1.00  0.00     0.074 A 
ATOM     39  C   UNL     1     -10.566  -5.044   8.506  1.00  0.00     0.031 C 
ATOM     40  C   UNL     1     -10.490  -6.035   1.679  1.00  0.00     0.029 A 
ATOM     41  C   UNL     1     -11.028  -7.131   2.477  1.00  0.00     0.049 A 
ATOM     42  H   UNL     1     -11.362  -7.155   4.535  1.00  0.00     0.167 HD
ATOM     43  C   UNL     1     -11.531  -7.283   8.914  1.00  0.00     0.034 A 
ATOM     44  C   UNL     1     -11.412  -8.330   1.994  1.00  0.00     0.034 A 
ATOM     45  C   UNL     1     -12.120  -8.519   8.477  1.00  0.00     0.049 A 
ATOM     46  C   UNL     1     -11.961  -9.359   2.945  1.00  0.00     0.074 A 
ATOM     47  C   UNL     1     -12.701  -9.513   9.244  1.00  0.00     0.029 A 
ATOM     48  N   UNL     1     -12.205  -8.930   7.156  1.00  0.00    -0.354 N 
ATOM     49  N   UNL     1     -12.114  -9.284   4.245  1.00  0.00    -0.248 NA
ATOM     50  C   UNL     1     -12.425 -10.625   2.359  1.00  0.00     0.031 C 
ATOM     51  C   UNL     1     -13.117 -10.538   8.387  1.00  0.00     0.029 A 
ATOM     52  C   UNL     1     -12.822 -10.167   7.085  1.00  0.00     0.049 A 
ATOM     53  H   UNL     1     -11.875  -8.418   6.383  1.00  0.00     0.167 HD
ATOM     54  C   UNL     1     -12.726 -10.472   4.627  1.00  0.00     0.074 A 
ATOM     55  C   UNL     1     -12.934 -11.241   3.417  1.00  0.00     0.031 C 
ATOM     56  C   UNL     1     -13.074 -10.895   5.867  1.00  0.00     0.034 A 
BRANCH  43  57
ATOM     57  C   UNL     1     -11.449  -7.015  10.396  1.00  0.00     0.023 A 
ATOM     58  C   UNL     1     -12.289  -6.042  10.979  1.00  0.00     0.012 A 
ATOM     59  C   UNL     1     -10.582  -7.758  11.221  1.00  0.00     0.148 A 
ATOM     60  C   UNL     1     -12.236  -5.783  12.348  1.00  0.00     0.002 A 
ATOM     61  C   UNL     1     -10.571  -7.529  12.592  1.00  0.00     0.091 A 
ATOM     62  F   UNL     1      -9.777  -8.666  10.650  1.00  0.00    -0.205 F 
ATOM     63  C   UNL     1     -11.385  -6.533  13.155  1.00  0.00     0.022 A 
BRANCH  61  64
ATOM     64  S   UNL     1      -9.575  -8.499  13.730  1.00  0.00     0.127 S 
ATOM     65  O   UNL     1      -8.557  -7.529  14.132  1.00  0.00    -0.237 OA
ATOM     66  O   UNL     1     -10.542  -8.836  14.776  1.00  0.00    -0.237 OA
ATOM     67  O   UNL     1      -9.086  -9.638  12.966  1.00  0.00    -0.744 OA
ENDBRANCH  61  64
ENDBRANCH  43  57
BRANCH  44  68
ATOM     68  C   UNL     1     -11.360  -8.594   0.528  1.00  0.00     0.023 A 
ATOM     69  C   UNL     1     -12.565  -8.691  -0.196  1.00  0.00     0.012 A 
ATOM     70  C   UNL     1     -10.137  -8.718  -0.158  1.00  0.00     0.148 A 
ATOM     71  C   UNL     1     -12.554  -8.942  -1.568  1.00  0.00     0.002 A 
ATOM     72  C   UNL     1     -10.131  -8.912  -1.534  1.00  0.00     0.091 A 
ATOM     73  F   UNL     1      -9.001  -8.631   0.549  1.00  0.00    -0.205 F 
ATOM     74  C   UNL     1     -11.338  -9.043  -2.239  1.00  0.00     0.022 A 
BRANCH  72  75
ATOM     75  S   UNL     1      -8.619  -8.923  -2.503  1.00  0.00     0.127 S 
ATOM     76  O   UNL     1      -8.533 -10.322  -2.910  1.00  0.00    -0.237 OA
ATOM     77  O   UNL     1      -8.944  -7.986  -3.579  1.00  0.00    -0.237 OA
ATOM     78  O   UNL     1      -7.571  -8.460  -1.601  1.00  0.00    -0.744 OA
ENDBRANCH  72  75
ENDBRANCH  44  68
BRANCH  56  79
ATOM     79  C   UNL     1     -13.759 -12.230   5.986  1.00  0.00     0.023 A 
ATOM     80  C   UNL     1     -13.026 -13.417   5.793  1.00  0.00     0.012 A 
ATOM     81  C   UNL     1     -15.113 -12.307   6.369  1.00  0.00     0.148 A 
ATOM     82  C   UNL     1     -13.638 -14.660   5.946  1.00  0.00     0.002 A 
ATOM     83  C   UNL     1     -15.703 -13.549   6.570  1.00  0.00     0.091 A 
ATOM     84  F   UNL     1     -15.798 -11.166   6.530  1.00  0.00    -0.205 F 
ATOM     85  C   UNL     1     -14.971 -14.726   6.346  1.00  0.00     0.022 A 
BRANCH  83  86
ATOM     86  S   UNL     1     -17.382 -13.729   7.182  1.00  0.00     0.127 S 
ATOM     87  O   UNL     1     -18.086 -14.194   5.988  1.00  0.00    -0.237 OA
ATOM     88  O   UNL     1     -17.224 -14.738   8.229  1.00  0.00    -0.237 OA
ATOM     89  O   UNL     1     -17.776 -12.412   7.666  1.00  0.00    -0.744 OA
ENDBRANCH  83  86
ENDBRANCH  56  79
ENDBRANCH  30  31
ENDBRANCH  22  25
ENDBRANCH  20  21
ENDBRANCH   1  20
TORSDOF 16
