REMARK SMILES C[NH+](C)CC[NH2+][C@@H](C(=O)NCCCNC(=O)c1ccc(-c2c3nc(c(-c4cccc(S(=O)(=O)[O-])c4F)c4ccc([nH]4)c(-c4cccc(S(=O)(=O)[O-])c4F)c4nc(c(-c5cccc(S(=O)(=O)[O-])c5F)c5ccc2[nH]5)C=C4)C=C3)cc1)c1cccc(C2CC2)c1
REMARK SMILES IDX 11 1 10 2 8 3 9 4 7 6 6 7 5 10 4 11 2 12 1 13 3 14 80 16
REMARK SMILES IDX 81 17 88 18 82 19 84 20 83 21 85 22 86 23 87 24 12 25 13 26
REMARK SMILES IDX 14 27 15 28 16 30 17 31 18 32 79 33 19 34 78 35 20 36 21 37
REMARK SMILES IDX 22 38 72 39 23 40 77 41 71 42 73 43 24 44 76 45 70 46 69 47
REMARK SMILES IDX 25 49 57 50 37 51 56 52 38 53 41 54 55 55 74 56 39 57 40 58
REMARK SMILES IDX 54 60 75 61 42 62 26 63 27 64 35 65 28 66 30 67 36 68 29 69
REMARK SMILES IDX 31 70 32 71 33 72 34 73 58 74 59 75 67 76 60 77 62 78 68 79
REMARK SMILES IDX 61 80 63 81 64 82 65 83 66 84 43 85 44 86 52 87 45 88 47 89
REMARK SMILES IDX 53 90 46 91 48 92 49 93 50 94 51 95
REMARK H PARENT 10 5 6 8 6 9 2 15 14 29 73 48 41 59
REMARK Flexibility Score: inf
ROOT
ATOM      1  C   UNL     1      -1.292  -3.489   3.079  1.00  0.00     0.118 C 
ENDROOT
BRANCH   1   2
ATOM      2  N   UNL     1      -1.633  -3.448   1.664  1.00  0.00    -0.351 N 
ATOM      3  C   UNL     1      -0.889  -3.437   0.517  1.00  0.00     0.283 C 
ATOM      4  O   UNL     1      -1.546  -3.354  -0.529  1.00  0.00    -0.268 OA
ATOM      5  H   UNL     1      -2.603  -3.422   1.498  1.00  0.00     0.163 HD
BRANCH   3   6
ATOM      6  C   UNL     1       0.680  -3.492   0.509  1.00  0.00     0.304 C 
BRANCH   6   7
ATOM      7  N   UNL     1       1.217  -2.120   0.605  1.00  0.00    -0.328 N 
ATOM      8  H   UNL     1       2.174  -2.141   0.252  1.00  0.00     0.347 HD
ATOM      9  H   UNL     1       0.566  -1.548   0.067  1.00  0.00     0.347 HD
BRANCH   7  10
ATOM     10  C   UNL     1       1.252  -1.507   1.911  1.00  0.00     0.323 C 
BRANCH  10  11
ATOM     11  C   UNL     1       1.633  -0.009   1.883  1.00  0.00     0.323 C 
BRANCH  11  12
ATOM     12  N   UNL     1       0.885   0.895   0.998  1.00  0.00    -0.335 N 
ATOM     13  C   UNL     1       1.305   0.898  -0.395  1.00  0.00     0.332 C 
ATOM     14  C   UNL     1      -0.561   0.862   1.152  1.00  0.00     0.332 C 
ATOM     15  H   UNL     1       1.167   1.808   1.355  1.00  0.00     0.347 HD
ENDBRANCH  11  12
ENDBRANCH  10  11
ENDBRANCH   7  10
ENDBRANCH   6   7
BRANCH   6  16
ATOM     16  C   UNL     1       1.194  -4.106  -0.816  1.00  0.00     0.019 A 
ATOM     17  C   UNL     1       0.977  -5.449  -1.137  1.00  0.00     0.010 A 
ATOM     18  C   UNL     1       1.866  -3.310  -1.776  1.00  0.00     0.014 A 
ATOM     19  C   UNL     1       1.399  -5.951  -2.373  1.00  0.00     0.001 A 
ATOM     20  C   UNL     1       2.288  -3.771  -3.033  1.00  0.00    -0.044 A 
ATOM     21  C   UNL     1       2.038  -5.122  -3.305  1.00  0.00     0.004 A 
BRANCH  20  22
ATOM     22  C   UNL     1       2.969  -2.868  -4.050  1.00  0.00     0.019 C 
ATOM     23  C   UNL     1       2.923  -1.357  -3.959  1.00  0.00     0.009 C 
ATOM     24  C   UNL     1       4.197  -2.084  -3.645  1.00  0.00     0.009 C 
ENDBRANCH  20  22
ENDBRANCH   6  16
ENDBRANCH   3   6
ENDBRANCH   1   2
BRANCH   1  25
ATOM     25  C   UNL     1      -1.691  -2.214   3.844  1.00  0.00     0.042 C 
BRANCH  25  26
ATOM     26  C   UNL     1      -3.172  -1.854   3.801  1.00  0.00     0.118 C 
BRANCH  26  27
ATOM     27  N   UNL     1      -3.885  -2.384   4.946  1.00  0.00    -0.352 N 
ATOM     28  C   UNL     1      -4.361  -1.732   6.060  1.00  0.00     0.251 C 
ATOM     29  H   UNL     1      -4.054  -3.354   4.924  1.00  0.00     0.163 HD
ATOM     30  O   UNL     1      -4.679  -2.400   7.042  1.00  0.00    -0.269 OA
BRANCH  28  31
ATOM     31  C   UNL     1      -4.492  -0.252   6.103  1.00  0.00     0.039 A 
ATOM     32  C   UNL     1      -4.226   0.410   7.307  1.00  0.00     0.014 A 
ATOM     33  C   UNL     1      -4.954   0.483   5.007  1.00  0.00     0.014 A 
ATOM     34  C   UNL     1      -4.396   1.797   7.403  1.00  0.00     0.010 A 
ATOM     35  C   UNL     1      -5.050   1.876   5.081  1.00  0.00     0.010 A 
ATOM     36  C   UNL     1      -4.798   2.547   6.286  1.00  0.00    -0.014 A 
BRANCH  36  37
ATOM     37  C   UNL     1      -4.986   4.023   6.373  1.00  0.00     0.031 A 
ATOM     38  C   UNL     1      -6.348   4.634   6.149  1.00  0.00     0.074 A 
ATOM     39  C   UNL     1      -3.925   4.826   6.590  1.00  0.00     0.049 A 
ATOM     40  N   UNL     1      -6.697   5.895   6.146  1.00  0.00    -0.248 NA
ATOM     41  C   UNL     1      -7.458   3.708   5.867  1.00  0.00     0.031 C 
ATOM     42  C   UNL     1      -2.542   4.374   6.751  1.00  0.00     0.029 A 
ATOM     43  N   UNL     1      -3.840   6.194   6.687  1.00  0.00    -0.354 N 
ATOM     44  C   UNL     1      -8.050   5.918   5.826  1.00  0.00     0.074 A 
ATOM     45  C   UNL     1      -8.453   4.545   5.611  1.00  0.00     0.031 C 
ATOM     46  C   UNL     1      -1.748   5.442   6.929  1.00  0.00     0.029 A 
ATOM     47  C   UNL     1      -2.557   6.657   6.869  1.00  0.00     0.049 A 
ATOM     48  H   UNL     1      -4.623   6.788   6.631  1.00  0.00     0.167 HD
ATOM     49  C   UNL     1      -8.892   6.977   5.748  1.00  0.00     0.034 A 
ATOM     50  C   UNL     1      -2.082   7.914   6.973  1.00  0.00     0.034 A 
ATOM     51  C   UNL     1      -8.506   8.336   6.016  1.00  0.00     0.049 A 
ATOM     52  C   UNL     1      -3.045   9.071   6.930  1.00  0.00     0.074 A 
ATOM     53  C   UNL     1      -9.306   9.465   6.055  1.00  0.00     0.029 A 
ATOM     54  N   UNL     1      -7.213   8.754   6.287  1.00  0.00    -0.354 N 
ATOM     55  N   UNL     1      -4.348   9.055   6.788  1.00  0.00    -0.248 NA
ATOM     56  C   UNL     1      -2.478  10.417   7.099  1.00  0.00     0.031 C 
ATOM     57  C   UNL     1      -8.492  10.569   6.332  1.00  0.00     0.029 A 
ATOM     58  C   UNL     1      -7.190  10.124   6.487  1.00  0.00     0.049 A 
ATOM     59  H   UNL     1      -6.426   8.164   6.330  1.00  0.00     0.167 HD
ATOM     60  C   UNL     1      -4.760  10.379   6.887  1.00  0.00     0.074 A 
ATOM     61  C   UNL     1      -3.569  11.170   7.121  1.00  0.00     0.031 C 
ATOM     62  C   UNL     1      -6.009  10.895   6.779  1.00  0.00     0.034 A 
BRANCH  49  63
ATOM     63  C   UNL     1     -10.337   6.704   5.415  1.00  0.00     0.023 A 
ATOM     64  C   UNL     1     -11.166   6.091   6.376  1.00  0.00     0.012 A 
ATOM     65  C   UNL     1     -10.891   7.112   4.185  1.00  0.00     0.148 A 
ATOM     66  C   UNL     1     -12.514   5.854   6.107  1.00  0.00     0.002 A 
ATOM     67  C   UNL     1     -12.246   6.912   3.941  1.00  0.00     0.091 A 
ATOM     68  F   UNL     1     -10.085   7.677   3.275  1.00  0.00    -0.205 F 
ATOM     69  C   UNL     1     -13.055   6.274   4.896  1.00  0.00     0.022 A 
BRANCH  67  70
ATOM     70  S   UNL     1     -13.056   7.487   2.444  1.00  0.00     0.127 S 
ATOM     71  O   UNL     1     -13.295   6.230   1.737  1.00  0.00    -0.237 OA
ATOM     72  O   UNL     1     -14.262   8.128   2.972  1.00  0.00    -0.237 OA
ATOM     73  O   UNL     1     -12.117   8.398   1.805  1.00  0.00    -0.744 OA
ENDBRANCH  67  70
ENDBRANCH  49  63
BRANCH  50  74
ATOM     74  C   UNL     1      -0.627   8.142   7.203  1.00  0.00     0.023 A 
ATOM     75  C   UNL     1      -0.191   8.610   8.458  1.00  0.00     0.012 A 
ATOM     76  C   UNL     1       0.327   7.872   6.202  1.00  0.00     0.148 A 
ATOM     77  C   UNL     1       1.164   8.833   8.704  1.00  0.00     0.002 A 
ATOM     78  C   UNL     1       1.680   8.043   6.472  1.00  0.00     0.091 A 
ATOM     79  F   UNL     1      -0.108   7.441   5.010  1.00  0.00    -0.205 F 
ATOM     80  C   UNL     1       2.100   8.540   7.716  1.00  0.00     0.022 A 
BRANCH  78  81
ATOM     81  S   UNL     1       2.963   7.568   5.308  1.00  0.00     0.127 S 
ATOM     82  O   UNL     1       3.461   8.866   4.864  1.00  0.00    -0.237 OA
ATOM     83  O   UNL     1       3.880   6.812   6.160  1.00  0.00    -0.237 OA
ATOM     84  O   UNL     1       2.290   6.765   4.293  1.00  0.00    -0.744 OA
ENDBRANCH  78  81
ENDBRANCH  50  74
BRANCH  62  85
ATOM     85  C   UNL     1      -6.173  12.383   6.947  1.00  0.00     0.023 A 
ATOM     86  C   UNL     1      -5.746  13.254   5.926  1.00  0.00     0.012 A 
ATOM     87  C   UNL     1      -6.826  12.910   8.079  1.00  0.00     0.148 A 
ATOM     88  C   UNL     1      -5.941  14.630   6.042  1.00  0.00     0.002 A 
ATOM     89  C   UNL     1      -7.059  14.278   8.166  1.00  0.00     0.091 A 
ATOM     90  F   UNL     1      -7.208  12.066   9.049  1.00  0.00    -0.205 F 
ATOM     91  C   UNL     1      -6.608  15.140   7.154  1.00  0.00     0.022 A 
BRANCH  89  92
ATOM     92  S   UNL     1      -7.993  15.012   9.514  1.00  0.00     0.127 S 
ATOM     93  O   UNL     1      -6.940  15.680  10.276  1.00  0.00    -0.237 OA
ATOM     94  O   UNL     1      -8.902  15.915   8.807  1.00  0.00    -0.237 OA
ATOM     95  O   UNL     1      -8.652  13.905  10.194  1.00  0.00    -0.744 OA
ENDBRANCH  89  92
ENDBRANCH  62  85
ENDBRANCH  36  37
ENDBRANCH  28  31
ENDBRANCH  26  27
ENDBRANCH  25  26
ENDBRANCH   1  25
TORSDOF 19
