REMARK SMILES CCc1cccc(CC)c1N1/C(=[NH+]/C(=O)CCC(=O)NCCCNC(=O)c2ccc(-c3c4nc(c(-c5cccc(S(=O)(=O)[O-])c5F)c5ccc([nH]5)c(-c5cccc(S(=O)(=O)[O-])c5F)c5nc(c(-c6cccc(S(=O)(=O)[O-])c6F)c6ccc3[nH]6)C=C5)C=C4)cc2)S[C@@H]2CS(=O)(=O)C[C@H]21
REMARK SMILES IDX 21 1 20 2 18 3 19 4 17 6 16 7 14 8 11 9 12 10 97 11 13 12
REMARK SMILES IDX 90 13 91 14 96 15 92 17 93 18 15 19 94 20 95 21 10 22 3 23
REMARK SMILES IDX 4 24 5 25 7 26 6 27 2 28 1 29 8 30 9 31 22 32 23 33 24 34
REMARK SMILES IDX 25 35 26 37 27 38 28 39 89 40 29 41 88 42 30 43 31 44 32 45
REMARK SMILES IDX 82 46 33 47 87 48 81 49 83 50 34 51 86 52 80 53 79 54 35 56
REMARK SMILES IDX 67 57 47 58 66 59 48 60 51 61 65 62 84 63 49 64 50 65 64 67
REMARK SMILES IDX 85 68 52 69 36 70 37 71 45 72 38 73 40 74 46 75 39 76 41 77
REMARK SMILES IDX 42 78 43 79 44 80 68 81 69 82 77 83 70 84 72 85 78 86 71 87
REMARK SMILES IDX 73 88 74 89 75 90 76 91 53 92 54 93 62 94 55 95 57 96 63 97
REMARK SMILES IDX 56 98 58 99 59 100 60 101 61 102
REMARK H PARENT 20 5 13 16 24 36 83 55 51 66
REMARK Flexibility Score: inf
ROOT
ATOM      1  C   UNL     1       1.244   2.753  -1.562  1.00  0.00     0.117 C 
ENDROOT
BRANCH   1   2
ATOM      2  N   UNL     1       0.809   1.921  -0.430  1.00  0.00    -0.356 N 
ATOM      3  C   UNL     1       1.114   1.864   0.904  1.00  0.00     0.220 C 
ATOM      4  O   UNL     1       0.306   1.288   1.642  1.00  0.00    -0.275 OA
ATOM      5  H   UNL     1       0.142   1.247  -0.694  1.00  0.00     0.163 HD
BRANCH   3   6
ATOM      6  C   UNL     1       2.377   2.421   1.527  1.00  0.00     0.112 C 
BRANCH   6   7
ATOM      7  C   UNL     1       3.379   1.296   1.799  1.00  0.00     0.138 C 
BRANCH   7   8
ATOM      8  C   UNL     1       4.096   1.125   0.508  1.00  0.00     0.308 C 
ATOM      9  N   UNL     1       3.883  -0.962  -2.366  1.00  0.00    -0.216 N 
ATOM     10  C   UNL     1       4.366  -0.322  -1.227  1.00  0.00     0.319 C 
ATOM     11  C   UNL     1       4.454  -0.147  -3.503  1.00  0.00     0.212 C 
ATOM     12  N   UNL     1       3.648   0.061  -0.229  1.00  0.00    -0.204 N 
ATOM     13  S   UNL     1       6.066   0.209  -1.484  1.00  0.00    -0.029 SA
ATOM     14  C   UNL     1       5.931   0.181  -3.254  1.00  0.00     0.120 C 
ATOM     15  C   UNL     1       4.491  -0.338  -4.966  1.00  0.00     0.188 C 
ATOM     16  H   UNL     1       2.806  -0.396  -0.003  1.00  0.00     0.316 HD
ATOM     17  C   UNL     1       6.201   1.460  -4.061  1.00  0.00     0.156 C 
ATOM     18  S   UNL     1       5.341   1.120  -5.596  1.00  0.00     0.155 S 
ATOM     19  O   UNL     1       4.766   2.072   0.090  1.00  0.00    -0.247 OA
ATOM     20  O   UNL     1       6.278   0.727  -6.637  1.00  0.00    -0.229 OA
ATOM     21  O   UNL     1       4.360   2.149  -5.842  1.00  0.00    -0.229 OA
BRANCH   9  22
ATOM     22  C   UNL     1       3.080  -2.132  -2.300  1.00  0.00     0.134 A 
ATOM     23  C   UNL     1       1.676  -2.261  -1.929  1.00  0.00    -0.001 A 
ATOM     24  C   UNL     1       1.008  -3.533  -1.975  1.00  0.00     0.008 A 
ATOM     25  C   UNL     1       1.674  -4.713  -2.184  1.00  0.00     0.001 A 
ATOM     26  C   UNL     1       3.731  -3.396  -2.464  1.00  0.00    -0.001 A 
ATOM     27  C   UNL     1       3.031  -4.641  -2.385  1.00  0.00     0.008 A 
BRANCH  23  28
ATOM     28  C   UNL     1       0.662  -1.254  -1.391  1.00  0.00     0.036 C 
ATOM     29  C   UNL     1       0.305  -1.430   0.080  1.00  0.00     0.009 C 
ENDBRANCH  23  28
BRANCH  26  30
ATOM     30  C   UNL     1       5.223  -3.558  -2.668  1.00  0.00     0.036 C 
ATOM     31  C   UNL     1       5.904  -4.121  -1.432  1.00  0.00     0.009 C 
ENDBRANCH  26  30
ENDBRANCH   9  22
ENDBRANCH   7   8
ENDBRANCH   6   7
ENDBRANCH   3   6
ENDBRANCH   1   2
BRANCH   1  32
ATOM     32  C   UNL     1       1.865   2.085  -2.854  1.00  0.00     0.042 C 
BRANCH  32  33
ATOM     33  C   UNL     1       1.162   0.894  -3.645  1.00  0.00     0.118 C 
BRANCH  33  34
ATOM     34  N   UNL     1       1.543   0.450  -5.038  1.00  0.00    -0.352 N 
ATOM     35  C   UNL     1       1.182  -0.865  -5.538  1.00  0.00     0.251 C 
ATOM     36  H   UNL     1       2.046   1.065  -5.619  1.00  0.00     0.163 HD
ATOM     37  O   UNL     1       0.064  -1.320  -5.300  1.00  0.00    -0.269 OA
BRANCH  35  38
ATOM     38  C   UNL     1       2.258  -1.823  -6.203  1.00  0.00     0.039 A 
ATOM     39  C   UNL     1       3.112  -1.528  -7.287  1.00  0.00     0.014 A 
ATOM     40  C   UNL     1       2.579  -3.017  -5.543  1.00  0.00     0.014 A 
ATOM     41  C   UNL     1       4.360  -2.257  -7.520  1.00  0.00     0.010 A 
ATOM     42  C   UNL     1       3.810  -3.733  -5.777  1.00  0.00     0.010 A 
ATOM     43  C   UNL     1       4.795  -3.322  -6.700  1.00  0.00    -0.014 A 
BRANCH  43  44
ATOM     44  C   UNL     1       6.197  -4.016  -6.750  1.00  0.00     0.031 A 
ATOM     45  C   UNL     1       6.289  -5.494  -7.105  1.00  0.00     0.074 A 
ATOM     46  C   UNL     1       7.400  -3.479  -6.372  1.00  0.00     0.049 A 
ATOM     47  N   UNL     1       7.340  -6.283  -7.152  1.00  0.00    -0.248 NA
ATOM     48  C   UNL     1       5.027  -6.168  -7.424  1.00  0.00     0.031 C 
ATOM     49  C   UNL     1       7.625  -2.118  -5.925  1.00  0.00     0.029 A 
ATOM     50  N   UNL     1       8.685  -4.025  -6.267  1.00  0.00    -0.354 N 
ATOM     51  C   UNL     1       6.865  -7.548  -7.477  1.00  0.00     0.074 A 
ATOM     52  C   UNL     1       5.421  -7.425  -7.559  1.00  0.00     0.031 C 
ATOM     53  C   UNL     1       8.907  -1.929  -5.562  1.00  0.00     0.029 A 
ATOM     54  C   UNL     1       9.657  -3.163  -5.766  1.00  0.00     0.049 A 
ATOM     55  H   UNL     1       8.888  -4.953  -6.528  1.00  0.00     0.167 HD
ATOM     56  C   UNL     1       7.531  -8.704  -7.732  1.00  0.00     0.034 A 
ATOM     57  C   UNL     1      10.987  -3.295  -5.510  1.00  0.00     0.034 A 
ATOM     58  C   UNL     1       8.958  -8.898  -7.705  1.00  0.00     0.049 A 
ATOM     59  C   UNL     1      11.716  -4.594  -5.804  1.00  0.00     0.074 A 
ATOM     60  C   UNL     1       9.673 -10.031  -8.066  1.00  0.00     0.029 A 
ATOM     61  N   UNL     1       9.889  -7.972  -7.274  1.00  0.00    -0.354 N 
ATOM     62  N   UNL     1      11.251  -5.698  -6.329  1.00  0.00    -0.248 NA
ATOM     63  C   UNL     1      13.166  -4.651  -5.512  1.00  0.00     0.031 C 
ATOM     64  C   UNL     1      11.030  -9.803  -7.819  1.00  0.00     0.029 A 
ATOM     65  C   UNL     1      11.166  -8.513  -7.342  1.00  0.00     0.049 A 
ATOM     66  H   UNL     1       9.678  -7.061  -6.964  1.00  0.00     0.167 HD
ATOM     67  C   UNL     1      12.347  -6.550  -6.473  1.00  0.00     0.074 A 
ATOM     68  C   UNL     1      13.508  -5.837  -5.999  1.00  0.00     0.031 C 
ATOM     69  C   UNL     1      12.365  -7.819  -6.948  1.00  0.00     0.034 A 
BRANCH  56  70
ATOM     70  C   UNL     1       6.689  -9.887  -8.139  1.00  0.00     0.023 A 
ATOM     71  C   UNL     1       6.052  -9.876  -9.398  1.00  0.00     0.012 A 
ATOM     72  C   UNL     1       6.552 -11.008  -7.301  1.00  0.00     0.148 A 
ATOM     73  C   UNL     1       5.233 -10.932  -9.786  1.00  0.00     0.002 A 
ATOM     74  C   UNL     1       5.778 -12.083  -7.720  1.00  0.00     0.091 A 
ATOM     75  F   UNL     1       7.166 -10.998  -6.109  1.00  0.00    -0.205 F 
ATOM     76  C   UNL     1       5.102 -12.037  -8.950  1.00  0.00     0.022 A 
BRANCH  74  77
ATOM     77  S   UNL     1       5.613 -13.592  -6.761  1.00  0.00     0.127 S 
ATOM     78  O   UNL     1       4.214 -13.519  -6.340  1.00  0.00    -0.237 OA
ATOM     79  O   UNL     1       5.896 -14.621  -7.761  1.00  0.00    -0.237 OA
ATOM     80  O   UNL     1       6.593 -13.497  -5.688  1.00  0.00    -0.744 OA
ENDBRANCH  74  77
ENDBRANCH  56  70
BRANCH  57  81
ATOM     81  C   UNL     1      11.815  -2.146  -4.985  1.00  0.00     0.023 A 
ATOM     82  C   UNL     1      12.815  -1.579  -5.808  1.00  0.00     0.012 A 
ATOM     83  C   UNL     1      11.704  -1.688  -3.656  1.00  0.00     0.148 A 
ATOM     84  C   UNL     1      13.713  -0.629  -5.310  1.00  0.00     0.002 A 
ATOM     85  C   UNL     1      12.570  -0.701  -3.180  1.00  0.00     0.091 A 
ATOM     86  F   UNL     1      10.767  -2.241  -2.874  1.00  0.00    -0.205 F 
ATOM     87  C   UNL     1      13.589  -0.188  -3.998  1.00  0.00     0.022 A 
BRANCH  85  88
ATOM     88  S   UNL     1      12.438   0.009  -1.534  1.00  0.00     0.127 S 
ATOM     89  O   UNL     1      13.712  -0.377  -0.933  1.00  0.00    -0.237 OA
ATOM     90  O   UNL     1      12.307   1.435  -1.838  1.00  0.00    -0.237 OA
ATOM     91  O   UNL     1      11.254  -0.597  -0.940  1.00  0.00    -0.744 OA
ENDBRANCH  85  88
ENDBRANCH  57  81
BRANCH  69  92
ATOM     92  C   UNL     1      13.683  -8.555  -7.053  1.00  0.00     0.023 A 
ATOM     93  C   UNL     1      14.348  -8.991  -5.890  1.00  0.00     0.012 A 
ATOM     94  C   UNL     1      14.207  -8.915  -8.313  1.00  0.00     0.148 A 
ATOM     95  C   UNL     1      15.515  -9.756  -5.978  1.00  0.00     0.002 A 
ATOM     96  C   UNL     1      15.342  -9.717  -8.394  1.00  0.00     0.091 A 
ATOM     97  F   UNL     1      13.577  -8.478  -9.413  1.00  0.00    -0.205 F 
ATOM     98  C   UNL     1      16.003 -10.130  -7.227  1.00  0.00     0.022 A 
BRANCH  96  99
ATOM     99  S   UNL     1      15.990 -10.333  -9.955  1.00  0.00     0.127 S 
ATOM    100  O   UNL     1      17.265  -9.624 -10.050  1.00  0.00    -0.237 OA
ATOM    101  O   UNL     1      16.108 -11.768  -9.696  1.00  0.00    -0.237 OA
ATOM    102  O   UNL     1      15.006  -9.978 -10.969  1.00  0.00    -0.744 OA
ENDBRANCH  96  99
ENDBRANCH  69  92
ENDBRANCH  43  44
ENDBRANCH  35  38
ENDBRANCH  33  34
ENDBRANCH  32  33
ENDBRANCH   1  32
TORSDOF 18
