REMARK SMILES O=C(NCCCNC(=O)c1sc2ccccc2c1CSC[C@H](O)CO)c1ccc(-c2c3nc(c(-c4cccc(S(=O)(=O)[O-])c4F)c4ccc([nH]4)c(-c4cccc(S(=O)(=O)[O-])c4F)c4nc(c(-c5cccc(S(=O)(=O)[O-])c5F)c5ccc2[nH]5)C=C4)C=C3)cc1
REMARK SMILES IDX 7 1 8 2 9 3 6 5 5 6 4 7 3 8 1 9 2 10 26 12 27 13 88 14 28 15
REMARK SMILES IDX 87 16 29 17 30 18 31 19 81 20 32 21 86 22 80 23 82 24 33 25
REMARK SMILES IDX 85 26 79 27 78 28 34 30 66 31 46 32 65 33 47 34 50 35 64 36
REMARK SMILES IDX 83 37 48 38 49 39 63 41 84 42 51 43 35 44 36 45 44 46 37 47
REMARK SMILES IDX 39 48 45 49 38 50 40 51 41 52 42 53 43 54 67 55 68 56 76 57
REMARK SMILES IDX 69 58 71 59 77 60 70 61 72 62 73 63 74 64 75 65 52 66 53 67
REMARK SMILES IDX 61 68 54 69 56 70 62 71 55 72 57 73 58 74 59 75 60 76 10 77
REMARK SMILES IDX 11 78 18 79 12 80 17 81 13 82 16 83 14 84 15 85 19 86 20 87
REMARK SMILES IDX 21 88 22 89 24 90 25 91 23 93
REMARK H PARENT 7 4 3 11 82 29 50 40 25 92 23 94
REMARK Flexibility Score: inf
ROOT
ATOM      1  N   UNL     1      14.247  -0.719  -8.132  1.00  0.00    -0.351 N 
ATOM      2  C   UNL     1      13.007  -0.254  -8.497  1.00  0.00     0.261 C 
ATOM      3  O   UNL     1      12.029  -0.911  -8.141  1.00  0.00    -0.268 OA
ATOM      4  H   UNL     1      14.238  -1.558  -7.616  1.00  0.00     0.163 HD
ENDROOT
BRANCH   1   5
ATOM      5  C   UNL     1      15.570  -0.173  -8.383  1.00  0.00     0.118 C 
BRANCH   5   6
ATOM      6  C   UNL     1      16.224   0.422  -7.139  1.00  0.00     0.042 C 
BRANCH   6   7
ATOM      7  C   UNL     1      16.406  -0.541  -5.965  1.00  0.00     0.118 C 
BRANCH   7   8
ATOM      8  N   UNL     1      17.142  -1.743  -6.320  1.00  0.00    -0.352 N 
ATOM      9  O   UNL     1      18.792  -3.243  -6.420  1.00  0.00    -0.269 OA
ATOM     10  C   UNL     1      18.305  -2.281  -5.829  1.00  0.00     0.251 C 
ATOM     11  H   UNL     1      16.731  -2.267  -7.045  1.00  0.00     0.163 HD
BRANCH  10  12
ATOM     12  C   UNL     1      18.988  -1.735  -4.631  1.00  0.00     0.039 A 
ATOM     13  C   UNL     1      18.286  -1.306  -3.503  1.00  0.00     0.014 A 
ATOM     14  C   UNL     1      20.390  -1.744  -4.606  1.00  0.00     0.014 A 
ATOM     15  C   UNL     1      18.977  -0.794  -2.402  1.00  0.00     0.010 A 
ATOM     16  C   UNL     1      21.084  -1.278  -3.483  1.00  0.00     0.010 A 
ATOM     17  C   UNL     1      20.381  -0.773  -2.382  1.00  0.00    -0.014 A 
BRANCH  17  18
ATOM     18  C   UNL     1      21.084  -0.258  -1.181  1.00  0.00     0.031 A 
ATOM     19  C   UNL     1      21.751   1.088  -1.196  1.00  0.00     0.074 A 
ATOM     20  C   UNL     1      21.068  -0.985  -0.048  1.00  0.00     0.049 A 
ATOM     21  N   UNL     1      22.241   1.772  -0.194  1.00  0.00    -0.248 NA
ATOM     22  C   UNL     1      21.878   1.757  -2.500  1.00  0.00     0.031 C 
ATOM     23  C   UNL     1      20.486  -2.321   0.086  1.00  0.00     0.029 A 
ATOM     24  N   UNL     1      21.520  -0.687   1.212  1.00  0.00    -0.354 N 
ATOM     25  C   UNL     1      22.743   2.944  -0.742  1.00  0.00     0.074 A 
ATOM     26  C   UNL     1      22.506   2.878  -2.169  1.00  0.00     0.031 C 
ATOM     27  C   UNL     1      20.558  -2.701   1.372  1.00  0.00     0.029 A 
ATOM     28  C   UNL     1      21.194  -1.640   2.148  1.00  0.00     0.049 A 
ATOM     29  H   UNL     1      22.029   0.128   1.426  1.00  0.00     0.167 HD
ATOM     30  C   UNL     1      23.318   3.996  -0.113  1.00  0.00     0.034 A 
ATOM     31  C   UNL     1      21.345  -1.638   3.486  1.00  0.00     0.034 A 
ATOM     32  C   UNL     1      23.511   4.092   1.309  1.00  0.00     0.049 A 
ATOM     33  C   UNL     1      21.960  -0.448   4.163  1.00  0.00     0.074 A 
ATOM     34  C   UNL     1      24.050   5.138   2.039  1.00  0.00     0.029 A 
ATOM     35  N   UNL     1      23.169   3.105   2.219  1.00  0.00    -0.354 N 
ATOM     36  N   UNL     1      22.317   0.701   3.643  1.00  0.00    -0.248 NA
ATOM     37  C   UNL     1      22.174  -0.549   5.614  1.00  0.00     0.031 C 
ATOM     38  C   UNL     1      24.007   4.793   3.396  1.00  0.00     0.029 A 
ATOM     39  C   UNL     1      23.474   3.519   3.504  1.00  0.00     0.049 A 
ATOM     40  H   UNL     1      22.768   2.236   1.986  1.00  0.00     0.167 HD
ATOM     41  C   UNL     1      22.774   1.469   4.706  1.00  0.00     0.074 A 
ATOM     42  C   UNL     1      22.643   0.659   5.900  1.00  0.00     0.031 C 
ATOM     43  C   UNL     1      23.277   2.727   4.689  1.00  0.00     0.034 A 
BRANCH  30  44
ATOM     44  C   UNL     1      23.693   5.177  -0.960  1.00  0.00     0.023 A 
ATOM     45  C   UNL     1      22.794   6.259  -1.036  1.00  0.00     0.012 A 
ATOM     46  C   UNL     1      24.907   5.239  -1.662  1.00  0.00     0.148 A 
ATOM     47  C   UNL     1      23.099   7.385  -1.800  1.00  0.00     0.002 A 
ATOM     48  C   UNL     1      25.201   6.362  -2.430  1.00  0.00     0.091 A 
ATOM     49  F   UNL     1      25.752   4.199  -1.596  1.00  0.00    -0.205 F 
ATOM     50  C   UNL     1      24.303   7.438  -2.500  1.00  0.00     0.022 A 
BRANCH  48  51
ATOM     51  S   UNL     1      26.729   6.415  -3.369  1.00  0.00     0.127 S 
ATOM     52  O   UNL     1      26.590   5.275  -4.272  1.00  0.00    -0.237 OA
ATOM     53  O   UNL     1      26.671   7.716  -4.039  1.00  0.00    -0.237 OA
ATOM     54  O   UNL     1      27.758   6.315  -2.340  1.00  0.00    -0.744 OA
ENDBRANCH  48  51
ENDBRANCH  30  44
BRANCH  31  55
ATOM     55  C   UNL     1      20.770  -2.750   4.286  1.00  0.00     0.023 A 
ATOM     56  C   UNL     1      19.551  -2.537   4.958  1.00  0.00     0.012 A 
ATOM     57  C   UNL     1      21.375  -4.015   4.345  1.00  0.00     0.148 A 
ATOM     58  C   UNL     1      18.949  -3.568   5.681  1.00  0.00     0.002 A 
ATOM     59  C   UNL     1      20.756  -5.045   5.047  1.00  0.00     0.091 A 
ATOM     60  F   UNL     1      22.533  -4.210   3.697  1.00  0.00    -0.205 F 
ATOM     61  C   UNL     1      19.547  -4.825   5.721  1.00  0.00     0.022 A 
BRANCH  59  62
ATOM     62  S   UNL     1      21.489  -6.682   5.034  1.00  0.00     0.127 S 
ATOM     63  O   UNL     1      22.780  -6.464   5.678  1.00  0.00    -0.237 OA
ATOM     64  O   UNL     1      20.547  -7.480   5.821  1.00  0.00    -0.237 OA
ATOM     65  O   UNL     1      21.512  -7.012   3.613  1.00  0.00    -0.744 OA
ENDBRANCH  59  62
ENDBRANCH  31  55
BRANCH  43  66
ATOM     66  C   UNL     1      23.723   3.304   5.999  1.00  0.00     0.023 A 
ATOM     67  C   UNL     1      25.049   3.089   6.418  1.00  0.00     0.012 A 
ATOM     68  C   UNL     1      22.866   4.089   6.788  1.00  0.00     0.148 A 
ATOM     69  C   UNL     1      25.513   3.642   7.612  1.00  0.00     0.002 A 
ATOM     70  C   UNL     1      23.338   4.643   7.974  1.00  0.00     0.091 A 
ATOM     71  F   UNL     1      21.604   4.290   6.379  1.00  0.00    -0.205 F 
ATOM     72  C   UNL     1      24.659   4.421   8.391  1.00  0.00     0.022 A 
BRANCH  70  73
ATOM     73  S   UNL     1      22.243   5.655   8.974  1.00  0.00     0.127 S 
ATOM     74  O   UNL     1      21.166   4.732   9.316  1.00  0.00    -0.237 OA
ATOM     75  O   UNL     1      23.082   6.044  10.109  1.00  0.00    -0.237 OA
ATOM     76  O   UNL     1      21.899   6.756   8.080  1.00  0.00    -0.744 OA
ENDBRANCH  70  73
ENDBRANCH  43  66
ENDBRANCH  17  18
ENDBRANCH  10  12
ENDBRANCH   7   8
ENDBRANCH   6   7
ENDBRANCH   5   6
ENDBRANCH   1   5
BRANCH   2  77
ATOM     77  C   UNL     1      12.896   0.977  -9.254  1.00  0.00     0.097 A 
ATOM     78  S   UNL     1      13.389   0.983 -10.888  1.00  0.00    -0.130 S 
ATOM     79  C   UNL     1      12.287   2.171  -8.886  1.00  0.00    -0.007 A 
ATOM     80  C   UNL     1      13.022   2.646 -11.080  1.00  0.00     0.035 A 
ATOM     81  C   UNL     1      12.436   3.177  -9.928  1.00  0.00    -0.003 A 
ATOM     82  C   UNL     1      13.246   3.428 -12.231  1.00  0.00     0.019 A 
ATOM     83  C   UNL     1      12.077   4.551  -9.956  1.00  0.00     0.010 A 
ATOM     84  C   UNL     1      12.879   4.774 -12.221  1.00  0.00     0.001 A 
ATOM     85  C   UNL     1      12.300   5.333 -11.094  1.00  0.00     0.001 A 
BRANCH  79  86
ATOM     86  C   UNL     1      11.616   2.429  -7.565  1.00  0.00     0.107 C 
BRANCH  86  87
ATOM     87  S   UNL     1      10.011   1.592  -7.309  1.00  0.00    -0.154 SA
BRANCH  87  88
ATOM     88  C   UNL     1       9.259   1.629  -8.980  1.00  0.00     0.104 C 
BRANCH  88  89
ATOM     89  C   UNL     1       8.695   3.008  -9.321  1.00  0.00     0.149 C 
BRANCH  89  90
ATOM     90  C   UNL     1       8.182   3.043 -10.764  1.00  0.00     0.188 C 
BRANCH  90  91
ATOM     91  O   UNL     1       7.603   4.322 -11.030  1.00  0.00    -0.394 OA
ATOM     92  H   UNL     1       6.866   4.476 -10.419  1.00  0.00     0.210 HD
ENDBRANCH  90  91
ENDBRANCH  89  90
BRANCH  89  93
ATOM     93  O   UNL     1       7.587   3.328  -8.460  1.00  0.00    -0.390 OA
ATOM     94  H   UNL     1       6.879   2.678  -8.590  1.00  0.00     0.211 HD
ENDBRANCH  89  93
ENDBRANCH  88  89
ENDBRANCH  87  88
ENDBRANCH  86  87
ENDBRANCH  79  86
ENDBRANCH   2  77
TORSDOF 20
