REMARK SMILES CCOc1cccc(-c2ccc([C@@H](C)C(=O)NCCCNC(=O)c3ccc(-c4c5nc(c(-c6cccc(S(=O)(=O)[O-])c6F)c6ccc([nH]6)c(-c6cccc(S(=O)(=O)[O-])c6F)c6nc(c(-c7cccc(S(=O)(=O)[O-])c7F)c7ccc4[nH]7)C=C6)C=C5)cc3)cc2F)c1
REMARK SMILES IDX 18 1 17 2 15 3 16 4 13 6 14 7 12 8 9 9 10 10 88 11 11 12
REMARK SMILES IDX 87 13 89 14 8 15 4 16 5 17 90 18 6 19 7 20 3 21 2 22 1 23
REMARK SMILES IDX 19 24 20 25 21 26 22 27 23 29 24 30 25 31 86 32 26 33 85 34
REMARK SMILES IDX 27 35 28 36 29 37 79 38 30 39 84 40 78 41 80 42 31 43 83 44
REMARK SMILES IDX 77 45 76 46 32 48 64 49 44 50 63 51 45 52 48 53 62 54 81 55
REMARK SMILES IDX 46 56 47 57 61 59 82 60 49 61 33 62 34 63 42 64 35 65 37 66
REMARK SMILES IDX 43 67 36 68 38 69 39 70 40 71 41 72 65 73 66 74 74 75 67 76
REMARK SMILES IDX 69 77 75 78 68 79 70 80 71 81 72 82 73 83 50 84 51 85 59 86
REMARK SMILES IDX 52 87 54 88 60 89 53 90 55 91 56 92 57 93 58 94
REMARK H PARENT 17 5 21 28 80 47 48 58
REMARK Flexibility Score: inf
ROOT
ATOM      1  C   UNL     1       9.370  -2.231   0.190  1.00  0.00     0.117 C 
ENDROOT
BRANCH   1   2
ATOM      2  N   UNL     1       8.579  -3.256  -0.461  1.00  0.00    -0.356 N 
ATOM      3  C   UNL     1       7.954  -3.292  -1.669  1.00  0.00     0.227 C 
ATOM      4  O   UNL     1       7.316  -4.322  -1.923  1.00  0.00    -0.274 OA
ATOM      5  H   UNL     1       8.475  -4.079   0.069  1.00  0.00     0.163 HD
BRANCH   3   6
ATOM      6  C   UNL     1       8.017  -2.160  -2.707  1.00  0.00     0.105 C 
ATOM      7  C   UNL     1       9.424  -1.826  -3.196  1.00  0.00     0.023 C 
BRANCH   6   8
ATOM      8  C   UNL     1       7.138  -0.968  -2.367  1.00  0.00    -0.033 A 
ATOM      9  C   UNL     1       5.326   1.120  -1.587  1.00  0.00     0.018 A 
ATOM     10  C   UNL     1       6.668   1.102  -1.167  1.00  0.00     0.012 A 
ATOM     11  C   UNL     1       4.948   0.095  -2.471  1.00  0.00     0.131 A 
ATOM     12  C   UNL     1       7.562   0.102  -1.577  1.00  0.00     0.005 A 
ATOM     13  C   UNL     1       5.817  -0.939  -2.831  1.00  0.00     0.044 A 
ATOM     14  F   UNL     1       3.717   0.059  -3.003  1.00  0.00    -0.206 F 
BRANCH   9  15
ATOM     15  C   UNL     1       4.367   2.122  -1.052  1.00  0.00    -0.012 A 
ATOM     16  C   UNL     1       2.106   2.695  -0.302  1.00  0.00     0.119 A 
ATOM     17  C   UNL     1       2.533   3.939   0.139  1.00  0.00     0.046 A 
ATOM     18  C   UNL     1       3.004   1.810  -0.902  1.00  0.00     0.055 A 
ATOM     19  C   UNL     1       3.871   4.289  -0.011  1.00  0.00     0.004 A 
ATOM     20  C   UNL     1       4.773   3.395  -0.606  1.00  0.00     0.009 A 
BRANCH  16  21
ATOM     21  O   UNL     1       0.779   2.373  -0.227  1.00  0.00    -0.494 OA
BRANCH  21  22
ATOM     22  C   UNL     1       0.500   1.478   0.858  1.00  0.00     0.226 C 
ATOM     23  C   UNL     1       0.515   0.029   0.390  1.00  0.00     0.049 C 
ENDBRANCH  21  22
ENDBRANCH  16  21
ENDBRANCH   9  15
ENDBRANCH   6   8
ENDBRANCH   3   6
ENDBRANCH   1   2
BRANCH   1  24
ATOM     24  C   UNL     1       8.572  -1.445   1.227  1.00  0.00     0.042 C 
BRANCH  24  25
ATOM     25  C   UNL     1       8.456  -2.137   2.580  1.00  0.00     0.118 C 
BRANCH  25  26
ATOM     26  N   UNL     1       9.738  -2.223   3.266  1.00  0.00    -0.352 N 
ATOM     27  C   UNL     1      10.156  -1.694   4.462  1.00  0.00     0.251 C 
ATOM     28  H   UNL     1      10.421  -2.750   2.792  1.00  0.00     0.163 HD
ATOM     29  O   UNL     1      11.356  -1.720   4.728  1.00  0.00    -0.269 OA
BRANCH  27  30
ATOM     30  C   UNL     1       9.202  -1.096   5.427  1.00  0.00     0.039 A 
ATOM     31  C   UNL     1       9.627  -0.007   6.197  1.00  0.00     0.014 A 
ATOM     32  C   UNL     1       7.928  -1.630   5.636  1.00  0.00     0.014 A 
ATOM     33  C   UNL     1       8.765   0.565   7.138  1.00  0.00     0.010 A 
ATOM     34  C   UNL     1       7.041  -1.006   6.513  1.00  0.00     0.010 A 
ATOM     35  C   UNL     1       7.454   0.086   7.287  1.00  0.00    -0.014 A 
BRANCH  35  36
ATOM     36  C   UNL     1       6.511   0.720   8.247  1.00  0.00     0.031 A 
ATOM     37  C   UNL     1       5.955  -0.064   9.407  1.00  0.00     0.074 A 
ATOM     38  C   UNL     1       6.101   1.985   8.034  1.00  0.00     0.049 A 
ATOM     39  N   UNL     1       5.111   0.319  10.331  1.00  0.00    -0.248 NA
ATOM     40  C   UNL     1       6.379  -1.468   9.533  1.00  0.00     0.031 C 
ATOM     41  C   UNL     1       6.492   2.819   6.895  1.00  0.00     0.029 A 
ATOM     42  N   UNL     1       5.246   2.784   8.751  1.00  0.00    -0.354 N 
ATOM     43  C   UNL     1       4.880  -0.798  11.125  1.00  0.00     0.074 A 
ATOM     44  C   UNL     1       5.641  -1.886  10.551  1.00  0.00     0.031 C 
ATOM     45  C   UNL     1       5.885   4.012   6.993  1.00  0.00     0.029 A 
ATOM     46  C   UNL     1       5.044   4.022   8.186  1.00  0.00     0.049 A 
ATOM     47  H   UNL     1       4.818   2.499   9.590  1.00  0.00     0.167 HD
ATOM     48  C   UNL     1       4.130  -0.905  12.249  1.00  0.00     0.034 A 
ATOM     49  C   UNL     1       4.270   5.051   8.583  1.00  0.00     0.034 A 
ATOM     50  C   UNL     1       3.409   0.190  12.843  1.00  0.00     0.049 A 
ATOM     51  C   UNL     1       3.500   4.931   9.870  1.00  0.00     0.074 A 
ATOM     52  C   UNL     1       2.691   0.208  14.026  1.00  0.00     0.029 A 
ATOM     53  N   UNL     1       3.311   1.461  12.297  1.00  0.00    -0.354 N 
ATOM     54  N   UNL     1       3.429   3.916  10.697  1.00  0.00    -0.248 NA
ATOM     55  C   UNL     1       2.740   6.112  10.303  1.00  0.00     0.031 C 
ATOM     56  C   UNL     1       2.145   1.486  14.187  1.00  0.00     0.029 A 
ATOM     57  C   UNL     1       2.542   2.271  13.116  1.00  0.00     0.049 A 
ATOM     58  H   UNL     1       3.727   1.746  11.452  1.00  0.00     0.167 HD
ATOM     59  C   UNL     1       2.641   4.343  11.759  1.00  0.00     0.074 A 
ATOM     60  C   UNL     1       2.285   5.721  11.485  1.00  0.00     0.031 C 
ATOM     61  C   UNL     1       2.232   3.653  12.853  1.00  0.00     0.034 A 
BRANCH  48  62
ATOM     62  C   UNL     1       4.106  -2.241  12.948  1.00  0.00     0.023 A 
ATOM     63  C   UNL     1       5.260  -2.690  13.623  1.00  0.00     0.012 A 
ATOM     64  C   UNL     1       2.937  -3.026  12.985  1.00  0.00     0.148 A 
ATOM     65  C   UNL     1       5.265  -3.914  14.290  1.00  0.00     0.002 A 
ATOM     66  C   UNL     1       2.936  -4.226  13.690  1.00  0.00     0.091 A 
ATOM     67  F   UNL     1       1.855  -2.596  12.322  1.00  0.00    -0.205 F 
ATOM     68  C   UNL     1       4.101  -4.676  14.331  1.00  0.00     0.022 A 
BRANCH  66  69
ATOM     69  S   UNL     1       1.467  -5.244  13.869  1.00  0.00     0.127 S 
ATOM     70  O   UNL     1       1.788  -6.380  13.007  1.00  0.00    -0.237 OA
ATOM     71  O   UNL     1       1.473  -5.545  15.301  1.00  0.00    -0.237 OA
ATOM     72  O   UNL     1       0.351  -4.419  13.428  1.00  0.00    -0.744 OA
ENDBRANCH  66  69
ENDBRANCH  48  62
BRANCH  49  73
ATOM     73  C   UNL     1       4.251   6.311   7.787  1.00  0.00     0.023 A 
ATOM     74  C   UNL     1       4.868   7.467   8.306  1.00  0.00     0.012 A 
ATOM     75  C   UNL     1       3.672   6.360   6.504  1.00  0.00     0.148 A 
ATOM     76  C   UNL     1       4.880   8.655   7.576  1.00  0.00     0.002 A 
ATOM     77  C   UNL     1       3.740   7.530   5.757  1.00  0.00     0.091 A 
ATOM     78  F   UNL     1       3.082   5.253   6.031  1.00  0.00    -0.205 F 
ATOM     79  C   UNL     1       4.327   8.684   6.299  1.00  0.00     0.022 A 
BRANCH  77  80
ATOM     80  S   UNL     1       3.181   7.619   4.051  1.00  0.00     0.127 S 
ATOM     81  O   UNL     1       1.985   8.447   4.170  1.00  0.00    -0.237 OA
ATOM     82  O   UNL     1       4.318   8.265   3.394  1.00  0.00    -0.237 OA
ATOM     83  O   UNL     1       2.959   6.240   3.635  1.00  0.00    -0.744 OA
ENDBRANCH  77  80
ENDBRANCH  49  73
BRANCH  61  84
ATOM     84  C   UNL     1       1.367   4.381  13.849  1.00  0.00     0.023 A 
ATOM     85  C   UNL     1       0.030   4.686  13.521  1.00  0.00     0.012 A 
ATOM     86  C   UNL     1       1.858   4.713  15.127  1.00  0.00     0.148 A 
ATOM     87  C   UNL     1      -0.791   5.346  14.434  1.00  0.00     0.002 A 
ATOM     88  C   UNL     1       1.018   5.328  16.049  1.00  0.00     0.091 A 
ATOM     89  F   UNL     1       3.137   4.434  15.415  1.00  0.00    -0.205 F 
ATOM     90  C   UNL     1      -0.301   5.657  15.700  1.00  0.00     0.022 A 
BRANCH  88  91
ATOM     91  S   UNL     1       1.539   5.678  17.732  1.00  0.00     0.127 S 
ATOM     92  O   UNL     1       1.779   7.119  17.677  1.00  0.00    -0.237 OA
ATOM     93  O   UNL     1       0.364   5.286  18.512  1.00  0.00    -0.237 OA
ATOM     94  O   UNL     1       2.716   4.852  17.964  1.00  0.00    -0.744 OA
ENDBRANCH  88  91
ENDBRANCH  61  84
ENDBRANCH  35  36
ENDBRANCH  27  30
ENDBRANCH  25  26
ENDBRANCH  24  25
ENDBRANCH   1  24
TORSDOF 17
