REMARK SMILES O=C(NCCCNC(=O)[C@H]1C=C[C@H](N2C(=O)[C@H]3C[C@H]3C2=O)C1)c1ccc(-c2c3nc(c(-c4cccc(S(=O)(=O)[O-])c4F)c4ccc([nH]4)c(-c4cccc(S(=O)(=O)[O-])c4F)c4nc(c(-c5cccc(S(=O)(=O)[O-])c5F)c5ccc2[nH]5)C=C4)C=C3)cc1
REMARK SMILES IDX 4 1 3 2 1 3 2 4 23 6 24 7 85 8 25 9 84 10 26 11 27 12 28 13
REMARK SMILES IDX 78 14 29 15 83 16 77 17 79 18 30 19 82 20 76 21 75 22 31 24
REMARK SMILES IDX 63 25 43 26 62 27 44 28 47 29 61 30 80 31 45 32 46 33 60 35
REMARK SMILES IDX 81 36 48 37 32 38 33 39 41 40 34 41 36 42 42 43 35 44 37 45
REMARK SMILES IDX 38 46 39 47 40 48 64 49 65 50 73 51 66 52 68 53 74 54 67 55
REMARK SMILES IDX 69 56 70 57 71 58 72 59 49 60 50 61 58 62 51 63 53 64 59 65
REMARK SMILES IDX 52 66 54 67 55 68 56 69 57 70 5 71 6 72 7 73 8 74 9 76 10 77
REMARK SMILES IDX 11 78 22 79 12 80 13 81 14 82 15 83 20 84 16 85 17 86 19 87
REMARK SMILES IDX 21 88 18 89
REMARK H PARENT 3 5 79 23 47 34 7 75
REMARK Flexibility Score: inf
ROOT
ATOM      1  C   UNL     1       4.537   0.614  -1.302  1.00  0.00     0.118 C 
ENDROOT
BRANCH   1   2
ATOM      2  N   UNL     1       3.097   0.587  -1.072  1.00  0.00    -0.352 N 
ATOM      3  O   UNL     1       1.152   0.043  -0.084  1.00  0.00    -0.269 OA
ATOM      4  C   UNL     1       2.370   0.157   0.015  1.00  0.00     0.251 C 
ATOM      5  H   UNL     1       2.555   0.935  -1.817  1.00  0.00     0.163 HD
BRANCH   4   6
ATOM      6  C   UNL     1       3.055  -0.199   1.277  1.00  0.00     0.039 A 
ATOM      7  C   UNL     1       4.130   0.560   1.733  1.00  0.00     0.014 A 
ATOM      8  C   UNL     1       2.620  -1.299   2.022  1.00  0.00     0.014 A 
ATOM      9  C   UNL     1       4.904   0.098   2.786  1.00  0.00     0.010 A 
ATOM     10  C   UNL     1       3.317  -1.679   3.176  1.00  0.00     0.010 A 
ATOM     11  C   UNL     1       4.492  -1.008   3.545  1.00  0.00    -0.014 A 
BRANCH  11  12
ATOM     12  C   UNL     1       5.274  -1.367   4.758  1.00  0.00     0.031 A 
ATOM     13  C   UNL     1       5.916  -2.718   4.916  1.00  0.00     0.074 A 
ATOM     14  C   UNL     1       5.435  -0.425   5.710  1.00  0.00     0.049 A 
ATOM     15  N   UNL     1       6.663  -3.159   5.896  1.00  0.00    -0.248 NA
ATOM     16  C   UNL     1       5.687  -3.708   3.851  1.00  0.00     0.031 C 
ATOM     17  C   UNL     1       4.820   0.907   5.688  1.00  0.00     0.029 A 
ATOM     18  N   UNL     1       6.169  -0.425   6.868  1.00  0.00    -0.354 N 
ATOM     19  C   UNL     1       6.964  -4.481   5.589  1.00  0.00     0.074 A 
ATOM     20  C   UNL     1       6.306  -4.778   4.334  1.00  0.00     0.031 C 
ATOM     21  C   UNL     1       5.242   1.610   6.746  1.00  0.00     0.029 A 
ATOM     22  C   UNL     1       6.093   0.758   7.566  1.00  0.00     0.049 A 
ATOM     23  H   UNL     1       6.699  -1.198   7.171  1.00  0.00     0.167 HD
ATOM     24  C   UNL     1       7.732  -5.359   6.279  1.00  0.00     0.034 A 
ATOM     25  C   UNL     1       6.628   1.117   8.747  1.00  0.00     0.034 A 
ATOM     26  C   UNL     1       8.408  -5.044   7.511  1.00  0.00     0.049 A 
ATOM     27  C   UNL     1       7.492   0.131   9.473  1.00  0.00     0.074 A 
ATOM     28  C   UNL     1       9.234  -5.854   8.271  1.00  0.00     0.029 A 
ATOM     29  N   UNL     1       8.340  -3.822   8.165  1.00  0.00    -0.354 N 
ATOM     30  N   UNL     1       7.843  -1.079   9.112  1.00  0.00    -0.248 NA
ATOM     31  C   UNL     1       8.056   0.565  10.758  1.00  0.00     0.031 C 
ATOM     32  C   UNL     1       9.653  -5.127   9.391  1.00  0.00     0.029 A 
ATOM     33  C   UNL     1       9.107  -3.856   9.317  1.00  0.00     0.049 A 
ATOM     34  H   UNL     1       7.822  -3.045   7.855  1.00  0.00     0.167 HD
ATOM     35  C   UNL     1       8.682  -1.546  10.113  1.00  0.00     0.074 A 
ATOM     36  C   UNL     1       8.818  -0.471  11.077  1.00  0.00     0.031 C 
ATOM     37  C   UNL     1       9.269  -2.761  10.239  1.00  0.00     0.034 A 
BRANCH  24  38
ATOM     38  C   UNL     1       7.924  -6.737   5.698  1.00  0.00     0.023 A 
ATOM     39  C   UNL     1       8.757  -6.905   4.573  1.00  0.00     0.012 A 
ATOM     40  C   UNL     1       7.349  -7.872   6.304  1.00  0.00     0.148 A 
ATOM     41  C   UNL     1       8.994  -8.174   4.045  1.00  0.00     0.002 A 
ATOM     42  C   UNL     1       7.622  -9.138   5.797  1.00  0.00     0.091 A 
ATOM     43  F   UNL     1       6.546  -7.694   7.363  1.00  0.00    -0.205 F 
ATOM     44  C   UNL     1       8.436  -9.290   4.662  1.00  0.00     0.022 A 
BRANCH  42  45
ATOM     45  S   UNL     1       7.014 -10.646   6.563  1.00  0.00     0.127 S 
ATOM     46  O   UNL     1       6.027 -11.097   5.582  1.00  0.00    -0.237 OA
ATOM     47  O   UNL     1       8.223 -11.466   6.632  1.00  0.00    -0.237 OA
ATOM     48  O   UNL     1       6.474 -10.250   7.856  1.00  0.00    -0.744 OA
ENDBRANCH  42  45
ENDBRANCH  24  38
BRANCH  25  49
ATOM     49  C   UNL     1       6.373   2.480   9.293  1.00  0.00     0.023 A 
ATOM     50  C   UNL     1       7.430   3.406   9.384  1.00  0.00     0.012 A 
ATOM     51  C   UNL     1       5.078   2.877   9.680  1.00  0.00     0.148 A 
ATOM     52  C   UNL     1       7.207   4.691   9.879  1.00  0.00     0.002 A 
ATOM     53  C   UNL     1       4.851   4.178  10.109  1.00  0.00     0.091 A 
ATOM     54  F   UNL     1       4.087   1.978   9.604  1.00  0.00    -0.205 F 
ATOM     55  C   UNL     1       5.916   5.082  10.228  1.00  0.00     0.022 A 
BRANCH  53  56
ATOM     56  S   UNL     1       3.193   4.795  10.422  1.00  0.00     0.127 S 
ATOM     57  O   UNL     1       3.134   4.766  11.881  1.00  0.00    -0.237 OA
ATOM     58  O   UNL     1       3.247   6.134   9.834  1.00  0.00    -0.237 OA
ATOM     59  O   UNL     1       2.303   3.876   9.726  1.00  0.00    -0.744 OA
ENDBRANCH  53  56
ENDBRANCH  25  49
BRANCH  37  60
ATOM     60  C   UNL     1      10.132  -2.982  11.452  1.00  0.00     0.023 A 
ATOM     61  C   UNL     1       9.532  -3.128  12.718  1.00  0.00     0.012 A 
ATOM     62  C   UNL     1      11.531  -3.086  11.330  1.00  0.00     0.148 A 
ATOM     63  C   UNL     1      10.315  -3.337  13.852  1.00  0.00     0.002 A 
ATOM     64  C   UNL     1      12.301  -3.342  12.458  1.00  0.00     0.091 A 
ATOM     65  F   UNL     1      12.083  -2.921  10.120  1.00  0.00    -0.205 F 
ATOM     66  C   UNL     1      11.697  -3.454  13.721  1.00  0.00     0.022 A 
BRANCH  64  67
ATOM     67  S   UNL     1      14.076  -3.598  12.369  1.00  0.00     0.127 S 
ATOM     68  O   UNL     1      14.586  -2.343  12.918  1.00  0.00    -0.237 OA
ATOM     69  O   UNL     1      14.267  -4.764  13.232  1.00  0.00    -0.237 OA
ATOM     70  O   UNL     1      14.375  -3.834  10.963  1.00  0.00    -0.744 OA
ENDBRANCH  64  67
ENDBRANCH  37  60
ENDBRANCH  11  12
ENDBRANCH   4   6
ENDBRANCH   1   2
BRANCH   1  71
ATOM     71  C   UNL     1       5.013  -0.511  -2.206  1.00  0.00     0.042 C 
BRANCH  71  72
ATOM     72  C   UNL     1       4.488  -0.411  -3.627  1.00  0.00     0.117 C 
BRANCH  72  73
ATOM     73  N   UNL     1       4.852   0.839  -4.271  1.00  0.00    -0.356 N 
ATOM     74  C   UNL     1       5.613   1.113  -5.361  1.00  0.00     0.227 C 
ATOM     75  H   UNL     1       4.476   1.638  -3.836  1.00  0.00     0.163 HD
ATOM     76  O   UNL     1       5.787   2.305  -5.637  1.00  0.00    -0.274 OA
BRANCH  74  77
ATOM     77  C   UNL     1       6.276   0.031  -6.206  1.00  0.00     0.103 C 
ATOM     78  C   UNL     1       7.410  -0.622  -5.497  1.00  0.00    -0.016 C 
ATOM     79  C   UNL     1       5.384  -1.127  -6.662  1.00  0.00     0.047 C 
ATOM     80  C   UNL     1       7.323  -1.953  -5.549  1.00  0.00    -0.005 C 
ATOM     81  C   UNL     1       6.123  -2.448  -6.312  1.00  0.00     0.117 C 
BRANCH  81  82
ATOM     82  N   UNL     1       6.531  -3.215  -7.480  1.00  0.00    -0.275 N 
ATOM     83  C   UNL     1       7.516  -4.174  -7.466  1.00  0.00     0.233 C 
ATOM     84  C   UNL     1       5.723  -3.383  -8.573  1.00  0.00     0.233 C 
ATOM     85  O   UNL     1       8.158  -4.620  -6.538  1.00  0.00    -0.274 OA
ATOM     86  C   UNL     1       7.661  -4.715  -8.844  1.00  0.00     0.092 C 
ATOM     87  C   UNL     1       6.459  -4.170  -9.591  1.00  0.00     0.092 C 
ATOM     88  O   UNL     1       4.561  -3.050  -8.738  1.00  0.00    -0.274 OA
ATOM     89  C   UNL     1       6.659  -5.653  -9.462  1.00  0.00     0.028 C 
ENDBRANCH  81  82
ENDBRANCH  74  77
ENDBRANCH  72  73
ENDBRANCH  71  72
ENDBRANCH   1  71
TORSDOF 14
