REMARK SMILES COC(=O)C[C@H](NC(=O)N(C)C[C@@H]1CCC[N@H+]1C)C(=O)NCCCNC(=O)c1ccc(-c2c3nc(c(-c4cccc(S(=O)(=O)[O-])c4F)c4ccc([nH]4)c(-c4cccc(S(=O)(=O)[O-])c4F)c4nc(c(-c5cccc(S(=O)(=O)[O-])c5F)c5ccc2[nH]5)C=C4)C=C3)cc1
REMARK SMILES IDX 22 1 21 2 19 3 20 4 6 6 5 7 3 8 4 9 2 10 1 11 7 12 8 13 9 15
REMARK SMILES IDX 10 16 11 17 12 18 13 19 14 20 17 21 15 22 16 23 18 24 23 26
REMARK SMILES IDX 24 27 25 28 26 29 27 31 28 32 29 33 90 34 30 35 89 36 31 37
REMARK SMILES IDX 32 38 33 39 83 40 34 41 88 42 82 43 84 44 35 45 87 46 81 47
REMARK SMILES IDX 80 48 36 50 68 51 48 52 67 53 49 54 52 55 66 56 85 57 50 58
REMARK SMILES IDX 51 59 65 61 86 62 53 63 37 64 38 65 46 66 39 67 41 68 47 69
REMARK SMILES IDX 40 70 42 71 43 72 44 73 45 74 69 75 70 76 78 77 71 78 73 79
REMARK SMILES IDX 79 80 72 81 74 82 75 83 76 84 77 85 54 86 55 87 63 88 56 89
REMARK SMILES IDX 58 90 64 91 57 92 59 93 60 94 61 95 62 96
REMARK H PARENT 21 5 7 14 17 25 25 30 84 49 52 60
REMARK Flexibility Score: inf
ROOT
ATOM      1  C   UNL     1       2.445  -9.819   3.563  1.00  0.00     0.117 C 
ENDROOT
BRANCH   1   2
ATOM      2  N   UNL     1       2.422  -9.759   5.019  1.00  0.00    -0.354 N 
ATOM      3  C   UNL     1       1.697  -8.990   5.885  1.00  0.00     0.243 C 
ATOM      4  O   UNL     1       1.753  -9.280   7.084  1.00  0.00    -0.273 OA
ATOM      5  H   UNL     1       3.040 -10.387   5.457  1.00  0.00     0.163 HD
BRANCH   3   6
ATOM      6  C   UNL     1       0.752  -7.877   5.387  1.00  0.00     0.184 C 
BRANCH   6   7
ATOM      7  C   UNL     1      -0.416  -8.529   4.653  1.00  0.00     0.157 C 
BRANCH   7   8
ATOM      8  C   UNL     1      -1.636  -7.668   4.588  1.00  0.00     0.308 C 
ATOM      9  O   UNL     1      -2.167  -7.325   3.537  1.00  0.00    -0.252 OA
BRANCH   8  10
ATOM     10  O   UNL     1      -2.132  -7.417   5.827  1.00  0.00    -0.469 OA
ATOM     11  C   UNL     1      -3.373  -6.713   5.800  1.00  0.00     0.282 C 
ENDBRANCH   8  10
ENDBRANCH   7   8
ENDBRANCH   6   7
BRANCH   6  12
ATOM     12  N   UNL     1       1.535  -6.949   4.570  1.00  0.00    -0.326 N 
ATOM     13  C   UNL     1       1.497  -5.678   4.168  1.00  0.00     0.318 C 
ATOM     14  H   UNL     1       2.332  -7.400   4.207  1.00  0.00     0.166 HD
ATOM     15  O   UNL     1       2.248  -5.436   3.216  1.00  0.00    -0.249 OA
BRANCH  13  16
ATOM     16  N   UNL     1       0.728  -4.707   4.728  1.00  0.00    -0.322 N 
ATOM     17  C   UNL     1       0.044  -4.703   6.007  1.00  0.00     0.149 C 
BRANCH  16  18
ATOM     18  C   UNL     1       0.710  -3.416   4.026  1.00  0.00     0.185 C 
BRANCH  18  19
ATOM     19  C   UNL     1       1.884  -2.430   4.309  1.00  0.00     0.203 C 
ATOM     20  C   UNL     1       3.115  -3.000   5.025  1.00  0.00     0.073 C 
ATOM     21  N   UNL     1       1.547  -1.258   5.160  1.00  0.00    -0.333 N 
ATOM     22  C   UNL     1       3.759  -1.815   5.738  1.00  0.00     0.068 C 
ATOM     23  C   UNL     1       2.850  -0.637   5.446  1.00  0.00     0.262 C 
ATOM     24  C   UNL     1       0.674  -0.299   4.484  1.00  0.00     0.333 C 
ATOM     25  H   UNL     1       1.034  -1.545   5.993  1.00  0.00     0.348 HD
ENDBRANCH  18  19
ENDBRANCH  16  18
ENDBRANCH  13  16
ENDBRANCH   6  12
ENDBRANCH   3   6
ENDBRANCH   1   2
BRANCH   1  26
ATOM     26  C   UNL     1       3.789  -9.414   2.979  1.00  0.00     0.042 C 
BRANCH  26  27
ATOM     27  C   UNL     1       4.923 -10.361   3.332  1.00  0.00     0.118 C 
BRANCH  27  28
ATOM     28  N   UNL     1       4.711 -11.705   2.812  1.00  0.00    -0.352 N 
ATOM     29  C   UNL     1       5.463 -12.436   1.925  1.00  0.00     0.251 C 
ATOM     30  H   UNL     1       3.905 -12.160   3.148  1.00  0.00     0.163 HD
ATOM     31  O   UNL     1       4.999 -13.475   1.462  1.00  0.00    -0.269 OA
BRANCH  29  32
ATOM     32  C   UNL     1       6.812 -11.979   1.527  1.00  0.00     0.039 A 
ATOM     33  C   UNL     1       7.235 -12.185   0.211  1.00  0.00     0.014 A 
ATOM     34  C   UNL     1       7.677 -11.386   2.450  1.00  0.00     0.014 A 
ATOM     35  C   UNL     1       8.509 -11.768  -0.180  1.00  0.00     0.010 A 
ATOM     36  C   UNL     1       8.897 -10.868   2.030  1.00  0.00     0.010 A 
ATOM     37  C   UNL     1       9.345 -11.090   0.722  1.00  0.00    -0.014 A 
BRANCH  37  38
ATOM     38  C   UNL     1      10.710 -10.658   0.330  1.00  0.00     0.031 A 
ATOM     39  C   UNL     1      11.912 -11.201   1.060  1.00  0.00     0.074 A 
ATOM     40  C   UNL     1      10.870  -9.740  -0.643  1.00  0.00     0.049 A 
ATOM     41  N   UNL     1      13.179 -10.933   0.878  1.00  0.00    -0.248 NA
ATOM     42  C   UNL     1      11.657 -12.144   2.163  1.00  0.00     0.031 C 
ATOM     43  C   UNL     1       9.784  -9.071  -1.362  1.00  0.00     0.029 A 
ATOM     44  N   UNL     1      12.009  -9.196  -1.179  1.00  0.00    -0.354 N 
ATOM     45  C   UNL     1      13.863 -11.645   1.856  1.00  0.00     0.074 A 
ATOM     46  C   UNL     1      12.870 -12.310   2.667  1.00  0.00     0.031 C 
ATOM     47  C   UNL     1      10.309  -8.215  -2.253  1.00  0.00     0.029 A 
ATOM     48  C   UNL     1      11.764  -8.252  -2.149  1.00  0.00     0.049 A 
ATOM     49  H   UNL     1      12.915  -9.456  -0.897  1.00  0.00     0.167 HD
ATOM     50  C   UNL     1      15.199 -11.772   2.042  1.00  0.00     0.034 A 
ATOM     51  C   UNL     1      12.617  -7.500  -2.871  1.00  0.00     0.034 A 
ATOM     52  C   UNL     1      16.185 -11.136   1.212  1.00  0.00     0.049 A 
ATOM     53  C   UNL     1      14.097  -7.692  -2.683  1.00  0.00     0.074 A 
ATOM     54  C   UNL     1      17.562 -11.252   1.267  1.00  0.00     0.029 A 
ATOM     55  N   UNL     1      15.899 -10.260   0.176  1.00  0.00    -0.354 N 
ATOM     56  N   UNL     1      14.728  -8.483  -1.849  1.00  0.00    -0.248 NA
ATOM     57  C   UNL     1      14.983  -6.925  -3.569  1.00  0.00     0.031 C 
ATOM     58  C   UNL     1      18.110 -10.423   0.282  1.00  0.00     0.029 A 
ATOM     59  C   UNL     1      17.072  -9.825  -0.415  1.00  0.00     0.049 A 
ATOM     60  H   UNL     1      14.994  -9.987  -0.098  1.00  0.00     0.167 HD
ATOM     61  C   UNL     1      16.080  -8.340  -2.135  1.00  0.00     0.074 A 
ATOM     62  C   UNL     1      16.175  -7.400  -3.234  1.00  0.00     0.031 C 
ATOM     63  C   UNL     1      17.148  -8.926  -1.538  1.00  0.00     0.034 A 
BRANCH  50  64
ATOM     64  C   UNL     1      15.664 -12.673   3.159  1.00  0.00     0.023 A 
ATOM     65  C   UNL     1      15.454 -14.066   3.065  1.00  0.00     0.012 A 
ATOM     66  C   UNL     1      16.333 -12.154   4.283  1.00  0.00     0.148 A 
ATOM     67  C   UNL     1      15.855 -14.919   4.092  1.00  0.00     0.002 A 
ATOM     68  C   UNL     1      16.778 -13.017   5.279  1.00  0.00     0.091 A 
ATOM     69  F   UNL     1      16.508 -10.827   4.368  1.00  0.00    -0.205 F 
ATOM     70  C   UNL     1      16.526 -14.396   5.193  1.00  0.00     0.022 A 
BRANCH  68  71
ATOM     71  S   UNL     1      17.727 -12.454   6.697  1.00  0.00     0.127 S 
ATOM     72  O   UNL     1      16.767 -12.637   7.785  1.00  0.00    -0.237 OA
ATOM     73  O   UNL     1      18.847 -13.395   6.708  1.00  0.00    -0.237 OA
ATOM     74  O   UNL     1      18.094 -11.074   6.414  1.00  0.00    -0.744 OA
ENDBRANCH  68  71
ENDBRANCH  50  64
BRANCH  51  75
ATOM     75  C   UNL     1      12.086  -6.542  -3.881  1.00  0.00     0.023 A 
ATOM     76  C   UNL     1      12.256  -6.809  -5.254  1.00  0.00     0.012 A 
ATOM     77  C   UNL     1      11.385  -5.387  -3.487  1.00  0.00     0.148 A 
ATOM     78  C   UNL     1      11.767  -5.923  -6.215  1.00  0.00     0.002 A 
ATOM     79  C   UNL     1      10.851  -4.540  -4.449  1.00  0.00     0.091 A 
ATOM     80  F   UNL     1      11.240  -5.151  -2.175  1.00  0.00    -0.205 F 
ATOM     81  C   UNL     1      11.056  -4.795  -5.814  1.00  0.00     0.022 A 
BRANCH  79  82
ATOM     82  S   UNL     1       9.812  -3.136  -4.029  1.00  0.00     0.127 S 
ATOM     83  O   UNL     1      10.655  -2.011  -4.426  1.00  0.00    -0.237 OA
ATOM     84  O   UNL     1       8.644  -3.363  -4.882  1.00  0.00    -0.237 OA
ATOM     85  O   UNL     1       9.548  -3.253  -2.602  1.00  0.00    -0.744 OA
ENDBRANCH  79  82
ENDBRANCH  51  75
BRANCH  63  86
ATOM     86  C   UNL     1      18.514  -8.616  -2.093  1.00  0.00     0.023 A 
ATOM     87  C   UNL     1      19.081  -7.338  -1.914  1.00  0.00     0.012 A 
ATOM     88  C   UNL     1      19.260  -9.617  -2.746  1.00  0.00     0.148 A 
ATOM     89  C   UNL     1      20.350  -7.050  -2.416  1.00  0.00     0.002 A 
ATOM     90  C   UNL     1      20.545  -9.339  -3.193  1.00  0.00     0.091 A 
ATOM     91  F   UNL     1      18.698 -10.822  -2.923  1.00  0.00    -0.205 F 
ATOM     92  C   UNL     1      21.085  -8.052  -3.044  1.00  0.00     0.022 A 
BRANCH  90  93
ATOM     93  S   UNL     1      21.601 -10.596  -3.921  1.00  0.00     0.127 S 
ATOM     94  O   UNL     1      21.592 -10.214  -5.332  1.00  0.00    -0.237 OA
ATOM     95  O   UNL     1      22.874 -10.367  -3.235  1.00  0.00    -0.237 OA
ATOM     96  O   UNL     1      20.973 -11.874  -3.614  1.00  0.00    -0.744 OA
ENDBRANCH  90  93
ENDBRANCH  63  86
ENDBRANCH  37  38
ENDBRANCH  29  32
ENDBRANCH  27  28
ENDBRANCH  26  27
ENDBRANCH   1  26
TORSDOF 20
