REMARK SMILES C[C@@H]1[C@@H](C(=O)NCCCNC(=O)c2ccc(-c3c4nc(c(-c5cccc(S(=O)(=O)[O-])c5F)c5ccc([nH]5)c(-c5cccc(S(=O)(=O)[O-])c5F)c5nc(c(-c6cccc(S(=O)(=O)[O-])c6F)c6ccc3[nH]6)C=C5)C=C4)cc2)CCN1C(=O)N1CCC[C@H]2CCC[C@@H]21
REMARK SMILES IDX 8 1 7 2 6 3 4 4 5 5 3 7 1 8 2 9 78 10 76 11 77 12 79 13
REMARK SMILES IDX 80 14 81 15 82 16 89 17 83 18 85 19 88 20 84 21 86 22 87 23
REMARK SMILES IDX 9 24 10 25 11 26 12 28 13 29 14 30 75 31 15 32 74 33 16 34
REMARK SMILES IDX 17 35 18 36 68 37 19 38 73 39 67 40 69 41 20 42 72 43 66 44
REMARK SMILES IDX 65 45 21 47 53 48 33 49 52 50 34 51 37 52 51 53 70 54 35 55
REMARK SMILES IDX 36 56 50 58 71 59 38 60 22 61 23 62 31 63 24 64 26 65 32 66
REMARK SMILES IDX 25 67 27 68 28 69 29 70 30 71 54 72 55 73 63 74 56 75 58 76
REMARK SMILES IDX 64 77 57 78 59 79 60 80 61 81 62 82 39 83 40 84 48 85 41 86
REMARK SMILES IDX 43 87 49 88 42 89 44 90 45 91 46 92 47 93
REMARK H PARENT 6 6 10 27 69 46 37 57
REMARK Flexibility Score: inf
ROOT
ATOM      1  C   UNL     1      -2.921   4.117  -1.174  1.00  0.00     0.042 C 
ENDROOT
BRANCH   1   2
ATOM      2  C   UNL     1      -2.606   2.678  -0.810  1.00  0.00     0.117 C 
BRANCH   2   3
ATOM      3  N   UNL     1      -1.838   1.969  -1.818  1.00  0.00    -0.356 N 
ATOM      4  C   UNL     1      -0.817   1.077  -1.654  1.00  0.00     0.225 C 
ATOM      5  O   UNL     1      -0.348   0.554  -2.665  1.00  0.00    -0.275 OA
ATOM      6  H   UNL     1      -2.088   2.158  -2.751  1.00  0.00     0.163 HD
BRANCH   4   7
ATOM      7  C   UNL     1      -0.245   0.854  -0.260  1.00  0.00     0.102 C 
ATOM      8  C   UNL     1       1.911   0.203   0.804  1.00  0.00     0.032 C 
ATOM      9  C   UNL     1       0.879  -0.211  -0.253  1.00  0.00     0.096 C 
ATOM     10  N   UNL     1       0.178  -1.474   0.073  1.00  0.00    -0.321 N 
ATOM     11  C   UNL     1      -1.235   0.285   0.762  1.00  0.00     0.037 C 
ATOM     12  C   UNL     1      -1.169  -1.208   0.534  1.00  0.00     0.122 C 
BRANCH  10  13
ATOM     13  C   UNL     1       0.412  -2.743  -0.435  1.00  0.00     0.320 C 
ATOM     14  O   UNL     1      -0.439  -3.632  -0.382  1.00  0.00    -0.248 OA
BRANCH  13  15
ATOM     15  N   UNL     1       1.591  -2.922  -1.109  1.00  0.00    -0.321 N 
ATOM     16  C   UNL     1       2.875  -2.868  -0.430  1.00  0.00     0.121 C 
ATOM     17  C   UNL     1       1.646  -3.622  -2.377  1.00  0.00     0.090 C 
ATOM     18  C   UNL     1       3.912  -2.139  -1.290  1.00  0.00     0.022 C 
ATOM     19  C   UNL     1       2.546  -2.794  -3.297  1.00  0.00     0.012 C 
ATOM     20  C   UNL     1       0.390  -3.779  -3.226  1.00  0.00     0.025 C 
ATOM     21  C   UNL     1       3.959  -2.694  -2.726  1.00  0.00     0.007 C 
ATOM     22  C   UNL     1       2.386  -3.481  -4.642  1.00  0.00     0.006 C 
ATOM     23  C   UNL     1       0.924  -3.951  -4.655  1.00  0.00     0.002 C 
ENDBRANCH  13  15
ENDBRANCH  10  13
ENDBRANCH   4   7
ENDBRANCH   2   3
ENDBRANCH   1   2
BRANCH   1  24
ATOM     24  C   UNL     1      -3.690   4.296  -2.472  1.00  0.00     0.118 C 
BRANCH  24  25
ATOM     25  N   UNL     1      -5.015   3.690  -2.456  1.00  0.00    -0.352 N 
ATOM     26  C   UNL     1      -6.266   4.267  -2.495  1.00  0.00     0.251 C 
ATOM     27  H   UNL     1      -5.017   2.706  -2.410  1.00  0.00     0.163 HD
ATOM     28  O   UNL     1      -7.258   3.569  -2.339  1.00  0.00    -0.269 OA
BRANCH  26  29
ATOM     29  C   UNL     1      -6.410   5.730  -2.687  1.00  0.00     0.039 A 
ATOM     30  C   UNL     1      -7.350   6.423  -1.919  1.00  0.00     0.014 A 
ATOM     31  C   UNL     1      -5.621   6.421  -3.606  1.00  0.00     0.014 A 
ATOM     32  C   UNL     1      -7.428   7.817  -2.009  1.00  0.00     0.010 A 
ATOM     33  C   UNL     1      -5.617   7.812  -3.608  1.00  0.00     0.010 A 
ATOM     34  C   UNL     1      -6.526   8.528  -2.816  1.00  0.00    -0.014 A 
BRANCH  34  35
ATOM     35  C   UNL     1      -6.509  10.015  -2.849  1.00  0.00     0.031 A 
ATOM     36  C   UNL     1      -6.722  10.748  -4.148  1.00  0.00     0.074 A 
ATOM     37  C   UNL     1      -6.204  10.706  -1.731  1.00  0.00     0.049 A 
ATOM     38  N   UNL     1      -6.663  12.032  -4.390  1.00  0.00    -0.248 NA
ATOM     39  C   UNL     1      -7.007   9.930  -5.339  1.00  0.00     0.031 C 
ATOM     40  C   UNL     1      -5.893  10.115  -0.427  1.00  0.00     0.029 A 
ATOM     41  N   UNL     1      -6.080  12.057  -1.517  1.00  0.00    -0.354 N 
ATOM     42  C   UNL     1      -6.860  12.171  -5.759  1.00  0.00     0.074 A 
ATOM     43  C   UNL     1      -6.997  10.839  -6.303  1.00  0.00     0.031 C 
ATOM     44  C   UNL     1      -5.627  11.096   0.451  1.00  0.00     0.029 A 
ATOM     45  C   UNL     1      -5.711  12.383  -0.232  1.00  0.00     0.049 A 
ATOM     46  H   UNL     1      -6.240  12.730  -2.218  1.00  0.00     0.167 HD
ATOM     47  C   UNL     1      -6.953  13.304  -6.496  1.00  0.00     0.034 A 
ATOM     48  C   UNL     1      -5.459  13.580   0.332  1.00  0.00     0.034 A 
ATOM     49  C   UNL     1      -6.865  14.629  -5.946  1.00  0.00     0.049 A 
ATOM     50  C   UNL     1      -5.607  14.826  -0.499  1.00  0.00     0.074 A 
ATOM     51  C   UNL     1      -7.037  15.840  -6.592  1.00  0.00     0.029 A 
ATOM     52  N   UNL     1      -6.577  14.919  -4.622  1.00  0.00    -0.354 N 
ATOM     53  N   UNL     1      -5.947  14.941  -1.760  1.00  0.00    -0.248 NA
ATOM     54  C   UNL     1      -5.372  16.110   0.178  1.00  0.00     0.031 C 
ATOM     55  C   UNL     1      -6.824  16.864  -5.664  1.00  0.00     0.029 A 
ATOM     56  C   UNL     1      -6.555  16.290  -4.432  1.00  0.00     0.049 A 
ATOM     57  H   UNL     1      -6.412  14.249  -3.920  1.00  0.00     0.167 HD
ATOM     58  C   UNL     1      -6.006  16.306  -2.016  1.00  0.00     0.074 A 
ATOM     59  C   UNL     1      -5.685  16.978  -0.774  1.00  0.00     0.031 C 
ATOM     60  C   UNL     1      -6.287  16.946  -3.178  1.00  0.00     0.034 A 
BRANCH  47  61
ATOM     61  C   UNL     1      -7.216  13.159  -7.973  1.00  0.00     0.023 A 
ATOM     62  C   UNL     1      -8.475  12.704  -8.416  1.00  0.00     0.012 A 
ATOM     63  C   UNL     1      -6.242  13.525  -8.923  1.00  0.00     0.148 A 
ATOM     64  C   UNL     1      -8.748  12.577  -9.777  1.00  0.00     0.002 A 
ATOM     65  C   UNL     1      -6.538  13.443 -10.278  1.00  0.00     0.091 A 
ATOM     66  F   UNL     1      -5.044  13.937  -8.484  1.00  0.00    -0.205 F 
ATOM     67  C   UNL     1      -7.784  12.957 -10.707  1.00  0.00     0.022 A 
BRANCH  65  68
ATOM     68  S   UNL     1      -5.397  13.985 -11.556  1.00  0.00     0.127 S 
ATOM     69  O   UNL     1      -5.014  12.713 -12.167  1.00  0.00    -0.237 OA
ATOM     70  O   UNL     1      -6.251  14.830 -12.390  1.00  0.00    -0.237 OA
ATOM     71  O   UNL     1      -4.328  14.693 -10.866  1.00  0.00    -0.744 OA
ENDBRANCH  65  68
ENDBRANCH  47  61
BRANCH  48  72
ATOM     72  C   UNL     1      -5.104  13.666   1.778  1.00  0.00     0.023 A 
ATOM     73  C   UNL     1      -6.025  14.229   2.684  1.00  0.00     0.012 A 
ATOM     74  C   UNL     1      -3.876  13.178   2.264  1.00  0.00     0.148 A 
ATOM     75  C   UNL     1      -5.715  14.338   4.040  1.00  0.00     0.002 A 
ATOM     76  C   UNL     1      -3.597  13.237   3.625  1.00  0.00     0.091 A 
ATOM     77  F   UNL     1      -3.009  12.653   1.386  1.00  0.00    -0.205 F 
ATOM     78  C   UNL     1      -4.506  13.834   4.512  1.00  0.00     0.022 A 
BRANCH  76  79
ATOM     79  S   UNL     1      -2.126  12.495   4.341  1.00  0.00     0.127 S 
ATOM     80  O   UNL     1      -1.364  13.673   4.747  1.00  0.00    -0.237 OA
ATOM     81  O   UNL     1      -2.688  11.713   5.442  1.00  0.00    -0.237 OA
ATOM     82  O   UNL     1      -1.532  11.694   3.279  1.00  0.00    -0.744 OA
ENDBRANCH  76  79
ENDBRANCH  48  72
BRANCH  60  83
ATOM     83  C   UNL     1      -6.309  18.452  -3.161  1.00  0.00     0.023 A 
ATOM     84  C   UNL     1      -5.104  19.174  -3.052  1.00  0.00     0.012 A 
ATOM     85  C   UNL     1      -7.521  19.151  -3.331  1.00  0.00     0.148 A 
ATOM     86  C   UNL     1      -5.109  20.568  -3.078  1.00  0.00     0.002 A 
ATOM     87  C   UNL     1      -7.512  20.538  -3.409  1.00  0.00     0.091 A 
ATOM     88  F   UNL     1      -8.659  18.446  -3.416  1.00  0.00    -0.205 F 
ATOM     89  C   UNL     1      -6.309  21.248  -3.269  1.00  0.00     0.022 A 
BRANCH  87  90
ATOM     90  S   UNL     1      -8.993  21.494  -3.752  1.00  0.00     0.127 S 
ATOM     91  O   UNL     1      -9.241  22.133  -2.461  1.00  0.00    -0.237 OA
ATOM     92  O   UNL     1      -8.539  22.401  -4.806  1.00  0.00    -0.237 OA
ATOM     93  O   UNL     1     -10.003  20.533  -4.177  1.00  0.00    -0.744 OA
ENDBRANCH  87  90
ENDBRANCH  60  83
ENDBRANCH  34  35
ENDBRANCH  26  29
ENDBRANCH  24  25
ENDBRANCH   1  24
TORSDOF 15
