REMARK SMILES Cc1ccc(C[N@H+]2CCC[C@@H](C(=O)NCCCNC(=O)c3ccc(-c4c5nc(c(-c6cccc(S(=O)(=O)[O-])c6F)c6ccc([nH]6)c(-c6cccc(S(=O)(=O)[O-])c6F)c6nc(c(-c7cccc(S(=O)(=O)[O-])c7F)c7ccc4[nH]7)C=C6)C=C5)cc3)C2)o1
REMARK SMILES IDX 16 1 15 2 14 3 12 4 13 5 11 7 7 8 8 9 84 10 9 12 10 13 6 14
REMARK SMILES IDX 5 15 1 16 2 17 3 18 85 19 4 20 17 21 18 22 19 23 20 25 21 26
REMARK SMILES IDX 22 27 83 28 23 29 82 30 24 31 25 32 26 33 76 34 27 35 81 36
REMARK SMILES IDX 75 37 77 38 28 39 80 40 74 41 73 42 29 44 61 45 41 46 60 47
REMARK SMILES IDX 42 48 45 49 59 50 78 51 43 52 44 53 58 55 79 56 46 57 30 58
REMARK SMILES IDX 31 59 39 60 32 61 34 62 40 63 33 64 35 65 36 66 37 67 38 68
REMARK SMILES IDX 62 69 63 70 71 71 64 72 66 73 72 74 65 75 67 76 68 77 69 78
REMARK SMILES IDX 70 79 47 80 48 81 56 82 49 83 51 84 57 85 50 86 52 87 53 88
REMARK SMILES IDX 54 89 55 90
REMARK H PARENT 14 6 7 11 18 24 77 43 45 54
REMARK Flexibility Score: inf
ROOT
ATOM      1  C   UNL     1      -0.687   8.011   3.497  1.00  0.00     0.042 C 
ENDROOT
BRANCH   1   2
ATOM      2  C   UNL     1      -0.702   7.212   2.200  1.00  0.00     0.117 C 
BRANCH   2   3
ATOM      3  N   UNL     1       0.377   6.243   2.165  1.00  0.00    -0.356 N 
ATOM      4  C   UNL     1       0.354   4.895   2.344  1.00  0.00     0.228 C 
ATOM      5  O   UNL     1       1.434   4.303   2.399  1.00  0.00    -0.275 OA
ATOM      6  H   UNL     1       1.268   6.621   1.982  1.00  0.00     0.163 HD
BRANCH   4   7
ATOM      7  C   UNL     1      -0.971   4.159   2.411  1.00  0.00     0.133 C 
ATOM      8  N   UNL     1      -2.259   2.405   1.219  1.00  0.00    -0.328 N 
ATOM      9  C   UNL     1      -2.418   1.639   2.464  1.00  0.00     0.262 C 
ATOM     10  C   UNL     1      -1.011   3.185   1.230  1.00  0.00     0.276 C 
ATOM     11  H   UNL     1      -3.039   3.061   1.177  1.00  0.00     0.348 HD
ATOM     12  C   UNL     1      -2.385   2.552   3.695  1.00  0.00     0.062 C 
ATOM     13  C   UNL     1      -1.116   3.402   3.730  1.00  0.00     0.025 C 
BRANCH   8  14
ATOM     14  C   UNL     1      -2.366   1.560   0.010  1.00  0.00     0.338 C 
BRANCH  14  15
ATOM     15  C   UNL     1      -1.379   0.443  -0.090  1.00  0.00     0.158 A 
ATOM     16  C   UNL     1       2.131  -0.158  -0.171  1.00  0.00     0.087 C 
ATOM     17  C   UNL     1       0.667  -0.345  -0.172  1.00  0.00     0.101 A 
ATOM     18  C   UNL     1      -0.163  -1.438  -0.058  1.00  0.00     0.046 A 
ATOM     19  O   UNL     1      -0.072   0.791  -0.262  1.00  0.00    -0.460 OA
ATOM     20  C   UNL     1      -1.486  -0.930  -0.012  1.00  0.00     0.052 A 
ENDBRANCH  14  15
ENDBRANCH   8  14
ENDBRANCH   4   7
ENDBRANCH   2   3
ENDBRANCH   1   2
BRANCH   1  21
ATOM     21  C   UNL     1       0.561   8.872   3.668  1.00  0.00     0.118 C 
BRANCH  21  22
ATOM     22  N   UNL     1       0.709   9.859   2.605  1.00  0.00    -0.352 N 
ATOM     23  C   UNL     1       0.761  11.228   2.673  1.00  0.00     0.251 C 
ATOM     24  H   UNL     1       0.784   9.485   1.697  1.00  0.00     0.163 HD
ATOM     25  O   UNL     1       0.687  11.889   1.638  1.00  0.00    -0.269 OA
BRANCH  23  26
ATOM     26  C   UNL     1       0.890  11.907   3.978  1.00  0.00     0.039 A 
ATOM     27  C   UNL     1       0.132  13.055   4.222  1.00  0.00     0.014 A 
ATOM     28  C   UNL     1       1.765  11.425   4.955  1.00  0.00     0.014 A 
ATOM     29  C   UNL     1       0.205  13.681   5.469  1.00  0.00     0.010 A 
ATOM     30  C   UNL     1       1.770  11.997   6.223  1.00  0.00     0.010 A 
ATOM     31  C   UNL     1       0.997  13.135   6.493  1.00  0.00    -0.014 A 
BRANCH  31  32
ATOM     32  C   UNL     1       1.019  13.733   7.853  1.00  0.00     0.031 A 
ATOM     33  C   UNL     1       2.303  14.269   8.427  1.00  0.00     0.074 A 
ATOM     34  C   UNL     1      -0.101  13.715   8.603  1.00  0.00     0.049 A 
ATOM     35  N   UNL     1       2.526  14.774   9.613  1.00  0.00    -0.248 NA
ATOM     36  C   UNL     1       3.497  14.207   7.569  1.00  0.00     0.031 C 
ATOM     37  C   UNL     1      -1.389  13.153   8.189  1.00  0.00     0.029 A 
ATOM     38  N   UNL     1      -0.330  14.158   9.882  1.00  0.00    -0.354 N 
ATOM     39  C   UNL     1       3.887  15.056   9.656  1.00  0.00     0.074 A 
ATOM     40  C   UNL     1       4.445  14.633   8.391  1.00  0.00     0.031 C 
ATOM     41  C   UNL     1      -2.272  13.292   9.189  1.00  0.00     0.029 A 
ATOM     42  C   UNL     1      -1.609  13.918  10.328  1.00  0.00     0.049 A 
ATOM     43  H   UNL     1       0.356  14.606  10.428  1.00  0.00     0.167 HD
ATOM     44  C   UNL     1       4.602  15.641  10.646  1.00  0.00     0.034 A 
ATOM     45  C   UNL     1      -2.180  14.162  11.524  1.00  0.00     0.034 A 
ATOM     46  C   UNL     1       4.037  16.091  11.890  1.00  0.00     0.049 A 
ATOM     47  C   UNL     1      -1.369  14.834  12.598  1.00  0.00     0.074 A 
ATOM     48  C   UNL     1       4.660  16.770  12.922  1.00  0.00     0.029 A 
ATOM     49  N   UNL     1       2.720  15.899  12.277  1.00  0.00    -0.354 N 
ATOM     50  N   UNL     1      -0.121  15.234  12.561  1.00  0.00    -0.248 NA
ATOM     51  C   UNL     1      -2.054  15.123  13.866  1.00  0.00     0.031 C 
ATOM     52  C   UNL     1       3.728  16.958  13.947  1.00  0.00     0.029 A 
ATOM     53  C   UNL     1       2.513  16.433  13.537  1.00  0.00     0.049 A 
ATOM     54  H   UNL     1       2.032  15.448  11.735  1.00  0.00     0.167 HD
ATOM     55  C   UNL     1       0.117  15.855  13.782  1.00  0.00     0.074 A 
ATOM     56  C   UNL     1      -1.124  15.796  14.528  1.00  0.00     0.031 C 
ATOM     57  C   UNL     1       1.261  16.413  14.249  1.00  0.00     0.034 A 
BRANCH  44  58
ATOM     58  C   UNL     1       6.073  15.868  10.408  1.00  0.00     0.023 A 
ATOM     59  C   UNL     1       6.487  16.834   9.467  1.00  0.00     0.012 A 
ATOM     60  C   UNL     1       7.045  15.173  11.154  1.00  0.00     0.148 A 
ATOM     61  C   UNL     1       7.842  17.076   9.245  1.00  0.00     0.002 A 
ATOM     62  C   UNL     1       8.392  15.455  10.962  1.00  0.00     0.091 A 
ATOM     63  F   UNL     1       6.635  14.245  12.031  1.00  0.00    -0.205 F 
ATOM     64  C   UNL     1       8.793  16.395   9.999  1.00  0.00     0.022 A 
BRANCH  62  65
ATOM     65  S   UNL     1       9.693  14.694  11.941  1.00  0.00     0.127 S 
ATOM     66  O   UNL     1      10.348  13.842  10.949  1.00  0.00    -0.237 OA
ATOM     67  O   UNL     1      10.478  15.854  12.361  1.00  0.00    -0.237 OA
ATOM     68  O   UNL     1       9.022  13.988  13.023  1.00  0.00    -0.744 OA
ENDBRANCH  62  65
ENDBRANCH  44  58
BRANCH  45  69
ATOM     69  C   UNL     1      -3.613  13.819  11.751  1.00  0.00     0.023 A 
ATOM     70  C   UNL     1      -4.559  14.852  11.896  1.00  0.00     0.012 A 
ATOM     71  C   UNL     1      -4.046  12.480  11.806  1.00  0.00     0.148 A 
ATOM     72  C   UNL     1      -5.903  14.560  12.131  1.00  0.00     0.002 A 
ATOM     73  C   UNL     1      -5.395  12.195  11.981  1.00  0.00     0.091 A 
ATOM     74  F   UNL     1      -3.129  11.510  11.673  1.00  0.00    -0.205 F 
ATOM     75  C   UNL     1      -6.322  13.233  12.164  1.00  0.00     0.022 A 
BRANCH  73  76
ATOM     76  S   UNL     1      -6.045  10.522  11.906  1.00  0.00     0.127 S 
ATOM     77  O   UNL     1      -6.445  10.295  13.292  1.00  0.00    -0.237 OA
ATOM     78  O   UNL     1      -7.152  10.672  10.961  1.00  0.00    -0.237 OA
ATOM     79  O   UNL     1      -4.949   9.695  11.421  1.00  0.00    -0.744 OA
ENDBRANCH  73  76
ENDBRANCH  45  69
BRANCH  57  80
ATOM     80  C   UNL     1       1.222  17.051  15.613  1.00  0.00     0.023 A 
ATOM     81  C   UNL     1       1.127  16.247  16.767  1.00  0.00     0.012 A 
ATOM     82  C   UNL     1       1.352  18.447  15.752  1.00  0.00     0.148 A 
ATOM     83  C   UNL     1       1.124  16.826  18.035  1.00  0.00     0.002 A 
ATOM     84  C   UNL     1       1.402  19.012  17.020  1.00  0.00     0.091 A 
ATOM     85  F   UNL     1       1.424  19.196  14.643  1.00  0.00    -0.205 F 
ATOM     86  C   UNL     1       1.274  18.206  18.163  1.00  0.00     0.022 A 
BRANCH  84  87
ATOM     87  S   UNL     1       1.693  20.765  17.284  1.00  0.00     0.127 S 
ATOM     88  O   UNL     1       0.388  21.214  17.767  1.00  0.00    -0.237 OA
ATOM     89  O   UNL     1       2.747  20.755  18.298  1.00  0.00    -0.237 OA
ATOM     90  O   UNL     1       2.100  21.305  15.994  1.00  0.00    -0.744 OA
ENDBRANCH  84  87
ENDBRANCH  57  80
ENDBRANCH  31  32
ENDBRANCH  23  26
ENDBRANCH  21  22
ENDBRANCH   1  21
TORSDOF 15
