REMARK SMILES O=C(CN1C(=O)/C(=C2\SC(N3CCN(c4ccccc4F)CC3)=[NH+]C2=O)c2ccccc21)NCCCNC(=O)c1ccc(-c2c3nc(c(-c4cccc(S(=O)(=O)[O-])c4F)c4ccc([nH]4)c(-c4cccc(S(=O)(=O)[O-])c4F)c4nc(c(-c5cccc(S(=O)(=O)[O-])c5F)c5ccc2[nH]5)C=C4)C=C3)cc1
REMARK SMILES IDX 35 1 34 2 33 3 1 4 2 5 3 7 4 8 5 9 32 10 6 11 7 12 27 13
REMARK SMILES IDX 31 14 8 15 28 16 30 17 9 18 25 19 29 20 10 21 24 22 26 23
REMARK SMILES IDX 11 24 12 26 23 27 13 28 22 29 14 30 15 31 16 32 20 33 17 34
REMARK SMILES IDX 19 35 21 36 18 37 36 38 37 39 38 40 39 42 40 43 41 44 102 45
REMARK SMILES IDX 42 46 101 47 43 48 44 49 45 50 95 51 46 52 100 53 94 54
REMARK SMILES IDX 96 55 47 56 99 57 93 58 92 59 48 61 80 62 60 63 79 64 61 65
REMARK SMILES IDX 64 66 78 67 97 68 62 69 63 70 77 72 98 73 65 74 49 75 50 76
REMARK SMILES IDX 58 77 51 78 53 79 59 80 52 81 54 82 55 83 56 84 57 85 81 86
REMARK SMILES IDX 82 87 90 88 83 89 85 90 91 91 84 92 86 93 87 94 88 95 89 96
REMARK SMILES IDX 66 97 67 98 75 99 68 100 70 101 76 102 69 103 71 104 72 105
REMARK SMILES IDX 73 106 74 107
REMARK H PARENT 33 6 24 25 37 41 96 60 64 71
REMARK Flexibility Score: inf
ROOT
ATOM      1  C   UNL     1       2.472   0.677   3.451  1.00  0.00     0.042 C 
ENDROOT
BRANCH   1   2
ATOM      2  C   UNL     1       2.155   1.360   2.130  1.00  0.00     0.117 C 
BRANCH   2   3
ATOM      3  N   UNL     1       2.810   0.744   0.994  1.00  0.00    -0.354 N 
ATOM      4  O   UNL     1       1.026  -0.546   0.368  1.00  0.00    -0.273 OA
ATOM      5  C   UNL     1       2.125  -0.056   0.108  1.00  0.00     0.240 C 
ATOM      6  H   UNL     1       3.771   0.902   0.853  1.00  0.00     0.163 HD
BRANCH   5   7
ATOM      7  C   UNL     1       2.881  -0.456  -1.169  1.00  0.00     0.225 C 
BRANCH   7   8
ATOM      8  N   UNL     1       3.893   0.466  -1.666  1.00  0.00    -0.298 N 
ATOM      9  C   UNL     1       3.662   1.830  -1.810  1.00  0.00     0.260 C 
ATOM     10  C   UNL     1       4.968   0.070  -2.486  1.00  0.00     0.053 A 
ATOM     11  O   UNL     1       2.690   2.440  -1.405  1.00  0.00    -0.269 OA
ATOM     12  C   UNL     1       4.806   2.370  -2.644  1.00  0.00     0.071 C 
ATOM     13  C   UNL     1       5.552   1.187  -3.115  1.00  0.00     0.012 A 
ATOM     14  C   UNL     1       5.416  -1.223  -2.717  1.00  0.00     0.027 A 
ATOM     15  C   UNL     1       4.977   3.694  -2.818  1.00  0.00     0.122 C 
ATOM     16  C   UNL     1       6.637   0.997  -3.956  1.00  0.00     0.011 A 
ATOM     17  C   UNL     1       6.491  -1.405  -3.586  1.00  0.00     0.002 A 
ATOM     18  S   UNL     1       4.216   4.920  -1.853  1.00  0.00     0.007 SA
ATOM     19  C   UNL     1       5.878   4.402  -3.783  1.00  0.00     0.347 C 
ATOM     20  C   UNL     1       7.099  -0.303  -4.197  1.00  0.00     0.001 A 
ATOM     21  C   UNL     1       5.216   6.155  -2.570  1.00  0.00     0.319 C 
ATOM     22  N   UNL     1       5.963   5.756  -3.543  1.00  0.00    -0.200 N 
ATOM     23  O   UNL     1       6.425   3.864  -4.732  1.00  0.00    -0.240 OA
ATOM     24  N   UNL     1       5.141   7.437  -2.099  1.00  0.00    -0.252 N 
ATOM     25  H   UNL     1       6.538   6.362  -4.064  1.00  0.00     0.316 HD
ATOM     26  C   UNL     1       4.887   7.770  -0.685  1.00  0.00     0.258 C 
ATOM     27  C   UNL     1       5.100   8.579  -3.029  1.00  0.00     0.258 C 
ATOM     28  C   UNL     1       5.800   8.925  -0.216  1.00  0.00     0.162 C 
ATOM     29  C   UNL     1       5.939   9.775  -2.534  1.00  0.00     0.162 C 
ATOM     30  N   UNL     1       5.628  10.063  -1.127  1.00  0.00    -0.361 N 
BRANCH  30  31
ATOM     31  C   UNL     1       5.691  11.359  -0.652  1.00  0.00     0.073 A 
ATOM     32  C   UNL     1       4.788  12.311  -1.151  1.00  0.00     0.029 A 
ATOM     33  C   UNL     1       6.571  11.781   0.359  1.00  0.00     0.146 A 
ATOM     34  C   UNL     1       4.746  13.614  -0.644  1.00  0.00     0.002 A 
ATOM     35  C   UNL     1       6.549  13.084   0.858  1.00  0.00     0.041 A 
ATOM     36  F   UNL     1       7.476  10.928   0.864  1.00  0.00    -0.205 F 
ATOM     37  C   UNL     1       5.627  14.001   0.361  1.00  0.00     0.003 A 
ENDBRANCH  30  31
ENDBRANCH   7   8
ENDBRANCH   5   7
ENDBRANCH   2   3
ENDBRANCH   1   2
BRANCH   1  38
ATOM     38  C   UNL     1       3.950   0.674   3.820  1.00  0.00     0.118 C 
BRANCH  38  39
ATOM     39  N   UNL     1       4.514   2.007   3.999  1.00  0.00    -0.352 N 
ATOM     40  C   UNL     1       5.181   2.564   5.066  1.00  0.00     0.251 C 
ATOM     41  H   UNL     1       4.399   2.608   3.228  1.00  0.00     0.163 HD
ATOM     42  O   UNL     1       5.478   3.756   5.027  1.00  0.00    -0.269 OA
BRANCH  40  43
ATOM     43  C   UNL     1       5.503   1.758   6.267  1.00  0.00     0.039 A 
ATOM     44  C   UNL     1       5.951   0.442   6.159  1.00  0.00     0.014 A 
ATOM     45  C   UNL     1       5.343   2.331   7.533  1.00  0.00     0.014 A 
ATOM     46  C   UNL     1       6.041  -0.355   7.296  1.00  0.00     0.010 A 
ATOM     47  C   UNL     1       5.533   1.554   8.682  1.00  0.00     0.010 A 
ATOM     48  C   UNL     1       5.823   0.186   8.574  1.00  0.00    -0.014 A 
BRANCH  48  49
ATOM     49  C   UNL     1       5.899  -0.698   9.769  1.00  0.00     0.031 A 
ATOM     50  C   UNL     1       4.696  -0.915  10.653  1.00  0.00     0.074 A 
ATOM     51  C   UNL     1       7.048  -1.350  10.039  1.00  0.00     0.049 A 
ATOM     52  N   UNL     1       4.581  -1.683  11.707  1.00  0.00    -0.248 NA
ATOM     53  C   UNL     1       3.464  -0.180  10.319  1.00  0.00     0.031 C 
ATOM     54  C   UNL     1       8.293  -1.213   9.278  1.00  0.00     0.029 A 
ATOM     55  N   UNL     1       7.356  -2.264  11.015  1.00  0.00    -0.354 N 
ATOM     56  C   UNL     1       3.288  -1.496  12.181  1.00  0.00     0.074 A 
ATOM     57  C   UNL     1       2.654  -0.534  11.308  1.00  0.00     0.031 C 
ATOM     58  C   UNL     1       9.214  -2.042   9.789  1.00  0.00     0.029 A 
ATOM     59  C   UNL     1       8.648  -2.730  10.945  1.00  0.00     0.049 A 
ATOM     60  H   UNL     1       6.713  -2.559  11.700  1.00  0.00     0.167 HD
ATOM     61  C   UNL     1       2.676  -2.087  13.234  1.00  0.00     0.034 A 
ATOM     62  C   UNL     1       9.314  -3.603  11.725  1.00  0.00     0.034 A 
ATOM     63  C   UNL     1       3.283  -3.084  14.073  1.00  0.00     0.049 A 
ATOM     64  C   UNL     1       8.611  -4.246  12.884  1.00  0.00     0.074 A 
ATOM     65  C   UNL     1       2.711  -3.779  15.125  1.00  0.00     0.029 A 
ATOM     66  N   UNL     1       4.590  -3.527  13.962  1.00  0.00    -0.354 N 
ATOM     67  N   UNL     1       7.362  -4.119  13.257  1.00  0.00    -0.248 NA
ATOM     68  C   UNL     1       9.400  -5.162  13.721  1.00  0.00     0.031 C 
ATOM     69  C   UNL     1       3.678  -4.631  15.662  1.00  0.00     0.029 A 
ATOM     70  C   UNL     1       4.846  -4.479  14.933  1.00  0.00     0.049 A 
ATOM     71  H   UNL     1       5.239  -3.212  13.293  1.00  0.00     0.167 HD
ATOM     72  C   UNL     1       7.209  -4.946  14.362  1.00  0.00     0.074 A 
ATOM     73  C   UNL     1       8.489  -5.586  14.588  1.00  0.00     0.031 C 
ATOM     74  C   UNL     1       6.109  -5.143  15.126  1.00  0.00     0.034 A 
BRANCH  61  75
ATOM     75  C   UNL     1       1.245  -1.722  13.525  1.00  0.00     0.023 A 
ATOM     76  C   UNL     1       0.217  -2.289  12.747  1.00  0.00     0.012 A 
ATOM     77  C   UNL     1       0.916  -0.924  14.638  1.00  0.00     0.148 A 
ATOM     78  C   UNL     1      -1.120  -2.063  13.069  1.00  0.00     0.002 A 
ATOM     79  C   UNL     1      -0.419  -0.728  14.971  1.00  0.00     0.091 A 
ATOM     80  F   UNL     1       1.914  -0.391  15.358  1.00  0.00    -0.205 F 
ATOM     81  C   UNL     1      -1.437  -1.293  14.186  1.00  0.00     0.022 A 
BRANCH  79  82
ATOM     82  S   UNL     1      -0.937   0.201  16.419  1.00  0.00     0.127 S 
ATOM     83  O   UNL     1      -1.648   1.324  15.809  1.00  0.00    -0.237 OA
ATOM     84  O   UNL     1      -1.795  -0.762  17.108  1.00  0.00    -0.237 OA
ATOM     85  O   UNL     1       0.283   0.557  17.130  1.00  0.00    -0.744 OA
ENDBRANCH  79  82
ENDBRANCH  61  75
BRANCH  62  86
ATOM     86  C   UNL     1      10.725  -3.941  11.394  1.00  0.00     0.023 A 
ATOM     87  C   UNL     1      11.017  -5.187  10.808  1.00  0.00     0.012 A 
ATOM     88  C   UNL     1      11.759  -3.003  11.582  1.00  0.00     0.148 A 
ATOM     89  C   UNL     1      12.320  -5.496  10.418  1.00  0.00     0.002 A 
ATOM     90  C   UNL     1      13.046  -3.301  11.154  1.00  0.00     0.091 A 
ATOM     91  F   UNL     1      11.450  -1.826  12.143  1.00  0.00    -0.205 F 
ATOM     92  C   UNL     1      13.331  -4.551  10.580  1.00  0.00     0.022 A 
BRANCH  90  93
ATOM     93  S   UNL     1      14.390  -2.113  11.224  1.00  0.00     0.127 S 
ATOM     94  O   UNL     1      15.324  -2.774  12.133  1.00  0.00    -0.237 OA
ATOM     95  O   UNL     1      14.819  -2.067   9.826  1.00  0.00    -0.237 OA
ATOM     96  O   UNL     1      13.804  -0.877  11.721  1.00  0.00    -0.744 OA
ENDBRANCH  90  93
ENDBRANCH  62  86
BRANCH  74  97
ATOM     97  C   UNL     1       6.210  -6.092  16.287  1.00  0.00     0.023 A 
ATOM     98  C   UNL     1       6.818  -5.660  17.480  1.00  0.00     0.012 A 
ATOM     99  C   UNL     1       5.582  -7.353  16.240  1.00  0.00     0.148 A 
ATOM    100  C   UNL     1       6.804  -6.473  18.613  1.00  0.00     0.002 A 
ATOM    101  C   UNL     1       5.542  -8.142  17.382  1.00  0.00     0.091 A 
ATOM    102  F   UNL     1       5.013  -7.739  15.089  1.00  0.00    -0.205 F 
ATOM    103  C   UNL     1       6.156  -7.705  18.568  1.00  0.00     0.022 A 
BRANCH 101 104
ATOM    104  S   UNL     1       4.672  -9.713  17.447  1.00  0.00     0.127 S 
ATOM    105  O   UNL     1       5.771 -10.652  17.668  1.00  0.00    -0.237 OA
ATOM    106  O   UNL     1       3.787  -9.527  18.596  1.00  0.00    -0.237 OA
ATOM    107  O   UNL     1       3.991  -9.852  16.167  1.00  0.00    -0.744 OA
ENDBRANCH 101 104
ENDBRANCH  74  97
ENDBRANCH  48  49
ENDBRANCH  40  43
ENDBRANCH  38  39
ENDBRANCH   1  38
TORSDOF 15
