REMARK SMILES CCCCn1c(C[N@H+]2C[C@H]3C(=O)NC[C@@]3(C(=O)NCCCNC(=O)c3ccc(-c4c5nc(c(-c6cccc(S(=O)(=O)[O-])c6F)c6ccc([nH]6)c(-c6cccc(S(=O)(=O)[O-])c6F)c6nc(c(-c7cccc(S(=O)(=O)[O-])c7F)c7ccc4[nH]7)C=C6)C=C5)cc3)C2)nc2ccccc21
REMARK SMILES IDX 19 1 18 2 16 3 17 4 15 6 8 7 9 8 88 9 10 11 11 12 14 13
REMARK SMILES IDX 12 14 13 15 7 17 6 18 5 19 95 20 89 21 90 22 94 23 91 24
REMARK SMILES IDX 93 25 92 26 4 27 3 28 2 29 1 30 20 31 21 32 22 33 23 34
REMARK SMILES IDX 24 36 25 37 26 38 87 39 27 40 86 41 28 42 29 43 30 44 80 45
REMARK SMILES IDX 31 46 85 47 79 48 81 49 32 50 84 51 78 52 77 53 33 55 65 56
REMARK SMILES IDX 45 57 64 58 46 59 49 60 63 61 82 62 47 63 48 64 62 66 83 67
REMARK SMILES IDX 50 68 34 69 35 70 43 71 36 72 38 73 44 74 37 75 39 76 40 77
REMARK SMILES IDX 41 78 42 79 66 80 67 81 75 82 68 83 70 84 76 85 69 86 71 87
REMARK SMILES IDX 72 88 73 89 74 90 51 91 52 92 60 93 53 94 55 95 61 96 54 97
REMARK SMILES IDX 56 98 57 99 58 100 59 101
REMARK H PARENT 18 5 8 10 13 16 22 35 81 54 49 65
REMARK Flexibility Score: inf
ROOT
ATOM      1  C   UNL     1      -4.631  -0.225   1.204  1.00  0.00     0.117 C 
ENDROOT
BRANCH   1   2
ATOM      2  N   UNL     1      -5.440   0.593   0.298  1.00  0.00    -0.355 N 
ATOM      3  C   UNL     1      -5.182   0.999  -1.000  1.00  0.00     0.234 C 
ATOM      4  O   UNL     1      -5.909   1.882  -1.465  1.00  0.00    -0.274 OA
ATOM      5  H   UNL     1      -6.299   0.900   0.668  1.00  0.00     0.163 HD
BRANCH   3   6
ATOM      6  C   UNL     1      -4.002   0.325  -1.795  1.00  0.00     0.132 C 
ATOM      7  N   UNL     1      -1.703   0.987  -1.290  1.00  0.00    -0.327 N 
ATOM      8  C   UNL     1      -1.630   0.723  -2.719  1.00  0.00     0.277 C 
ATOM      9  C   UNL     1      -3.100   1.437  -1.162  1.00  0.00     0.282 C 
ATOM     10  H   UNL     1      -1.005   1.659  -0.971  1.00  0.00     0.348 HD
ATOM     11  C   UNL     1      -3.094   0.575  -3.116  1.00  0.00     0.156 C 
ATOM     12  C   UNL     1      -3.247  -0.620  -4.000  1.00  0.00     0.230 C 
ATOM     13  C   UNL     1      -5.121  -0.244  -2.764  1.00  0.00     0.139 C 
ATOM     14  O   UNL     1      -2.465  -1.057  -4.836  1.00  0.00    -0.275 OA
ATOM     15  N   UNL     1      -4.503  -1.069  -3.758  1.00  0.00    -0.354 N 
ATOM     16  H   UNL     1      -4.926  -1.841  -4.198  1.00  0.00     0.163 HD
BRANCH   7  17
ATOM     17  C   UNL     1      -1.386  -0.184  -0.421  1.00  0.00     0.339 C 
BRANCH  17  18
ATOM     18  C   UNL     1      -1.739  -1.550  -0.943  1.00  0.00     0.165 A 
ATOM     19  N   UNL     1      -0.847  -2.472  -1.464  1.00  0.00    -0.323 N 
ATOM     20  C   UNL     1      -1.599  -3.514  -1.995  1.00  0.00     0.068 A 
ATOM     21  N   UNL     1      -2.971  -2.021  -0.995  1.00  0.00    -0.227 NA
ATOM     22  C   UNL     1      -2.912  -3.201  -1.665  1.00  0.00     0.089 A 
ATOM     23  C   UNL     1      -1.292  -4.686  -2.702  1.00  0.00     0.028 A 
ATOM     24  C   UNL     1      -3.971  -4.043  -2.039  1.00  0.00     0.030 A 
ATOM     25  C   UNL     1      -2.362  -5.511  -3.088  1.00  0.00     0.002 A 
ATOM     26  C   UNL     1      -3.683  -5.197  -2.767  1.00  0.00     0.002 A 
BRANCH  19  27
ATOM     27  C   UNL     1       0.598  -2.484  -1.284  1.00  0.00     0.124 C 
BRANCH  27  28
ATOM     28  C   UNL     1       1.464  -1.494  -2.088  1.00  0.00     0.022 C 
BRANCH  28  29
ATOM     29  C   UNL     1       1.758  -0.095  -1.517  1.00  0.00    -0.002 C 
ATOM     30  C   UNL     1       2.186  -0.017  -0.054  1.00  0.00     0.004 C 
ENDBRANCH  28  29
ENDBRANCH  27  28
ENDBRANCH  19  27
ENDBRANCH  17  18
ENDBRANCH   7  17
ENDBRANCH   3   6
ENDBRANCH   1   2
BRANCH   1  31
ATOM     31  C   UNL     1      -3.883   0.599   2.274  1.00  0.00     0.042 C 
BRANCH  31  32
ATOM     32  C   UNL     1      -4.771   1.041   3.427  1.00  0.00     0.118 C 
BRANCH  32  33
ATOM     33  N   UNL     1      -5.262  -0.092   4.175  1.00  0.00    -0.352 N 
ATOM     34  C   UNL     1      -4.795  -0.860   5.200  1.00  0.00     0.251 C 
ATOM     35  H   UNL     1      -6.152  -0.381   3.869  1.00  0.00     0.163 HD
ATOM     36  O   UNL     1      -5.508  -1.830   5.474  1.00  0.00    -0.269 OA
BRANCH  34  37
ATOM     37  C   UNL     1      -3.534  -0.654   5.964  1.00  0.00     0.039 A 
ATOM     38  C   UNL     1      -2.578   0.346   5.764  1.00  0.00     0.014 A 
ATOM     39  C   UNL     1      -3.305  -1.605   6.978  1.00  0.00     0.014 A 
ATOM     40  C   UNL     1      -1.389   0.336   6.498  1.00  0.00     0.010 A 
ATOM     41  C   UNL     1      -2.136  -1.606   7.722  1.00  0.00     0.010 A 
ATOM     42  C   UNL     1      -1.151  -0.670   7.440  1.00  0.00    -0.014 A 
BRANCH  42  43
ATOM     43  C   UNL     1       0.098  -0.667   8.199  1.00  0.00     0.031 A 
ATOM     44  C   UNL     1       0.307   0.558   9.027  1.00  0.00     0.074 A 
ATOM     45  C   UNL     1       0.923  -1.736   8.253  1.00  0.00     0.049 A 
ATOM     46  N   UNL     1       1.222   1.464   8.890  1.00  0.00    -0.248 NA
ATOM     47  C   UNL     1      -0.714   0.889  10.035  1.00  0.00     0.031 C 
ATOM     48  C   UNL     1       0.699  -3.081   7.707  1.00  0.00     0.029 A 
ATOM     49  N   UNL     1       2.101  -1.885   8.922  1.00  0.00    -0.354 N 
ATOM     50  C   UNL     1       1.023   2.359   9.941  1.00  0.00     0.074 A 
ATOM     51  C   UNL     1      -0.266   2.055  10.505  1.00  0.00     0.031 C 
ATOM     52  C   UNL     1       1.562  -3.952   8.279  1.00  0.00     0.029 A 
ATOM     53  C   UNL     1       2.497  -3.213   9.104  1.00  0.00     0.049 A 
ATOM     54  H   UNL     1       2.628  -1.121   9.251  1.00  0.00     0.167 HD
ATOM     55  C   UNL     1       2.030   3.134  10.431  1.00  0.00     0.034 A 
ATOM     56  C   UNL     1       3.485  -3.651   9.927  1.00  0.00     0.034 A 
ATOM     57  C   UNL     1       3.160   3.174   9.549  1.00  0.00     0.049 A 
ATOM     58  C   UNL     1       4.375  -2.491  10.152  1.00  0.00     0.074 A 
ATOM     59  C   UNL     1       3.408   3.653   8.280  1.00  0.00     0.029 A 
ATOM     60  N   UNL     1       4.168   2.288   9.831  1.00  0.00    -0.354 N 
ATOM     61  N   UNL     1       5.074  -1.920   9.214  1.00  0.00    -0.248 NA
ATOM     62  C   UNL     1       4.183  -1.713  11.363  1.00  0.00     0.031 C 
ATOM     63  C   UNL     1       4.293   2.700   7.694  1.00  0.00     0.029 A 
ATOM     64  C   UNL     1       4.582   1.728   8.654  1.00  0.00     0.049 A 
ATOM     65  H   UNL     1       4.530   2.091  10.725  1.00  0.00     0.167 HD
ATOM     66  C   UNL     1       5.018  -0.570   9.525  1.00  0.00     0.074 A 
ATOM     67  C   UNL     1       4.565  -0.517  10.913  1.00  0.00     0.031 C 
ATOM     68  C   UNL     1       5.068   0.372   8.542  1.00  0.00     0.034 A 
BRANCH  55  69
ATOM     69  C   UNL     1       2.151   3.538  11.879  1.00  0.00     0.023 A 
ATOM     70  C   UNL     1       3.031   4.588  12.215  1.00  0.00     0.012 A 
ATOM     71  C   UNL     1       1.651   2.747  12.941  1.00  0.00     0.148 A 
ATOM     72  C   UNL     1       3.394   4.838  13.545  1.00  0.00     0.002 A 
ATOM     73  C   UNL     1       1.962   3.041  14.263  1.00  0.00     0.091 A 
ATOM     74  F   UNL     1       0.978   1.625  12.664  1.00  0.00    -0.205 F 
ATOM     75  C   UNL     1       2.849   4.074  14.570  1.00  0.00     0.022 A 
BRANCH  73  76
ATOM     76  S   UNL     1       1.278   2.092  15.627  1.00  0.00     0.127 S 
ATOM     77  O   UNL     1       2.451   1.353  16.083  1.00  0.00    -0.237 OA
ATOM     78  O   UNL     1       0.823   3.153  16.527  1.00  0.00    -0.237 OA
ATOM     79  O   UNL     1       0.203   1.299  15.047  1.00  0.00    -0.744 OA
ENDBRANCH  73  76
ENDBRANCH  55  69
BRANCH  56  80
ATOM     80  C   UNL     1       3.554  -4.835  10.829  1.00  0.00     0.023 A 
ATOM     81  C   UNL     1       4.775  -5.106  11.492  1.00  0.00     0.012 A 
ATOM     82  C   UNL     1       2.387  -5.456  11.322  1.00  0.00     0.148 A 
ATOM     83  C   UNL     1       4.816  -5.877  12.660  1.00  0.00     0.002 A 
ATOM     84  C   UNL     1       2.435  -6.230  12.482  1.00  0.00     0.091 A 
ATOM     85  F   UNL     1       1.218  -5.210  10.720  1.00  0.00    -0.205 F 
ATOM     86  C   UNL     1       3.642  -6.420  13.168  1.00  0.00     0.022 A 
BRANCH  84  87
ATOM     87  S   UNL     1       0.959  -6.958  13.207  1.00  0.00     0.127 S 
ATOM     88  O   UNL     1       1.415  -8.309  13.538  1.00  0.00    -0.237 OA
ATOM     89  O   UNL     1       0.728  -6.091  14.359  1.00  0.00    -0.237 OA
ATOM     90  O   UNL     1      -0.056  -6.911  12.162  1.00  0.00    -0.744 OA
ENDBRANCH  84  87
ENDBRANCH  56  80
BRANCH  68  91
ATOM     91  C   UNL     1       5.457  -0.084   7.160  1.00  0.00     0.023 A 
ATOM     92  C   UNL     1       4.598  -0.842   6.336  1.00  0.00     0.012 A 
ATOM     93  C   UNL     1       6.653   0.417   6.625  1.00  0.00     0.148 A 
ATOM     94  C   UNL     1       4.930  -1.092   5.000  1.00  0.00     0.002 A 
ATOM     95  C   UNL     1       6.962   0.197   5.290  1.00  0.00     0.091 A 
ATOM     96  F   UNL     1       7.445   1.142   7.428  1.00  0.00    -0.205 F 
ATOM     97  C   UNL     1       6.106  -0.560   4.473  1.00  0.00     0.022 A 
BRANCH  95  98
ATOM     98  S   UNL     1       8.405   0.935   4.524  1.00  0.00     0.127 S 
ATOM     99  O   UNL     1       9.208  -0.240   4.191  1.00  0.00    -0.237 OA
ATOM    100  O   UNL     1       7.821   1.624   3.372  1.00  0.00    -0.237 OA
ATOM    101  O   UNL     1       8.989   1.821   5.522  1.00  0.00    -0.744 OA
ENDBRANCH  95  98
ENDBRANCH  68  91
ENDBRANCH  42  43
ENDBRANCH  34  37
ENDBRANCH  32  33
ENDBRANCH  31  32
ENDBRANCH   1  31
TORSDOF 18
