REMARK SMILES O=C(NCCCNC(=O)[C@@H]1CCCCC[C@H]1NC(=O)N1CCS(=O)(=O)CC1)c1ccc(-c2c3nc(c(-c4cccc(S(=O)(=O)[O-])c4F)c4ccc([nH]4)c(-c4cccc(S(=O)(=O)[O-])c4F)c4nc(c(-c5cccc(S(=O)(=O)[O-])c5F)c5ccc2[nH]5)C=C4)C=C3)cc1
REMARK SMILES IDX 5 1 4 2 3 3 1 4 2 5 28 7 29 8 90 9 30 10 89 11 31 12 32 13
REMARK SMILES IDX 33 14 83 15 34 16 88 17 82 18 84 19 35 20 87 21 81 22 80 23
REMARK SMILES IDX 36 25 68 26 48 27 67 28 49 29 52 30 66 31 85 32 50 33 51 34
REMARK SMILES IDX 65 36 86 37 53 38 37 39 38 40 46 41 39 42 41 43 47 44 40 45
REMARK SMILES IDX 42 46 43 47 44 48 45 49 69 50 70 51 78 52 71 53 73 54 79 55
REMARK SMILES IDX 72 56 74 57 75 58 76 59 77 60 54 61 55 62 63 63 56 64 58 65
REMARK SMILES IDX 64 66 57 67 59 68 60 69 61 70 62 71 6 72 7 73 8 74 9 76
REMARK SMILES IDX 10 77 11 78 12 79 13 80 16 82 15 83 14 84 17 86 18 87 19 89
REMARK SMILES IDX 20 90 21 91 27 92 22 93 26 94 23 95 24 96 25 97
REMARK H PARENT 3 6 84 24 52 35 7 75 17 88
REMARK Flexibility Score: 90.00
ROOT
ATOM      1  C   UNL     1       4.797   0.885   2.096  1.00  0.00     0.042 C 
ENDROOT
BRANCH   1   2
ATOM      2  C   UNL     1       4.411  -0.371   1.332  1.00  0.00     0.118 C 
BRANCH   2   3
ATOM      3  N   UNL     1       2.991  -0.411   1.014  1.00  0.00    -0.352 N 
ATOM      4  O   UNL     1       1.101   0.033  -0.108  1.00  0.00    -0.269 OA
ATOM      5  C   UNL     1       2.322  -0.099  -0.146  1.00  0.00     0.251 C 
ATOM      6  H   UNL     1       2.414  -0.712   1.752  1.00  0.00     0.163 HD
BRANCH   5   7
ATOM      7  C   UNL     1       3.055   0.100  -1.417  1.00  0.00     0.039 A 
ATOM      8  C   UNL     1       4.151  -0.698  -1.744  1.00  0.00     0.014 A 
ATOM      9  C   UNL     1       2.611   1.065  -2.327  1.00  0.00     0.014 A 
ATOM     10  C   UNL     1       4.907  -0.416  -2.874  1.00  0.00     0.010 A 
ATOM     11  C   UNL     1       3.300   1.264  -3.529  1.00  0.00     0.010 A 
ATOM     12  C   UNL     1       4.474   0.545  -3.799  1.00  0.00    -0.014 A 
BRANCH  12  13
ATOM     13  C   UNL     1       5.212   0.694  -5.080  1.00  0.00     0.031 A 
ATOM     14  C   UNL     1       5.853   1.995  -5.474  1.00  0.00     0.074 A 
ATOM     15  C   UNL     1       5.299  -0.377  -5.896  1.00  0.00     0.049 A 
ATOM     16  N   UNL     1       6.546   2.275  -6.547  1.00  0.00    -0.248 NA
ATOM     17  C   UNL     1       5.690   3.133  -4.555  1.00  0.00     0.031 C 
ATOM     18  C   UNL     1       4.671  -1.678  -5.643  1.00  0.00     0.029 A 
ATOM     19  N   UNL     1       5.940  -0.549  -7.095  1.00  0.00    -0.354 N 
ATOM     20  C   UNL     1       6.864   3.625  -6.460  1.00  0.00     0.074 A 
ATOM     21  C   UNL     1       6.283   4.112  -5.226  1.00  0.00     0.031 C 
ATOM     22  C   UNL     1       4.982  -2.520  -6.637  1.00  0.00     0.029 A 
ATOM     23  C   UNL     1       5.770  -1.804  -7.631  1.00  0.00     0.049 A 
ATOM     24  H   UNL     1       6.471   0.157  -7.530  1.00  0.00     0.167 HD
ATOM     25  C   UNL     1       7.582   4.384  -7.322  1.00  0.00     0.034 A 
ATOM     26  C   UNL     1       6.174  -2.319  -8.807  1.00  0.00     0.034 A 
ATOM     27  C   UNL     1       8.179   3.882  -8.533  1.00  0.00     0.049 A 
ATOM     28  C   UNL     1       6.987  -1.462  -9.731  1.00  0.00     0.074 A 
ATOM     29  C   UNL     1       8.986   4.554  -9.436  1.00  0.00     0.029 A 
ATOM     30  N   UNL     1       8.024   2.594  -9.021  1.00  0.00    -0.354 N 
ATOM     31  N   UNL     1       7.389  -0.226  -9.563  1.00  0.00    -0.248 NA
ATOM     32  C   UNL     1       7.423  -2.074 -10.992  1.00  0.00     0.031 C 
ATOM     33  C   UNL     1       9.292   3.680 -10.485  1.00  0.00     0.029 A 
ATOM     34  C   UNL     1       8.704   2.454 -10.220  1.00  0.00     0.049 A 
ATOM     35  H   UNL     1       7.505   1.882  -8.580  1.00  0.00     0.167 HD
ATOM     36  C   UNL     1       8.145   0.082 -10.686  1.00  0.00     0.074 A 
ATOM     37  C   UNL     1       8.168  -1.108 -11.513  1.00  0.00     0.031 C 
ATOM     38  C   UNL     1       8.751   1.250 -11.012  1.00  0.00     0.034 A 
BRANCH  25  39
ATOM     39  C   UNL     1       7.785   5.838  -6.981  1.00  0.00     0.023 A 
ATOM     40  C   UNL     1       8.657   6.197  -5.932  1.00  0.00     0.012 A 
ATOM     41  C   UNL     1       7.165   6.852  -7.738  1.00  0.00     0.148 A 
ATOM     42  C   UNL     1       8.882   7.538  -5.621  1.00  0.00     0.002 A 
ATOM     43  C   UNL     1       7.427   8.187  -7.449  1.00  0.00     0.091 A 
ATOM     44  F   UNL     1       6.324   6.495  -8.718  1.00  0.00    -0.205 F 
ATOM     45  C   UNL     1       8.276   8.531  -6.385  1.00  0.00     0.022 A 
BRANCH  43  46
ATOM     46  S   UNL     1       6.756   9.539  -8.425  1.00  0.00     0.127 S 
ATOM     47  O   UNL     1       5.759  10.094  -7.510  1.00  0.00    -0.237 OA
ATOM     48  O   UNL     1       7.932  10.385  -8.630  1.00  0.00    -0.237 OA
ATOM     49  O   UNL     1       6.226   8.933  -9.638  1.00  0.00    -0.744 OA
ENDBRANCH  43  46
ENDBRANCH  25  39
BRANCH  26  50
ATOM     50  C   UNL     1       5.827  -3.726  -9.150  1.00  0.00     0.023 A 
ATOM     51  C   UNL     1       6.837  -4.705  -9.191  1.00  0.00     0.012 A 
ATOM     52  C   UNL     1       4.489  -4.107  -9.376  1.00  0.00     0.148 A 
ATOM     53  C   UNL     1       6.523  -6.036  -9.473  1.00  0.00     0.002 A 
ATOM     54  C   UNL     1       4.176  -5.443  -9.593  1.00  0.00     0.091 A 
ATOM     55  F   UNL     1       3.545  -3.156  -9.344  1.00  0.00    -0.205 F 
ATOM     56  C   UNL     1       5.194  -6.406  -9.660  1.00  0.00     0.022 A 
BRANCH  54  57
ATOM     57  S   UNL     1       2.481  -6.026  -9.692  1.00  0.00     0.127 S 
ATOM     58  O   UNL     1       2.359  -6.351 -11.110  1.00  0.00    -0.237 OA
ATOM     59  O   UNL     1       2.505  -7.181  -8.793  1.00  0.00    -0.237 OA
ATOM     60  O   UNL     1       1.658  -4.920  -9.221  1.00  0.00    -0.744 OA
ENDBRANCH  54  57
ENDBRANCH  26  50
BRANCH  38  61
ATOM     61  C   UNL     1       9.516   1.293 -12.308  1.00  0.00     0.023 A 
ATOM     62  C   UNL     1       8.820   1.304 -13.533  1.00  0.00     0.012 A 
ATOM     63  C   UNL     1      10.921   1.382 -12.308  1.00  0.00     0.148 A 
ATOM     64  C   UNL     1       9.514   1.370 -14.741  1.00  0.00     0.002 A 
ATOM     65  C   UNL     1      11.603   1.499 -13.513  1.00  0.00     0.091 A 
ATOM     66  F   UNL     1      11.565   1.348 -11.132  1.00  0.00    -0.205 F 
ATOM     67  C   UNL     1      10.903   1.479 -14.730  1.00  0.00     0.022 A 
BRANCH  65  68
ATOM     68  S   UNL     1      13.381   1.740 -13.592  1.00  0.00     0.127 S 
ATOM     69  O   UNL     1      13.836   0.444 -14.092  1.00  0.00    -0.237 OA
ATOM     70  O   UNL     1      13.502   2.840 -14.550  1.00  0.00    -0.237 OA
ATOM     71  O   UNL     1      13.802   2.070 -12.237  1.00  0.00    -0.744 OA
ENDBRANCH  65  68
ENDBRANCH  38  61
ENDBRANCH  12  13
ENDBRANCH   5   7
ENDBRANCH   2   3
ENDBRANCH   1   2
BRANCH   1  72
ATOM     72  C   UNL     1       4.232   0.933   3.509  1.00  0.00     0.117 C 
BRANCH  72  73
ATOM     73  N   UNL     1       4.848  -0.056   4.377  1.00  0.00    -0.356 N 
ATOM     74  C   UNL     1       5.706   0.043   5.422  1.00  0.00     0.225 C 
ATOM     75  H   UNL     1       4.591  -0.983   4.164  1.00  0.00     0.163 HD
ATOM     76  O   UNL     1       6.087  -1.018   5.929  1.00  0.00    -0.275 OA
BRANCH  74  77
ATOM     77  C   UNL     1       6.260   1.371   5.945  1.00  0.00     0.101 C 
BRANCH  77  78
ATOM     78  C   UNL     1       5.155   2.310   6.442  1.00  0.00     0.015 C 
BRANCH  78  79
ATOM     79  C   UNL     1       5.544   3.764   6.659  1.00  0.00     0.001 C 
BRANCH  79  80
ATOM     80  C   UNL     1       5.614   4.574   5.371  1.00  0.00     0.000 CG0
ATOM     81  G   UNL     1       6.902   4.394   4.585  1.00  0.00     0.000 G0
ENDBRANCH  79  80
ENDBRANCH  78  79
ENDBRANCH  77  78
BRANCH  77  82
ATOM     82  C   UNL     1       7.406   1.873   5.032  1.00  0.00     0.096 C 
BRANCH  82  83
ATOM     83  C   UNL     1       7.117   2.993   4.028  1.00  0.00     0.026 C 
BRANCH  83  84
ATOM     84  C   UNL     1       6.902   4.394   4.585  1.00  0.00     0.002 CG0
ATOM     85  G   UNL     1       5.614   4.574   5.371  1.00  0.00     0.000 G0
ENDBRANCH  83  84
ENDBRANCH  82  83
BRANCH  82  86
ATOM     86  N   UNL     1       8.581   2.253   5.838  1.00  0.00    -0.334 N 
ATOM     87  C   UNL     1       9.632   1.553   6.311  1.00  0.00     0.317 C 
ATOM     88  H   UNL     1       8.602   3.208   6.080  1.00  0.00     0.165 HD
ATOM     89  O   UNL     1      10.133   1.964   7.359  1.00  0.00    -0.249 OA
ATOM     90  N   UNL     1      10.081   0.429   5.677  1.00  0.00    -0.323 N 
ATOM     91  C   UNL     1      10.038   0.169   4.235  1.00  0.00     0.137 C 
ATOM     92  C   UNL     1      10.915  -0.504   6.438  1.00  0.00     0.137 C 
ATOM     93  C   UNL     1       9.341  -1.142   3.928  1.00  0.00     0.158 C 
ATOM     94  C   UNL     1      10.293  -1.884   6.438  1.00  0.00     0.158 C 
ATOM     95  S   UNL     1      10.161  -2.479   4.770  1.00  0.00     0.153 S 
ATOM     96  O   UNL     1       9.269  -3.624   4.773  1.00  0.00    -0.229 OA
ATOM     97  O   UNL     1      11.501  -2.602   4.230  1.00  0.00    -0.229 OA
ENDBRANCH  82  86
ENDBRANCH  77  82
ENDBRANCH  74  77
ENDBRANCH  72  73
ENDBRANCH   1  72
TORSDOF 14
