REMARK SMILES Cc1c(Br)c(C)c2c(c1Br)O[C@H](C(F)(F)F)C(C(=O)NCCCNC(=O)c1ccc(-c3c4nc(c(-c5cccc(S(=O)(=O)[O-])c5F)c5ccc([nH]5)c(-c5cccc(S(=O)(=O)[O-])c5F)c5nc(c(-c6cccc(S(=O)(=O)[O-])c6F)c6ccc3[nH]6)C=C5)C=C4)cc1)=C2
REMARK SMILES IDX 23 1 22 2 21 3 20 4 18 5 19 6 17 8 1 9 2 10 3 11 9 12 4 13
REMARK SMILES IDX 5 14 8 15 10 16 6 17 7 18 11 19 90 20 12 21 13 22 14 23
REMARK SMILES IDX 15 24 16 25 24 26 25 27 26 29 27 30 28 31 89 32 29 33 88 34
REMARK SMILES IDX 30 35 31 36 32 37 82 38 33 39 87 40 81 41 83 42 34 43 86 44
REMARK SMILES IDX 80 45 79 46 35 48 67 49 47 50 66 51 48 52 51 53 65 54 84 55
REMARK SMILES IDX 49 56 50 57 64 59 85 60 52 61 36 62 37 63 45 64 38 65 40 66
REMARK SMILES IDX 46 67 39 68 41 69 42 70 43 71 44 72 68 73 69 74 77 75 70 76
REMARK SMILES IDX 72 77 78 78 71 79 73 80 74 81 75 82 76 83 53 84 54 85 62 86
REMARK SMILES IDX 55 87 57 88 63 89 56 90 58 91 59 92 60 93 61 94
REMARK H PARENT 20 7 24 28 83 47 51 58
REMARK Flexibility Score: inf
ROOT
ATOM      1  C   UNL     1       0.296 -11.024  -0.067  1.00  0.00     0.118 C 
ENDROOT
BRANCH   1   2
ATOM      2  C   UNL     1       0.758  -9.610   0.262  1.00  0.00     0.042 C 
BRANCH   2   3
ATOM      3  C   UNL     1       1.334  -8.900  -0.954  1.00  0.00     0.118 C 
BRANCH   3   4
ATOM      4  N   UNL     1       0.290  -8.450  -1.864  1.00  0.00    -0.352 N 
ATOM      5  C   UNL     1      -0.283  -7.277  -2.216  1.00  0.00     0.251 C 
ATOM      6  O   UNL     1      -1.173  -7.361  -3.069  1.00  0.00    -0.270 OA
ATOM      7  H   UNL     1      -0.105  -9.204  -2.358  1.00  0.00     0.163 HD
BRANCH   5   8
ATOM      8  C   UNL     1       0.094  -5.940  -1.673  1.00  0.00     0.067 C 
ATOM      9  C   UNL     1       0.834   0.383  -0.142  1.00  0.00     0.047 C 
ATOM     10  C   UNL     1       0.415  -0.959  -0.695  1.00  0.00    -0.019 A 
ATOM     11  C   UNL     1      -0.524  -1.102  -1.747  1.00  0.00     0.025 A 
ATOM     12  C   UNL     1       0.952  -2.129  -0.122  1.00  0.00     0.064 A 
ATOM     13  Br  UNL     1      -1.338   0.469  -2.493  1.00  0.00    -0.050 Br
ATOM     14  C   UNL     1      -0.890  -2.382  -2.247  1.00  0.00    -0.026 A 
ATOM     15  C   UNL     1       0.597  -3.395  -0.607  1.00  0.00     0.142 A 
ATOM     16  Br  UNL     1       2.197  -2.035   1.333  1.00  0.00    -0.046 Br
ATOM     17  C   UNL     1      -1.878  -2.563  -3.380  1.00  0.00     0.046 C 
ATOM     18  C   UNL     1      -0.314  -3.535  -1.660  1.00  0.00     0.022 A 
ATOM     19  O   UNL     1       1.136  -4.486   0.024  1.00  0.00    -0.474 OA
ATOM     20  C   UNL     1      -0.653  -4.900  -2.088  1.00  0.00     0.026 C 
ATOM     21  C   UNL     1       1.247  -5.702  -0.751  1.00  0.00     0.314 C 
BRANCH  21  22
ATOM     22  C   UNL     1       2.607  -5.739  -1.474  1.00  0.00     0.429 C 
ATOM     23  F   UNL     1       3.621  -5.883  -0.586  1.00  0.00    -0.167 F 
ATOM     24  F   UNL     1       2.707  -6.775  -2.341  1.00  0.00    -0.167 F 
ATOM     25  F   UNL     1       2.848  -4.614  -2.186  1.00  0.00    -0.167 F 
ENDBRANCH  21  22
ENDBRANCH   5   8
ENDBRANCH   3   4
ENDBRANCH   2   3
ENDBRANCH   1   2
BRANCH   1  26
ATOM     26  N   UNL     1       1.414 -11.882  -0.452  1.00  0.00    -0.352 N 
ATOM     27  C   UNL     1       2.099 -12.820   0.280  1.00  0.00     0.251 C 
ATOM     28  H   UNL     1       1.724 -11.771  -1.380  1.00  0.00     0.163 HD
ATOM     29  O   UNL     1       3.190 -13.226  -0.118  1.00  0.00    -0.269 OA
BRANCH  27  30
ATOM     30  C   UNL     1       1.527 -13.336   1.537  1.00  0.00     0.039 A 
ATOM     31  C   UNL     1       2.358 -13.555   2.638  1.00  0.00     0.014 A 
ATOM     32  C   UNL     1       0.164 -13.629   1.616  1.00  0.00     0.014 A 
ATOM     33  C   UNL     1       1.806 -14.011   3.836  1.00  0.00     0.010 A 
ATOM     34  C   UNL     1      -0.399 -13.977   2.835  1.00  0.00     0.010 A 
ATOM     35  C   UNL     1       0.418 -14.197   3.951  1.00  0.00    -0.014 A 
BRANCH  35  36
ATOM     36  C   UNL     1      -0.201 -14.655   5.217  1.00  0.00     0.031 A 
ATOM     37  C   UNL     1      -0.935 -15.968   5.262  1.00  0.00     0.074 A 
ATOM     38  C   UNL     1      -0.158 -13.861   6.304  1.00  0.00     0.049 A 
ATOM     39  N   UNL     1      -1.554 -16.531   6.266  1.00  0.00    -0.248 NA
ATOM     40  C   UNL     1      -1.010 -16.736   4.007  1.00  0.00     0.031 C 
ATOM     41  C   UNL     1       0.459 -12.535   6.356  1.00  0.00     0.029 A 
ATOM     42  N   UNL     1      -0.647 -14.050   7.571  1.00  0.00    -0.354 N 
ATOM     43  C   UNL     1      -2.103 -17.703   5.760  1.00  0.00     0.074 A 
ATOM     44  C   UNL     1      -1.809 -17.736   4.346  1.00  0.00     0.031 C 
ATOM     45  C   UNL     1       0.349 -12.048   7.601  1.00  0.00     0.029 A 
ATOM     46  C   UNL     1      -0.370 -13.011   8.429  1.00  0.00     0.049 A 
ATOM     47  H   UNL     1      -1.149 -14.853   7.841  1.00  0.00     0.167 HD
ATOM     48  C   UNL     1      -2.744 -18.694   6.422  1.00  0.00     0.034 A 
ATOM     49  C   UNL     1      -0.648 -12.864   9.739  1.00  0.00     0.034 A 
ATOM     50  C   UNL     1      -2.991 -18.674   7.836  1.00  0.00     0.049 A 
ATOM     51  C   UNL     1      -1.363 -13.976  10.459  1.00  0.00     0.074 A 
ATOM     52  C   UNL     1      -3.572 -19.652   8.621  1.00  0.00     0.029 A 
ATOM     53  N   UNL     1      -2.669 -17.620   8.678  1.00  0.00    -0.354 N 
ATOM     54  N   UNL     1      -1.749 -15.141   9.996  1.00  0.00    -0.248 NA
ATOM     55  C   UNL     1      -1.659 -13.766  11.883  1.00  0.00     0.031 C 
ATOM     56  C   UNL     1      -3.617 -19.181   9.937  1.00  0.00     0.029 A 
ATOM     57  C   UNL     1      -3.050 -17.916   9.974  1.00  0.00     0.049 A 
ATOM     58  H   UNL     1      -2.234 -16.784   8.395  1.00  0.00     0.167 HD
ATOM     59  C   UNL     1      -2.314 -15.813  11.074  1.00  0.00     0.074 A 
ATOM     60  C   UNL     1      -2.199 -14.932  12.219  1.00  0.00     0.031 C 
ATOM     61  C   UNL     1      -2.890 -17.040  11.109  1.00  0.00     0.034 A 
BRANCH  48  62
ATOM     62  C   UNL     1      -3.139 -19.914   5.630  1.00  0.00     0.023 A 
ATOM     63  C   UNL     1      -2.129 -20.775   5.149  1.00  0.00     0.012 A 
ATOM     64  C   UNL     1      -4.488 -20.230   5.383  1.00  0.00     0.148 A 
ATOM     65  C   UNL     1      -2.451 -21.902   4.397  1.00  0.00     0.002 A 
ATOM     66  C   UNL     1      -4.804 -21.383   4.671  1.00  0.00     0.091 A 
ATOM     67  F   UNL     1      -5.435 -19.390   5.825  1.00  0.00    -0.205 F 
ATOM     68  C   UNL     1      -3.788 -22.211   4.166  1.00  0.00     0.022 A 
BRANCH  66  69
ATOM     69  S   UNL     1      -6.497 -21.913   4.388  1.00  0.00     0.127 S 
ATOM     70  O   UNL     1      -6.664 -21.616   2.966  1.00  0.00    -0.237 OA
ATOM     71  O   UNL     1      -6.432 -23.339   4.708  1.00  0.00    -0.237 OA
ATOM     72  O   UNL     1      -7.319 -21.125   5.295  1.00  0.00    -0.744 OA
ENDBRANCH  66  69
ENDBRANCH  48  62
BRANCH  49  73
ATOM     73  C   UNL     1      -0.135 -11.668  10.465  1.00  0.00     0.023 A 
ATOM     74  C   UNL     1       0.939 -11.829  11.363  1.00  0.00     0.012 A 
ATOM     75  C   UNL     1      -0.628 -10.373  10.210  1.00  0.00     0.148 A 
ATOM     76  C   UNL     1       1.507 -10.725  11.999  1.00  0.00     0.002 A 
ATOM     77  C   UNL     1      -0.024  -9.272  10.808  1.00  0.00     0.091 A 
ATOM     78  F   UNL     1      -1.651 -10.243   9.354  1.00  0.00    -0.205 F 
ATOM     79  C   UNL     1       1.035  -9.447  11.713  1.00  0.00     0.022 A 
BRANCH  77  80
ATOM     80  S   UNL     1      -0.469  -7.579  10.402  1.00  0.00     0.127 S 
ATOM     81  O   UNL     1      -0.967  -7.085  11.683  1.00  0.00    -0.237 OA
ATOM     82  O   UNL     1       0.820  -7.025   9.986  1.00  0.00    -0.237 OA
ATOM     83  O   UNL     1      -1.459  -7.673   9.339  1.00  0.00    -0.744 OA
ENDBRANCH  77  80
ENDBRANCH  49  73
BRANCH  61  84
ATOM     84  C   UNL     1      -3.460 -17.518  12.418  1.00  0.00     0.023 A 
ATOM     85  C   UNL     1      -4.678 -16.978  12.875  1.00  0.00     0.012 A 
ATOM     86  C   UNL     1      -2.874 -18.596  13.112  1.00  0.00     0.148 A 
ATOM     87  C   UNL     1      -5.301 -17.498  14.009  1.00  0.00     0.002 A 
ATOM     88  C   UNL     1      -3.526 -19.141  14.211  1.00  0.00     0.091 A 
ATOM     89  F   UNL     1      -1.709 -19.086  12.663  1.00  0.00    -0.205 F 
ATOM     90  C   UNL     1      -4.734 -18.588  14.666  1.00  0.00     0.022 A 
BRANCH  88  91
ATOM     91  S   UNL     1      -2.935 -20.610  15.060  1.00  0.00     0.127 S 
ATOM     92  O   UNL     1      -2.585 -20.074  16.375  1.00  0.00    -0.237 OA
ATOM     93  O   UNL     1      -4.119 -21.470  15.046  1.00  0.00    -0.237 OA
ATOM     94  O   UNL     1      -1.812 -21.107  14.276  1.00  0.00    -0.744 OA
ENDBRANCH  88  91
ENDBRANCH  61  84
ENDBRANCH  35  36
ENDBRANCH  27  30
ENDBRANCH   1  26
TORSDOF 14
