REMARK SMILES CCCC[C@H](CC)Cn1ccc(C(=O)NCCCNC(=O)c2ccc(-c3c4nc(c(-c5cccc(S(=O)(=O)[O-])c5F)c5ccc([nH]5)c(-c5cccc(S(=O)(=O)[O-])c5F)c5nc(c(-c6cccc(S(=O)(=O)[O-])c6F)c6ccc3[nH]6)C=C5)C=C4)cc2)c1
REMARK SMILES IDX 16 1 15 2 13 3 14 4 12 6 9 7 10 8 85 9 11 10 8 11 5 12 4 13
REMARK SMILES IDX 3 14 2 15 1 16 6 17 7 18 17 19 18 20 19 21 20 22 21 24 22 25
REMARK SMILES IDX 23 26 84 27 24 28 83 29 25 30 26 31 27 32 77 33 28 34 82 35
REMARK SMILES IDX 76 36 78 37 29 38 81 39 75 40 74 41 30 43 62 44 42 45 61 46
REMARK SMILES IDX 43 47 46 48 60 49 79 50 44 51 45 52 59 54 80 55 47 56 31 57
REMARK SMILES IDX 32 58 40 59 33 60 35 61 41 62 34 63 36 64 37 65 38 66 39 67
REMARK SMILES IDX 63 68 64 69 72 70 65 71 67 72 73 73 66 74 68 75 69 76 70 77
REMARK SMILES IDX 71 78 48 79 49 80 57 81 50 82 52 83 58 84 51 85 53 86 54 87
REMARK SMILES IDX 55 88 56 89
REMARK H PARENT 15 5 19 23 78 42 46 53
REMARK Flexibility Score: inf
ROOT
ATOM      1  C   UNL     1       1.726  -0.338   6.544  1.00  0.00     0.118 C 
ENDROOT
BRANCH   1   2
ATOM      2  N   UNL     1       1.435   1.084   6.496  1.00  0.00    -0.352 N 
ATOM      3  C   UNL     1       0.452   1.826   5.873  1.00  0.00     0.252 C 
ATOM      4  O   UNL     1       0.464   3.037   6.035  1.00  0.00    -0.269 OA
ATOM      5  H   UNL     1       2.069   1.631   7.014  1.00  0.00     0.163 HD
BRANCH   3   6
ATOM      6  C   UNL     1      -0.524   1.197   4.983  1.00  0.00     0.057 A 
ATOM      7  N   UNL     1      -1.610  -0.318   3.778  1.00  0.00    -0.353 N 
ATOM      8  C   UNL     1      -1.845   0.873   3.152  1.00  0.00     0.086 A 
ATOM      9  C   UNL     1      -1.075  -0.072   5.018  1.00  0.00     0.099 A 
ATOM     10  C   UNL     1      -1.154   1.834   3.863  1.00  0.00     0.033 A 
BRANCH   7  11
ATOM     11  C   UNL     1      -1.779  -1.645   3.215  1.00  0.00     0.125 C 
BRANCH  11  12
ATOM     12  C   UNL     1      -1.048  -1.916   1.869  1.00  0.00     0.008 C 
BRANCH  12  13
ATOM     13  C   UNL     1      -1.513  -3.314   1.364  1.00  0.00     0.005 C 
BRANCH  13  14
ATOM     14  C   UNL     1      -1.088  -3.753  -0.048  1.00  0.00     0.000 C 
BRANCH  14  15
ATOM     15  C   UNL     1       0.378  -4.122  -0.308  1.00  0.00    -0.003 C 
ATOM     16  C   UNL     1       0.961  -5.182   0.616  1.00  0.00     0.004 C 
ENDBRANCH  14  15
ENDBRANCH  13  14
ENDBRANCH  12  13
BRANCH  12  17
ATOM     17  C   UNL     1       0.497  -1.848   1.877  1.00  0.00     0.002 C 
ATOM     18  C   UNL     1       1.230  -0.952   2.844  1.00  0.00     0.004 C 
ENDBRANCH  12  17
ENDBRANCH  11  12
ENDBRANCH   7  11
ENDBRANCH   3   6
ENDBRANCH   1   2
BRANCH   1  19
ATOM     19  C   UNL     1       3.029  -0.742   5.848  1.00  0.00     0.042 C 
BRANCH  19  20
ATOM     20  C   UNL     1       4.263  -0.458   6.689  1.00  0.00     0.118 C 
BRANCH  20  21
ATOM     21  N   UNL     1       4.277  -1.259   7.908  1.00  0.00    -0.352 N 
ATOM     22  C   UNL     1       5.231  -1.329   8.892  1.00  0.00     0.251 C 
ATOM     23  H   UNL     1       3.488  -1.832   8.045  1.00  0.00     0.163 HD
ATOM     24  O   UNL     1       5.176  -2.246   9.710  1.00  0.00    -0.269 OA
BRANCH  22  25
ATOM     25  C   UNL     1       6.333  -0.348   8.950  1.00  0.00     0.039 A 
ATOM     26  C   UNL     1       7.608  -0.813   9.294  1.00  0.00     0.014 A 
ATOM     27  C   UNL     1       6.120   1.012   8.701  1.00  0.00     0.014 A 
ATOM     28  C   UNL     1       8.677   0.074   9.319  1.00  0.00     0.010 A 
ATOM     29  C   UNL     1       7.192   1.888   8.664  1.00  0.00     0.010 A 
ATOM     30  C   UNL     1       8.469   1.417   8.973  1.00  0.00    -0.014 A 
BRANCH  30  31
ATOM     31  C   UNL     1       9.639   2.303   8.807  1.00  0.00     0.031 A 
ATOM     32  C   UNL     1      10.412   1.947   7.506  1.00  0.00     0.074 A 
ATOM     33  C   UNL     1       9.833   3.214   9.811  1.00  0.00     0.049 A 
ATOM     34  N   UNL     1      11.690   1.865   7.261  1.00  0.00    -0.248 NA
ATOM     35  C   UNL     1       9.621   1.457   6.340  1.00  0.00     0.031 C 
ATOM     36  C   UNL     1       8.914   3.445  10.957  1.00  0.00     0.029 A 
ATOM     37  N   UNL     1      10.817   4.135  10.088  1.00  0.00    -0.354 N 
ATOM     38  C   UNL     1      11.836   1.531   5.884  1.00  0.00     0.074 A 
ATOM     39  C   UNL     1      10.540   1.144   5.423  1.00  0.00     0.031 C 
ATOM     40  C   UNL     1       9.418   4.359  11.816  1.00  0.00     0.029 A 
ATOM     41  C   UNL     1      10.711   4.800  11.337  1.00  0.00     0.049 A 
ATOM     42  H   UNL     1      11.550   4.321   9.457  1.00  0.00     0.167 HD
ATOM     43  C   UNL     1      12.984   1.746   5.170  1.00  0.00     0.034 A 
ATOM     44  C   UNL     1      11.645   5.577  11.973  1.00  0.00     0.034 A 
ATOM     45  C   UNL     1      13.937   2.395   6.005  1.00  0.00     0.049 A 
ATOM     46  C   UNL     1      12.790   5.577  11.055  1.00  0.00     0.074 A 
ATOM     47  C   UNL     1      14.918   2.002   6.871  1.00  0.00     0.029 A 
ATOM     48  N   UNL     1      13.774   3.753   6.099  1.00  0.00    -0.354 N 
ATOM     49  N   UNL     1      12.852   6.231   9.936  1.00  0.00    -0.248 NA
ATOM     50  C   UNL     1      13.866   4.620  11.317  1.00  0.00     0.031 C 
ATOM     51  C   UNL     1      15.132   3.127   7.702  1.00  0.00     0.029 A 
ATOM     52  C   UNL     1      14.256   4.146   7.319  1.00  0.00     0.049 A 
ATOM     53  H   UNL     1      13.380   4.340   5.413  1.00  0.00     0.167 HD
ATOM     54  C   UNL     1      13.794   5.528   9.224  1.00  0.00     0.074 A 
ATOM     55  C   UNL     1      14.547   4.755  10.187  1.00  0.00     0.031 C 
ATOM     56  C   UNL     1      13.647   5.317   7.894  1.00  0.00     0.034 A 
BRANCH  43  57
ATOM     57  C   UNL     1      13.356   1.720   3.690  1.00  0.00     0.023 A 
ATOM     58  C   UNL     1      14.759   1.737   3.417  1.00  0.00     0.012 A 
ATOM     59  C   UNL     1      12.502   1.991   2.607  1.00  0.00     0.148 A 
ATOM     60  C   UNL     1      15.292   2.152   2.197  1.00  0.00     0.002 A 
ATOM     61  C   UNL     1      13.043   2.352   1.362  1.00  0.00     0.091 A 
ATOM     62  F   UNL     1      11.179   1.974   2.793  1.00  0.00    -0.205 F 
ATOM     63  C   UNL     1      14.428   2.479   1.172  1.00  0.00     0.022 A 
BRANCH  61  64
ATOM     64  S   UNL     1      12.039   2.696  -0.090  1.00  0.00     0.127 S 
ATOM     65  O   UNL     1      12.179   4.144  -0.223  1.00  0.00    -0.237 OA
ATOM     66  O   UNL     1      12.734   1.926  -1.125  1.00  0.00    -0.237 OA
ATOM     67  O   UNL     1      10.707   2.199   0.224  1.00  0.00    -0.744 OA
ENDBRANCH  61  64
ENDBRANCH  43  57
BRANCH  44  68
ATOM     68  C   UNL     1      11.857   6.158  13.355  1.00  0.00     0.023 A 
ATOM     69  C   UNL     1      10.833   6.370  14.290  1.00  0.00     0.012 A 
ATOM     70  C   UNL     1      13.180   6.457  13.809  1.00  0.00     0.148 A 
ATOM     71  C   UNL     1      11.123   6.741  15.621  1.00  0.00     0.002 A 
ATOM     72  C   UNL     1      13.474   6.699  15.147  1.00  0.00     0.091 A 
ATOM     73  F   UNL     1      14.180   6.545  12.925  1.00  0.00    -0.205 F 
ATOM     74  C   UNL     1      12.441   6.854  16.064  1.00  0.00     0.022 A 
BRANCH  72  75
ATOM     75  S   UNL     1      15.167   6.656  15.774  1.00  0.00     0.127 S 
ATOM     76  O   UNL     1      15.302   7.966  16.406  1.00  0.00    -0.237 OA
ATOM     77  O   UNL     1      15.105   5.529  16.705  1.00  0.00    -0.237 OA
ATOM     78  O   UNL     1      16.027   6.433  14.618  1.00  0.00    -0.744 OA
ENDBRANCH  72  75
ENDBRANCH  44  68
BRANCH  56  79
ATOM     79  C   UNL     1      12.573   6.183   7.229  1.00  0.00     0.023 A 
ATOM     80  C   UNL     1      12.864   7.545   7.056  1.00  0.00     0.012 A 
ATOM     81  C   UNL     1      11.269   5.745   6.872  1.00  0.00     0.148 A 
ATOM     82  C   UNL     1      11.912   8.434   6.544  1.00  0.00     0.002 A 
ATOM     83  C   UNL     1      10.313   6.632   6.369  1.00  0.00     0.091 A 
ATOM     84  F   UNL     1      10.969   4.457   7.019  1.00  0.00    -0.205 F 
ATOM     85  C   UNL     1      10.642   7.981   6.199  1.00  0.00     0.022 A 
BRANCH  83  86
ATOM     86  S   UNL     1       8.612   6.161   5.971  1.00  0.00     0.127 S 
ATOM     87  O   UNL     1       7.831   7.189   6.662  1.00  0.00    -0.237 OA
ATOM     88  O   UNL     1       8.596   6.277   4.515  1.00  0.00    -0.237 OA
ATOM     89  O   UNL     1       8.418   4.813   6.496  1.00  0.00    -0.744 OA
ENDBRANCH  83  86
ENDBRANCH  56  79
ENDBRANCH  30  31
ENDBRANCH  22  25
ENDBRANCH  20  21
ENDBRANCH  19  20
ENDBRANCH   1  19
TORSDOF 19
