REMARK SMILES CCC[NH+]1CCC([NH2+]CC(C)(C)C(=O)NCCCNC(=O)c2ccc(-c3c4nc(c(-c5cccc(S(=O)(=O)[O-])c5F)c5ccc([nH]5)c(-c5cccc(S(=O)(=O)[O-])c5F)c5nc(c(-c6cccc(S(=O)(=O)[O-])c6F)c6ccc3[nH]6)C=C5)C=C4)cc2)CC1
REMARK SMILES IDX 16 1 15 2 13 3 14 4 10 6 11 7 12 8 9 9 8 10 7 13 4 14 5 15
REMARK SMILES IDX 86 16 6 18 85 19 3 20 2 21 1 22 17 23 18 24 19 25 20 26
REMARK SMILES IDX 21 28 22 29 23 30 84 31 24 32 83 33 25 34 26 35 27 36 77 37
REMARK SMILES IDX 28 38 82 39 76 40 78 41 29 42 81 43 75 44 74 45 30 47 62 48
REMARK SMILES IDX 42 49 61 50 43 51 46 52 60 53 79 54 44 55 45 56 59 58 80 59
REMARK SMILES IDX 47 60 31 61 32 62 40 63 33 64 35 65 41 66 34 67 36 68 37 69
REMARK SMILES IDX 38 70 39 71 63 72 64 73 72 74 65 75 67 76 73 77 66 78 68 79
REMARK SMILES IDX 69 80 70 81 71 82 48 83 49 84 57 85 50 86 52 87 58 88 51 89
REMARK SMILES IDX 53 90 54 91 55 92 56 93
REMARK H PARENT 15 5 8 11 8 12 4 17 19 27 78 46 46 57
REMARK Flexibility Score: inf
ROOT
ATOM      1  C   UNL     1       1.475  -8.057   2.605  1.00  0.00     0.117 C 
ENDROOT
BRANCH   1   2
ATOM      2  N   UNL     1       0.296  -7.393   2.093  1.00  0.00    -0.355 N 
ATOM      3  C   UNL     1      -0.779  -6.825   2.676  1.00  0.00     0.231 C 
ATOM      4  O   UNL     1      -1.698  -6.578   1.886  1.00  0.00    -0.274 OA
ATOM      5  H   UNL     1       0.273  -7.347   1.110  1.00  0.00     0.163 HD
BRANCH   3   6
ATOM      6  C   UNL     1      -0.930  -6.568   4.188  1.00  0.00     0.092 C 
ATOM      7  C   UNL     1       0.315  -6.225   5.026  1.00  0.00     0.027 C 
ATOM      8  C   UNL     1      -1.522  -7.885   4.737  1.00  0.00     0.027 C 
BRANCH   6   9
ATOM      9  C   UNL     1      -1.976  -5.409   4.378  1.00  0.00     0.277 C 
BRANCH   9  10
ATOM     10  N   UNL     1      -1.553  -4.002   4.166  1.00  0.00    -0.343 N 
ATOM     11  H   UNL     1      -2.319  -3.394   4.457  1.00  0.00     0.346 HD
ATOM     12  H   UNL     1      -0.703  -3.874   4.715  1.00  0.00     0.346 HD
BRANCH  10  13
ATOM     13  C   UNL     1      -1.202  -3.660   2.778  1.00  0.00     0.193 C 
ATOM     14  N   UNL     1       0.218  -2.154   0.682  1.00  0.00    -0.335 N 
ATOM     15  C   UNL     1      -1.193  -1.871   1.001  1.00  0.00     0.268 C 
ATOM     16  C   UNL     1       0.563  -3.541   1.011  1.00  0.00     0.268 C 
ATOM     17  H   UNL     1       0.768  -1.510   1.251  1.00  0.00     0.348 HD
ATOM     18  C   UNL     1      -1.550  -2.199   2.464  1.00  0.00     0.126 C 
ATOM     19  C   UNL     1       0.294  -3.821   2.482  1.00  0.00     0.126 C 
BRANCH  14  20
ATOM     20  C   UNL     1       0.543  -1.910  -0.735  1.00  0.00     0.261 C 
BRANCH  20  21
ATOM     21  C   UNL     1       0.433  -0.446  -1.172  1.00  0.00     0.058 C 
ATOM     22  C   UNL     1       1.261   0.497  -0.311  1.00  0.00     0.010 C 
ENDBRANCH  20  21
ENDBRANCH  14  20
ENDBRANCH  10  13
ENDBRANCH   9  10
ENDBRANCH   6   9
ENDBRANCH   3   6
ENDBRANCH   1   2
BRANCH   1  23
ATOM     23  C   UNL     1       1.746  -9.349   1.851  1.00  0.00     0.042 C 
BRANCH  23  24
ATOM     24  C   UNL     1       2.041  -9.164   0.370  1.00  0.00     0.118 C 
BRANCH  24  25
ATOM     25  N   UNL     1       3.380  -8.651   0.114  1.00  0.00    -0.352 N 
ATOM     26  C   UNL     1       4.402  -9.255  -0.588  1.00  0.00     0.251 C 
ATOM     27  H   UNL     1       3.579  -7.763   0.487  1.00  0.00     0.163 HD
ATOM     28  O   UNL     1       5.524  -8.770  -0.598  1.00  0.00    -0.269 OA
BRANCH  26  29
ATOM     29  C   UNL     1       4.119 -10.519  -1.302  1.00  0.00     0.039 A 
ATOM     30  C   UNL     1       4.918 -11.638  -1.060  1.00  0.00     0.014 A 
ATOM     31  C   UNL     1       3.008 -10.608  -2.144  1.00  0.00     0.014 A 
ATOM     32  C   UNL     1       4.553 -12.873  -1.603  1.00  0.00     0.010 A 
ATOM     33  C   UNL     1       2.597 -11.853  -2.602  1.00  0.00     0.010 A 
ATOM     34  C   UNL     1       3.368 -12.998  -2.345  1.00  0.00    -0.014 A 
BRANCH  34  35
ATOM     35  C   UNL     1       2.906 -14.299  -2.896  1.00  0.00     0.031 A 
ATOM     36  C   UNL     1       2.725 -14.439  -4.385  1.00  0.00     0.074 A 
ATOM     37  C   UNL     1       2.528 -15.295  -2.070  1.00  0.00     0.049 A 
ATOM     38  N   UNL     1       2.167 -15.406  -5.063  1.00  0.00    -0.248 NA
ATOM     39  C   UNL     1       3.197 -13.319  -5.220  1.00  0.00     0.031 C 
ATOM     40  C   UNL     1       2.590 -15.259  -0.607  1.00  0.00     0.029 A 
ATOM     41  N   UNL     1       1.976 -16.523  -2.345  1.00  0.00    -0.354 N 
ATOM     42  C   UNL     1       2.158 -14.983  -6.387  1.00  0.00     0.074 A 
ATOM     43  C   UNL     1       2.747 -13.664  -6.417  1.00  0.00     0.031 C 
ATOM     44  C   UNL     1       2.095 -16.408  -0.115  1.00  0.00     0.029 A 
ATOM     45  C   UNL     1       1.646 -17.247  -1.221  1.00  0.00     0.049 A 
ATOM     46  H   UNL     1       1.830 -16.855  -3.260  1.00  0.00     0.167 HD
ATOM     47  C   UNL     1       1.724 -15.645  -7.484  1.00  0.00     0.034 A 
ATOM     48  C   UNL     1       1.038 -18.445  -1.099  1.00  0.00     0.034 A 
ATOM     49  C   UNL     1       1.224 -16.991  -7.460  1.00  0.00     0.049 A 
ATOM     50  C   UNL     1       0.635 -19.190  -2.345  1.00  0.00     0.074 A 
ATOM     51  C   UNL     1       0.860 -17.790  -8.529  1.00  0.00     0.029 A 
ATOM     52  N   UNL     1       1.027 -17.738  -6.311  1.00  0.00    -0.354 N 
ATOM     53  N   UNL     1       0.771 -18.833  -3.599  1.00  0.00    -0.248 NA
ATOM     54  C   UNL     1       0.028 -20.518  -2.164  1.00  0.00     0.031 C 
ATOM     55  C   UNL     1       0.433 -19.021  -8.024  1.00  0.00     0.029 A 
ATOM     56  C   UNL     1       0.551 -18.993  -6.643  1.00  0.00     0.049 A 
ATOM     57  H   UNL     1       1.200 -17.423  -5.395  1.00  0.00     0.167 HD
ATOM     58  C   UNL     1       0.318 -19.910  -4.353  1.00  0.00     0.074 A 
ATOM     59  C   UNL     1      -0.092 -20.935  -3.417  1.00  0.00     0.031 C 
ATOM     60  C   UNL     1       0.237 -20.033  -5.700  1.00  0.00     0.034 A 
BRANCH  47  61
ATOM     61  C   UNL     1       1.830 -14.952  -8.816  1.00  0.00     0.023 A 
ATOM     62  C   UNL     1       3.095 -14.779  -9.412  1.00  0.00     0.012 A 
ATOM     63  C   UNL     1       0.675 -14.543  -9.510  1.00  0.00     0.148 A 
ATOM     64  C   UNL     1       3.213 -14.181 -10.666  1.00  0.00     0.002 A 
ATOM     65  C   UNL     1       0.797 -13.990 -10.780  1.00  0.00     0.091 A 
ATOM     66  F   UNL     1      -0.517 -14.698  -8.917  1.00  0.00    -0.205 F 
ATOM     67  C   UNL     1       2.064 -13.799 -11.354  1.00  0.00     0.022 A 
BRANCH  65  68
ATOM     68  S   UNL     1      -0.625 -13.541 -11.782  1.00  0.00     0.127 S 
ATOM     69  O   UNL     1      -0.536 -12.082 -11.783  1.00  0.00    -0.237 OA
ATOM     70  O   UNL     1      -0.308 -14.172 -13.064  1.00  0.00    -0.237 OA
ATOM     71  O   UNL     1      -1.787 -14.095 -11.103  1.00  0.00    -0.744 OA
ENDBRANCH  65  68
ENDBRANCH  47  61
BRANCH  48  72
ATOM     72  C   UNL     1       0.839 -19.056   0.248  1.00  0.00     0.023 A 
ATOM     73  C   UNL     1       1.594 -20.193   0.602  1.00  0.00     0.012 A 
ATOM     74  C   UNL     1      -0.078 -18.528   1.176  1.00  0.00     0.148 A 
ATOM     75  C   UNL     1       1.411 -20.815   1.837  1.00  0.00     0.002 A 
ATOM     76  C   UNL     1      -0.217 -19.122   2.427  1.00  0.00     0.091 A 
ATOM     77  F   UNL     1      -0.799 -17.456   0.820  1.00  0.00    -0.205 F 
ATOM     78  C   UNL     1       0.513 -20.275   2.753  1.00  0.00     0.022 A 
BRANCH  76  79
ATOM     79  S   UNL     1      -1.256 -18.416   3.712  1.00  0.00     0.127 S 
ATOM     80  O   UNL     1      -2.412 -19.307   3.687  1.00  0.00    -0.237 OA
ATOM     81  O   UNL     1      -0.406 -18.541   4.897  1.00  0.00    -0.237 OA
ATOM     82  O   UNL     1      -1.500 -17.040   3.298  1.00  0.00    -0.744 OA
ENDBRANCH  76  79
ENDBRANCH  48  72
BRANCH  60  83
ATOM     83  C   UNL     1      -0.238 -21.344  -6.266  1.00  0.00     0.023 A 
ATOM     84  C   UNL     1      -1.605 -21.673  -6.227  1.00  0.00     0.012 A 
ATOM     85  C   UNL     1       0.662 -22.187  -6.948  1.00  0.00     0.148 A 
ATOM     86  C   UNL     1      -2.069 -22.834  -6.845  1.00  0.00     0.002 A 
ATOM     87  C   UNL     1       0.186 -23.316  -7.601  1.00  0.00     0.091 A 
ATOM     88  F   UNL     1       1.963 -21.860  -6.956  1.00  0.00    -0.205 F 
ATOM     89  C   UNL     1      -1.178 -23.646  -7.543  1.00  0.00     0.022 A 
BRANCH  87  90
ATOM     90  S   UNL     1       1.243 -24.361  -8.610  1.00  0.00     0.127 S 
ATOM     91  O   UNL     1       1.342 -25.566  -7.788  1.00  0.00    -0.237 OA
ATOM     92  O   UNL     1       0.451 -24.518  -9.830  1.00  0.00    -0.237 OA
ATOM     93  O   UNL     1       2.486 -23.623  -8.788  1.00  0.00    -0.744 OA
ENDBRANCH  87  90
ENDBRANCH  60  83
ENDBRANCH  34  35
ENDBRANCH  26  29
ENDBRANCH  24  25
ENDBRANCH  23  24
ENDBRANCH   1  23
TORSDOF 18
