REMARK SMILES Cc1ccc(C(=O)C[C@@H](C(=O)NCCCNC(=O)c2ccc(-c3c4nc(c(-c5cccc(S(=O)(=O)[O-])c5F)c5ccc([nH]5)c(-c5cccc(S(=O)(=O)[O-])c5F)c5nc(c(-c6cccc(S(=O)(=O)[O-])c6F)c6ccc3[nH]6)C=C5)C=C4)cc2)[NH+]2CC[NH+](Cc3ccccc3)CC2)cc1
REMARK SMILES IDX 14 1 13 2 12 3 10 4 11 5 9 7 8 8 6 9 7 10 5 11 1 12 2 13
REMARK SMILES IDX 3 14 96 15 4 16 95 17 82 18 83 19 94 20 84 22 93 23 85 24
REMARK SMILES IDX 86 26 87 27 88 28 92 29 89 30 91 31 90 32 15 33 16 34 17 35
REMARK SMILES IDX 18 37 19 38 20 39 81 40 21 41 80 42 22 43 23 44 24 45 74 46
REMARK SMILES IDX 25 47 79 48 73 49 75 50 26 51 78 52 72 53 71 54 27 56 59 57
REMARK SMILES IDX 39 58 58 59 40 60 43 61 57 62 76 63 41 64 42 65 56 67 77 68
REMARK SMILES IDX 44 69 28 70 29 71 37 72 30 73 32 74 38 75 31 76 33 77 34 78
REMARK SMILES IDX 35 79 36 80 60 81 61 82 69 83 62 84 64 85 70 86 63 87 65 88
REMARK SMILES IDX 66 89 67 90 68 91 45 92 46 93 54 94 47 95 49 96 55 97 48 98
REMARK SMILES IDX 50 99 51 100 52 101 53 102
REMARK H PARENT 12 6 82 21 85 25 16 36 75 55 43 66
REMARK Flexibility Score: inf
ROOT
ATOM      1  C   UNL     1      -1.212  -1.553   1.505  1.00  0.00     0.042 C 
ENDROOT
BRANCH   1   2
ATOM      2  C   UNL     1      -1.433  -0.250   2.284  1.00  0.00     0.118 C 
BRANCH   2   3
ATOM      3  N   UNL     1      -1.199   0.966   1.525  1.00  0.00    -0.351 N 
ATOM      4  C   UNL     1      -2.049   1.929   1.054  1.00  0.00     0.278 C 
ATOM      5  O   UNL     1      -1.518   2.950   0.600  1.00  0.00    -0.268 OA
ATOM      6  H   UNL     1      -0.252   1.127   1.309  1.00  0.00     0.163 HD
BRANCH   4   7
ATOM      7  C   UNL     1      -3.605   1.782   1.098  1.00  0.00     0.282 C 
BRANCH   7   8
ATOM      8  C   UNL     1      -4.290   1.899  -0.281  1.00  0.00     0.156 C 
BRANCH   8   9
ATOM      9  C   UNL     1      -3.925   0.803  -1.261  1.00  0.00     0.169 C 
ATOM     10  O   UNL     1      -4.606  -0.211  -1.390  1.00  0.00    -0.294 OA
BRANCH   9  11
ATOM     11  C   UNL     1      -2.629   0.927  -1.964  1.00  0.00     0.018 A 
ATOM     12  C   UNL     1       1.505   1.458  -1.575  1.00  0.00     0.044 C 
ATOM     13  C   UNL     1       0.091   1.243  -2.000  1.00  0.00    -0.051 A 
ATOM     14  C   UNL     1      -0.457  -0.042  -1.996  1.00  0.00     0.004 A 
ATOM     15  C   UNL     1      -0.718   2.344  -2.265  1.00  0.00     0.004 A 
ATOM     16  C   UNL     1      -1.831  -0.211  -1.988  1.00  0.00     0.012 A 
ATOM     17  C   UNL     1      -2.095   2.186  -2.252  1.00  0.00     0.012 A 
ENDBRANCH   9  11
ENDBRANCH   8   9
ENDBRANCH   7   8
BRANCH   7  18
ATOM     18  N   UNL     1      -4.237   2.854   1.919  1.00  0.00    -0.315 N 
ATOM     19  C   UNL     1      -4.721   2.435   3.227  1.00  0.00     0.325 C 
ATOM     20  C   UNL     1      -3.643   4.195   1.886  1.00  0.00     0.325 C 
ATOM     21  H   UNL     1      -5.079   3.012   1.366  1.00  0.00     0.349 HD
ATOM     22  C   UNL     1      -5.051   3.595   4.194  1.00  0.00     0.324 C 
ATOM     23  C   UNL     1      -4.500   5.308   2.554  1.00  0.00     0.324 C 
ATOM     24  N   UNL     1      -5.434   4.865   3.586  1.00  0.00    -0.322 N 
ATOM     25  H   UNL     1      -5.319   5.538   4.344  1.00  0.00     0.348 HD
BRANCH  24  26
ATOM     26  C   UNL     1      -6.854   5.096   3.335  1.00  0.00     0.299 C 
BRANCH  26  27
ATOM     27  C   UNL     1      -7.617   4.308   2.284  1.00  0.00     0.006 A 
ATOM     28  C   UNL     1      -8.946   3.931   2.557  1.00  0.00     0.009 A 
ATOM     29  C   UNL     1      -7.136   4.064   0.992  1.00  0.00     0.009 A 
ATOM     30  C   UNL     1      -9.738   3.300   1.591  1.00  0.00     0.001 A 
ATOM     31  C   UNL     1      -7.917   3.416   0.030  1.00  0.00     0.001 A 
ATOM     32  C   UNL     1      -9.218   3.032   0.329  1.00  0.00     0.000 A 
ENDBRANCH  26  27
ENDBRANCH  24  26
ENDBRANCH   7  18
ENDBRANCH   4   7
ENDBRANCH   2   3
ENDBRANCH   1   2
BRANCH   1  33
ATOM     33  C   UNL     1       0.247  -2.034   1.382  1.00  0.00     0.118 C 
BRANCH  33  34
ATOM     34  N   UNL     1       0.279  -3.475   1.075  1.00  0.00    -0.352 N 
ATOM     35  C   UNL     1       1.217  -4.228   0.395  1.00  0.00     0.251 C 
ATOM     36  H   UNL     1      -0.494  -3.985   1.408  1.00  0.00     0.163 HD
ATOM     37  O   UNL     1       1.101  -5.446   0.296  1.00  0.00    -0.269 OA
BRANCH  35  38
ATOM     38  C   UNL     1       2.329  -3.525  -0.254  1.00  0.00     0.039 A 
ATOM     39  C   UNL     1       3.570  -3.449   0.377  1.00  0.00     0.014 A 
ATOM     40  C   UNL     1       2.054  -2.775  -1.390  1.00  0.00     0.014 A 
ATOM     41  C   UNL     1       4.452  -2.429   0.023  1.00  0.00     0.010 A 
ATOM     42  C   UNL     1       2.930  -1.758  -1.739  1.00  0.00     0.010 A 
ATOM     43  C   UNL     1       4.076  -1.518  -0.962  1.00  0.00    -0.014 A 
BRANCH  43  44
ATOM     44  C   UNL     1       4.702  -0.201  -1.086  1.00  0.00     0.031 A 
ATOM     45  C   UNL     1       5.639   0.136  -2.175  1.00  0.00     0.074 A 
ATOM     46  C   UNL     1       4.353   0.797  -0.239  1.00  0.00     0.049 A 
ATOM     47  N   UNL     1       6.551   1.048  -2.067  1.00  0.00    -0.248 NA
ATOM     48  C   UNL     1       5.635  -0.537  -3.461  1.00  0.00     0.031 C 
ATOM     49  C   UNL     1       4.560   2.226  -0.469  1.00  0.00     0.029 A 
ATOM     50  N   UNL     1       3.818   0.732   1.052  1.00  0.00    -0.354 N 
ATOM     51  C   UNL     1       7.074   1.268  -3.321  1.00  0.00     0.074 A 
ATOM     52  C   UNL     1       6.528   0.199  -4.132  1.00  0.00     0.031 C 
ATOM     53  C   UNL     1       4.403   2.880   0.686  1.00  0.00     0.029 A 
ATOM     54  C   UNL     1       4.210   1.896   1.733  1.00  0.00     0.049 A 
ATOM     55  H   UNL     1       3.267   0.003   1.417  1.00  0.00     0.167 HD
ATOM     56  C   UNL     1       7.797   2.402  -3.564  1.00  0.00     0.034 A 
ATOM     57  C   UNL     1       4.783   1.940   2.965  1.00  0.00     0.034 A 
ATOM     58  C   UNL     1       7.867   3.274  -2.377  1.00  0.00     0.049 A 
ATOM     59  C   UNL     1       6.161   2.567   2.954  1.00  0.00     0.074 A 
ATOM     60  C   UNL     1       7.194   4.434  -2.024  1.00  0.00     0.029 A 
ATOM     61  N   UNL     1       8.588   2.886  -1.254  1.00  0.00    -0.354 N 
ATOM     62  N   UNL     1       6.708   3.133   1.914  1.00  0.00    -0.248 NA
ATOM     63  C   UNL     1       7.067   2.537   4.101  1.00  0.00     0.031 C 
ATOM     64  C   UNL     1       7.484   4.720  -0.665  1.00  0.00     0.029 A 
ATOM     65  C   UNL     1       8.337   3.739  -0.188  1.00  0.00     0.049 A 
ATOM     66  H   UNL     1       9.195   2.111  -1.220  1.00  0.00     0.167 HD
ATOM     67  C   UNL     1       8.053   3.289   2.142  1.00  0.00     0.074 A 
ATOM     68  C   UNL     1       8.194   3.036   3.565  1.00  0.00     0.031 C 
ATOM     69  C   UNL     1       8.943   3.496   1.120  1.00  0.00     0.034 A 
BRANCH  56  70
ATOM     70  C   UNL     1       8.210   2.911  -4.943  1.00  0.00     0.023 A 
ATOM     71  C   UNL     1       8.573   4.274  -5.063  1.00  0.00     0.012 A 
ATOM     72  C   UNL     1       8.232   2.171  -6.144  1.00  0.00     0.148 A 
ATOM     73  C   UNL     1       8.810   4.890  -6.298  1.00  0.00     0.002 A 
ATOM     74  C   UNL     1       8.380   2.798  -7.386  1.00  0.00     0.091 A 
ATOM     75  F   UNL     1       8.230   0.837  -6.102  1.00  0.00    -0.205 F 
ATOM     76  C   UNL     1       8.666   4.162  -7.467  1.00  0.00     0.022 A 
BRANCH  74  77
ATOM     77  S   UNL     1       8.114   1.921  -8.937  1.00  0.00     0.127 S 
ATOM     78  O   UNL     1       7.180   2.807  -9.635  1.00  0.00    -0.237 OA
ATOM     79  O   UNL     1       9.457   1.879  -9.511  1.00  0.00    -0.237 OA
ATOM     80  O   UNL     1       7.543   0.629  -8.572  1.00  0.00    -0.744 OA
ENDBRANCH  74  77
ENDBRANCH  56  70
BRANCH  57  81
ATOM     81  C   UNL     1       4.319   0.886   3.897  1.00  0.00     0.023 A 
ATOM     82  C   UNL     1       3.049   1.071   4.487  1.00  0.00     0.012 A 
ATOM     83  C   UNL     1       4.902  -0.391   3.905  1.00  0.00     0.148 A 
ATOM     84  C   UNL     1       2.335  -0.009   5.005  1.00  0.00     0.002 A 
ATOM     85  C   UNL     1       4.162  -1.471   4.374  1.00  0.00     0.091 A 
ATOM     86  F   UNL     1       6.110  -0.542   3.348  1.00  0.00    -0.205 F 
ATOM     87  C   UNL     1       2.879  -1.284   4.917  1.00  0.00     0.022 A 
BRANCH  85  88
ATOM     88  S   UNL     1       4.678  -3.168   4.097  1.00  0.00     0.127 S 
ATOM     89  O   UNL     1       5.093  -3.577   5.434  1.00  0.00    -0.237 OA
ATOM     90  O   UNL     1       3.435  -3.774   3.621  1.00  0.00    -0.237 OA
ATOM     91  O   UNL     1       5.728  -3.085   3.093  1.00  0.00    -0.744 OA
ENDBRANCH  85  88
ENDBRANCH  57  81
BRANCH  69  92
ATOM     92  C   UNL     1      10.459   3.453   1.253  1.00  0.00     0.023 A 
ATOM     93  C   UNL     1      11.107   2.775   2.305  1.00  0.00     0.012 A 
ATOM     94  C   UNL     1      11.297   3.998   0.245  1.00  0.00     0.148 A 
ATOM     95  C   UNL     1      12.503   2.705   2.402  1.00  0.00     0.002 A 
ATOM     96  C   UNL     1      12.683   3.836   0.292  1.00  0.00     0.091 A 
ATOM     97  F   UNL     1      10.758   4.702  -0.761  1.00  0.00    -0.205 F 
ATOM     98  C   UNL     1      13.292   3.219   1.385  1.00  0.00     0.022 A 
BRANCH  96  99
ATOM     99  S   UNL     1      13.716   4.282  -1.113  1.00  0.00     0.127 S 
ATOM    100  O   UNL     1      14.063   5.668  -0.808  1.00  0.00    -0.237 OA
ATOM    101  O   UNL     1      14.830   3.338  -1.002  1.00  0.00    -0.237 OA
ATOM    102  O   UNL     1      12.868   4.067  -2.278  1.00  0.00    -0.744 OA
ENDBRANCH  96  99
ENDBRANCH  69  92
ENDBRANCH  43  44
ENDBRANCH  35  38
ENDBRANCH  33  34
ENDBRANCH   1  33
TORSDOF 19
