REMARK SMILES Nc1nc(N2CCCCC2)nc2c1[C@H](C(=O)NCCCNC(=O)c1ccc(-c3c4nc(c(-c5cccc(S(=O)(=O)[O-])c5F)c5ccc([nH]5)c(-c5cccc(S(=O)(=O)[O-])c5F)c5nc(c(-c6cccc(S(=O)(=O)[O-])c6F)c6ccc3[nH]6)C=C5)C=C4)cc1)CC(=O)N2
REMARK SMILES IDX 20 1 19 2 18 3 17 4 15 5 16 6 14 8 2 9 3 10 13 11 4 12 12 13
REMARK SMILES IDX 11 14 90 15 87 16 88 17 89 19 1 20 5 23 6 24 10 25 7 26 9 27
REMARK SMILES IDX 8 28 21 29 22 30 23 32 24 33 25 34 86 35 26 36 85 37 27 38
REMARK SMILES IDX 28 39 29 40 79 41 30 42 84 43 78 44 80 45 31 46 83 47 77 48
REMARK SMILES IDX 76 49 32 51 64 52 44 53 63 54 45 55 48 56 62 57 81 58 46 59
REMARK SMILES IDX 47 60 61 62 82 63 49 64 33 65 34 66 42 67 35 68 37 69 43 70
REMARK SMILES IDX 36 71 38 72 39 73 40 74 41 75 65 76 66 77 74 78 67 79 69 80
REMARK SMILES IDX 75 81 68 82 70 83 71 84 72 85 73 86 50 87 51 88 59 89 52 90
REMARK SMILES IDX 54 91 60 92 53 93 55 94 56 95 57 96 58 97
REMARK H PARENT 17 7 90 18 1 21 1 22 21 31 80 50 48 61
REMARK Flexibility Score: inf
ROOT
ATOM      1  C   UNL     1       0.003   3.545  -1.311  1.00  0.00     0.118 C 
ENDROOT
BRANCH   1   2
ATOM      2  C   UNL     1       0.322   2.196  -0.669  1.00  0.00     0.042 C 
BRANCH   2   3
ATOM      3  C   UNL     1      -0.840   1.630   0.139  1.00  0.00     0.117 C 
BRANCH   3   4
ATOM      4  N   UNL     1      -1.845   1.000  -0.692  1.00  0.00    -0.355 N 
ATOM      5  C   UNL     1      -2.162  -0.285  -0.981  1.00  0.00     0.228 C 
ATOM      6  O   UNL     1      -3.164  -0.414  -1.696  1.00  0.00    -0.274 OA
ATOM      7  H   UNL     1      -2.428   1.650  -1.148  1.00  0.00     0.163 HD
BRANCH   5   8
ATOM      8  C   UNL     1      -1.327  -1.519  -0.585  1.00  0.00     0.125 C 
ATOM      9  C   UNL     1       0.500  -1.223   1.190  1.00  0.00     0.135 A 
ATOM     10  N   UNL     1       0.849  -1.076   2.474  1.00  0.00    -0.196 NA
ATOM     11  C   UNL     1      -0.788  -1.532   0.815  1.00  0.00     0.050 A 
ATOM     12  C   UNL     1      -0.086  -1.278   3.413  1.00  0.00     0.229 A 
ATOM     13  C   UNL     1      -1.640  -1.829   1.856  1.00  0.00     0.144 A 
ATOM     14  N   UNL     1      -1.326  -1.695   3.145  1.00  0.00    -0.195 NA
ATOM     15  N   UNL     1      -2.902  -2.335   1.571  1.00  0.00    -0.310 N 
ATOM     16  C   UNL     1      -2.217  -2.765  -0.740  1.00  0.00     0.119 C 
ATOM     17  C   UNL     1      -3.286  -2.790   0.339  1.00  0.00     0.226 C 
ATOM     18  H   UNL     1      -3.562  -2.368   2.301  1.00  0.00     0.171 HD
ATOM     19  O   UNL     1      -4.393  -3.294   0.168  1.00  0.00    -0.275 OA
BRANCH   9  20
ATOM     20  N   UNL     1       1.519  -1.060   0.275  1.00  0.00    -0.383 N 
ATOM     21  H   UNL     1       2.427  -0.839   0.584  1.00  0.00     0.158 HD
ATOM     22  H   UNL     1       1.338  -1.164  -0.688  1.00  0.00     0.158 HD
ENDBRANCH   9  20
BRANCH  12  23
ATOM     23  N   UNL     1       0.216  -1.014   4.721  1.00  0.00    -0.341 N 
ATOM     24  C   UNL     1       0.532   0.344   5.114  1.00  0.00     0.119 C 
ATOM     25  C   UNL     1       0.557  -2.122   5.585  1.00  0.00     0.119 C 
ATOM     26  C   UNL     1       1.983   0.457   5.574  1.00  0.00     0.022 C 
ATOM     27  C   UNL     1       2.022  -2.017   6.014  1.00  0.00     0.022 C 
ATOM     28  C   UNL     1       2.334  -0.634   6.585  1.00  0.00     0.004 C 
ENDBRANCH  12  23
ENDBRANCH   5   8
ENDBRANCH   3   4
ENDBRANCH   2   3
ENDBRANCH   1   2
BRANCH   1  29
ATOM     29  N   UNL     1      -0.269   4.567  -0.307  1.00  0.00    -0.352 N 
ATOM     30  C   UNL     1       0.408   5.718   0.001  1.00  0.00     0.251 C 
ATOM     31  H   UNL     1      -1.071   4.404   0.239  1.00  0.00     0.163 HD
ATOM     32  O   UNL     1       0.167   6.281   1.067  1.00  0.00    -0.269 OA
BRANCH  30  33
ATOM     33  C   UNL     1       1.397   6.297  -0.933  1.00  0.00     0.039 A 
ATOM     34  C   UNL     1       2.517   6.951  -0.407  1.00  0.00     0.014 A 
ATOM     35  C   UNL     1       1.176   6.290  -2.313  1.00  0.00     0.014 A 
ATOM     36  C   UNL     1       3.422   7.580  -1.264  1.00  0.00     0.010 A 
ATOM     37  C   UNL     1       2.114   6.858  -3.170  1.00  0.00     0.010 A 
ATOM     38  C   UNL     1       3.229   7.532  -2.653  1.00  0.00    -0.014 A 
BRANCH  38  39
ATOM     39  C   UNL     1       4.143   8.230  -3.588  1.00  0.00     0.031 A 
ATOM     40  C   UNL     1       3.632   9.392  -4.397  1.00  0.00     0.074 A 
ATOM     41  C   UNL     1       5.397   7.776  -3.764  1.00  0.00     0.049 A 
ATOM     42  N   UNL     1       4.230  10.063  -5.346  1.00  0.00    -0.248 NA
ATOM     43  C   UNL     1       2.258   9.843  -4.118  1.00  0.00     0.031 C 
ATOM     44  C   UNL     1       5.987   6.634  -3.063  1.00  0.00     0.029 A 
ATOM     45  N   UNL     1       6.393   8.203  -4.605  1.00  0.00    -0.354 N 
ATOM     46  C   UNL     1       3.298  10.990  -5.798  1.00  0.00     0.074 A 
ATOM     47  C   UNL     1       2.083  10.774  -5.044  1.00  0.00     0.031 C 
ATOM     48  C   UNL     1       7.243   6.452  -3.502  1.00  0.00     0.029 A 
ATOM     49  C   UNL     1       7.535   7.440  -4.537  1.00  0.00     0.049 A 
ATOM     50  H   UNL     1       6.298   8.981  -5.200  1.00  0.00     0.167 HD
ATOM     51  C   UNL     1       3.451  11.957  -6.734  1.00  0.00     0.034 A 
ATOM     52  C   UNL     1       8.682   7.523  -5.238  1.00  0.00     0.034 A 
ATOM     53  C   UNL     1       4.677  12.196  -7.447  1.00  0.00     0.049 A 
ATOM     54  C   UNL     1       8.831   8.615  -6.263  1.00  0.00     0.074 A 
ATOM     55  C   UNL     1       4.953  13.184  -8.374  1.00  0.00     0.029 A 
ATOM     56  N   UNL     1       5.833  11.442  -7.308  1.00  0.00    -0.354 N 
ATOM     57  N   UNL     1       7.979   9.553  -6.600  1.00  0.00    -0.248 NA
ATOM     58  C   UNL     1      10.110   8.679  -6.985  1.00  0.00     0.031 C 
ATOM     59  C   UNL     1       6.274  13.020  -8.806  1.00  0.00     0.029 A 
ATOM     60  C   UNL     1       6.825  11.940  -8.135  1.00  0.00     0.049 A 
ATOM     61  H   UNL     1       5.933  10.667  -6.710  1.00  0.00     0.167 HD
ATOM     62  C   UNL     1       8.623  10.331  -7.556  1.00  0.00     0.074 A 
ATOM     63  C   UNL     1       9.951   9.773  -7.718  1.00  0.00     0.031 C 
ATOM     64  C   UNL     1       8.154  11.396  -8.254  1.00  0.00     0.034 A 
BRANCH  51  65
ATOM     65  C   UNL     1       2.283  12.873  -6.993  1.00  0.00     0.023 A 
ATOM     66  C   UNL     1       1.931  13.834  -6.022  1.00  0.00     0.012 A 
ATOM     67  C   UNL     1       1.579  12.835  -8.212  1.00  0.00     0.148 A 
ATOM     68  C   UNL     1       0.880  14.721  -6.247  1.00  0.00     0.002 A 
ATOM     69  C   UNL     1       0.560  13.752  -8.447  1.00  0.00     0.091 A 
ATOM     70  F   UNL     1       1.912  11.901  -9.114  1.00  0.00    -0.205 F 
ATOM     71  C   UNL     1       0.203  14.688  -7.462  1.00  0.00     0.022 A 
BRANCH  69  72
ATOM     72  S   UNL     1      -0.323  13.847 -10.009  1.00  0.00     0.127 S 
ATOM     73  O   UNL     1      -1.657  13.390  -9.621  1.00  0.00    -0.237 OA
ATOM     74  O   UNL     1      -0.235  15.273 -10.324  1.00  0.00    -0.237 OA
ATOM     75  O   UNL     1       0.391  12.974 -10.929  1.00  0.00    -0.744 OA
ENDBRANCH  69  72
ENDBRANCH  51  65
BRANCH  52  76
ATOM     76  C   UNL     1       9.805   6.591  -4.933  1.00  0.00     0.023 A 
ATOM     77  C   UNL     1      10.959   7.093  -4.301  1.00  0.00     0.012 A 
ATOM     78  C   UNL     1       9.717   5.212  -5.207  1.00  0.00     0.148 A 
ATOM     79  C   UNL     1      12.014   6.245  -3.967  1.00  0.00     0.002 A 
ATOM     80  C   UNL     1      10.748   4.363  -4.819  1.00  0.00     0.091 A 
ATOM     81  F   UNL     1       8.617   4.755  -5.821  1.00  0.00    -0.205 F 
ATOM     82  C   UNL     1      11.904   4.879  -4.214  1.00  0.00     0.022 A 
BRANCH  80  83
ATOM     83  S   UNL     1      10.634   2.575  -4.965  1.00  0.00     0.127 S 
ATOM     84  O   UNL     1      11.622   2.295  -6.002  1.00  0.00    -0.237 OA
ATOM     85  O   UNL     1      11.009   2.139  -3.619  1.00  0.00    -0.237 OA
ATOM     86  O   UNL     1       9.248   2.297  -5.319  1.00  0.00    -0.744 OA
ENDBRANCH  80  83
ENDBRANCH  52  76
BRANCH  64  87
ATOM     87  C   UNL     1       9.078  12.030  -9.261  1.00  0.00     0.023 A 
ATOM     88  C   UNL     1       9.364  11.351 -10.462  1.00  0.00     0.012 A 
ATOM     89  C   UNL     1       9.596  13.325  -9.060  1.00  0.00     0.148 A 
ATOM     90  C   UNL     1      10.176  11.935 -11.433  1.00  0.00     0.002 A 
ATOM     91  C   UNL     1      10.364  13.921 -10.054  1.00  0.00     0.091 A 
ATOM     92  F   UNL     1       9.330  13.950  -7.904  1.00  0.00    -0.205 F 
ATOM     93  C   UNL     1      10.665  13.224 -11.235  1.00  0.00     0.022 A 
BRANCH  91  94
ATOM     94  S   UNL     1      10.947  15.616  -9.926  1.00  0.00     0.127 S 
ATOM     95  O   UNL     1      12.356  15.422  -9.589  1.00  0.00    -0.237 OA
ATOM     96  O   UNL     1      10.708  16.133 -11.274  1.00  0.00    -0.237 OA
ATOM     97  O   UNL     1      10.132  16.239  -8.891  1.00  0.00    -0.744 OA
ENDBRANCH  91  94
ENDBRANCH  64  87
ENDBRANCH  38  39
ENDBRANCH  30  33
ENDBRANCH   1  29
TORSDOF 15
