REMARK SMILES CC(=O)Nc1cnc(N2CC=C(c3ccccc3C)CC2)c(C(=O)NCCCNC(=O)c2ccc(-c3c4nc(c(-c5cccc(S(=O)(=O)[O-])c5F)c5ccc([nH]5)c(-c5cccc(S(=O)(=O)[O-])c5F)c5nc(c(-c6cccc(S(=O)(=O)[O-])c6F)c6ccc3[nH]6)C=C5)C=C4)cc2)c1
REMARK SMILES IDX 27 1 26 2 25 3 23 4 24 5 22 7 5 8 6 9 95 10 7 11 8 12 4 13
REMARK SMILES IDX 1 14 2 15 3 16 9 18 10 19 21 20 11 21 20 22 12 23 13 24
REMARK SMILES IDX 14 25 18 26 15 27 17 28 19 29 16 30 28 31 29 32 30 33 31 35
REMARK SMILES IDX 32 36 33 37 94 38 34 39 93 40 35 41 36 42 37 43 87 44 38 45
REMARK SMILES IDX 92 46 86 47 88 48 39 49 91 50 85 51 84 52 40 54 72 55 52 56
REMARK SMILES IDX 71 57 53 58 56 59 70 60 89 61 54 62 55 63 69 65 90 66 57 67
REMARK SMILES IDX 41 68 42 69 50 70 43 71 45 72 51 73 44 74 46 75 47 76 48 77
REMARK SMILES IDX 49 78 73 79 74 80 82 81 75 82 77 83 83 84 76 85 78 86 79 87
REMARK SMILES IDX 80 88 81 89 58 90 59 91 67 92 60 93 62 94 68 95 61 96 63 97
REMARK SMILES IDX 64 98 65 99 66 100
REMARK H PARENT 25 6 4 17 29 34 88 53 56 64
REMARK Flexibility Score: inf
ROOT
ATOM      1  C   UNL     1       4.272  -0.678  -0.910  1.00  0.00     0.042 C 
ENDROOT
BRANCH   1   2
ATOM      2  C   UNL     1       4.316   0.061   0.441  1.00  0.00     0.118 C 
BRANCH   2   3
ATOM      3  N   UNL     1       4.991   1.353   0.399  1.00  0.00    -0.352 N 
ATOM      4  C   UNL     1       4.641   2.622  -0.020  1.00  0.00     0.255 C 
ATOM      5  O   UNL     1       5.348   3.514   0.446  1.00  0.00    -0.269 OA
ATOM      6  H   UNL     1       5.909   1.312   0.751  1.00  0.00     0.163 HD
BRANCH   4   7
ATOM      7  C   UNL     1       3.494   2.951  -0.939  1.00  0.00     0.084 A 
ATOM      8  C   UNL     1       1.411   2.229  -2.025  1.00  0.00     0.060 A 
ATOM      9  C   UNL     1       1.315   3.491  -2.560  1.00  0.00     0.139 A 
ATOM     10  C   UNL     1       2.521   1.989  -1.233  1.00  0.00     0.045 A 
ATOM     11  N   UNL     1       2.201   4.475  -2.296  1.00  0.00    -0.236 NA
ATOM     12  C   UNL     1       3.290   4.223  -1.505  1.00  0.00     0.141 A 
BRANCH   8  13
ATOM     13  N   UNL     1       0.468   1.232  -2.331  1.00  0.00    -0.325 N 
ATOM     14  C   UNL     1       0.500  -0.099  -0.210  1.00  0.00     0.114 C 
ATOM     15  C   UNL     1       0.134   0.084  -1.663  1.00  0.00     0.221 C 
ATOM     16  O   UNL     1      -0.532  -0.772  -2.248  1.00  0.00    -0.275 OA
ATOM     17  H   UNL     1      -0.036   1.385  -3.163  1.00  0.00     0.169 HD
ENDBRANCH   8  13
BRANCH  12  18
ATOM     18  N   UNL     1       4.083   5.330  -1.342  1.00  0.00    -0.352 N 
ATOM     19  C   UNL     1       3.623   6.307  -0.371  1.00  0.00     0.146 C 
ATOM     20  C   UNL     1       5.492   5.353  -1.713  1.00  0.00     0.123 C 
ATOM     21  C   UNL     1       4.277   7.639  -0.616  1.00  0.00    -0.002 C 
ATOM     22  C   UNL     1       5.812   6.716  -2.342  1.00  0.00     0.057 C 
ATOM     23  C   UNL     1       5.260   7.853  -1.513  1.00  0.00    -0.041 C 
BRANCH  23  24
ATOM     24  C   UNL     1       5.833   9.203  -1.682  1.00  0.00    -0.020 A 
ATOM     25  C   UNL     1       6.446   9.804  -0.567  1.00  0.00     0.008 A 
ATOM     26  C   UNL     1       5.781   9.912  -2.900  1.00  0.00    -0.044 A 
ATOM     27  C   UNL     1       7.000  11.081  -0.650  1.00  0.00     0.001 A 
ATOM     28  C   UNL     1       6.359  11.193  -2.971  1.00  0.00     0.004 A 
ATOM     29  C   UNL     1       5.143   9.346  -4.138  1.00  0.00     0.045 C 
ATOM     30  C   UNL     1       6.958  11.775  -1.854  1.00  0.00     0.000 A 
ENDBRANCH  23  24
ENDBRANCH  12  18
ENDBRANCH   4   7
ENDBRANCH   2   3
ENDBRANCH   1   2
BRANCH   1  31
ATOM     31  C   UNL     1       5.331  -1.740  -1.073  1.00  0.00     0.118 C 
BRANCH  31  32
ATOM     32  N   UNL     1       5.089  -2.869  -0.168  1.00  0.00    -0.352 N 
ATOM     33  C   UNL     1       5.929  -3.865   0.284  1.00  0.00     0.251 C 
ATOM     34  H   UNL     1       4.168  -2.925   0.175  1.00  0.00     0.163 HD
ATOM     35  O   UNL     1       5.426  -4.964   0.544  1.00  0.00    -0.269 OA
BRANCH  33  36
ATOM     36  C   UNL     1       7.360  -3.598   0.494  1.00  0.00     0.039 A 
ATOM     37  C   UNL     1       8.252  -4.524   1.034  1.00  0.00     0.014 A 
ATOM     38  C   UNL     1       7.783  -2.288   0.355  1.00  0.00     0.014 A 
ATOM     39  C   UNL     1       9.439  -4.034   1.584  1.00  0.00     0.010 A 
ATOM     40  C   UNL     1       9.077  -1.934   0.439  1.00  0.00     0.010 A 
ATOM     41  C   UNL     1       9.764  -2.700   1.350  1.00  0.00    -0.014 A 
BRANCH  41  42
ATOM     42  C   UNL     1      10.716  -1.870   2.048  1.00  0.00     0.031 A 
ATOM     43  C   UNL     1      12.108  -1.976   1.648  1.00  0.00     0.074 A 
ATOM     44  C   UNL     1      10.210  -0.800   2.712  1.00  0.00     0.049 A 
ATOM     45  N   UNL     1      13.077  -1.433   2.284  1.00  0.00    -0.248 NA
ATOM     46  C   UNL     1      12.513  -2.761   0.489  1.00  0.00     0.031 C 
ATOM     47  C   UNL     1      10.826   0.500   2.946  1.00  0.00     0.029 A 
ATOM     48  N   UNL     1       8.959  -0.627   3.278  1.00  0.00    -0.354 N 
ATOM     49  C   UNL     1      14.171  -1.512   1.457  1.00  0.00     0.074 A 
ATOM     50  C   UNL     1      13.822  -2.509   0.478  1.00  0.00     0.031 C 
ATOM     51  C   UNL     1      10.069   1.196   3.817  1.00  0.00     0.029 A 
ATOM     52  C   UNL     1       9.034   0.303   4.310  1.00  0.00     0.049 A 
ATOM     53  H   UNL     1       8.140  -1.093   2.994  1.00  0.00     0.167 HD
ATOM     54  C   UNL     1      15.142  -0.570   1.601  1.00  0.00     0.034 A 
ATOM     55  C   UNL     1       8.906  -0.104   5.615  1.00  0.00     0.034 A 
ATOM     56  C   UNL     1      14.851   0.274   2.785  1.00  0.00     0.049 A 
ATOM     57  C   UNL     1      10.238  -0.078   6.357  1.00  0.00     0.074 A 
ATOM     58  C   UNL     1      14.306   1.541   2.929  1.00  0.00     0.029 A 
ATOM     59  N   UNL     1      14.762  -0.323   4.046  1.00  0.00    -0.354 N 
ATOM     60  N   UNL     1      11.382   0.233   5.807  1.00  0.00    -0.248 NA
ATOM     61  C   UNL     1      10.388  -0.397   7.775  1.00  0.00     0.031 C 
ATOM     62  C   UNL     1      13.770   1.643   4.250  1.00  0.00     0.029 A 
ATOM     63  C   UNL     1      14.023   0.461   4.928  1.00  0.00     0.049 A 
ATOM     64  H   UNL     1      15.171  -1.187   4.281  1.00  0.00     0.167 HD
ATOM     65  C   UNL     1      12.407  -0.009   6.676  1.00  0.00     0.074 A 
ATOM     66  C   UNL     1      11.721  -0.296   7.928  1.00  0.00     0.031 C 
ATOM     67  C   UNL     1      13.721  -0.024   6.282  1.00  0.00     0.034 A 
BRANCH  54  68
ATOM     68  C   UNL     1      16.181  -0.212   0.541  1.00  0.00     0.023 A 
ATOM     69  C   UNL     1      16.942   0.955   0.768  1.00  0.00     0.012 A 
ATOM     70  C   UNL     1      16.440  -0.874  -0.689  1.00  0.00     0.148 A 
ATOM     71  C   UNL     1      17.856   1.455  -0.170  1.00  0.00     0.002 A 
ATOM     72  C   UNL     1      17.351  -0.380  -1.627  1.00  0.00     0.091 A 
ATOM     73  F   UNL     1      15.821  -2.007  -0.995  1.00  0.00    -0.205 F 
ATOM     74  C   UNL     1      18.057   0.792  -1.372  1.00  0.00     0.022 A 
BRANCH  72  75
ATOM     75  S   UNL     1      17.657  -1.197  -3.210  1.00  0.00     0.127 S 
ATOM     76  O   UNL     1      17.310  -0.146  -4.168  1.00  0.00    -0.237 OA
ATOM     77  O   UNL     1      19.085  -1.501  -3.131  1.00  0.00    -0.237 OA
ATOM     78  O   UNL     1      16.785  -2.365  -3.258  1.00  0.00    -0.744 OA
ENDBRANCH  72  75
ENDBRANCH  54  68
BRANCH  55  79
ATOM     79  C   UNL     1       7.843  -1.159   5.755  1.00  0.00     0.023 A 
ATOM     80  C   UNL     1       6.542  -0.777   5.337  1.00  0.00     0.012 A 
ATOM     81  C   UNL     1       8.180  -2.523   5.744  1.00  0.00     0.148 A 
ATOM     82  C   UNL     1       5.718  -1.684   4.668  1.00  0.00     0.002 A 
ATOM     83  C   UNL     1       7.339  -3.428   5.096  1.00  0.00     0.091 A 
ATOM     84  F   UNL     1       9.338  -2.910   6.294  1.00  0.00    -0.205 F 
ATOM     85  C   UNL     1       6.146  -2.996   4.493  1.00  0.00     0.022 A 
BRANCH  83  86
ATOM     86  S   UNL     1       7.821  -5.150   4.920  1.00  0.00     0.127 S 
ATOM     87  O   UNL     1       7.354  -5.716   6.182  1.00  0.00    -0.237 OA
ATOM     88  O   UNL     1       7.065  -5.585   3.746  1.00  0.00    -0.237 OA
ATOM     89  O   UNL     1       9.262  -5.110   4.721  1.00  0.00    -0.744 OA
ENDBRANCH  83  86
ENDBRANCH  55  79
BRANCH  67  90
ATOM     90  C   UNL     1      14.857  -0.510   7.165  1.00  0.00     0.023 A 
ATOM     91  C   UNL     1      14.652  -1.403   8.235  1.00  0.00     0.012 A 
ATOM     92  C   UNL     1      16.202  -0.176   6.869  1.00  0.00     0.148 A 
ATOM     93  C   UNL     1      15.703  -1.848   9.043  1.00  0.00     0.002 A 
ATOM     94  C   UNL     1      17.255  -0.733   7.587  1.00  0.00     0.091 A 
ATOM     95  F   UNL     1      16.474   0.709   5.898  1.00  0.00    -0.205 F 
ATOM     96  C   UNL     1      17.009  -1.528   8.707  1.00  0.00     0.022 A 
BRANCH  94  97
ATOM     97  S   UNL     1      18.951  -0.589   7.011  1.00  0.00     0.127 S 
ATOM     98  O   UNL     1      19.448   0.530   7.809  1.00  0.00    -0.237 OA
ATOM     99  O   UNL     1      19.514  -1.892   7.371  1.00  0.00    -0.237 OA
ATOM    100  O   UNL     1      18.851  -0.361   5.576  1.00  0.00    -0.744 OA
ENDBRANCH  94  97
ENDBRANCH  67  90
ENDBRANCH  41  42
ENDBRANCH  33  36
ENDBRANCH  31  32
ENDBRANCH   1  31
TORSDOF 16
