REMARK SMILES CN(Cc1ccnn1C)C(=O)c1c(C(=O)NCCCNC(=O)c2ccc(-c3c4nc(c(-c5cccc(S(=O)(=O)[O-])c5F)c5ccc([nH]5)c(-c5cccc(S(=O)(=O)[O-])c5F)c5nc(c(-c6cccc(S(=O)(=O)[O-])c6F)c6ccc3[nH]6)C=C5)C=C4)cc2)cnn1C
REMARK SMILES IDX 17 1 16 2 14 3 15 4 13 6 12 7 88 8 86 9 87 10 89 11 10 12
REMARK SMILES IDX 11 13 2 14 1 15 3 16 4 17 5 18 8 19 6 20 7 21 9 22 18 23
REMARK SMILES IDX 19 24 20 25 21 26 22 28 23 29 24 30 85 31 25 32 84 33 26 34
REMARK SMILES IDX 27 35 28 36 78 37 29 38 83 39 77 40 79 41 30 42 82 43 76 44
REMARK SMILES IDX 75 45 31 47 63 48 43 49 62 50 44 51 47 52 61 53 80 54 45 55
REMARK SMILES IDX 46 56 60 58 81 59 48 60 32 61 33 62 41 63 34 64 36 65 42 66
REMARK SMILES IDX 35 67 37 68 38 69 39 70 40 71 64 72 65 73 73 74 66 75 68 76
REMARK SMILES IDX 74 77 67 78 69 79 70 80 71 81 72 82 49 83 50 84 58 85 51 86
REMARK SMILES IDX 53 87 59 88 52 89 54 90 55 91 56 92 57 93
REMARK H PARENT 16 5 20 27 79 46 47 57
REMARK Flexibility Score: inf
ROOT
ATOM      1  C   UNL     1       3.102  -2.256  -1.334  1.00  0.00     0.118 C 
ENDROOT
BRANCH   1   2
ATOM      2  N   UNL     1       3.157  -3.640  -1.772  1.00  0.00    -0.352 N 
ATOM      3  C   UNL     1       2.239  -4.551  -2.180  1.00  0.00     0.255 C 
ATOM      4  O   UNL     1       2.717  -5.650  -2.492  1.00  0.00    -0.269 OA
ATOM      5  H   UNL     1       4.073  -3.999  -1.774  1.00  0.00     0.163 HD
BRANCH   3   6
ATOM      6  C   UNL     1       0.796  -4.366  -2.249  1.00  0.00     0.090 A 
ATOM      7  C   UNL     1      -0.092  -3.299  -2.139  1.00  0.00     0.138 A 
ATOM      8  N   UNL     1      -1.335  -3.808  -2.437  1.00  0.00    -0.262 N 
ATOM      9  C   UNL     1      -0.067  -5.468  -2.517  1.00  0.00     0.149 A 
ATOM     10  N   UNL     1      -1.350  -5.142  -2.594  1.00  0.00    -0.180 NA
ATOM     11  C   UNL     1      -2.575  -3.090  -2.640  1.00  0.00     0.174 C 
BRANCH   7  12
ATOM     12  C   UNL     1       0.110  -1.883  -1.927  1.00  0.00     0.273 C 
ATOM     13  O   UNL     1       0.440  -1.159  -2.831  1.00  0.00    -0.267 OA
BRANCH  12  14
ATOM     14  N   UNL     1      -0.130  -1.410  -0.622  1.00  0.00    -0.334 N 
ATOM     15  C   UNL     1       0.080   0.008  -0.367  1.00  0.00     0.147 C 
BRANCH  14  16
ATOM     16  C   UNL     1      -0.383  -2.260   0.541  1.00  0.00     0.175 C 
BRANCH  16  17
ATOM     17  C   UNL     1      -1.846  -2.476   0.726  1.00  0.00     0.057 A 
ATOM     18  C   UNL     1      -2.900  -1.579   0.726  1.00  0.00     0.047 A 
ATOM     19  N   UNL     1      -2.418  -3.697   1.007  1.00  0.00    -0.271 N 
ATOM     20  C   UNL     1      -4.048  -2.351   0.959  1.00  0.00     0.135 A 
ATOM     21  N   UNL     1      -3.763  -3.644   1.095  1.00  0.00    -0.181 NA
ATOM     22  C   UNL     1      -1.776  -4.977   1.204  1.00  0.00     0.174 C 
ENDBRANCH  16  17
ENDBRANCH  14  16
ENDBRANCH  12  14
ENDBRANCH   7  12
ENDBRANCH   3   6
ENDBRANCH   1   2
BRANCH   1  23
ATOM     23  C   UNL     1       4.358  -1.828  -0.572  1.00  0.00     0.042 C 
BRANCH  23  24
ATOM     24  C   UNL     1       5.639  -1.858  -1.401  1.00  0.00     0.118 C 
BRANCH  24  25
ATOM     25  N   UNL     1       5.842  -0.669  -2.207  1.00  0.00    -0.352 N 
ATOM     26  C   UNL     1       6.395   0.557  -1.930  1.00  0.00     0.251 C 
ATOM     27  H   UNL     1       5.521  -0.759  -3.134  1.00  0.00     0.163 HD
ATOM     28  O   UNL     1       6.351   1.420  -2.809  1.00  0.00    -0.269 OA
BRANCH  26  29
ATOM     29  C   UNL     1       6.997   0.902  -0.615  1.00  0.00     0.039 A 
ATOM     30  C   UNL     1       6.850   2.220  -0.159  1.00  0.00     0.014 A 
ATOM     31  C   UNL     1       7.769   0.016   0.138  1.00  0.00     0.014 A 
ATOM     32  C   UNL     1       7.425   2.628   1.050  1.00  0.00     0.010 A 
ATOM     33  C   UNL     1       8.276   0.399   1.384  1.00  0.00     0.010 A 
ATOM     34  C   UNL     1       8.123   1.712   1.850  1.00  0.00    -0.014 A 
BRANCH  34  35
ATOM     35  C   UNL     1       8.726   2.110   3.151  1.00  0.00     0.031 A 
ATOM     36  C   UNL     1      10.214   2.007   3.363  1.00  0.00     0.074 A 
ATOM     37  C   UNL     1       7.938   2.498   4.174  1.00  0.00     0.049 A 
ATOM     38  N   UNL     1      10.902   2.157   4.467  1.00  0.00    -0.248 NA
ATOM     39  C   UNL     1      11.034   1.661   2.190  1.00  0.00     0.031 C 
ATOM     40  C   UNL     1       6.479   2.595   4.129  1.00  0.00     0.029 A 
ATOM     41  N   UNL     1       8.256   2.869   5.458  1.00  0.00    -0.354 N 
ATOM     42  C   UNL     1      12.215   1.841   4.142  1.00  0.00     0.074 A 
ATOM     43  C   UNL     1      12.235   1.513   2.732  1.00  0.00     0.031 C 
ATOM     44  C   UNL     1       6.030   3.022   5.321  1.00  0.00     0.029 A 
ATOM     45  C   UNL     1       7.163   3.200   6.224  1.00  0.00     0.049 A 
ATOM     46  H   UNL     1       9.179   2.895   5.798  1.00  0.00     0.167 HD
ATOM     47  C   UNL     1      13.310   1.838   4.937  1.00  0.00     0.034 A 
ATOM     48  C   UNL     1       7.080   3.606   7.506  1.00  0.00     0.034 A 
ATOM     49  C   UNL     1      13.323   2.272   6.307  1.00  0.00     0.049 A 
ATOM     50  C   UNL     1       8.335   3.752   8.321  1.00  0.00     0.074 A 
ATOM     51  C   UNL     1      14.395   2.339   7.180  1.00  0.00     0.029 A 
ATOM     52  N   UNL     1      12.219   2.753   6.990  1.00  0.00    -0.354 N 
ATOM     53  N   UNL     1       9.574   3.510   7.971  1.00  0.00    -0.248 NA
ATOM     54  C   UNL     1       8.185   4.249   9.698  1.00  0.00     0.031 C 
ATOM     55  C   UNL     1      13.945   2.901   8.381  1.00  0.00     0.029 A 
ATOM     56  C   UNL     1      12.588   3.155   8.261  1.00  0.00     0.049 A 
ATOM     57  H   UNL     1      11.305   2.801   6.625  1.00  0.00     0.167 HD
ATOM     58  C   UNL     1      10.352   3.838   9.074  1.00  0.00     0.074 A 
ATOM     59  C   UNL     1       9.449   4.321  10.098  1.00  0.00     0.031 C 
ATOM     60  C   UNL     1      11.692   3.716   9.236  1.00  0.00     0.034 A 
BRANCH  47  61
ATOM     61  C   UNL     1      14.610   1.410   4.319  1.00  0.00     0.023 A 
ATOM     62  C   UNL     1      15.377   2.355   3.612  1.00  0.00     0.012 A 
ATOM     63  C   UNL     1      15.090   0.096   4.465  1.00  0.00     0.148 A 
ATOM     64  C   UNL     1      16.599   1.992   3.047  1.00  0.00     0.002 A 
ATOM     65  C   UNL     1      16.320  -0.253   3.914  1.00  0.00     0.091 A 
ATOM     66  F   UNL     1      14.336  -0.802   5.116  1.00  0.00    -0.205 F 
ATOM     67  C   UNL     1      17.075   0.691   3.204  1.00  0.00     0.022 A 
BRANCH  65  68
ATOM     68  S   UNL     1      16.967  -1.915   4.136  1.00  0.00     0.127 S 
ATOM     69  O   UNL     1      16.192  -2.678   3.171  1.00  0.00    -0.237 OA
ATOM     70  O   UNL     1      18.377  -1.771   3.794  1.00  0.00    -0.237 OA
ATOM     71  O   UNL     1      16.724  -2.208   5.538  1.00  0.00    -0.744 OA
ENDBRANCH  65  68
ENDBRANCH  47  61
BRANCH  48  72
ATOM     72  C   UNL     1       5.758   4.004   8.060  1.00  0.00     0.023 A 
ATOM     73  C   UNL     1       5.468   5.374   8.208  1.00  0.00     0.012 A 
ATOM     74  C   UNL     1       4.766   3.058   8.369  1.00  0.00     0.148 A 
ATOM     75  C   UNL     1       4.218   5.792   8.666  1.00  0.00     0.002 A 
ATOM     76  C   UNL     1       3.506   3.484   8.782  1.00  0.00     0.091 A 
ATOM     77  F   UNL     1       5.050   1.754   8.231  1.00  0.00    -0.205 F 
ATOM     78  C   UNL     1       3.231   4.848   8.943  1.00  0.00     0.022 A 
BRANCH  76  79
ATOM     79  S   UNL     1       2.191   2.281   9.005  1.00  0.00     0.127 S 
ATOM     80  O   UNL     1       2.560   1.643  10.257  1.00  0.00    -0.237 OA
ATOM     81  O   UNL     1       0.993   3.108   9.073  1.00  0.00    -0.237 OA
ATOM     82  O   UNL     1       2.275   1.464   7.805  1.00  0.00    -0.744 OA
ENDBRANCH  76  79
ENDBRANCH  48  72
BRANCH  60  83
ATOM     83  C   UNL     1      12.274   4.125  10.558  1.00  0.00     0.023 A 
ATOM     84  C   UNL     1      12.285   3.194  11.614  1.00  0.00     0.012 A 
ATOM     85  C   UNL     1      12.877   5.382  10.735  1.00  0.00     0.148 A 
ATOM     86  C   UNL     1      12.885   3.513  12.831  1.00  0.00     0.002 A 
ATOM     87  C   UNL     1      13.489   5.687  11.948  1.00  0.00     0.091 A 
ATOM     88  F   UNL     1      12.843   6.267   9.728  1.00  0.00    -0.205 F 
ATOM     89  C   UNL     1      13.495   4.756  12.997  1.00  0.00     0.022 A 
BRANCH  87  90
ATOM     90  S   UNL     1      14.319   7.266  12.162  1.00  0.00     0.127 S 
ATOM     91  O   UNL     1      13.201   8.184  12.326  1.00  0.00    -0.237 OA
ATOM     92  O   UNL     1      15.114   7.065  13.368  1.00  0.00    -0.237 OA
ATOM     93  O   UNL     1      15.108   7.419  10.950  1.00  0.00    -0.744 OA
ENDBRANCH  87  90
ENDBRANCH  60  83
ENDBRANCH  34  35
ENDBRANCH  26  29
ENDBRANCH  24  25
ENDBRANCH  23  24
ENDBRANCH   1  23
TORSDOF 17
