REMARK SMILES CCC[C@H](CNC(=O)N1CCN2C(=O)NC[C@H]2C1)C(=O)NCCCNC(=O)c1ccc(-c2c3nc(c(-c4cccc(S(=O)(=O)[O-])c4F)c4ccc([nH]4)c(-c4cccc(S(=O)(=O)[O-])c4F)c4nc(c(-c5cccc(S(=O)(=O)[O-])c5F)c5ccc2[nH]5)C=C4)C=C3)cc1
REMARK SMILES IDX 23 1 22 2 21 3 19 4 20 5 4 7 3 8 2 9 1 10 5 11 6 12 7 13
REMARK SMILES IDX 8 15 9 16 10 17 18 18 11 19 17 20 12 21 16 22 13 23 15 24
REMARK SMILES IDX 14 25 24 27 25 28 26 29 27 31 28 32 29 33 90 34 30 35 89 36
REMARK SMILES IDX 31 37 32 38 33 39 83 40 34 41 88 42 82 43 84 44 35 45 87 46
REMARK SMILES IDX 81 47 80 48 36 50 68 51 48 52 67 53 49 54 52 55 66 56 85 57
REMARK SMILES IDX 50 58 51 59 65 61 86 62 53 63 37 64 38 65 46 66 39 67 41 68
REMARK SMILES IDX 47 69 40 70 42 71 43 72 44 73 45 74 69 75 70 76 78 77 71 78
REMARK SMILES IDX 73 79 79 80 72 81 74 82 75 83 76 84 77 85 54 86 55 87 63 88
REMARK SMILES IDX 56 89 58 90 64 91 57 92 59 93 60 94 61 95 62 96
REMARK H PARENT 21 6 6 14 15 26 25 30 84 49 52 60
REMARK Flexibility Score: inf
ROOT
ATOM      1  C   UNL     1       0.843  -0.042  -6.405  1.00  0.00     0.042 C 
ENDROOT
BRANCH   1   2
ATOM      2  C   UNL     1      -0.119  -0.967  -5.683  1.00  0.00     0.117 C 
BRANCH   2   3
ATOM      3  N   UNL     1       0.634  -2.016  -5.032  1.00  0.00    -0.356 N 
ATOM      4  C   UNL     1       1.119  -2.055  -3.763  1.00  0.00     0.224 C 
ATOM      5  O   UNL     1       2.000  -2.887  -3.523  1.00  0.00    -0.275 OA
ATOM      6  H   UNL     1       0.819  -2.811  -5.583  1.00  0.00     0.163 HD
BRANCH   4   7
ATOM      7  C   UNL     1       0.539  -1.209  -2.628  1.00  0.00     0.097 C 
BRANCH   7   8
ATOM      8  C   UNL     1      -0.976  -1.514  -2.464  1.00  0.00     0.015 C 
BRANCH   8   9
ATOM      9  C   UNL     1      -1.369  -2.098  -1.106  1.00  0.00    -0.003 C 
ATOM     10  C   UNL     1      -1.019  -1.209   0.075  1.00  0.00     0.004 C 
ENDBRANCH   8   9
ENDBRANCH   7   8
BRANCH   7  11
ATOM     11  C   UNL     1       0.787   0.315  -2.599  1.00  0.00     0.131 C 
BRANCH  11  12
ATOM     12  N   UNL     1       1.926   0.850  -3.310  1.00  0.00    -0.337 N 
ATOM     13  C   UNL     1       1.998   1.919  -4.154  1.00  0.00     0.317 C 
ATOM     14  H   UNL     1       2.774   0.373  -3.163  1.00  0.00     0.165 HD
ATOM     15  O   UNL     1       2.971   1.974  -4.906  1.00  0.00    -0.249 OA
BRANCH  13  16
ATOM     16  N   UNL     1       0.939   2.781  -4.257  1.00  0.00    -0.321 N 
ATOM     17  C   UNL     1       0.180   3.365  -3.135  1.00  0.00     0.143 C 
ATOM     18  C   UNL     1       0.667   3.447  -5.549  1.00  0.00     0.148 C 
ATOM     19  C   UNL     1      -1.343   3.384  -3.403  1.00  0.00     0.143 C 
ATOM     20  C   UNL     1      -0.820   3.256  -5.859  1.00  0.00     0.125 C 
ATOM     21  N   UNL     1      -1.652   3.747  -4.777  1.00  0.00    -0.317 N 
ATOM     22  C   UNL     1      -1.386   3.950  -7.086  1.00  0.00     0.144 C 
ATOM     23  C   UNL     1      -2.836   4.265  -5.268  1.00  0.00     0.317 C 
ATOM     24  N   UNL     1      -2.703   4.347  -6.649  1.00  0.00    -0.336 N 
ATOM     25  O   UNL     1      -3.828   4.571  -4.637  1.00  0.00    -0.249 OA
ATOM     26  H   UNL     1      -3.421   4.641  -7.256  1.00  0.00     0.165 HD
ENDBRANCH  13  16
ENDBRANCH  11  12
ENDBRANCH   7  11
ENDBRANCH   4   7
ENDBRANCH   2   3
ENDBRANCH   1   2
BRANCH   1  27
ATOM     27  C   UNL     1       1.046  -0.279  -7.887  1.00  0.00     0.118 C 
BRANCH  27  28
ATOM     28  N   UNL     1      -0.140   0.004  -8.683  1.00  0.00    -0.352 N 
ATOM     29  C   UNL     1      -0.450   0.980  -9.600  1.00  0.00     0.251 C 
ATOM     30  H   UNL     1      -0.872  -0.637  -8.533  1.00  0.00     0.163 HD
ATOM     31  O   UNL     1      -1.601   0.997 -10.038  1.00  0.00    -0.269 OA
BRANCH  29  32
ATOM     32  C   UNL     1       0.503   2.038 -10.037  1.00  0.00     0.039 A 
ATOM     33  C   UNL     1      -0.027   3.264 -10.469  1.00  0.00     0.014 A 
ATOM     34  C   UNL     1       1.884   1.861 -10.082  1.00  0.00     0.014 A 
ATOM     35  C   UNL     1       0.816   4.310 -10.867  1.00  0.00     0.010 A 
ATOM     36  C   UNL     1       2.727   2.934 -10.371  1.00  0.00     0.010 A 
ATOM     37  C   UNL     1       2.206   4.165 -10.790  1.00  0.00    -0.014 A 
BRANCH  37  38
ATOM     38  C   UNL     1       3.137   5.249 -11.206  1.00  0.00     0.031 A 
ATOM     39  C   UNL     1       4.105   5.007 -12.340  1.00  0.00     0.074 A 
ATOM     40  C   UNL     1       3.169   6.417 -10.532  1.00  0.00     0.049 A 
ATOM     41  N   UNL     1       5.072   5.771 -12.780  1.00  0.00    -0.248 NA
ATOM     42  C   UNL     1       3.985   3.726 -13.059  1.00  0.00     0.031 C 
ATOM     43  C   UNL     1       2.321   6.762  -9.389  1.00  0.00     0.029 A 
ATOM     44  N   UNL     1       3.971   7.521 -10.692  1.00  0.00    -0.354 N 
ATOM     45  C   UNL     1       5.690   5.054 -13.798  1.00  0.00     0.074 A 
ATOM     46  C   UNL     1       5.019   3.776 -13.885  1.00  0.00     0.031 C 
ATOM     47  C   UNL     1       2.650   7.988  -8.949  1.00  0.00     0.029 A 
ATOM     48  C   UNL     1       3.758   8.501  -9.748  1.00  0.00     0.049 A 
ATOM     49  H   UNL     1       4.635   7.604 -11.414  1.00  0.00     0.167 HD
ATOM     50  C   UNL     1       6.700   5.434 -14.616  1.00  0.00     0.034 A 
ATOM     51  C   UNL     1       4.399   9.669  -9.539  1.00  0.00     0.034 A 
ATOM     52  C   UNL     1       7.342   6.718 -14.557  1.00  0.00     0.049 A 
ATOM     53  C   UNL     1       5.526  10.061 -10.460  1.00  0.00     0.074 A 
ATOM     54  C   UNL     1       8.345   7.214 -15.371  1.00  0.00     0.029 A 
ATOM     55  N   UNL     1       7.044   7.709 -13.638  1.00  0.00    -0.354 N 
ATOM     56  N   UNL     1       6.014   9.416 -11.492  1.00  0.00    -0.248 NA
ATOM     57  C   UNL     1       6.169  11.361 -10.211  1.00  0.00     0.031 C 
ATOM     58  C   UNL     1       8.668   8.500 -14.930  1.00  0.00     0.029 A 
ATOM     59  C   UNL     1       7.839   8.818 -13.866  1.00  0.00     0.049 A 
ATOM     60  H   UNL     1       6.367   7.636 -12.927  1.00  0.00     0.167 HD
ATOM     61  C   UNL     1       6.978  10.253 -12.044  1.00  0.00     0.074 A 
ATOM     62  C   UNL     1       6.995  11.459 -11.243  1.00  0.00     0.031 C 
ATOM     63  C   UNL     1       7.787  10.040 -13.110  1.00  0.00     0.034 A 
BRANCH  50  64
ATOM     64  C   UNL     1       7.137   4.474 -15.692  1.00  0.00     0.023 A 
ATOM     65  C   UNL     1       6.291   4.244 -16.797  1.00  0.00     0.012 A 
ATOM     66  C   UNL     1       8.409   3.871 -15.659  1.00  0.00     0.148 A 
ATOM     67  C   UNL     1       6.691   3.408 -17.837  1.00  0.00     0.002 A 
ATOM     68  C   UNL     1       8.820   3.076 -16.722  1.00  0.00     0.091 A 
ATOM     69  F   UNL     1       9.193   4.091 -14.594  1.00  0.00    -0.205 F 
ATOM     70  C   UNL     1       7.959   2.835 -17.806  1.00  0.00     0.022 A 
BRANCH  68  71
ATOM     71  S   UNL     1      10.463   2.355 -16.822  1.00  0.00     0.127 S 
ATOM     72  O   UNL     1      10.160   0.925 -16.765  1.00  0.00    -0.237 OA
ATOM     73  O   UNL     1      10.925   2.829 -18.127  1.00  0.00    -0.237 OA
ATOM     74  O   UNL     1      11.204   2.876 -15.683  1.00  0.00    -0.744 OA
ENDBRANCH  68  71
ENDBRANCH  50  64
BRANCH  51  75
ATOM     75  C   UNL     1       3.981  10.582  -8.434  1.00  0.00     0.023 A 
ATOM     76  C   UNL     1       3.433  11.843  -8.745  1.00  0.00     0.012 A 
ATOM     77  C   UNL     1       4.159  10.229  -7.083  1.00  0.00     0.148 A 
ATOM     78  C   UNL     1       3.128  12.757  -7.735  1.00  0.00     0.002 A 
ATOM     79  C   UNL     1       3.796  11.121  -6.079  1.00  0.00     0.091 A 
ATOM     80  F   UNL     1       4.691   9.031  -6.802  1.00  0.00    -0.205 F 
ATOM     81  C   UNL     1       3.303  12.394  -6.403  1.00  0.00     0.022 A 
BRANCH  79  82
ATOM     82  S   UNL     1       3.868  10.686  -4.338  1.00  0.00     0.127 S 
ATOM     83  O   UNL     1       5.028  11.448  -3.887  1.00  0.00    -0.237 OA
ATOM     84  O   UNL     1       2.579  11.176  -3.849  1.00  0.00    -0.237 OA
ATOM     85  O   UNL     1       4.005   9.236  -4.305  1.00  0.00    -0.744 OA
ENDBRANCH  79  82
ENDBRANCH  51  75
BRANCH  63  86
ATOM     86  C   UNL     1       8.703  11.158 -13.535  1.00  0.00     0.023 A 
ATOM     87  C   UNL     1       9.828  11.490 -12.756  1.00  0.00     0.012 A 
ATOM     88  C   UNL     1       8.487  11.822 -14.760  1.00  0.00     0.148 A 
ATOM     89  C   UNL     1      10.706  12.491 -13.173  1.00  0.00     0.002 A 
ATOM     90  C   UNL     1       9.395  12.778 -15.195  1.00  0.00     0.091 A 
ATOM     91  F   UNL     1       7.402  11.500 -15.479  1.00  0.00    -0.205 F 
ATOM     92  C   UNL     1      10.497  13.124 -14.396  1.00  0.00     0.022 A 
BRANCH  90  93
ATOM     93  S   UNL     1       9.265  13.572 -16.801  1.00  0.00     0.127 S 
ATOM     94  O   UNL     1       8.922  14.943 -16.428  1.00  0.00    -0.237 OA
ATOM     95  O   UNL     1      10.617  13.406 -17.337  1.00  0.00    -0.237 OA
ATOM     96  O   UNL     1       8.232  12.848 -17.528  1.00  0.00    -0.744 OA
ENDBRANCH  90  93
ENDBRANCH  63  86
ENDBRANCH  37  38
ENDBRANCH  29  32
ENDBRANCH  27  28
ENDBRANCH   1  27
TORSDOF 18
