REMARK SMILES O=C(NCCCNC(=O)c1ccc(-c2c3nc(c(-c4cccc(S(=O)(=O)[O-])c4F)c4ccc([nH]4)c(-c4cccc(S(=O)(=O)[O-])c4F)c4nc(c(-c5cccc(S(=O)(=O)[O-])c5F)c5ccc2[nH]5)C=C4)C=C3)cc1)C1=C[C@H]2C=C[C@@H]1[C@@H]1C=C[C@H]21
REMARK SMILES IDX 7 1 8 2 9 3 6 5 5 6 4 7 3 8 1 9 2 10 73 12 74 13 78 14 75 15
REMARK SMILES IDX 77 16 79 17 76 18 82 19 80 20 81 21 10 22 11 23 72 24 12 25
REMARK SMILES IDX 71 26 13 27 14 28 15 29 65 30 16 31 70 32 64 33 66 34 17 35
REMARK SMILES IDX 69 36 63 37 62 38 18 40 50 41 30 42 49 43 31 44 34 45 48 46
REMARK SMILES IDX 67 47 32 48 33 49 47 51 68 52 35 53 19 54 20 55 28 56 21 57
REMARK SMILES IDX 23 58 29 59 22 60 24 61 25 62 26 63 27 64 51 65 52 66 60 67
REMARK SMILES IDX 53 68 55 69 61 70 54 71 56 72 57 73 58 74 59 75 36 76 37 77
REMARK SMILES IDX 45 78 38 79 40 80 46 81 39 82 41 83 42 84 43 85 44 86
REMARK H PARENT 7 4 3 11 66 39 34 50
REMARK Flexibility Score: inf
ROOT
ATOM      1  N   UNL     1       5.141   1.619   3.838  1.00  0.00    -0.352 N 
ATOM      2  C   UNL     1       5.762   2.030   4.995  1.00  0.00     0.251 C 
ATOM      3  O   UNL     1       6.045   1.206   5.860  1.00  0.00    -0.269 OA
ATOM      4  H   UNL     1       4.861   0.676   3.821  1.00  0.00     0.163 HD
ENDROOT
BRANCH   1   5
ATOM      5  C   UNL     1       4.840   2.384   2.635  1.00  0.00     0.118 C 
BRANCH   5   6
ATOM      6  C   UNL     1       5.283   1.689   1.348  1.00  0.00     0.042 C 
BRANCH   6   7
ATOM      7  C   UNL     1       4.527   0.404   1.030  1.00  0.00     0.118 C 
BRANCH   7   8
ATOM      8  N   UNL     1       3.100   0.651   0.929  1.00  0.00    -0.352 N 
ATOM      9  O   UNL     1       1.069   0.804  -0.003  1.00  0.00    -0.270 OA
ATOM     10  C   UNL     1       2.259   0.524  -0.123  1.00  0.00     0.247 C 
ATOM     11  H   UNL     1       2.676   0.961   1.761  1.00  0.00     0.163 HD
BRANCH  10  12
ATOM     12  C   UNL     1       2.744  -0.074  -1.371  1.00  0.00     0.021 C 
ATOM     13  C   UNL     1       3.498   0.509  -2.333  1.00  0.00    -0.009 C 
ATOM     14  C   UNL     1       2.143  -1.423  -1.753  1.00  0.00     0.054 C 
ATOM     15  C   UNL     1       3.604  -0.336  -3.618  1.00  0.00     0.042 C 
ATOM     16  C   UNL     1       3.293  -2.304  -2.251  1.00  0.00    -0.022 C 
ATOM     17  C   UNL     1       1.233  -1.049  -2.963  1.00  0.00     0.031 C 
ATOM     18  C   UNL     1       4.056  -1.735  -3.207  1.00  0.00    -0.022 C 
ATOM     19  C   UNL     1       2.120  -0.456  -4.118  1.00  0.00     0.030 C 
ATOM     20  C   UNL     1       0.817  -2.110  -3.962  1.00  0.00    -0.026 C 
ATOM     21  C   UNL     1       1.650  -1.667  -4.926  1.00  0.00    -0.026 C 
ENDBRANCH  10  12
ENDBRANCH   7   8
ENDBRANCH   6   7
ENDBRANCH   5   6
ENDBRANCH   1   5
BRANCH   2  22
ATOM     22  C   UNL     1       6.118   3.455   5.184  1.00  0.00     0.039 A 
ATOM     23  C   UNL     1       7.397   3.772   5.652  1.00  0.00     0.014 A 
ATOM     24  C   UNL     1       5.206   4.475   4.898  1.00  0.00     0.014 A 
ATOM     25  C   UNL     1       7.785   5.111   5.761  1.00  0.00     0.010 A 
ATOM     26  C   UNL     1       5.617   5.806   4.942  1.00  0.00     0.010 A 
ATOM     27  C   UNL     1       6.912   6.139   5.370  1.00  0.00    -0.014 A 
BRANCH  27  28
ATOM     28  C   UNL     1       7.346   7.562   5.369  1.00  0.00     0.031 A 
ATOM     29  C   UNL     1       6.667   8.571   6.255  1.00  0.00     0.074 A 
ATOM     30  C   UNL     1       8.294   7.966   4.500  1.00  0.00     0.049 A 
ATOM     31  N   UNL     1       6.874   9.859   6.346  1.00  0.00    -0.248 NA
ATOM     32  C   UNL     1       5.598   8.073   7.136  1.00  0.00     0.031 C 
ATOM     33  C   UNL     1       8.973   7.105   3.529  1.00  0.00     0.029 A 
ATOM     34  N   UNL     1       8.829   9.210   4.270  1.00  0.00    -0.354 N 
ATOM     35  C   UNL     1       5.943  10.332   7.263  1.00  0.00     0.074 A 
ATOM     36  C   UNL     1       5.149   9.196   7.679  1.00  0.00     0.031 C 
ATOM     37  C   UNL     1       9.835   7.844   2.812  1.00  0.00     0.029 A 
ATOM     38  C   UNL     1       9.751   9.234   3.249  1.00  0.00     0.049 A 
ATOM     39  H   UNL     1       8.577  10.008   4.787  1.00  0.00     0.167 HD
ATOM     40  C   UNL     1       5.782  11.589   7.741  1.00  0.00     0.034 A 
ATOM     41  C   UNL     1      10.446  10.259   2.718  1.00  0.00     0.034 A 
ATOM     42  C   UNL     1       6.601  12.710   7.363  1.00  0.00     0.049 A 
ATOM     43  C   UNL     1      10.277  11.639   3.294  1.00  0.00     0.074 A 
ATOM     44  C   UNL     1       6.578  14.000   7.863  1.00  0.00     0.029 A 
ATOM     45  N   UNL     1       7.585  12.678   6.387  1.00  0.00    -0.354 N 
ATOM     46  N   UNL     1       9.511  12.032   4.282  1.00  0.00    -0.248 NA
ATOM     47  C   UNL     1      11.093  12.711   2.705  1.00  0.00     0.031 C 
ATOM     48  C   UNL     1       7.536  14.754   7.176  1.00  0.00     0.029 A 
ATOM     49  C   UNL     1       8.169  13.928   6.261  1.00  0.00     0.049 A 
ATOM     50  H   UNL     1       7.833  11.884   5.861  1.00  0.00     0.167 HD
ATOM     51  C   UNL     1       9.775  13.386   4.455  1.00  0.00     0.074 A 
ATOM     52  C   UNL     1      10.790  13.740   3.485  1.00  0.00     0.031 C 
ATOM     53  C   UNL     1       9.215  14.259   5.328  1.00  0.00     0.034 A 
BRANCH  40  54
ATOM     54  C   UNL     1       4.710  11.811   8.777  1.00  0.00     0.023 A 
ATOM     55  C   UNL     1       4.897  11.313  10.083  1.00  0.00     0.012 A 
ATOM     56  C   UNL     1       3.552  12.555   8.481  1.00  0.00     0.148 A 
ATOM     57  C   UNL     1       3.934  11.521  11.069  1.00  0.00     0.002 A 
ATOM     58  C   UNL     1       2.615  12.795   9.481  1.00  0.00     0.091 A 
ATOM     59  F   UNL     1       3.380  13.003   7.230  1.00  0.00    -0.205 F 
ATOM     60  C   UNL     1       2.799  12.270  10.771  1.00  0.00     0.022 A 
BRANCH  58  61
ATOM     61  S   UNL     1       1.159  13.814   9.217  1.00  0.00     0.127 S 
ATOM     62  O   UNL     1       0.098  12.808   9.179  1.00  0.00    -0.237 OA
ATOM     63  O   UNL     1       1.152  14.660  10.411  1.00  0.00    -0.237 OA
ATOM     64  O   UNL     1       1.391  14.528   7.970  1.00  0.00    -0.744 OA
ENDBRANCH  58  61
ENDBRANCH  40  54
BRANCH  41  65
ATOM     65  C   UNL     1      11.424  10.004   1.622  1.00  0.00     0.023 A 
ATOM     66  C   UNL     1      12.802  10.102   1.893  1.00  0.00     0.012 A 
ATOM     67  C   UNL     1      11.002   9.631   0.331  1.00  0.00     0.148 A 
ATOM     68  C   UNL     1      13.743   9.862   0.891  1.00  0.00     0.002 A 
ATOM     69  C   UNL     1      11.945   9.340  -0.648  1.00  0.00     0.091 A 
ATOM     70  F   UNL     1       9.685   9.556   0.089  1.00  0.00    -0.205 F 
ATOM     71  C   UNL     1      13.316   9.471  -0.375  1.00  0.00     0.022 A 
BRANCH  69  72
ATOM     72  S   UNL     1      11.491   8.701  -2.264  1.00  0.00     0.127 S 
ATOM     73  O   UNL     1      11.774   9.843  -3.129  1.00  0.00    -0.237 OA
ATOM     74  O   UNL     1      12.409   7.572  -2.413  1.00  0.00    -0.237 OA
ATOM     75  O   UNL     1      10.088   8.320  -2.154  1.00  0.00    -0.744 OA
ENDBRANCH  69  72
ENDBRANCH  41  65
BRANCH  53  76
ATOM     76  C   UNL     1       9.699  15.686   5.298  1.00  0.00     0.023 A 
ATOM     77  C   UNL     1       9.325  16.527   4.231  1.00  0.00     0.012 A 
ATOM     78  C   UNL     1      10.460  16.213   6.359  1.00  0.00     0.148 A 
ATOM     79  C   UNL     1       9.725  17.862   4.206  1.00  0.00     0.002 A 
ATOM     80  C   UNL     1      10.816  17.557   6.351  1.00  0.00     0.091 A 
ATOM     81  F   UNL     1      10.823  15.393   7.356  1.00  0.00    -0.205 F 
ATOM     82  C   UNL     1      10.459  18.380   5.270  1.00  0.00     0.022 A 
BRANCH  80  83
ATOM     83  S   UNL     1      11.681  18.332   7.722  1.00  0.00     0.127 S 
ATOM     84  O   UNL     1      13.024  18.503   7.170  1.00  0.00    -0.237 OA
ATOM     85  O   UNL     1      10.932  19.577   7.900  1.00  0.00    -0.237 OA
ATOM     86  O   UNL     1      11.576  17.402   8.838  1.00  0.00    -0.744 OA
ENDBRANCH  80  83
ENDBRANCH  53  76
ENDBRANCH  27  28
ENDBRANCH   2  22
TORSDOF 13
