REMARK SMILES C[C@@H]1CCCN(C(=O)NC2(CC(=O)NCCCNC(=O)c3ccc(-c4c5nc(c(-c6cccc(S(=O)(=O)[O-])c6F)c6ccc([nH]6)c(-c6cccc(S(=O)(=O)[O-])c6F)c6nc(c(-c7cccc(S(=O)(=O)[O-])c7F)c7ccc4[nH]7)C=C6)C=C5)cc3)CCC2)[C@@H]1C
REMARK SMILES IDX 16 1 15 2 14 3 12 4 13 5 11 7 10 8 84 9 86 10 85 11 9 12
REMARK SMILES IDX 7 13 8 14 6 16 1 17 2 18 3 19 87 20 4 21 88 22 5 23 17 24
REMARK SMILES IDX 18 25 19 26 20 28 21 29 22 30 83 31 23 32 82 33 24 34 25 35
REMARK SMILES IDX 26 36 76 37 27 38 81 39 75 40 77 41 28 42 80 43 74 44 73 45
REMARK SMILES IDX 29 47 61 48 41 49 60 50 42 51 45 52 59 53 78 54 43 55 44 56
REMARK SMILES IDX 58 58 79 59 46 60 30 61 31 62 39 63 32 64 34 65 40 66 33 67
REMARK SMILES IDX 35 68 36 69 37 70 38 71 62 72 63 73 71 74 64 75 66 76 72 77
REMARK SMILES IDX 65 78 67 79 68 80 69 81 70 82 47 83 48 84 56 85 49 86 51 87
REMARK SMILES IDX 57 88 50 89 52 90 53 91 54 92 55 93
REMARK H PARENT 14 6 9 15 18 27 77 46 45 57
REMARK Flexibility Score: inf
ROOT
ATOM      1  C   UNL     1      -0.961   8.437  -1.606  1.00  0.00     0.042 C 
ENDROOT
BRANCH   1   2
ATOM      2  C   UNL     1      -1.208   7.938  -3.028  1.00  0.00     0.117 C 
BRANCH   2   3
ATOM      3  N   UNL     1      -0.015   7.302  -3.548  1.00  0.00    -0.356 N 
ATOM      4  C   UNL     1       0.347   5.994  -3.471  1.00  0.00     0.222 C 
ATOM      5  O   UNL     1       1.522   5.694  -3.685  1.00  0.00    -0.275 OA
ATOM      6  H   UNL     1       0.616   7.894  -4.018  1.00  0.00     0.163 HD
BRANCH   4   7
ATOM      7  C   UNL     1      -0.681   4.926  -3.191  1.00  0.00     0.128 C 
BRANCH   7   8
ATOM      8  C   UNL     1      -0.814   4.391  -1.742  1.00  0.00     0.051 C 
ATOM      9  C   UNL     1      -1.866   3.266  -1.805  1.00  0.00     0.029 C 
ATOM     10  C   UNL     1      -1.758   5.195  -0.818  1.00  0.00     0.029 C 
ATOM     11  C   UNL     1      -2.872   4.167  -1.071  1.00  0.00     0.005 C 
BRANCH   8  12
ATOM     12  N   UNL     1       0.522   4.055  -1.201  1.00  0.00    -0.332 N 
ATOM     13  C   UNL     1       1.176   3.331  -0.268  1.00  0.00     0.318 C 
ATOM     14  O   UNL     1       2.395   3.330  -0.482  1.00  0.00    -0.249 OA
ATOM     15  H   UNL     1       1.194   4.550  -1.724  1.00  0.00     0.165 HD
BRANCH  13  16
ATOM     16  N   UNL     1       0.634   2.655   0.785  1.00  0.00    -0.322 N 
ATOM     17  C   UNL     1       1.212  -0.251   0.056  1.00  0.00     0.010 C 
ATOM     18  C   UNL     1       0.961   0.291   1.469  1.00  0.00     0.008 C 
ATOM     19  C   UNL     1      -0.531   0.205   1.847  1.00  0.00     0.007 C 
ATOM     20  C   UNL     1       1.455   1.752   1.644  1.00  0.00     0.086 C 
ATOM     21  C   UNL     1      -1.371   1.262   1.137  1.00  0.00     0.022 C 
ATOM     22  C   UNL     1       2.983   1.844   1.610  1.00  0.00     0.031 C 
ATOM     23  C   UNL     1      -0.745   2.654   1.245  1.00  0.00     0.121 C 
ENDBRANCH  13  16
ENDBRANCH   8  12
ENDBRANCH   7   8
ENDBRANCH   4   7
ENDBRANCH   2   3
ENDBRANCH   1   2
BRANCH   1  24
ATOM     24  C   UNL     1      -0.140   9.715  -1.556  1.00  0.00     0.118 C 
BRANCH  24  25
ATOM     25  N   UNL     1      -0.904  10.851  -2.044  1.00  0.00    -0.352 N 
ATOM     26  C   UNL     1      -1.305  11.986  -1.387  1.00  0.00     0.251 C 
ATOM     27  H   UNL     1      -1.173  10.798  -2.990  1.00  0.00     0.163 HD
ATOM     28  O   UNL     1      -2.180  12.685  -1.894  1.00  0.00    -0.269 OA
BRANCH  26  29
ATOM     29  C   UNL     1      -0.698  12.374  -0.093  1.00  0.00     0.039 A 
ATOM     30  C   UNL     1      -1.492  13.034   0.849  1.00  0.00     0.014 A 
ATOM     31  C   UNL     1       0.658  12.163   0.171  1.00  0.00     0.014 A 
ATOM     32  C   UNL     1      -0.932  13.466   2.054  1.00  0.00     0.010 A 
ATOM     33  C   UNL     1       1.193  12.509   1.408  1.00  0.00     0.010 A 
ATOM     34  C   UNL     1       0.415  13.198   2.348  1.00  0.00    -0.014 A 
BRANCH  34  35
ATOM     35  C   UNL     1       1.036  13.672   3.610  1.00  0.00     0.031 A 
ATOM     36  C   UNL     1       2.178  14.655   3.568  1.00  0.00     0.074 A 
ATOM     37  C   UNL     1       0.624  13.163   4.788  1.00  0.00     0.049 A 
ATOM     38  N   UNL     1       2.871  15.157   4.557  1.00  0.00    -0.248 NA
ATOM     39  C   UNL     1       2.623  15.113   2.239  1.00  0.00     0.031 C 
ATOM     40  C   UNL     1      -0.405  12.134   4.953  1.00  0.00     0.029 A 
ATOM     41  N   UNL     1       1.041  13.422   6.069  1.00  0.00    -0.354 N 
ATOM     42  C   UNL     1       3.858  15.942   3.972  1.00  0.00     0.074 A 
ATOM     43  C   UNL     1       3.694  15.831   2.541  1.00  0.00     0.031 C 
ATOM     44  C   UNL     1      -0.538  11.850   6.258  1.00  0.00     0.029 A 
ATOM     45  C   UNL     1       0.406  12.659   7.021  1.00  0.00     0.049 A 
ATOM     46  H   UNL     1       1.730  14.091   6.287  1.00  0.00     0.167 HD
ATOM     47  C   UNL     1       4.796  16.712   4.572  1.00  0.00     0.034 A 
ATOM     48  C   UNL     1       0.569  12.617   8.358  1.00  0.00     0.034 A 
ATOM     49  C   UNL     1       4.907  16.877   5.996  1.00  0.00     0.049 A 
ATOM     50  C   UNL     1       1.548  13.561   9.002  1.00  0.00     0.074 A 
ATOM     51  C   UNL     1       5.747  17.721   6.701  1.00  0.00     0.029 A 
ATOM     52  N   UNL     1       4.154  16.187   6.931  1.00  0.00    -0.354 N 
ATOM     53  N   UNL     1       2.347  14.433   8.437  1.00  0.00    -0.248 NA
ATOM     54  C   UNL     1       1.612  13.553  10.471  1.00  0.00     0.031 C 
ATOM     55  C   UNL     1       5.510  17.530   8.066  1.00  0.00     0.029 A 
ATOM     56  C   UNL     1       4.508  16.584   8.208  1.00  0.00     0.049 A 
ATOM     57  H   UNL     1       3.468  15.514   6.718  1.00  0.00     0.167 HD
ATOM     58  C   UNL     1       2.980  15.102   9.477  1.00  0.00     0.074 A 
ATOM     59  C   UNL     1       2.452  14.552  10.709  1.00  0.00     0.031 C 
ATOM     60  C   UNL     1       3.925  16.072   9.421  1.00  0.00     0.034 A 
BRANCH  47  61
ATOM     61  C   UNL     1       5.742  17.490   3.694  1.00  0.00     0.023 A 
ATOM     62  C   UNL     1       5.267  18.609   2.979  1.00  0.00     0.012 A 
ATOM     63  C   UNL     1       7.111  17.165   3.637  1.00  0.00     0.148 A 
ATOM     64  C   UNL     1       6.133  19.375   2.200  1.00  0.00     0.002 A 
ATOM     65  C   UNL     1       7.977  17.960   2.894  1.00  0.00     0.091 A 
ATOM     66  F   UNL     1       7.540  16.086   4.307  1.00  0.00    -0.205 F 
ATOM     67  C   UNL     1       7.488  19.058   2.167  1.00  0.00     0.022 A 
BRANCH  65  68
ATOM     68  S   UNL     1       9.752  17.688   2.853  1.00  0.00     0.127 S 
ATOM     69  O   UNL     1       9.949  17.236   1.476  1.00  0.00    -0.237 OA
ATOM     70  O   UNL     1      10.274  19.025   3.136  1.00  0.00    -0.237 OA
ATOM     71  O   UNL     1      10.032  16.695   3.881  1.00  0.00    -0.744 OA
ENDBRANCH  65  68
ENDBRANCH  47  61
BRANCH  48  72
ATOM     72  C   UNL     1      -0.274  11.705   9.183  1.00  0.00     0.023 A 
ATOM     73  C   UNL     1      -1.270  12.247  10.017  1.00  0.00     0.012 A 
ATOM     74  C   UNL     1      -0.112  10.307   9.127  1.00  0.00     0.148 A 
ATOM     75  C   UNL     1      -2.063  11.418  10.812  1.00  0.00     0.002 A 
ATOM     76  C   UNL     1      -0.944   9.483   9.878  1.00  0.00     0.091 A 
ATOM     77  F   UNL     1       0.849   9.808   8.337  1.00  0.00    -0.205 F 
ATOM     78  C   UNL     1      -1.907  10.037  10.735  1.00  0.00     0.022 A 
BRANCH  76  79
ATOM     79  S   UNL     1      -0.902   7.694   9.729  1.00  0.00     0.127 S 
ATOM     80  O   UNL     1      -0.192   7.307  10.943  1.00  0.00    -0.237 OA
ATOM     81  O   UNL     1      -2.325   7.353   9.712  1.00  0.00    -0.237 OA
ATOM     82  O   UNL     1      -0.214   7.427   8.471  1.00  0.00    -0.744 OA
ENDBRANCH  76  79
ENDBRANCH  48  72
BRANCH  60  83
ATOM     83  C   UNL     1       4.423  16.638  10.725  1.00  0.00     0.023 A 
ATOM     84  C   UNL     1       5.266  15.866  11.548  1.00  0.00     0.012 A 
ATOM     85  C   UNL     1       4.110  17.959  11.100  1.00  0.00     0.148 A 
ATOM     86  C   UNL     1       5.759  16.387  12.743  1.00  0.00     0.002 A 
ATOM     87  C   UNL     1       4.645  18.488  12.268  1.00  0.00     0.091 A 
ATOM     88  F   UNL     1       3.289  18.672  10.314  1.00  0.00    -0.205 F 
ATOM     89  C   UNL     1       5.458  17.700  13.097  1.00  0.00     0.022 A 
BRANCH  87  90
ATOM     90  S   UNL     1       4.386  20.202  12.742  1.00  0.00     0.127 S 
ATOM     91  O   UNL     1       3.350  20.075  13.766  1.00  0.00    -0.237 OA
ATOM     92  O   UNL     1       5.702  20.590  13.252  1.00  0.00    -0.237 OA
ATOM     93  O   UNL     1       3.987  20.893  11.524  1.00  0.00    -0.744 OA
ENDBRANCH  87  90
ENDBRANCH  60  83
ENDBRANCH  34  35
ENDBRANCH  26  29
ENDBRANCH  24  25
ENDBRANCH   1  24
TORSDOF 16
