REMARK SMILES Cc1ccc(-c2cc(OCC(=O)NCCCNC(=O)c3ccc(-c4c5nc(c(-c6cccc(S(=O)(=O)[O-])c6F)c6ccc([nH]6)c(-c6cccc(S(=O)(=O)[O-])c6F)c6nc(c(-c7cccc(S(=O)(=O)[O-])c7F)c7ccc4[nH]7)C=C6)C=C5)cc3)nc(NCc3ccc4c(c3)OCO4)n2)cc1
REMARK SMILES IDX 14 1 13 2 11 3 12 4 10 6 9 7 8 8 6 9 7 10 96 11 84 12 83 13
REMARK SMILES IDX 5 14 1 15 2 16 3 17 98 18 4 19 97 20 85 21 86 23 87 24 88 25
REMARK SMILES IDX 92 26 89 27 91 28 90 29 93 30 95 31 94 32 15 33 16 34 17 35
REMARK SMILES IDX 18 36 19 38 20 39 21 40 82 41 22 42 81 43 23 44 24 45 25 46
REMARK SMILES IDX 75 47 26 48 80 49 74 50 76 51 27 52 79 53 73 54 72 55 28 57
REMARK SMILES IDX 60 58 40 59 59 60 41 61 44 62 58 63 77 64 42 65 43 66 57 68
REMARK SMILES IDX 78 69 45 70 29 71 30 72 38 73 31 74 33 75 39 76 32 77 34 78
REMARK SMILES IDX 35 79 36 80 37 81 61 82 62 83 70 84 63 85 65 86 71 87 64 88
REMARK SMILES IDX 66 89 67 90 68 91 69 92 46 93 47 94 55 95 48 96 50 97 56 98
REMARK SMILES IDX 49 99 51 100 52 101 53 102 54 103
REMARK H PARENT 13 5 85 22 17 37 76 56 44 67
REMARK Flexibility Score: inf
ROOT
ATOM      1  C   UNL     1      -6.930   4.037  -2.432  1.00  0.00     0.117 C 
ENDROOT
BRANCH   1   2
ATOM      2  N   UNL     1      -5.479   3.976  -2.504  1.00  0.00    -0.353 N 
ATOM      3  C   UNL     1      -4.688   2.929  -2.879  1.00  0.00     0.258 C 
ATOM      4  O   UNL     1      -3.468   3.085  -2.953  1.00  0.00    -0.271 OA
ATOM      5  H   UNL     1      -5.003   4.800  -2.248  1.00  0.00     0.163 HD
BRANCH   3   6
ATOM      6  C   UNL     1      -5.326   1.577  -3.220  1.00  0.00     0.331 C 
BRANCH   6   7
ATOM      7  O   UNL     1      -5.941   0.888  -2.147  1.00  0.00    -0.467 OA
BRANCH   7   8
ATOM      8  C   UNL     1      -5.144   0.470  -1.116  1.00  0.00     0.219 A 
ATOM      9  C   UNL     1      -3.159  -0.066  -0.014  1.00  0.00     0.080 A 
ATOM     10  C   UNL     1      -3.778   0.390  -1.159  1.00  0.00     0.097 A 
ATOM     11  N   UNL     1      -3.844  -0.469   1.072  1.00  0.00    -0.213 NA
ATOM     12  C   UNL     1      -5.172  -0.324   1.038  1.00  0.00     0.226 A 
ATOM     13  N   UNL     1      -5.848   0.131  -0.025  1.00  0.00    -0.177 NA
BRANCH   9  14
ATOM     14  C   UNL     1      -1.697  -0.080   0.075  1.00  0.00     0.000 A 
ATOM     15  C   UNL     1       2.629  -0.065   0.050  1.00  0.00     0.044 C 
ATOM     16  C   UNL     1       1.129  -0.065   0.075  1.00  0.00    -0.051 A 
ATOM     17  C   UNL     1       0.423  -1.274   0.131  1.00  0.00     0.004 A 
ATOM     18  C   UNL     1       0.418   1.136   0.039  1.00  0.00     0.004 A 
ATOM     19  C   UNL     1      -0.977  -1.280   0.139  1.00  0.00     0.010 A 
ATOM     20  C   UNL     1      -0.978   1.127   0.037  1.00  0.00     0.010 A 
ENDBRANCH   9  14
BRANCH  12  21
ATOM     21  N   UNL     1      -5.937  -0.621   2.133  1.00  0.00    -0.350 N 
ATOM     22  H   UNL     1      -6.809  -0.177   2.238  1.00  0.00     0.164 HD
BRANCH  21  23
ATOM     23  C   UNL     1      -5.509  -1.561   3.136  1.00  0.00     0.152 C 
BRANCH  23  24
ATOM     24  C   UNL     1      -5.860  -2.997   2.777  1.00  0.00    -0.025 A 
ATOM     25  C   UNL     1      -5.253  -4.051   3.505  1.00  0.00     0.009 A 
ATOM     26  C   UNL     1      -6.770  -3.319   1.753  1.00  0.00     0.056 A 
ATOM     27  C   UNL     1      -5.495  -5.393   3.186  1.00  0.00     0.051 A 
ATOM     28  C   UNL     1      -6.966  -4.646   1.440  1.00  0.00     0.166 A 
ATOM     29  C   UNL     1      -6.338  -5.655   2.130  1.00  0.00     0.165 A 
ATOM     30  O   UNL     1      -7.744  -5.115   0.427  1.00  0.00    -0.454 OA
ATOM     31  O   UNL     1      -6.636  -6.884   1.626  1.00  0.00    -0.454 OA
ATOM     32  C   UNL     1      -7.372  -6.506   0.444  1.00  0.00     0.468 C 
ENDBRANCH  23  24
ENDBRANCH  21  23
ENDBRANCH  12  21
ENDBRANCH   7   8
ENDBRANCH   6   7
ENDBRANCH   3   6
ENDBRANCH   1   2
BRANCH   1  33
ATOM     33  C   UNL     1      -7.487   3.606  -1.082  1.00  0.00     0.042 C 
BRANCH  33  34
ATOM     34  C   UNL     1      -7.188   4.594   0.032  1.00  0.00     0.118 C 
BRANCH  34  35
ATOM     35  N   UNL     1      -8.178   5.650   0.166  1.00  0.00    -0.352 N 
ATOM     36  C   UNL     1      -8.245   6.696   1.066  1.00  0.00     0.251 C 
ATOM     37  H   UNL     1      -8.914   5.614  -0.486  1.00  0.00     0.163 HD
ATOM     38  O   UNL     1      -9.294   7.340   1.112  1.00  0.00    -0.269 OA
BRANCH  36  39
ATOM     39  C   UNL     1      -7.058   7.119   1.856  1.00  0.00     0.039 A 
ATOM     40  C   UNL     1      -6.891   8.488   2.126  1.00  0.00     0.014 A 
ATOM     41  C   UNL     1      -6.030   6.237   2.172  1.00  0.00     0.014 A 
ATOM     42  C   UNL     1      -5.633   8.987   2.470  1.00  0.00     0.010 A 
ATOM     43  C   UNL     1      -4.769   6.729   2.412  1.00  0.00     0.010 A 
ATOM     44  C   UNL     1      -4.560   8.107   2.496  1.00  0.00    -0.014 A 
BRANCH  44  45
ATOM     45  C   UNL     1      -3.156   8.473   2.550  1.00  0.00     0.031 A 
ATOM     46  C   UNL     1      -2.401   8.336   3.805  1.00  0.00     0.074 A 
ATOM     47  C   UNL     1      -2.501   8.576   1.373  1.00  0.00     0.049 A 
ATOM     48  N   UNL     1      -1.185   8.730   3.955  1.00  0.00    -0.248 NA
ATOM     49  C   UNL     1      -2.974   7.745   5.005  1.00  0.00     0.031 C 
ATOM     50  C   UNL     1      -1.079   8.371   1.130  1.00  0.00     0.029 A 
ATOM     51  N   UNL     1      -2.983   9.085   0.165  1.00  0.00    -0.354 N 
ATOM     52  C   UNL     1      -0.717   8.189   5.132  1.00  0.00     0.074 A 
ATOM     53  C   UNL     1      -1.897   7.683   5.793  1.00  0.00     0.031 C 
ATOM     54  C   UNL     1      -0.744   8.996  -0.007  1.00  0.00     0.029 A 
ATOM     55  C   UNL     1      -1.902   9.766  -0.424  1.00  0.00     0.049 A 
ATOM     56  H   UNL     1      -3.893   8.988  -0.200  1.00  0.00     0.167 HD
ATOM     57  C   UNL     1       0.633   8.120   5.322  1.00  0.00     0.034 A 
ATOM     58  C   UNL     1      -1.913  11.108  -0.680  1.00  0.00     0.034 A 
ATOM     59  C   UNL     1       1.356   8.785   4.220  1.00  0.00     0.049 A 
ATOM     60  C   UNL     1      -0.819  11.873   0.054  1.00  0.00     0.074 A 
ATOM     61  C   UNL     1       2.078   8.356   3.117  1.00  0.00     0.029 A 
ATOM     62  N   UNL     1       1.175  10.145   4.044  1.00  0.00    -0.354 N 
ATOM     63  N   UNL     1       0.118  11.327   0.780  1.00  0.00    -0.248 NA
ATOM     64  C   UNL     1      -0.761  13.335   0.098  1.00  0.00     0.031 C 
ATOM     65  C   UNL     1       2.316   9.486   2.275  1.00  0.00     0.029 A 
ATOM     66  C   UNL     1       1.759  10.600   2.876  1.00  0.00     0.049 A 
ATOM     67  H   UNL     1       0.688  10.721   4.676  1.00  0.00     0.167 HD
ATOM     68  C   UNL     1       0.752  12.298   1.516  1.00  0.00     0.074 A 
ATOM     69  C   UNL     1       0.205  13.544   1.008  1.00  0.00     0.031 C 
ATOM     70  C   UNL     1       1.615  12.011   2.540  1.00  0.00     0.034 A 
BRANCH  57  71
ATOM     71  C   UNL     1       1.361   7.285   6.367  1.00  0.00     0.023 A 
ATOM     72  C   UNL     1       2.757   7.122   6.199  1.00  0.00     0.012 A 
ATOM     73  C   UNL     1       0.800   6.598   7.468  1.00  0.00     0.148 A 
ATOM     74  C   UNL     1       3.525   6.268   6.998  1.00  0.00     0.002 A 
ATOM     75  C   UNL     1       1.553   5.709   8.242  1.00  0.00     0.091 A 
ATOM     76  F   UNL     1      -0.456   6.833   7.837  1.00  0.00    -0.205 F 
ATOM     77  C   UNL     1       2.917   5.536   8.004  1.00  0.00     0.022 A 
BRANCH  75  78
ATOM     78  S   UNL     1       0.821   4.695   9.543  1.00  0.00     0.127 S 
ATOM     79  O   UNL     1       1.188   3.343   9.117  1.00  0.00    -0.237 OA
ATOM     80  O   UNL     1       1.519   5.165  10.738  1.00  0.00    -0.237 OA
ATOM     81  O   UNL     1      -0.613   4.960   9.517  1.00  0.00    -0.744 OA
ENDBRANCH  75  78
ENDBRANCH  57  71
BRANCH  58  82
ATOM     82  C   UNL     1      -3.277  11.627  -0.993  1.00  0.00     0.023 A 
ATOM     83  C   UNL     1      -3.881  11.153  -2.182  1.00  0.00     0.012 A 
ATOM     84  C   UNL     1      -4.091  12.192   0.005  1.00  0.00     0.148 A 
ATOM     85  C   UNL     1      -5.269  11.122  -2.317  1.00  0.00     0.002 A 
ATOM     86  C   UNL     1      -5.476  12.155  -0.137  1.00  0.00     0.091 A 
ATOM     87  F   UNL     1      -3.509  12.662   1.115  1.00  0.00    -0.205 F 
ATOM     88  C   UNL     1      -6.067  11.590  -1.279  1.00  0.00     0.022 A 
BRANCH  86  89
ATOM     89  S   UNL     1      -6.575  12.681   1.186  1.00  0.00     0.127 S 
ATOM     90  O   UNL     1      -6.941  14.023   0.744  1.00  0.00    -0.237 OA
ATOM     91  O   UNL     1      -7.648  11.690   1.110  1.00  0.00    -0.237 OA
ATOM     92  O   UNL     1      -5.771  12.596   2.396  1.00  0.00    -0.744 OA
ENDBRANCH  86  89
ENDBRANCH  58  82
BRANCH  70  93
ATOM     93  C   UNL     1       2.377  13.058   3.339  1.00  0.00     0.023 A 
ATOM     94  C   UNL     1       2.860  14.226   2.716  1.00  0.00     0.012 A 
ATOM     95  C   UNL     1       2.760  12.856   4.693  1.00  0.00     0.148 A 
ATOM     96  C   UNL     1       3.621  15.174   3.412  1.00  0.00     0.002 A 
ATOM     97  C   UNL     1       3.588  13.758   5.355  1.00  0.00     0.091 A 
ATOM     98  F   UNL     1       2.300  11.799   5.367  1.00  0.00    -0.205 F 
ATOM     99  C   UNL     1       3.996  14.935   4.727  1.00  0.00     0.022 A 
BRANCH  97 100
ATOM    100  S   UNL     1       4.257  13.436   6.997  1.00  0.00     0.127 S 
ATOM    101  O   UNL     1       5.696  13.556   6.756  1.00  0.00    -0.237 OA
ATOM    102  O   UNL     1       3.677  14.530   7.774  1.00  0.00    -0.237 OA
ATOM    103  O   UNL     1       3.813  12.100   7.364  1.00  0.00    -0.744 OA
ENDBRANCH  97 100
ENDBRANCH  70  93
ENDBRANCH  44  45
ENDBRANCH  36  39
ENDBRANCH  34  35
ENDBRANCH  33  34
ENDBRANCH   1  33
TORSDOF 19
