REMARK SMILES Cc1nn(C)c(=O)c(C(=O)N2CC[C@@H](C(=O)NCCCNC(=O)c3ccc(-c4c5nc(c(-c6cccc(S(=O)(=O)[O-])c6F)c6ccc([nH]6)c(-c6cccc(S(=O)(=O)[O-])c6F)c6nc(c(-c7cccc(S(=O)(=O)[O-])c7F)c7ccc4[nH]7)C=C6)C=C5)cc3)[C@@H]2C)c1C
REMARK SMILES IDX 19 1 18 2 17 3 15 4 16 5 14 7 11 8 12 9 87 10 13 11 88 12
REMARK SMILES IDX 9 13 10 14 8 15 1 16 2 17 3 18 89 19 4 20 90 21 5 22 6 23
REMARK SMILES IDX 7 24 20 25 21 26 22 27 23 29 24 30 25 31 86 32 26 33 85 34
REMARK SMILES IDX 27 35 28 36 29 37 79 38 30 39 84 40 78 41 80 42 31 43 83 44
REMARK SMILES IDX 77 45 76 46 32 48 64 49 44 50 63 51 45 52 48 53 62 54 81 55
REMARK SMILES IDX 46 56 47 57 61 59 82 60 49 61 33 62 34 63 42 64 35 65 37 66
REMARK SMILES IDX 43 67 36 68 38 69 39 70 40 71 41 72 65 73 66 74 74 75 67 76
REMARK SMILES IDX 69 77 75 78 68 79 70 80 71 81 72 82 73 83 50 84 51 85 59 86
REMARK SMILES IDX 52 87 54 88 60 89 53 90 55 91 56 92 57 93 58 94
REMARK H PARENT 17 6 21 28 80 47 48 58
REMARK Flexibility Score: inf
ROOT
ATOM      1  C   UNL     1       0.041   1.469   2.139  1.00  0.00     0.042 C 
ENDROOT
BRANCH   1   2
ATOM      2  C   UNL     1      -0.978   1.474   3.280  1.00  0.00     0.117 C 
BRANCH   2   3
ATOM      3  N   UNL     1      -2.297   1.955   2.892  1.00  0.00    -0.356 N 
ATOM      4  C   UNL     1      -3.558   1.491   3.092  1.00  0.00     0.225 C 
ATOM      5  O   UNL     1      -4.467   2.239   2.704  1.00  0.00    -0.275 OA
ATOM      6  H   UNL     1      -2.269   2.793   2.376  1.00  0.00     0.163 HD
BRANCH   4   7
ATOM      7  C   UNL     1      -3.938   0.124   3.664  1.00  0.00     0.102 C 
ATOM      8  N   UNL     1      -2.638  -1.768   3.055  1.00  0.00    -0.335 N 
ATOM      9  C   UNL     1      -2.652  -1.747   4.511  1.00  0.00     0.121 C 
ATOM     10  C   UNL     1      -3.803  -0.989   2.614  1.00  0.00     0.094 C 
ATOM     11  C   UNL     1      -3.200  -0.376   4.903  1.00  0.00     0.037 C 
ATOM     12  C   UNL     1      -5.085  -1.822   2.489  1.00  0.00     0.032 C 
BRANCH   8  13
ATOM     13  C   UNL     1      -2.299  -2.982   2.437  1.00  0.00     0.260 C 
ATOM     14  O   UNL     1      -2.893  -4.012   2.745  1.00  0.00    -0.269 OA
BRANCH  13  15
ATOM     15  C   UNL     1      -1.074  -2.987   1.544  1.00  0.00     0.111 A 
ATOM     16  C   UNL     1       1.167  -0.792  -0.513  1.00  0.00     0.069 C 
ATOM     17  C   UNL     1       0.531  -2.067  -0.008  1.00  0.00     0.062 A 
ATOM     18  N   UNL     1       1.252  -3.130  -0.094  1.00  0.00    -0.175 NA
ATOM     19  C   UNL     1      -0.807  -2.020   0.641  1.00  0.00    -0.010 A 
ATOM     20  N   UNL     1       0.774  -4.254   0.506  1.00  0.00    -0.232 N 
ATOM     21  C   UNL     1      -1.763  -0.992   0.149  1.00  0.00     0.047 C 
ATOM     22  C   UNL     1       1.459  -5.480   0.117  1.00  0.00     0.178 C 
ATOM     23  C   UNL     1      -0.215  -4.233   1.489  1.00  0.00     0.279 A 
ATOM     24  O   UNL     1      -0.418  -5.181   2.246  1.00  0.00    -0.267 OA
ENDBRANCH  13  15
ENDBRANCH   8  13
ENDBRANCH   4   7
ENDBRANCH   2   3
ENDBRANCH   1   2
BRANCH   1  25
ATOM     25  C   UNL     1       0.483   2.827   1.603  1.00  0.00     0.118 C 
BRANCH  25  26
ATOM     26  N   UNL     1       1.835   3.152   2.020  1.00  0.00    -0.352 N 
ATOM     27  C   UNL     1       3.070   2.823   1.512  1.00  0.00     0.251 C 
ATOM     28  H   UNL     1       1.876   3.719   2.824  1.00  0.00     0.163 HD
ATOM     29  O   UNL     1       4.041   3.008   2.248  1.00  0.00    -0.269 OA
BRANCH  27  30
ATOM     30  C   UNL     1       3.300   2.262   0.149  1.00  0.00     0.039 A 
ATOM     31  C   UNL     1       4.429   1.447  -0.035  1.00  0.00     0.014 A 
ATOM     32  C   UNL     1       2.550   2.615  -0.975  1.00  0.00     0.014 A 
ATOM     33  C   UNL     1       4.805   1.006  -1.314  1.00  0.00     0.010 A 
ATOM     34  C   UNL     1       2.884   2.113  -2.244  1.00  0.00     0.010 A 
ATOM     35  C   UNL     1       4.037   1.335  -2.439  1.00  0.00    -0.014 A 
BRANCH  35  36
ATOM     36  C   UNL     1       4.465   0.938  -3.816  1.00  0.00     0.031 A 
ATOM     37  C   UNL     1       4.811   1.993  -4.842  1.00  0.00     0.074 A 
ATOM     38  C   UNL     1       4.530  -0.361  -4.172  1.00  0.00     0.049 A 
ATOM     39  N   UNL     1       5.154   1.849  -6.098  1.00  0.00    -0.248 NA
ATOM     40  C   UNL     1       4.754   3.396  -4.399  1.00  0.00     0.031 C 
ATOM     41  C   UNL     1       4.223  -1.492  -3.299  1.00  0.00     0.029 A 
ATOM     42  N   UNL     1       4.864  -0.951  -5.370  1.00  0.00    -0.354 N 
ATOM     43  C   UNL     1       5.328   3.135  -6.600  1.00  0.00     0.074 A 
ATOM     44  C   UNL     1       5.010   4.049  -5.524  1.00  0.00     0.031 C 
ATOM     45  C   UNL     1       4.379  -2.635  -3.983  1.00  0.00     0.029 A 
ATOM     46  C   UNL     1       4.776  -2.325  -5.354  1.00  0.00     0.049 A 
ATOM     47  H   UNL     1       5.139  -0.439  -6.164  1.00  0.00     0.167 HD
ATOM     48  C   UNL     1       5.751   3.528  -7.827  1.00  0.00     0.034 A 
ATOM     49  C   UNL     1       4.989  -3.237  -6.325  1.00  0.00     0.034 A 
ATOM     50  C   UNL     1       6.107   2.626  -8.891  1.00  0.00     0.049 A 
ATOM     51  C   UNL     1       5.435  -2.780  -7.689  1.00  0.00     0.074 A 
ATOM     52  C   UNL     1       6.584   2.934 -10.154  1.00  0.00     0.029 A 
ATOM     53  N   UNL     1       6.030   1.244  -8.822  1.00  0.00    -0.354 N 
ATOM     54  N   UNL     1       5.686  -1.564  -8.110  1.00  0.00    -0.248 NA
ATOM     55  C   UNL     1       5.661  -3.822  -8.701  1.00  0.00     0.031 C 
ATOM     56  C   UNL     1       6.770   1.739 -10.857  1.00  0.00     0.029 A 
ATOM     57  C   UNL     1       6.442   0.684 -10.021  1.00  0.00     0.049 A 
ATOM     58  H   UNL     1       5.728   0.734  -8.036  1.00  0.00     0.167 HD
ATOM     59  C   UNL     1       6.131  -1.697  -9.422  1.00  0.00     0.074 A 
ATOM     60  C   UNL     1       6.135  -3.115  -9.719  1.00  0.00     0.031 C 
ATOM     61  C   UNL     1       6.489  -0.729 -10.302  1.00  0.00     0.034 A 
BRANCH  48  62
ATOM     62  C   UNL     1       5.911   5.010  -8.074  1.00  0.00     0.023 A 
ATOM     63  C   UNL     1       6.955   5.709  -7.433  1.00  0.00     0.012 A 
ATOM     64  C   UNL     1       5.083   5.695  -8.986  1.00  0.00     0.148 A 
ATOM     65  C   UNL     1       7.148   7.071  -7.663  1.00  0.00     0.002 A 
ATOM     66  C   UNL     1       5.314   7.041  -9.249  1.00  0.00     0.091 A 
ATOM     67  F   UNL     1       4.085   5.021  -9.576  1.00  0.00    -0.205 F 
ATOM     68  C   UNL     1       6.336   7.733  -8.579  1.00  0.00     0.022 A 
BRANCH  66  69
ATOM     69  S   UNL     1       4.382   7.969 -10.474  1.00  0.00     0.127 S 
ATOM     70  O   UNL     1       3.604   8.873  -9.630  1.00  0.00    -0.237 OA
ATOM     71  O   UNL     1       5.443   8.614 -11.245  1.00  0.00    -0.237 OA
ATOM     72  O   UNL     1       3.603   6.983 -11.216  1.00  0.00    -0.744 OA
ENDBRANCH  66  69
ENDBRANCH  48  62
BRANCH  49  73
ATOM     73  C   UNL     1       4.861  -4.690  -6.008  1.00  0.00     0.023 A 
ATOM     74  C   UNL     1       6.021  -5.487  -5.957  1.00  0.00     0.012 A 
ATOM     75  C   UNL     1       3.615  -5.269  -5.694  1.00  0.00     0.148 A 
ATOM     76  C   UNL     1       5.942  -6.838  -5.613  1.00  0.00     0.002 A 
ATOM     77  C   UNL     1       3.551  -6.598  -5.293  1.00  0.00     0.091 A 
ATOM     78  F   UNL     1       2.522  -4.495  -5.760  1.00  0.00    -0.205 F 
ATOM     79  C   UNL     1       4.711  -7.389  -5.268  1.00  0.00     0.022 A 
BRANCH  77  80
ATOM     80  S   UNL     1       2.040  -7.361  -4.692  1.00  0.00     0.127 S 
ATOM     81  O   UNL     1       1.844  -8.439  -5.655  1.00  0.00    -0.237 OA
ATOM     82  O   UNL     1       2.437  -7.789  -3.351  1.00  0.00    -0.237 OA
ATOM     83  O   UNL     1       1.027  -6.310  -4.718  1.00  0.00    -0.744 OA
ENDBRANCH  77  80
ENDBRANCH  49  73
BRANCH  61  84
ATOM     84  C   UNL     1       6.938  -1.152 -11.680  1.00  0.00     0.023 A 
ATOM     85  C   UNL     1       5.997  -1.661 -12.597  1.00  0.00     0.012 A 
ATOM     86  C   UNL     1       8.270  -0.951 -12.100  1.00  0.00     0.148 A 
ATOM     87  C   UNL     1       6.378  -1.992 -13.897  1.00  0.00     0.002 A 
ATOM     88  C   UNL     1       8.630  -1.232 -13.413  1.00  0.00     0.091 A 
ATOM     89  F   UNL     1       9.156  -0.481 -11.211  1.00  0.00    -0.205 F 
ATOM     90  C   UNL     1       7.689  -1.764 -14.309  1.00  0.00     0.022 A 
BRANCH  88  91
ATOM     91  S   UNL     1      10.265  -0.873 -14.067  1.00  0.00     0.127 S 
ATOM     92  O   UNL     1      10.818  -2.215 -14.242  1.00  0.00    -0.237 OA
ATOM     93  O   UNL     1       9.954  -0.174 -15.314  1.00  0.00    -0.237 OA
ATOM     94  O   UNL     1      10.928  -0.051 -13.062  1.00  0.00    -0.744 OA
ENDBRANCH  88  91
ENDBRANCH  61  84
ENDBRANCH  35  36
ENDBRANCH  27  30
ENDBRANCH  25  26
ENDBRANCH   1  25
TORSDOF 15
