REMARK SMILES COc1ccc(C2=NN(C(=O)CCC(=O)NCCCNC(=O)c3ccc(-c4c5nc(c(-c6cccc(S(=O)(=O)[O-])c6F)c6ccc([nH]6)c(-c6cccc(S(=O)(=O)[O-])c6F)c6nc(c(-c7cccc(S(=O)(=O)[O-])c7F)c7ccc4[nH]7)C=C6)C=C5)cc3)[C@H](c3ccc(Cl)cc3Cl)C2)cc1
REMARK SMILES IDX 17 1 16 2 14 3 15 4 13 6 12 7 10 8 11 9 9 10 7 11 8 12 95 13
REMARK SMILES IDX 86 14 6 15 3 16 4 17 97 18 5 19 96 20 2 21 1 22 87 23 88 24
REMARK SMILES IDX 93 25 89 26 92 27 94 28 90 29 91 30 18 31 19 32 20 33 21 34
REMARK SMILES IDX 22 36 23 37 24 38 85 39 25 40 84 41 26 42 27 43 28 44 78 45
REMARK SMILES IDX 29 46 83 47 77 48 79 49 30 50 82 51 76 52 75 53 31 55 63 56
REMARK SMILES IDX 43 57 62 58 44 59 47 60 61 61 80 62 45 63 46 64 60 66 81 67
REMARK SMILES IDX 48 68 32 69 33 70 41 71 34 72 36 73 42 74 35 75 37 76 38 77
REMARK SMILES IDX 39 78 40 79 64 80 65 81 73 82 66 83 68 84 74 85 67 86 69 87
REMARK SMILES IDX 70 88 71 89 72 90 49 91 50 92 58 93 51 94 53 95 59 96 52 97
REMARK SMILES IDX 54 98 55 99 56 100 57 101
REMARK H PARENT 16 5 20 35 79 54 47 65
REMARK Flexibility Score: inf
ROOT
ATOM      1  C   UNL     1       4.013  -0.021   8.033  1.00  0.00     0.117 C 
ENDROOT
BRANCH   1   2
ATOM      2  N   UNL     1       5.077  -0.047   9.184  1.00  0.00    -0.356 N 
ATOM      3  C   UNL     1       5.255  -0.706  10.367  1.00  0.00     0.220 C 
ATOM      4  O   UNL     1       6.324  -0.453  10.941  1.00  0.00    -0.275 OA
ATOM      5  H   UNL     1       5.815   0.579   9.007  1.00  0.00     0.163 HD
BRANCH   3   6
ATOM      6  C   UNL     1       4.319  -1.740  10.998  1.00  0.00     0.110 C 
BRANCH   6   7
ATOM      7  C   UNL     1       2.820  -1.520  11.114  1.00  0.00     0.112 C 
BRANCH   7   8
ATOM      8  C   UNL     1       2.262  -1.663   9.757  1.00  0.00     0.243 C 
ATOM      9  O   UNL     1       1.755  -2.701   9.350  1.00  0.00    -0.273 OA
BRANCH   8  10
ATOM     10  N   UNL     1       2.528  -0.546   9.009  1.00  0.00    -0.225 N 
ATOM     11  C   UNL     1       3.048   0.482   6.314  1.00  0.00     0.071 C 
ATOM     12  N   UNL     1       2.621  -0.847   7.104  1.00  0.00    -0.174 NA
ATOM     13  C   UNL     1       3.637   1.916   7.516  1.00  0.00     0.091 C 
ATOM     14  C   UNL     1       3.144   1.309   9.329  1.00  0.00     0.149 C 
BRANCH  11  15
ATOM     15  C   UNL     1       2.409   0.977   5.042  1.00  0.00    -0.002 A 
ATOM     16  C   UNL     1       0.555   0.994   1.959  1.00  0.00     0.118 A 
ATOM     17  C   UNL     1      -0.333   1.423   3.712  1.00  0.00     0.047 A 
ATOM     18  C   UNL     1       2.310   0.579   1.995  1.00  0.00     0.047 A 
ATOM     19  C   UNL     1       0.700   1.488   5.179  1.00  0.00     0.014 A 
ATOM     20  C   UNL     1       3.157   0.561   3.522  1.00  0.00     0.014 A 
BRANCH  16  21
ATOM     21  O   UNL     1       0.107   1.138   0.627  1.00  0.00    -0.497 OA
ATOM     22  C   UNL     1       0.654   0.206  -0.299  1.00  0.00     0.278 C 
ENDBRANCH  16  21
ENDBRANCH  11  15
BRANCH  14  23
ATOM     23  C   UNL     1       2.449   2.457  10.158  1.00  0.00    -0.004 A 
ATOM     24  C   UNL     1       2.062   3.644   9.484  1.00  0.00     0.009 A 
ATOM     25  C   UNL     1       2.613   2.595  11.562  1.00  0.00     0.047 A 
ATOM     26  C   UNL     1       1.921   4.879  10.139  1.00  0.00     0.021 A 
ATOM     27  C   UNL     1       2.361   3.808  12.229  1.00  0.00     0.041 A 
ATOM     28  Cl  UNL     1       3.397   1.434  12.573  1.00  0.00    -0.084 Cl
ATOM     29  C   UNL     1       2.061   4.953  11.512  1.00  0.00     0.042 A 
ATOM     30  Cl  UNL     1       1.963   6.468  12.317  1.00  0.00    -0.084 Cl
ENDBRANCH  14  23
ENDBRANCH   8  10
ENDBRANCH   7   8
ENDBRANCH   6   7
ENDBRANCH   3   6
ENDBRANCH   1   2
BRANCH   1  31
ATOM     31  C   UNL     1       1.918   0.732   7.857  1.00  0.00     0.042 C 
BRANCH  31  32
ATOM     32  C   UNL     1       0.512  -0.307   7.123  1.00  0.00     0.118 C 
BRANCH  32  33
ATOM     33  N   UNL     1       0.694  -1.223   5.871  1.00  0.00    -0.352 N 
ATOM     34  C   UNL     1       1.197  -1.146   4.562  1.00  0.00     0.251 C 
ATOM     35  H   UNL     1       0.352  -2.128   6.055  1.00  0.00     0.163 HD
ATOM     36  O   UNL     1       1.718  -2.147   4.060  1.00  0.00    -0.269 OA
BRANCH  34  37
ATOM     37  C   UNL     1       0.924   0.050   3.587  1.00  0.00     0.039 A 
ATOM     38  C   UNL     1      -0.622  -0.552   2.897  1.00  0.00     0.014 A 
ATOM     39  C   UNL     1       1.393   1.992   3.308  1.00  0.00     0.014 A 
ATOM     40  C   UNL     1      -1.703   0.572   2.132  1.00  0.00     0.010 A 
ATOM     41  C   UNL     1       0.133   3.060   2.535  1.00  0.00     0.010 A 
ATOM     42  C   UNL     1      -1.428   2.324   2.039  1.00  0.00    -0.014 A 
BRANCH  42  43
ATOM     43  C   UNL     1      -2.744   3.123   2.098  1.00  0.00     0.031 A 
ATOM     44  C   UNL     1      -2.804   4.492   1.482  1.00  0.00     0.074 A 
ATOM     45  C   UNL     1      -3.834   2.713   2.824  1.00  0.00     0.049 A 
ATOM     46  N   UNL     1      -3.794   5.347   1.470  1.00  0.00    -0.248 NA
ATOM     47  C   UNL     1      -1.572   5.002   0.867  1.00  0.00     0.031 C 
ATOM     48  C   UNL     1      -3.950   1.516   3.677  1.00  0.00     0.029 A 
ATOM     49  N   UNL     1      -5.088   3.287   2.991  1.00  0.00    -0.354 N 
ATOM     50  C   UNL     1      -3.281   6.503   0.902  1.00  0.00     0.074 A 
ATOM     51  C   UNL     1      -1.869   6.279   0.694  1.00  0.00     0.031 C 
ATOM     52  C   UNL     1      -5.172   1.425   4.219  1.00  0.00     0.029 A 
ATOM     53  C   UNL     1      -5.957   2.566   3.799  1.00  0.00     0.049 A 
ATOM     54  H   UNL     1      -5.342   4.139   2.569  1.00  0.00     0.167 HD
ATOM     55  C   UNL     1      -3.927   7.622   0.501  1.00  0.00     0.034 A 
ATOM     56  C   UNL     1      -7.243   2.763   4.169  1.00  0.00     0.034 A 
ATOM     57  C   UNL     1      -5.342   7.819   0.610  1.00  0.00     0.049 A 
ATOM     58  C   UNL     1      -7.970   3.960   3.622  1.00  0.00     0.074 A 
ATOM     59  C   UNL     1      -6.108   8.844   0.085  1.00  0.00     0.029 A 
ATOM     60  N   UNL     1      -6.204   6.982   1.296  1.00  0.00    -0.354 N 
ATOM     61  N   UNL     1      -7.511   4.917   2.855  1.00  0.00    -0.248 NA
ATOM     62  C   UNL     1      -9.402   4.085   3.941  1.00  0.00     0.031 C 
ATOM     63  C   UNL     1      -7.430   8.651   0.493  1.00  0.00     0.029 A 
ATOM     64  C   UNL     1      -7.492   7.476   1.224  1.00  0.00     0.049 A 
ATOM     65  H   UNL     1      -5.938   6.158   1.765  1.00  0.00     0.167 HD
ATOM     66  C   UNL     1      -8.604   5.722   2.559  1.00  0.00     0.074 A 
ATOM     67  C   UNL     1      -9.752   5.134   3.212  1.00  0.00     0.031 C 
ATOM     68  C   UNL     1      -8.644   6.854   1.819  1.00  0.00     0.034 A 
BRANCH  55  69
ATOM     69  C   UNL     1      -3.107   8.684  -0.176  1.00  0.00     0.023 A 
ATOM     70  C   UNL     1      -2.534   8.425  -1.440  1.00  0.00     0.012 A 
ATOM     71  C   UNL     1      -2.925   9.942   0.424  1.00  0.00     0.148 A 
ATOM     72  C   UNL     1      -1.739   9.380  -2.067  1.00  0.00     0.002 A 
ATOM     73  C   UNL     1      -2.183  10.911  -0.236  1.00  0.00     0.091 A 
ATOM     74  F   UNL     1      -3.471  10.162   1.628  1.00  0.00    -0.205 F 
ATOM     75  C   UNL     1      -1.572  10.625  -1.470  1.00  0.00     0.022 A 
BRANCH  73  76
ATOM     76  S   UNL     1      -1.975  12.574   0.403  1.00  0.00     0.127 S 
ATOM     77  O   UNL     1      -0.528  12.630   0.613  1.00  0.00    -0.237 OA
ATOM     78  O   UNL     1      -2.462  13.387  -0.711  1.00  0.00    -0.237 OA
ATOM     79  O   UNL     1      -2.777  12.646   1.615  1.00  0.00    -0.744 OA
ENDBRANCH  73  76
ENDBRANCH  55  69
BRANCH  56  80
ATOM     80  C   UNL     1      -7.983   1.782   5.036  1.00  0.00     0.023 A 
ATOM     81  C   UNL     1      -9.050   1.036   4.486  1.00  0.00     0.012 A 
ATOM     82  C   UNL     1      -7.695   1.631   6.407  1.00  0.00     0.148 A 
ATOM     83  C   UNL     1      -9.856   0.227   5.291  1.00  0.00     0.002 A 
ATOM     84  C   UNL     1      -8.470   0.780   7.195  1.00  0.00     0.091 A 
ATOM     85  F   UNL     1      -6.678   2.335   6.923  1.00  0.00    -0.205 F 
ATOM     86  C   UNL     1      -9.566   0.098   6.645  1.00  0.00     0.022 A 
BRANCH  84  87
ATOM     87  S   UNL     1      -8.119   0.467   8.931  1.00  0.00     0.127 S 
ATOM     88  O   UNL     1      -9.256   1.108   9.587  1.00  0.00    -0.237 OA
ATOM     89  O   UNL     1      -8.125  -0.995   8.980  1.00  0.00    -0.237 OA
ATOM     90  O   UNL     1      -6.820   1.074   9.184  1.00  0.00    -0.744 OA
ENDBRANCH  84  87
ENDBRANCH  56  80
BRANCH  68  91
ATOM     91  C   UNL     1      -9.976   7.513   1.600  1.00  0.00     0.023 A 
ATOM     92  C   UNL     1     -10.621   8.186   2.655  1.00  0.00     0.012 A 
ATOM     93  C   UNL     1     -10.530   7.556   0.306  1.00  0.00     0.148 A 
ATOM     94  C   UNL     1     -11.811   8.875   2.429  1.00  0.00     0.002 A 
ATOM     95  C   UNL     1     -11.682   8.294   0.075  1.00  0.00     0.091 A 
ATOM     96  F   UNL     1      -9.909   6.888  -0.678  1.00  0.00    -0.205 F 
ATOM     97  C   UNL     1     -12.332   8.943   1.137  1.00  0.00     0.022 A 
BRANCH  95  98
ATOM     98  S   UNL     1     -12.353   8.534  -1.573  1.00  0.00     0.127 S 
ATOM     99  O   UNL     1     -13.593   7.763  -1.504  1.00  0.00    -0.237 OA
ATOM    100  O   UNL     1     -12.537   9.985  -1.621  1.00  0.00    -0.237 OA
ATOM    101  O   UNL     1     -11.351   8.020  -2.497  1.00  0.00    -0.744 OA
ENDBRANCH  95  98
ENDBRANCH  68  91
ENDBRANCH  42  43
ENDBRANCH  34  37
ENDBRANCH  32  33
ENDBRANCH  31  32
ENDBRANCH   1  31
TORSDOF 19
