REMARK SMILES COc1cccc(/C=C(/C#N)c2ccc(Br)cc2)c1O[C@@H](C)C(=O)NCCCNC(=O)c1ccc(-c2c3nc(c(-c4cccc(S(=O)(=O)[O-])c4F)c4ccc([nH]4)c(-c4cccc(S(=O)(=O)[O-])c4F)c4nc(c(-c5cccc(S(=O)(=O)[O-])c5F)c5ccc2[nH]5)C=C4)C=C3)cc1
REMARK SMILES IDX 26 1 25 2 23 3 24 4 21 6 22 7 20 8 19 9 3 10 4 11 5 12 7 13
REMARK SMILES IDX 6 14 2 15 1 16 8 17 9 18 10 19 11 20 12 21 13 22 18 23 14 24
REMARK SMILES IDX 17 25 15 26 16 27 27 28 28 29 29 30 30 31 31 33 32 34 33 35
REMARK SMILES IDX 94 36 34 37 93 38 35 39 36 40 37 41 87 42 38 43 92 44 86 45
REMARK SMILES IDX 88 46 39 47 91 48 85 49 84 50 40 52 72 53 52 54 71 55 53 56
REMARK SMILES IDX 56 57 70 58 89 59 54 60 55 61 69 63 90 64 57 65 41 66 42 67
REMARK SMILES IDX 50 68 43 69 45 70 51 71 44 72 46 73 47 74 48 75 49 76 73 77
REMARK SMILES IDX 74 78 82 79 75 80 77 81 83 82 76 83 78 84 79 85 80 86 81 87
REMARK SMILES IDX 58 88 59 89 67 90 60 91 62 92 68 93 61 94 63 95 64 96 65 97
REMARK SMILES IDX 66 98
REMARK H PARENT 25 5 29 32 88 51 56 62
REMARK Flexibility Score: inf
ROOT
ATOM      1  C   UNL     1       0.297  -1.188  -2.405  1.00  0.00     0.118 C 
ENDROOT
BRANCH   1   2
ATOM      2  N   UNL     1       1.472  -1.818  -1.844  1.00  0.00    -0.353 N 
ATOM      3  C   UNL     1       2.305  -1.456  -0.837  1.00  0.00     0.260 C 
ATOM      4  O   UNL     1       2.691  -2.419  -0.149  1.00  0.00    -0.271 OA
ATOM      5  H   UNL     1       1.713  -2.670  -2.275  1.00  0.00     0.163 HD
BRANCH   3   6
ATOM      6  C   UNL     1       2.921  -0.024  -0.530  1.00  0.00     0.259 C 
ATOM      7  C   UNL     1       2.883   0.264   0.986  1.00  0.00     0.064 C 
BRANCH   6   8
ATOM      8  O   UNL     1       3.083   1.205  -1.202  1.00  0.00    -0.476 OA
BRANCH   8   9
ATOM      9  C   UNL     1       2.071   1.754  -1.925  1.00  0.00     0.169 A 
ATOM     10  C   UNL     1       0.770   1.942  -1.426  1.00  0.00     0.161 A 
ATOM     11  C   UNL     1      -0.221   2.465  -2.258  1.00  0.00     0.050 A 
ATOM     12  C   UNL     1       0.072   2.752  -3.589  1.00  0.00     0.005 A 
ATOM     13  C   UNL     1       2.421   2.246  -3.206  1.00  0.00     0.022 A 
ATOM     14  C   UNL     1       1.379   2.618  -4.063  1.00  0.00     0.012 A 
BRANCH  10  15
ATOM     15  O   UNL     1       0.538   1.760  -0.090  1.00  0.00    -0.493 OA
ATOM     16  C   UNL     1      -0.551   0.915   0.268  1.00  0.00     0.278 C 
ENDBRANCH  10  15
BRANCH  13  17
ATOM     17  C   UNL     1       3.862   2.439  -3.558  1.00  0.00     0.032 C 
ATOM     18  C   UNL     1       4.449   3.397  -4.322  1.00  0.00     0.060 C 
BRANCH  18  19
ATOM     19  C   UNL     1       5.881   3.486  -4.338  1.00  0.00     0.100 C 
ATOM     20  N   UNL     1       7.039   3.540  -4.274  1.00  0.00    -0.192 NA
ENDBRANCH  18  19
BRANCH  18  21
ATOM     21  C   UNL     1       3.684   4.367  -5.129  1.00  0.00    -0.008 A 
ATOM     22  C   UNL     1       3.688   4.252  -6.526  1.00  0.00     0.010 A 
ATOM     23  C   UNL     1       2.831   5.302  -4.521  1.00  0.00     0.010 A 
ATOM     24  C   UNL     1       2.773   4.978  -7.293  1.00  0.00     0.016 A 
ATOM     25  C   UNL     1       1.912   6.019  -5.291  1.00  0.00     0.016 A 
ATOM     26  C   UNL     1       1.874   5.840  -6.672  1.00  0.00     0.018 A 
ATOM     27  Br  UNL     1       0.556   6.748  -7.677  1.00  0.00    -0.051 Br
ENDBRANCH  18  21
ENDBRANCH  13  17
ENDBRANCH   8   9
ENDBRANCH   6   8
ENDBRANCH   3   6
ENDBRANCH   1   2
BRANCH   1  28
ATOM     28  C   UNL     1       0.422  -0.810  -3.868  1.00  0.00     0.042 C 
BRANCH  28  29
ATOM     29  C   UNL     1      -0.480  -1.605  -4.800  1.00  0.00     0.118 C 
BRANCH  29  30
ATOM     30  N   UNL     1      -1.907  -1.339  -4.587  1.00  0.00    -0.352 N 
ATOM     31  C   UNL     1      -2.857  -0.744  -5.389  1.00  0.00     0.251 C 
ATOM     32  H   UNL     1      -2.247  -1.639  -3.713  1.00  0.00     0.163 HD
ATOM     33  O   UNL     1      -3.958  -0.481  -4.909  1.00  0.00    -0.269 OA
BRANCH  31  34
ATOM     34  C   UNL     1      -2.571  -0.401  -6.803  1.00  0.00     0.039 A 
ATOM     35  C   UNL     1      -3.156   0.735  -7.375  1.00  0.00     0.014 A 
ATOM     36  C   UNL     1      -1.740  -1.204  -7.581  1.00  0.00     0.014 A 
ATOM     37  C   UNL     1      -2.835   1.104  -8.688  1.00  0.00     0.010 A 
ATOM     38  C   UNL     1      -1.314  -0.763  -8.827  1.00  0.00     0.010 A 
ATOM     39  C   UNL     1      -1.871   0.384  -9.409  1.00  0.00    -0.014 A 
BRANCH  39  40
ATOM     40  C   UNL     1      -1.431   0.771 -10.777  1.00  0.00     0.031 A 
ATOM     41  C   UNL     1      -1.535  -0.227 -11.904  1.00  0.00     0.074 A 
ATOM     42  C   UNL     1      -0.823   1.957 -10.982  1.00  0.00     0.049 A 
ATOM     43  N   UNL     1      -1.071  -0.144 -13.123  1.00  0.00    -0.248 NA
ATOM     44  C   UNL     1      -2.211  -1.505 -11.612  1.00  0.00     0.031 C 
ATOM     45  C   UNL     1      -0.594   2.984  -9.962  1.00  0.00     0.029 A 
ATOM     46  N   UNL     1      -0.249   2.487 -12.113  1.00  0.00    -0.354 N 
ATOM     47  C   UNL     1      -1.337  -1.373 -13.716  1.00  0.00     0.074 A 
ATOM     48  C   UNL     1      -1.977  -2.197 -12.716  1.00  0.00     0.031 C 
ATOM     49  C   UNL     1       0.064   4.014 -10.515  1.00  0.00     0.029 A 
ATOM     50  C   UNL     1       0.350   3.709 -11.909  1.00  0.00     0.049 A 
ATOM     51  H   UNL     1      -0.266   2.034 -12.988  1.00  0.00     0.167 HD
ATOM     52  C   UNL     1      -1.092  -1.774 -14.984  1.00  0.00     0.034 A 
ATOM     53  C   UNL     1       1.069   4.491 -12.737  1.00  0.00     0.034 A 
ATOM     54  C   UNL     1      -0.513  -0.929 -15.992  1.00  0.00     0.049 A 
ATOM     55  C   UNL     1       1.285   4.039 -14.154  1.00  0.00     0.074 A 
ATOM     56  C   UNL     1      -0.338  -1.197 -17.337  1.00  0.00     0.029 A 
ATOM     57  N   UNL     1      -0.002   0.337 -15.763  1.00  0.00    -0.354 N 
ATOM     58  N   UNL     1       0.885   2.935 -14.735  1.00  0.00    -0.248 NA
ATOM     59  C   UNL     1       2.021   4.953 -15.039  1.00  0.00     0.031 C 
ATOM     60  C   UNL     1       0.327  -0.112 -17.912  1.00  0.00     0.029 A 
ATOM     61  C   UNL     1       0.513   0.855 -16.937  1.00  0.00     0.049 A 
ATOM     62  H   UNL     1      -0.004   0.800 -14.894  1.00  0.00     0.167 HD
ATOM     63  C   UNL     1       1.283   3.040 -16.061  1.00  0.00     0.074 A 
ATOM     64  C   UNL     1       1.942   4.322 -16.202  1.00  0.00     0.031 C 
ATOM     65  C   UNL     1       1.123   2.151 -17.071  1.00  0.00     0.034 A 
BRANCH  52  66
ATOM     66  C   UNL     1      -1.469  -3.179 -15.373  1.00  0.00     0.023 A 
ATOM     67  C   UNL     1      -2.826  -3.544 -15.489  1.00  0.00     0.012 A 
ATOM     68  C   UNL     1      -0.471  -4.117 -15.703  1.00  0.00     0.148 A 
ATOM     69  C   UNL     1      -3.183  -4.829 -15.896  1.00  0.00     0.002 A 
ATOM     70  C   UNL     1      -0.834  -5.377 -16.160  1.00  0.00     0.091 A 
ATOM     71  F   UNL     1       0.813  -3.757 -15.566  1.00  0.00    -0.205 F 
ATOM     72  C   UNL     1      -2.189  -5.739 -16.245  1.00  0.00     0.022 A 
BRANCH  70  73
ATOM     73  S   UNL     1       0.367  -6.590 -16.716  1.00  0.00     0.127 S 
ATOM     74  O   UNL     1       0.217  -7.637 -15.706  1.00  0.00    -0.237 OA
ATOM     75  O   UNL     1      -0.146  -6.942 -18.040  1.00  0.00    -0.237 OA
ATOM     76  O   UNL     1       1.655  -5.912 -16.720  1.00  0.00    -0.744 OA
ENDBRANCH  70  73
ENDBRANCH  52  66
BRANCH  53  77
ATOM     77  C   UNL     1       1.618   5.797 -12.271  1.00  0.00     0.023 A 
ATOM     78  C   UNL     1       1.074   6.997 -12.768  1.00  0.00     0.012 A 
ATOM     79  C   UNL     1       2.693   5.855 -11.363  1.00  0.00     0.148 A 
ATOM     80  C   UNL     1       1.619   8.230 -12.404  1.00  0.00     0.002 A 
ATOM     81  C   UNL     1       3.210   7.088 -10.978  1.00  0.00     0.091 A 
ATOM     82  F   UNL     1       3.174   4.702 -10.878  1.00  0.00    -0.205 F 
ATOM     83  C   UNL     1       2.685   8.276 -11.510  1.00  0.00     0.022 A 
BRANCH  81  84
ATOM     84  S   UNL     1       4.559   7.249  -9.803  1.00  0.00     0.127 S 
ATOM     85  O   UNL     1       5.490   8.114 -10.524  1.00  0.00    -0.237 OA
ATOM     86  O   UNL     1       3.887   7.880  -8.669  1.00  0.00    -0.237 OA
ATOM     87  O   UNL     1       5.034   5.892  -9.569  1.00  0.00    -0.744 OA
ENDBRANCH  81  84
ENDBRANCH  53  77
BRANCH  65  88
ATOM     88  C   UNL     1       1.612   2.549 -18.436  1.00  0.00     0.023 A 
ATOM     89  C   UNL     1       2.993   2.608 -18.707  1.00  0.00     0.012 A 
ATOM     90  C   UNL     1       0.689   2.782 -19.474  1.00  0.00     0.148 A 
ATOM     91  C   UNL     1       3.447   2.926 -19.987  1.00  0.00     0.002 A 
ATOM     92  C   UNL     1       1.148   3.040 -20.758  1.00  0.00     0.091 A 
ATOM     93  F   UNL     1      -0.620   2.736 -19.187  1.00  0.00    -0.205 F 
ATOM     94  C   UNL     1       2.526   3.127 -21.013  1.00  0.00     0.022 A 
BRANCH  92  95
ATOM     95  S   UNL     1       0.040   3.206 -22.160  1.00  0.00     0.127 S 
ATOM     96  O   UNL     1       0.201   4.619 -22.501  1.00  0.00    -0.237 OA
ATOM     97  O   UNL     1       0.624   2.275 -23.125  1.00  0.00    -0.237 OA
ATOM     98  O   UNL     1      -1.283   2.832 -21.679  1.00  0.00    -0.744 OA
ENDBRANCH  92  95
ENDBRANCH  65  88
ENDBRANCH  39  40
ENDBRANCH  31  34
ENDBRANCH  29  30
ENDBRANCH  28  29
ENDBRANCH   1  28
TORSDOF 19
