REMARK SMILES C#Cc1ccc2c(c1)C=C(C(=O)NCCCNC(=O)c1ccc(-c3c4nc(c(-c5cccc(S(=O)(=O)[O-])c5F)c5ccc([nH]5)c(-c5cccc(S(=O)(=O)[O-])c5F)c5nc(c(-c6cccc(S(=O)(=O)[O-])c6F)c6ccc3[nH]6)C=C5)C=C4)cc1)[C@@H](C(F)(F)F)O2
REMARK SMILES IDX 16 1 15 2 14 3 13 4 11 5 12 6 10 8 3 9 4 10 8 11 5 12 7 13
REMARK SMILES IDX 6 14 9 15 88 16 83 17 2 18 1 19 84 20 85 21 86 22 87 23
REMARK SMILES IDX 17 24 18 25 19 27 20 28 21 29 82 30 22 31 81 32 23 33 24 34
REMARK SMILES IDX 25 35 75 36 26 37 80 38 74 39 76 40 27 41 79 42 73 43 72 44
REMARK SMILES IDX 28 46 60 47 40 48 59 49 41 50 44 51 58 52 77 53 42 54 43 55
REMARK SMILES IDX 57 57 78 58 45 59 29 60 30 61 38 62 31 63 33 64 39 65 32 66
REMARK SMILES IDX 34 67 35 68 36 69 37 70 61 71 62 72 70 73 63 74 65 75 71 76
REMARK SMILES IDX 64 77 66 78 67 79 68 80 69 81 46 82 47 83 55 84 48 85 50 86
REMARK SMILES IDX 56 87 49 88 51 89 52 90 53 91 54 92
REMARK H PARENT 13 7 17 26 76 45 44 56
REMARK Flexibility Score: inf
ROOT
ATOM      1  C   UNL     1     -10.831   3.704   1.274  1.00  0.00     0.118 C 
ENDROOT
BRANCH   1   2
ATOM      2  C   UNL     1      -9.867   2.544   1.103  1.00  0.00     0.042 C 
BRANCH   2   3
ATOM      3  C   UNL     1      -9.074   2.664  -0.184  1.00  0.00     0.118 C 
BRANCH   3   4
ATOM      4  N   UNL     1      -7.963   3.598  -0.058  1.00  0.00    -0.352 N 
ATOM      5  C   UNL     1      -6.611   3.531  -0.040  1.00  0.00     0.251 C 
ATOM      6  O   UNL     1      -6.025   4.615   0.047  1.00  0.00    -0.270 OA
ATOM      7  H   UNL     1      -8.281   4.525   0.040  1.00  0.00     0.163 HD
BRANCH   5   8
ATOM      8  C   UNL     1      -5.823   2.267  -0.120  1.00  0.00     0.067 C 
ATOM      9  C   UNL     1      -1.530   0.048  -0.094  1.00  0.00     0.025 A 
ATOM     10  C   UNL     1      -2.173  -1.192  -0.085  1.00  0.00     0.021 A 
ATOM     11  C   UNL     1      -2.277   1.232  -0.073  1.00  0.00     0.029 A 
ATOM     12  C   UNL     1      -3.563  -1.252  -0.053  1.00  0.00     0.048 A 
ATOM     13  C   UNL     1      -3.674   1.174  -0.047  1.00  0.00     0.018 A 
ATOM     14  C   UNL     1      -4.302  -0.073  -0.043  1.00  0.00     0.128 A 
ATOM     15  C   UNL     1      -4.490   2.381   0.023  1.00  0.00     0.025 C 
ATOM     16  O   UNL     1      -5.654  -0.223   0.019  1.00  0.00    -0.475 OA
ATOM     17  C   UNL     1      -6.446   0.925  -0.373  1.00  0.00     0.314 C 
BRANCH   9  18
ATOM     18  C   UNL     1      -0.102   0.093  -0.108  1.00  0.00    -0.070 C 
ATOM     19  C   UNL     1       1.101   0.097  -0.110  1.00  0.00     0.010 C 
ENDBRANCH   9  18
BRANCH  17  20
ATOM     20  C   UNL     1      -6.889   0.753  -1.840  1.00  0.00     0.429 C 
ATOM     21  F   UNL     1      -7.804  -0.242  -1.946  1.00  0.00    -0.167 F 
ATOM     22  F   UNL     1      -7.473   1.865  -2.349  1.00  0.00    -0.167 F 
ATOM     23  F   UNL     1      -5.860   0.448  -2.663  1.00  0.00    -0.167 F 
ENDBRANCH  17  20
ENDBRANCH   5   8
ENDBRANCH   3   4
ENDBRANCH   2   3
ENDBRANCH   1   2
BRANCH   1  24
ATOM     24  N   UNL     1     -11.850   3.737   0.221  1.00  0.00    -0.352 N 
ATOM     25  C   UNL     1     -13.207   3.522   0.286  1.00  0.00     0.251 C 
ATOM     26  H   UNL     1     -11.508   3.948  -0.677  1.00  0.00     0.163 HD
ATOM     27  O   UNL     1     -13.852   3.371  -0.746  1.00  0.00    -0.269 OA
BRANCH  25  28
ATOM     28  C   UNL     1     -13.859   3.445   1.606  1.00  0.00     0.039 A 
ATOM     29  C   UNL     1     -13.451   4.308   2.619  1.00  0.00     0.014 A 
ATOM     30  C   UNL     1     -14.820   2.464   1.857  1.00  0.00     0.014 A 
ATOM     31  C   UNL     1     -13.785   4.015   3.929  1.00  0.00     0.010 A 
ATOM     32  C   UNL     1     -15.279   2.276   3.163  1.00  0.00     0.010 A 
ATOM     33  C   UNL     1     -14.707   2.998   4.221  1.00  0.00    -0.014 A 
BRANCH  33  34
ATOM     34  C   UNL     1     -15.037   2.722   5.642  1.00  0.00     0.031 A 
ATOM     35  C   UNL     1     -14.796   1.364   6.246  1.00  0.00     0.074 A 
ATOM     36  C   UNL     1     -15.493   3.733   6.409  1.00  0.00     0.049 A 
ATOM     37  N   UNL     1     -14.999   0.972   7.478  1.00  0.00    -0.248 NA
ATOM     38  C   UNL     1     -14.263   0.306   5.369  1.00  0.00     0.031 C 
ATOM     39  C   UNL     1     -15.768   5.094   5.936  1.00  0.00     0.029 A 
ATOM     40  N   UNL     1     -15.786   3.786   7.747  1.00  0.00    -0.354 N 
ATOM     41  C   UNL     1     -14.665  -0.376   7.512  1.00  0.00     0.074 A 
ATOM     42  C   UNL     1     -14.251  -0.745   6.179  1.00  0.00     0.031 C 
ATOM     43  C   UNL     1     -16.133   5.858   6.973  1.00  0.00     0.029 A 
ATOM     44  C   UNL     1     -16.202   5.027   8.168  1.00  0.00     0.049 A 
ATOM     45  H   UNL     1     -15.706   3.010   8.348  1.00  0.00     0.167 HD
ATOM     46  C   UNL     1     -14.684  -1.223   8.567  1.00  0.00     0.034 A 
ATOM     47  C   UNL     1     -16.620   5.453   9.374  1.00  0.00     0.034 A 
ATOM     48  C   UNL     1     -15.052  -0.841   9.902  1.00  0.00     0.049 A 
ATOM     49  C   UNL     1     -16.654   4.487  10.517  1.00  0.00     0.074 A 
ATOM     50  C   UNL     1     -15.056  -1.625  11.042  1.00  0.00     0.029 A 
ATOM     51  N   UNL     1     -15.483   0.420  10.277  1.00  0.00    -0.354 N 
ATOM     52  N   UNL     1     -16.272   3.234  10.539  1.00  0.00    -0.248 NA
ATOM     53  C   UNL     1     -17.163   4.987  11.801  1.00  0.00     0.031 C 
ATOM     54  C   UNL     1     -15.521  -0.846  12.102  1.00  0.00     0.029 A 
ATOM     55  C   UNL     1     -15.771   0.432  11.629  1.00  0.00     0.049 A 
ATOM     56  H   UNL     1     -15.572   1.192   9.672  1.00  0.00     0.167 HD
ATOM     57  C   UNL     1     -16.476   2.799  11.841  1.00  0.00     0.074 A 
ATOM     58  C   UNL     1     -17.004   3.925  12.583  1.00  0.00     0.031 C 
ATOM     59  C   UNL     1     -16.254   1.571  12.365  1.00  0.00     0.034 A 
BRANCH  46  60
ATOM     60  C   UNL     1     -14.264  -2.650   8.349  1.00  0.00     0.023 A 
ATOM     61  C   UNL     1     -12.894  -2.963   8.251  1.00  0.00     0.012 A 
ATOM     62  C   UNL     1     -15.215  -3.689   8.375  1.00  0.00     0.148 A 
ATOM     63  C   UNL     1     -12.476  -4.291   8.181  1.00  0.00     0.002 A 
ATOM     64  C   UNL     1     -14.790  -5.011   8.332  1.00  0.00     0.091 A 
ATOM     65  F   UNL     1     -16.512  -3.362   8.464  1.00  0.00    -0.205 F 
ATOM     66  C   UNL     1     -13.421  -5.313   8.234  1.00  0.00     0.022 A 
BRANCH  64  67
ATOM     67  S   UNL     1     -15.921  -6.402   8.431  1.00  0.00     0.127 S 
ATOM     68  O   UNL     1     -15.720  -7.036   7.128  1.00  0.00    -0.237 OA
ATOM     69  O   UNL     1     -15.384  -7.153   9.564  1.00  0.00    -0.237 OA
ATOM     70  O   UNL     1     -17.245  -5.834   8.640  1.00  0.00    -0.744 OA
ENDBRANCH  64  67
ENDBRANCH  46  60
BRANCH  47  71
ATOM     71  C   UNL     1     -17.019   6.875   9.539  1.00  0.00     0.023 A 
ATOM     72  C   UNL     1     -16.164   7.760  10.222  1.00  0.00     0.012 A 
ATOM     73  C   UNL     1     -18.197   7.369   8.944  1.00  0.00     0.148 A 
ATOM     74  C   UNL     1     -16.477   9.116  10.310  1.00  0.00     0.002 A 
ATOM     75  C   UNL     1     -18.485   8.725   9.006  1.00  0.00     0.091 A 
ATOM     76  F   UNL     1     -18.985   6.503   8.292  1.00  0.00    -0.205 F 
ATOM     77  C   UNL     1     -17.630   9.600   9.694  1.00  0.00     0.022 A 
BRANCH  75  78
ATOM     78  S   UNL     1     -19.901   9.454   8.176  1.00  0.00     0.127 S 
ATOM     79  O   UNL     1     -20.664   9.984   9.304  1.00  0.00    -0.237 OA
ATOM     80  O   UNL     1     -19.263  10.465   7.333  1.00  0.00    -0.237 OA
ATOM     81  O   UNL     1     -20.539   8.367   7.447  1.00  0.00    -0.744 OA
ENDBRANCH  75  78
ENDBRANCH  47  71
BRANCH  59  82
ATOM     82  C   UNL     1     -16.550   1.353  13.821  1.00  0.00     0.023 A 
ATOM     83  C   UNL     1     -17.879   1.142  14.233  1.00  0.00     0.012 A 
ATOM     84  C   UNL     1     -15.496   1.192  14.742  1.00  0.00     0.148 A 
ATOM     85  C   UNL     1     -18.155   0.765  15.546  1.00  0.00     0.002 A 
ATOM     86  C   UNL     1     -15.777   0.787  16.040  1.00  0.00     0.091 A 
ATOM     87  F   UNL     1     -14.242   1.399  14.316  1.00  0.00    -0.205 F 
ATOM     88  C   UNL     1     -17.105   0.573  16.444  1.00  0.00     0.022 A 
BRANCH  86  89
ATOM     89  S   UNL     1     -14.492   0.457  17.250  1.00  0.00     0.127 S 
ATOM     90  O   UNL     1     -14.786   1.460  18.274  1.00  0.00    -0.237 OA
ATOM     91  O   UNL     1     -14.786  -0.921  17.642  1.00  0.00    -0.237 OA
ATOM     92  O   UNL     1     -13.224   0.641  16.558  1.00  0.00    -0.744 OA
ENDBRANCH  86  89
ENDBRANCH  59  82
ENDBRANCH  33  34
ENDBRANCH  25  28
ENDBRANCH   1  24
TORSDOF 15
