REMARK SMILES C[N@@H+](CCS(C)(=O)=O)Cc1oc2ccccc2c1C(=O)NCCCNC(=O)c1ccc(-c2c3nc(c(-c4cccc(S(=O)(=O)[O-])c4F)c4ccc([nH]4)c(-c4cccc(S(=O)(=O)[O-])c4F)c4nc(c(-c5cccc(S(=O)(=O)[O-])c5F)c5ccc2[nH]5)C=C4)C=C3)cc1
REMARK SMILES IDX 22 1 21 2 19 3 20 4 18 6 10 7 11 8 12 9 17 10 13 11 16 12
REMARK SMILES IDX 14 13 15 14 9 15 2 16 1 17 3 19 4 20 5 21 6 22 7 23 8 24
REMARK SMILES IDX 23 25 24 26 25 27 26 28 27 30 28 31 29 32 90 33 30 34 89 35
REMARK SMILES IDX 31 36 32 37 33 38 83 39 34 40 88 41 82 42 84 43 35 44 87 45
REMARK SMILES IDX 81 46 80 47 36 49 68 50 48 51 67 52 49 53 52 54 66 55 85 56
REMARK SMILES IDX 50 57 51 58 65 60 86 61 53 62 37 63 38 64 46 65 39 66 41 67
REMARK SMILES IDX 47 68 40 69 42 70 43 71 44 72 45 73 69 74 70 75 78 76 71 77
REMARK SMILES IDX 73 78 79 79 72 80 74 81 75 82 76 83 77 84 54 85 55 86 63 87
REMARK SMILES IDX 56 88 58 89 64 90 57 91 59 92 60 93 61 94 62 95
REMARK H PARENT 21 5 2 18 25 29 84 48 52 59
REMARK Flexibility Score: inf
ROOT
ATOM      1  C   UNL     1       0.549   3.603  -2.719  1.00  0.00     0.118 C 
ENDROOT
BRANCH   1   2
ATOM      2  N   UNL     1       1.481   2.960  -1.821  1.00  0.00    -0.352 N 
ATOM      3  C   UNL     1       2.117   1.752  -1.980  1.00  0.00     0.255 C 
ATOM      4  O   UNL     1       3.014   1.472  -1.185  1.00  0.00    -0.269 OA
ATOM      5  H   UNL     1       1.685   3.448  -0.990  1.00  0.00     0.163 HD
BRANCH   3   6
ATOM      6  C   UNL     1       1.657   0.807  -2.981  1.00  0.00     0.095 A 
ATOM      7  C   UNL     1       1.476  -0.543  -2.686  1.00  0.00     0.172 A 
ATOM      8  O   UNL     1       1.019  -1.197  -3.787  1.00  0.00    -0.454 OA
ATOM      9  C   UNL     1       0.796  -0.286  -4.758  1.00  0.00     0.135 A 
ATOM     10  C   UNL     1       1.246   0.963  -4.359  1.00  0.00     0.034 A 
ATOM     11  C   UNL     1       0.165  -0.560  -5.970  1.00  0.00     0.048 A 
ATOM     12  C   UNL     1       1.146   2.001  -5.314  1.00  0.00     0.013 A 
ATOM     13  C   UNL     1      -0.065   0.523  -6.817  1.00  0.00     0.004 A 
ATOM     14  C   UNL     1       0.431   1.785  -6.503  1.00  0.00     0.001 A 
BRANCH   7  15
ATOM     15  C   UNL     1       1.656  -1.413  -1.480  1.00  0.00     0.339 C 
BRANCH  15  16
ATOM     16  N   UNL     1       0.679  -1.289  -0.388  1.00  0.00    -0.330 N 
ATOM     17  C   UNL     1       0.798  -0.107   0.442  1.00  0.00     0.333 C 
ATOM     18  H   UNL     1       1.029  -2.034   0.214  1.00  0.00     0.348 HD
BRANCH  16  19
ATOM     19  C   UNL     1      -0.679  -1.793  -0.596  1.00  0.00     0.278 C 
BRANCH  19  20
ATOM     20  C   UNL     1      -1.550  -1.172  -1.685  1.00  0.00     0.197 C 
BRANCH  20  21
ATOM     21  S   UNL     1      -1.859  -2.287  -3.062  1.00  0.00     0.152 S 
ATOM     22  C   UNL     1      -3.171  -3.331  -2.501  1.00  0.00     0.158 C 
ATOM     23  O   UNL     1      -2.397  -1.512  -4.160  1.00  0.00    -0.229 OA
ATOM     24  O   UNL     1      -0.726  -3.177  -3.261  1.00  0.00    -0.229 OA
ENDBRANCH  20  21
ENDBRANCH  19  20
ENDBRANCH  16  19
ENDBRANCH  15  16
ENDBRANCH   7  15
ENDBRANCH   3   6
ENDBRANCH   1   2
BRANCH   1  25
ATOM     25  C   UNL     1      -0.406   4.600  -2.108  1.00  0.00     0.042 C 
BRANCH  25  26
ATOM     26  C   UNL     1       0.235   5.640  -1.214  1.00  0.00     0.118 C 
BRANCH  26  27
ATOM     27  N   UNL     1       1.331   6.376  -1.839  1.00  0.00    -0.352 N 
ATOM     28  C   UNL     1       1.427   7.693  -2.226  1.00  0.00     0.251 C 
ATOM     29  H   UNL     1       2.137   5.839  -2.013  1.00  0.00     0.163 HD
ATOM     30  O   UNL     1       2.420   8.076  -2.839  1.00  0.00    -0.269 OA
BRANCH  28  31
ATOM     31  C   UNL     1       0.321   8.632  -1.945  1.00  0.00     0.039 A 
ATOM     32  C   UNL     1      -0.072   9.545  -2.927  1.00  0.00     0.014 A 
ATOM     33  C   UNL     1      -0.362   8.582  -0.732  1.00  0.00     0.014 A 
ATOM     34  C   UNL     1      -1.211  10.328  -2.724  1.00  0.00     0.010 A 
ATOM     35  C   UNL     1      -1.575   9.238  -0.599  1.00  0.00     0.010 A 
ATOM     36  C   UNL     1      -2.005  10.139  -1.582  1.00  0.00    -0.014 A 
BRANCH  36  37
ATOM     37  C   UNL     1      -3.277  10.878  -1.377  1.00  0.00     0.031 A 
ATOM     38  C   UNL     1      -3.474  11.709  -0.135  1.00  0.00     0.074 A 
ATOM     39  C   UNL     1      -4.292  10.719  -2.249  1.00  0.00     0.049 A 
ATOM     40  N   UNL     1      -4.534  12.366   0.258  1.00  0.00    -0.248 NA
ATOM     41  C   UNL     1      -2.349  11.773   0.814  1.00  0.00     0.031 C 
ATOM     42  C   UNL     1      -4.266   9.858  -3.434  1.00  0.00     0.029 A 
ATOM     43  N   UNL     1      -5.556  11.255  -2.259  1.00  0.00    -0.354 N 
ATOM     44  C   UNL     1      -4.220  12.873   1.513  1.00  0.00     0.074 A 
ATOM     45  C   UNL     1      -2.895  12.402   1.842  1.00  0.00     0.031 C 
ATOM     46  C   UNL     1      -5.448   9.938  -4.065  1.00  0.00     0.029 A 
ATOM     47  C   UNL     1      -6.330  10.823  -3.311  1.00  0.00     0.049 A 
ATOM     48  H   UNL     1      -5.878  11.888  -1.578  1.00  0.00     0.167 HD
ATOM     49  C   UNL     1      -4.951  13.688   2.309  1.00  0.00     0.034 A 
ATOM     50  C   UNL     1      -7.609  11.102  -3.630  1.00  0.00     0.034 A 
ATOM     51  C   UNL     1      -6.248  14.194   1.954  1.00  0.00     0.049 A 
ATOM     52  C   UNL     1      -8.383  12.057  -2.766  1.00  0.00     0.074 A 
ATOM     53  C   UNL     1      -7.026  15.115   2.631  1.00  0.00     0.029 A 
ATOM     54  N   UNL     1      -6.964  13.810   0.831  1.00  0.00    -0.354 N 
ATOM     55  N   UNL     1      -8.006  12.666  -1.668  1.00  0.00    -0.248 NA
ATOM     56  C   UNL     1      -9.746  12.393  -3.202  1.00  0.00     0.031 C 
ATOM     57  C   UNL     1      -8.233  15.256   1.937  1.00  0.00     0.029 A 
ATOM     58  C   UNL     1      -8.187  14.457   0.805  1.00  0.00     0.049 A 
ATOM     59  H   UNL     1      -6.650  13.170   0.152  1.00  0.00     0.167 HD
ATOM     60  C   UNL     1      -9.069  13.480  -1.297  1.00  0.00     0.074 A 
ATOM     61  C   UNL     1     -10.099  13.301  -2.302  1.00  0.00     0.031 C 
ATOM     62  C   UNL     1      -9.187  14.295  -0.219  1.00  0.00     0.034 A 
BRANCH  49  63
ATOM     63  C   UNL     1      -4.342  14.107   3.623  1.00  0.00     0.023 A 
ATOM     64  C   UNL     1      -3.210  14.950   3.640  1.00  0.00     0.012 A 
ATOM     65  C   UNL     1      -4.899  13.682   4.844  1.00  0.00     0.148 A 
ATOM     66  C   UNL     1      -2.611  15.316   4.844  1.00  0.00     0.002 A 
ATOM     67  C   UNL     1      -4.330  14.096   6.043  1.00  0.00     0.091 A 
ATOM     68  F   UNL     1      -5.960  12.862   4.813  1.00  0.00    -0.205 F 
ATOM     69  C   UNL     1      -3.176  14.897   6.045  1.00  0.00     0.022 A 
BRANCH  67  70
ATOM     70  S   UNL     1      -5.035  13.681   7.641  1.00  0.00     0.127 S 
ATOM     71  O   UNL     1      -4.067  12.709   8.147  1.00  0.00    -0.237 OA
ATOM     72  O   UNL     1      -5.019  14.973   8.328  1.00  0.00    -0.237 OA
ATOM     73  O   UNL     1      -6.365  13.155   7.368  1.00  0.00    -0.744 OA
ENDBRANCH  67  70
ENDBRANCH  49  63
BRANCH  50  74
ATOM     74  C   UNL     1      -8.206  10.509  -4.860  1.00  0.00     0.023 A 
ATOM     75  C   UNL     1      -8.454  11.329  -5.978  1.00  0.00     0.012 A 
ATOM     76  C   UNL     1      -8.473   9.129  -4.946  1.00  0.00     0.148 A 
ATOM     77  C   UNL     1      -8.977  10.789  -7.153  1.00  0.00     0.002 A 
ATOM     78  C   UNL     1      -8.941   8.588  -6.137  1.00  0.00     0.091 A 
ATOM     79  F   UNL     1      -8.234   8.370  -3.868  1.00  0.00    -0.205 F 
ATOM     80  C   UNL     1      -9.210   9.418  -7.237  1.00  0.00     0.022 A 
BRANCH  78  81
ATOM     81  S   UNL     1      -9.139   6.820  -6.383  1.00  0.00     0.127 S 
ATOM     82  O   UNL     1     -10.584   6.702  -6.559  1.00  0.00    -0.237 OA
ATOM     83  O   UNL     1      -8.348   6.598  -7.594  1.00  0.00    -0.237 OA
ATOM     84  O   UNL     1      -8.598   6.191  -5.186  1.00  0.00    -0.744 OA
ENDBRANCH  78  81
ENDBRANCH  50  74
BRANCH  62  85
ATOM     85  C   UNL     1     -10.461  15.086  -0.078  1.00  0.00     0.023 A 
ATOM     86  C   UNL     1     -11.662  14.435   0.266  1.00  0.00     0.012 A 
ATOM     87  C   UNL     1     -10.447  16.489  -0.211  1.00  0.00     0.148 A 
ATOM     88  C   UNL     1     -12.838  15.165   0.440  1.00  0.00     0.002 A 
ATOM     89  C   UNL     1     -11.609  17.214   0.018  1.00  0.00     0.091 A 
ATOM     90  F   UNL     1      -9.297  17.087  -0.554  1.00  0.00    -0.205 F 
ATOM     91  C   UNL     1     -12.809  16.553   0.329  1.00  0.00     0.022 A 
BRANCH  89  92
ATOM     92  S   UNL     1     -11.644  19.009  -0.001  1.00  0.00     0.127 S 
ATOM     93  O   UNL     1     -12.407  19.279  -1.219  1.00  0.00    -0.237 OA
ATOM     94  O   UNL     1     -12.349  19.318   1.243  1.00  0.00    -0.237 OA
ATOM     95  O   UNL     1     -10.252  19.439  -0.030  1.00  0.00    -0.744 OA
ENDBRANCH  89  92
ENDBRANCH  62  85
ENDBRANCH  36  37
ENDBRANCH  28  31
ENDBRANCH  26  27
ENDBRANCH  25  26
ENDBRANCH   1  25
TORSDOF 18
