REMARK SMILES O=C(C[C@@H](c1ccccc1)[NH+]1CCCCC1)NCCCNC(=O)c1ccc(-c2c3nc(c(-c4cccc(S(=O)(=O)[O-])c4F)c4ccc([nH]4)c(-c4cccc(S(=O)(=O)[O-])c4F)c4nc(c(-c5cccc(S(=O)(=O)[O-])c5F)c5ccc2[nH]5)C=C4)C=C3)cc1
REMARK SMILES IDX 19 1 18 2 17 3 1 4 2 5 3 7 4 8 5 9 6 10 10 11 7 12 9 13 8 14
REMARK SMILES IDX 11 15 12 16 16 17 13 19 15 20 14 21 20 22 21 23 22 24 23 26
REMARK SMILES IDX 24 27 25 28 86 29 26 30 85 31 27 32 28 33 29 34 79 35 30 36
REMARK SMILES IDX 84 37 78 38 80 39 31 40 83 41 77 42 76 43 32 45 64 46 44 47
REMARK SMILES IDX 63 48 45 49 48 50 62 51 81 52 46 53 47 54 61 56 82 57 49 58
REMARK SMILES IDX 33 59 34 60 42 61 35 62 37 63 43 64 36 65 38 66 39 67 40 68
REMARK SMILES IDX 41 69 65 70 66 71 74 72 67 73 69 74 75 75 68 76 70 77 71 78
REMARK SMILES IDX 72 79 73 80 50 81 51 82 59 83 52 84 54 85 60 86 53 87 55 88
REMARK SMILES IDX 56 89 57 90 58 91
REMARK H PARENT 17 6 11 18 21 25 80 44 48 55
REMARK Flexibility Score: inf
ROOT
ATOM      1  C   UNL     1       2.235   1.647   3.300  1.00  0.00     0.042 C 
ENDROOT
BRANCH   1   2
ATOM      2  C   UNL     1       1.907   1.844   1.826  1.00  0.00     0.117 C 
BRANCH   2   3
ATOM      3  N   UNL     1       2.551   0.848   0.999  1.00  0.00    -0.356 N 
ATOM      4  O   UNL     1       0.796   0.481  -0.435  1.00  0.00    -0.275 OA
ATOM      5  C   UNL     1       1.943   0.242  -0.071  1.00  0.00     0.226 C 
ATOM      6  H   UNL     1       3.477   0.592   1.215  1.00  0.00     0.163 HD
BRANCH   5   7
ATOM      7  C   UNL     1       2.813  -0.774  -0.785  1.00  0.00     0.170 C 
BRANCH   7   8
ATOM      8  C   UNL     1       3.731  -0.107  -1.842  1.00  0.00     0.224 C 
BRANCH   8   9
ATOM      9  C   UNL     1       4.779   0.757  -1.127  1.00  0.00     0.010 A 
ATOM     10  C   UNL     1       5.771   0.171  -0.319  1.00  0.00     0.010 A 
ATOM     11  C   UNL     1       4.688   2.159  -1.163  1.00  0.00     0.010 A 
ATOM     12  C   UNL     1       6.601   0.961   0.477  1.00  0.00     0.001 A 
ATOM     13  C   UNL     1       5.525   2.947  -0.369  1.00  0.00     0.001 A 
ATOM     14  C   UNL     1       6.469   2.348   0.462  1.00  0.00     0.000 A 
ENDBRANCH   8   9
BRANCH   8  15
ATOM     15  N   UNL     1       4.420  -1.019  -2.801  1.00  0.00    -0.328 N 
ATOM     16  C   UNL     1       3.959  -2.411  -2.785  1.00  0.00     0.262 C 
ATOM     17  C   UNL     1       4.382  -0.450  -4.161  1.00  0.00     0.262 C 
ATOM     18  H   UNL     1       5.386  -1.077  -2.478  1.00  0.00     0.348 HD
ATOM     19  C   UNL     1       4.748  -3.294  -3.752  1.00  0.00     0.062 C 
ATOM     20  C   UNL     1       5.147  -1.296  -5.181  1.00  0.00     0.062 C 
ATOM     21  C   UNL     1       4.677  -2.744  -5.169  1.00  0.00     0.012 C 
ENDBRANCH   8  15
ENDBRANCH   7   8
ENDBRANCH   5   7
ENDBRANCH   2   3
ENDBRANCH   1   2
BRANCH   1  22
ATOM     22  C   UNL     1       3.719   1.730   3.648  1.00  0.00     0.118 C 
BRANCH  22  23
ATOM     23  N   UNL     1       4.311   3.027   3.357  1.00  0.00    -0.352 N 
ATOM     24  C   UNL     1       5.090   3.831   4.149  1.00  0.00     0.251 C 
ATOM     25  H   UNL     1       4.123   3.380   2.457  1.00  0.00     0.163 HD
ATOM     26  O   UNL     1       5.398   4.956   3.753  1.00  0.00    -0.269 OA
BRANCH  24  27
ATOM     27  C   UNL     1       5.551   3.367   5.478  1.00  0.00     0.039 A 
ATOM     28  C   UNL     1       5.501   4.256   6.555  1.00  0.00     0.014 A 
ATOM     29  C   UNL     1       6.051   2.075   5.667  1.00  0.00     0.014 A 
ATOM     30  C   UNL     1       5.900   3.833   7.826  1.00  0.00     0.010 A 
ATOM     31  C   UNL     1       6.373   1.632   6.950  1.00  0.00     0.010 A 
ATOM     32  C   UNL     1       6.311   2.507   8.044  1.00  0.00    -0.014 A 
BRANCH  32  33
ATOM     33  C   UNL     1       6.656   2.034   9.412  1.00  0.00     0.031 A 
ATOM     34  C   UNL     1       8.044   1.544   9.736  1.00  0.00     0.074 A 
ATOM     35  C   UNL     1       5.699   1.995  10.361  1.00  0.00     0.049 A 
ATOM     36  N   UNL     1       8.523   1.123  10.879  1.00  0.00    -0.248 NA
ATOM     37  C   UNL     1       9.015   1.499   8.631  1.00  0.00     0.031 C 
ATOM     38  C   UNL     1       4.293   2.352  10.158  1.00  0.00     0.029 A 
ATOM     39  N   UNL     1       5.757   1.623  11.682  1.00  0.00    -0.354 N 
ATOM     40  C   UNL     1       9.835   0.738  10.628  1.00  0.00     0.074 A 
ATOM     41  C   UNL     1      10.066   0.939   9.214  1.00  0.00     0.031 C 
ATOM     42  C   UNL     1       3.628   2.201  11.314  1.00  0.00     0.029 A 
ATOM     43  C   UNL     1       4.548   1.712  12.334  1.00  0.00     0.049 A 
ATOM     44  H   UNL     1       6.585   1.322  12.121  1.00  0.00     0.167 HD
ATOM     45  C   UNL     1      10.773   0.288  11.496  1.00  0.00     0.034 A 
ATOM     46  C   UNL     1       4.217   1.433  13.611  1.00  0.00     0.034 A 
ATOM     47  C   UNL     1      10.553   0.120  12.908  1.00  0.00     0.049 A 
ATOM     48  C   UNL     1       5.289   0.980  14.564  1.00  0.00     0.074 A 
ATOM     49  C   UNL     1      11.465  -0.247  13.883  1.00  0.00     0.029 A 
ATOM     50  N   UNL     1       9.336   0.293  13.547  1.00  0.00    -0.354 N 
ATOM     51  N   UNL     1       6.566   0.786  14.341  1.00  0.00    -0.248 NA
ATOM     52  C   UNL     1       4.882   0.750  15.958  1.00  0.00     0.031 C 
ATOM     53  C   UNL     1      10.791  -0.325  15.107  1.00  0.00     0.029 A 
ATOM     54  C   UNL     1       9.468   0.031  14.901  1.00  0.00     0.049 A 
ATOM     55  H   UNL     1       8.499   0.564  13.104  1.00  0.00     0.167 HD
ATOM     56  C   UNL     1       7.121   0.448  15.570  1.00  0.00     0.074 A 
ATOM     57  C   UNL     1       6.045   0.490  16.538  1.00  0.00     0.031 C 
ATOM     58  C   UNL     1       8.402   0.119  15.867  1.00  0.00     0.034 A 
BRANCH  45  59
ATOM     59  C   UNL     1      12.148  -0.009  10.951  1.00  0.00     0.023 A 
ATOM     60  C   UNL     1      12.975   1.054  10.530  1.00  0.00     0.012 A 
ATOM     61  C   UNL     1      12.648  -1.326  10.915  1.00  0.00     0.148 A 
ATOM     62  C   UNL     1      14.260   0.808  10.047  1.00  0.00     0.002 A 
ATOM     63  C   UNL     1      13.947  -1.558  10.477  1.00  0.00     0.091 A 
ATOM     64  F   UNL     1      11.843  -2.325  11.303  1.00  0.00    -0.205 F 
ATOM     65  C   UNL     1      14.749  -0.495  10.031  1.00  0.00     0.022 A 
BRANCH  63  66
ATOM     66  S   UNL     1      14.700  -3.189  10.495  1.00  0.00     0.127 S 
ATOM     67  O   UNL     1      14.797  -3.484   9.066  1.00  0.00    -0.237 OA
ATOM     68  O   UNL     1      15.982  -2.927  11.151  1.00  0.00    -0.237 OA
ATOM     69  O   UNL     1      13.794  -4.043  11.249  1.00  0.00    -0.744 OA
ENDBRANCH  63  66
ENDBRANCH  45  59
BRANCH  46  70
ATOM     70  C   UNL     1       2.817   1.642  14.080  1.00  0.00     0.023 A 
ATOM     71  C   UNL     1       2.536   2.683  14.986  1.00  0.00     0.012 A 
ATOM     72  C   UNL     1       1.764   0.828  13.620  1.00  0.00     0.148 A 
ATOM     73  C   UNL     1       1.238   2.886  15.455  1.00  0.00     0.002 A 
ATOM     74  C   UNL     1       0.464   1.073  14.046  1.00  0.00     0.091 A 
ATOM     75  F   UNL     1       2.054  -0.164  12.767  1.00  0.00    -0.205 F 
ATOM     76  C   UNL     1       0.201   2.089  14.979  1.00  0.00     0.022 A 
BRANCH  74  77
ATOM     77  S   UNL     1      -0.949   0.184  13.385  1.00  0.00     0.127 S 
ATOM     78  O   UNL     1      -1.362  -0.619  14.533  1.00  0.00    -0.237 OA
ATOM     79  O   UNL     1      -1.857   1.278  13.038  1.00  0.00    -0.237 OA
ATOM     80  O   UNL     1      -0.444  -0.562  12.240  1.00  0.00    -0.744 OA
ENDBRANCH  74  77
ENDBRANCH  46  70
BRANCH  58  81
ATOM     81  C   UNL     1       8.728  -0.185  17.307  1.00  0.00     0.023 A 
ATOM     82  C   UNL     1       8.246  -1.366  17.907  1.00  0.00     0.012 A 
ATOM     83  C   UNL     1       9.553   0.680  18.054  1.00  0.00     0.148 A 
ATOM     84  C   UNL     1       8.541  -1.657  19.238  1.00  0.00     0.002 A 
ATOM     85  C   UNL     1       9.888   0.356  19.363  1.00  0.00     0.091 A 
ATOM     86  F   UNL     1       9.989   1.808  17.474  1.00  0.00    -0.205 F 
ATOM     87  C   UNL     1       9.370  -0.803  19.962  1.00  0.00     0.022 A 
BRANCH  85  88
ATOM     88  S   UNL     1      11.028   1.345  20.337  1.00  0.00     0.127 S 
ATOM     89  O   UNL     1      10.122   2.006  21.275  1.00  0.00    -0.237 OA
ATOM     90  O   UNL     1      11.890   0.326  20.936  1.00  0.00    -0.237 OA
ATOM     91  O   UNL     1      11.702   2.225  19.391  1.00  0.00    -0.744 OA
ENDBRANCH  85  88
ENDBRANCH  58  81
ENDBRANCH  32  33
ENDBRANCH  24  27
ENDBRANCH  22  23
ENDBRANCH   1  22
TORSDOF 16
