REMARK SMILES Cn1cc([C@@H]2CC(NCCCNC(=O)c3ccc(-c4c5nc(c(-c6cccc(S(=O)(=O)[O-])c6F)c6ccc([nH]6)c(-c6cccc(S(=O)(=O)[O-])c6F)c6nc(c(-c7cccc(S(=O)(=O)[O-])c7F)c7ccc4[nH]7)C=C6)C=C5)cc3)=[NH+]c3c2sc(C(=O)[O-])c3-c2ccc(Cl)cc2)cn1
REMARK SMILES IDX 12 1 13 2 14 3 11 5 10 6 9 7 8 8 5 9 6 10 80 11 7 12 79 13
REMARK SMILES IDX 81 14 78 15 86 16 82 17 4 20 1 21 2 22 3 23 95 24 94 25
REMARK SMILES IDX 87 26 88 27 93 28 89 29 92 30 90 31 91 32 83 33 84 34 85 35
REMARK SMILES IDX 15 36 16 37 77 38 17 39 76 40 18 41 19 42 20 43 70 44 21 45
REMARK SMILES IDX 75 46 69 47 71 48 22 49 74 50 68 51 67 52 23 54 55 55 35 56
REMARK SMILES IDX 54 57 36 58 39 59 53 60 72 61 37 62 38 63 52 65 73 66 40 67
REMARK SMILES IDX 24 68 25 69 33 70 26 71 28 72 34 73 27 74 29 75 30 76 31 77
REMARK SMILES IDX 32 78 56 79 57 80 65 81 58 82 60 83 66 84 59 85 61 86 62 87
REMARK SMILES IDX 63 88 64 89 41 90 42 91 50 92 43 93 45 94 51 95 44 96 46 97
REMARK SMILES IDX 47 98 48 99 49 100
REMARK H PARENT 12 4 8 18 78 19 71 53 39 64
REMARK Flexibility Score: inf
ROOT
ATOM      1  N   UNL     1       3.888  -7.713  -4.046  1.00  0.00    -0.352 N 
ATOM      2  C   UNL     1       4.132  -7.976  -5.386  1.00  0.00     0.251 C 
ATOM      3  O   UNL     1       5.012  -8.757  -5.729  1.00  0.00    -0.269 OA
ATOM      4  H   UNL     1       4.606  -7.963  -3.421  1.00  0.00     0.163 HD
ENDROOT
BRANCH   1   5
ATOM      5  C   UNL     1       2.688  -7.108  -3.442  1.00  0.00     0.120 C 
BRANCH   5   6
ATOM      6  C   UNL     1       2.747  -7.033  -1.929  1.00  0.00     0.067 C 
BRANCH   6   7
ATOM      7  C   UNL     1       3.831  -6.073  -1.440  1.00  0.00     0.235 C 
BRANCH   7   8
ATOM      8  N   UNL     1       3.468  -4.676  -1.645  1.00  0.00    -0.278 N 
ATOM      9  C   UNL     1       2.644  -1.374   0.179  1.00  0.00     0.079 C 
ATOM     10  C   UNL     1       2.906  -2.349  -0.984  1.00  0.00     0.142 C 
ATOM     11  C   UNL     1       2.667  -2.093   1.488  1.00  0.00     0.061 A 
ATOM     12  C   UNL     1       3.152  -3.816  -0.610  1.00  0.00     0.248 C 
ATOM     13  C   UNL     1       2.853  -3.432   1.641  1.00  0.00     0.147 A 
ATOM     14  S   UNL     1       2.471  -1.331   2.998  1.00  0.00    -0.133 S 
ATOM     15  N   UNL     1       3.109  -4.306   0.594  1.00  0.00    -0.243 N 
ATOM     16  C   UNL     1       2.789  -3.890   2.991  1.00  0.00     0.049 A 
ATOM     17  C   UNL     1       2.568  -2.827   3.864  1.00  0.00     0.062 A 
ATOM     18  H   UNL     1       3.447  -4.328  -2.566  1.00  0.00     0.304 HD
ATOM     19  H   UNL     1       3.254  -5.266   0.758  1.00  0.00     0.312 HD
BRANCH   9  20
ATOM     20  C   UNL     1       1.369  -0.598   0.022  1.00  0.00    -0.001 A 
ATOM     21  C   UNL     1      -2.173   0.045  -0.230  1.00  0.00     0.173 C 
ATOM     22  N   UNL     1      -0.734   0.031  -0.129  1.00  0.00    -0.276 N 
ATOM     23  C   UNL     1       0.074  -1.069  -0.089  1.00  0.00     0.112 A 
ATOM     24  N   UNL     1      -0.065   1.186   0.039  1.00  0.00    -0.182 NA
ATOM     25  C   UNL     1       1.214   0.809   0.039  1.00  0.00     0.139 A 
ENDBRANCH   9  20
BRANCH  16  26
ATOM     26  C   UNL     1       2.989  -5.277   3.404  1.00  0.00    -0.012 A 
ATOM     27  C   UNL     1       1.969  -6.006   4.027  1.00  0.00     0.010 A 
ATOM     28  C   UNL     1       4.214  -5.904   3.131  1.00  0.00     0.010 A 
ATOM     29  C   UNL     1       2.200  -7.321   4.441  1.00  0.00     0.021 A 
ATOM     30  C   UNL     1       4.439  -7.222   3.528  1.00  0.00     0.021 A 
ATOM     31  C   UNL     1       3.437  -7.918   4.199  1.00  0.00     0.041 A 
ATOM     32  Cl  UNL     1       3.732  -9.525   4.740  1.00  0.00    -0.084 Cl
ENDBRANCH  16  26
BRANCH  17  33
ATOM     33  C   UNL     1       2.439  -2.748   5.301  1.00  0.00     0.082 C 
ATOM     34  O   UNL     1       2.138  -1.774   5.992  1.00  0.00    -0.544 OA
ATOM     35  O   UNL     1       2.705  -3.909   5.932  1.00  0.00    -0.544 OA
ENDBRANCH  17  33
ENDBRANCH   7   8
ENDBRANCH   6   7
ENDBRANCH   5   6
ENDBRANCH   1   5
BRANCH   2  36
ATOM     36  C   UNL     1       3.320  -7.267  -6.388  1.00  0.00     0.039 A 
ATOM     37  C   UNL     1       2.835  -7.872  -7.551  1.00  0.00     0.014 A 
ATOM     38  C   UNL     1       2.994  -5.953  -6.083  1.00  0.00     0.014 A 
ATOM     39  C   UNL     1       1.968  -7.141  -8.362  1.00  0.00     0.010 A 
ATOM     40  C   UNL     1       1.940  -5.364  -6.708  1.00  0.00     0.010 A 
ATOM     41  C   UNL     1       1.522  -5.886  -7.918  1.00  0.00    -0.014 A 
BRANCH  41  42
ATOM     42  C   UNL     1       0.524  -5.101  -8.627  1.00  0.00     0.031 A 
ATOM     43  C   UNL     1      -0.771  -5.812  -8.747  1.00  0.00     0.074 A 
ATOM     44  C   UNL     1       0.702  -3.781  -8.879  1.00  0.00     0.049 A 
ATOM     45  N   UNL     1      -1.248  -6.399  -9.795  1.00  0.00    -0.248 NA
ATOM     46  C   UNL     1      -1.517  -6.115  -7.512  1.00  0.00     0.031 C 
ATOM     47  C   UNL     1       1.818  -2.922  -8.437  1.00  0.00     0.029 A 
ATOM     48  N   UNL     1      -0.136  -2.881  -9.461  1.00  0.00    -0.354 N 
ATOM     49  C   UNL     1      -2.508  -6.853  -9.406  1.00  0.00     0.074 A 
ATOM     50  C   UNL     1      -2.478  -6.920  -7.973  1.00  0.00     0.031 C 
ATOM     51  C   UNL     1       1.465  -1.621  -8.539  1.00  0.00     0.029 A 
ATOM     52  C   UNL     1       0.191  -1.545  -9.223  1.00  0.00     0.049 A 
ATOM     53  H   UNL     1      -0.910  -3.151 -10.006  1.00  0.00     0.167 HD
ATOM     54  C   UNL     1      -3.563  -6.762 -10.264  1.00  0.00     0.034 A 
ATOM     55  C   UNL     1      -0.550  -0.458  -9.553  1.00  0.00     0.034 A 
ATOM     56  C   UNL     1      -3.094  -6.401 -11.581  1.00  0.00     0.049 A 
ATOM     57  C   UNL     1      -1.482  -0.886 -10.614  1.00  0.00     0.074 A 
ATOM     58  C   UNL     1      -2.395  -7.006 -12.601  1.00  0.00     0.029 A 
ATOM     59  N   UNL     1      -2.997  -5.043 -11.755  1.00  0.00    -0.354 N 
ATOM     60  N   UNL     1      -1.084  -1.273 -11.793  1.00  0.00    -0.248 NA
ATOM     61  C   UNL     1      -2.841  -1.263 -10.251  1.00  0.00     0.031 C 
ATOM     62  C   UNL     1      -1.706  -5.954 -13.275  1.00  0.00     0.029 A 
ATOM     63  C   UNL     1      -2.055  -4.734 -12.695  1.00  0.00     0.049 A 
ATOM     64  H   UNL     1      -3.534  -4.379 -11.266  1.00  0.00     0.167 HD
ATOM     65  C   UNL     1      -1.938  -2.316 -12.101  1.00  0.00     0.074 A 
ATOM     66  C   UNL     1      -3.094  -2.139 -11.229  1.00  0.00     0.031 C 
ATOM     67  C   UNL     1      -1.485  -3.406 -12.783  1.00  0.00     0.034 A 
BRANCH  54  68
ATOM     68  C   UNL     1      -5.009  -6.479  -9.885  1.00  0.00     0.023 A 
ATOM     69  C   UNL     1      -5.952  -6.482 -10.942  1.00  0.00     0.012 A 
ATOM     70  C   UNL     1      -5.448  -5.940  -8.653  1.00  0.00     0.148 A 
ATOM     71  C   UNL     1      -7.232  -5.934 -10.796  1.00  0.00     0.002 A 
ATOM     72  C   UNL     1      -6.743  -5.457  -8.492  1.00  0.00     0.091 A 
ATOM     73  F   UNL     1      -4.588  -5.765  -7.650  1.00  0.00    -0.205 F 
ATOM     74  C   UNL     1      -7.630  -5.424  -9.569  1.00  0.00     0.022 A 
BRANCH  72  75
ATOM     75  S   UNL     1      -7.323  -4.806  -6.918  1.00  0.00     0.127 S 
ATOM     76  O   UNL     1      -7.471  -3.387  -7.224  1.00  0.00    -0.237 OA
ATOM     77  O   UNL     1      -8.577  -5.539  -6.740  1.00  0.00    -0.237 OA
ATOM     78  O   UNL     1      -6.291  -5.143  -5.945  1.00  0.00    -0.744 OA
ENDBRANCH  72  75
ENDBRANCH  54  68
BRANCH  55  79
ATOM     79  C   UNL     1      -0.689   0.863  -8.897  1.00  0.00     0.023 A 
ATOM     80  C   UNL     1      -1.096   1.989  -9.642  1.00  0.00     0.012 A 
ATOM     81  C   UNL     1      -0.732   0.943  -7.489  1.00  0.00     0.148 A 
ATOM     82  C   UNL     1      -1.569   3.145  -9.005  1.00  0.00     0.002 A 
ATOM     83  C   UNL     1      -1.211   2.090  -6.861  1.00  0.00     0.091 A 
ATOM     84  F   UNL     1      -0.388  -0.140  -6.779  1.00  0.00    -0.205 F 
ATOM     85  C   UNL     1      -1.641   3.189  -7.616  1.00  0.00     0.022 A 
BRANCH  83  86
ATOM     86  S   UNL     1      -1.380   2.209  -5.074  1.00  0.00     0.127 S 
ATOM     87  O   UNL     1      -0.590   3.406  -4.786  1.00  0.00    -0.237 OA
ATOM     88  O   UNL     1      -2.824   2.372  -4.918  1.00  0.00    -0.237 OA
ATOM     89  O   UNL     1      -0.830   0.969  -4.542  1.00  0.00    -0.744 OA
ENDBRANCH  83  86
ENDBRANCH  55  79
BRANCH  67  90
ATOM     90  C   UNL     1      -0.222  -3.251 -13.580  1.00  0.00     0.023 A 
ATOM     91  C   UNL     1       1.054  -3.090 -13.003  1.00  0.00     0.012 A 
ATOM     92  C   UNL     1      -0.332  -3.386 -14.971  1.00  0.00     0.148 A 
ATOM     93  C   UNL     1       2.197  -3.053 -13.810  1.00  0.00     0.002 A 
ATOM     94  C   UNL     1       0.805  -3.397 -15.763  1.00  0.00     0.091 A 
ATOM     95  F   UNL     1      -1.559  -3.527 -15.495  1.00  0.00    -0.205 F 
ATOM     96  C   UNL     1       2.073  -3.220 -15.189  1.00  0.00     0.022 A 
BRANCH  94  97
ATOM     97  S   UNL     1       0.705  -3.727 -17.521  1.00  0.00     0.127 S 
ATOM     98  O   UNL     1       0.959  -2.406 -18.093  1.00  0.00    -0.237 OA
ATOM     99  O   UNL     1       1.782  -4.699 -17.717  1.00  0.00    -0.237 OA
ATOM    100  O   UNL     1      -0.630  -4.265 -17.754  1.00  0.00    -0.744 OA
ENDBRANCH  94  97
ENDBRANCH  67  90
ENDBRANCH  41  42
ENDBRANCH   2  36
TORSDOF 15
