REMARK SMILES CC[C@@H](C)S(=O)(=O)c1cc(C(=O)NCCCNC(=O)c2ccc(-c3c4nc(c(-c5cccc(S(=O)(=O)[O-])c5F)c5ccc([nH]5)c(-c5cccc(S(=O)(=O)[O-])c5F)c5nc(c(-c6cccc(S(=O)(=O)[O-])c6F)c6ccc3[nH]6)C=C5)C=C4)cc2)c(C)cc1C
REMARK SMILES IDX 15 1 14 2 13 3 11 4 12 5 10 7 8 8 9 9 86 10 85 11 87 12
REMARK SMILES IDX 83 13 84 14 5 15 6 16 7 17 3 18 4 19 2 20 1 21 16 22 17 23
REMARK SMILES IDX 18 24 19 26 20 27 21 28 82 29 22 30 81 31 23 32 24 33 25 34
REMARK SMILES IDX 75 35 26 36 80 37 74 38 76 39 27 40 79 41 73 42 72 43 28 45
REMARK SMILES IDX 60 46 40 47 59 48 41 49 44 50 58 51 77 52 42 53 43 54 57 56
REMARK SMILES IDX 78 57 45 58 29 59 30 60 38 61 31 62 33 63 39 64 32 65 34 66
REMARK SMILES IDX 35 67 36 68 37 69 61 70 62 71 70 72 63 73 65 74 71 75 64 76
REMARK SMILES IDX 66 77 67 78 68 79 69 80 46 81 47 82 55 83 48 84 50 85 56 86
REMARK SMILES IDX 49 87 51 88 52 89 53 90 54 91
REMARK H PARENT 13 6 17 25 76 44 44 55
REMARK Flexibility Score: inf
ROOT
ATOM      1  C   UNL     1      -7.449   3.733  -3.039  1.00  0.00     0.042 C 
ENDROOT
BRANCH   1   2
ATOM      2  C   UNL     1      -6.333   4.039  -4.043  1.00  0.00     0.118 C 
BRANCH   2   3
ATOM      3  N   UNL     1      -5.211   4.673  -3.373  1.00  0.00    -0.352 N 
ATOM      4  C   UNL     1      -3.981   4.239  -2.947  1.00  0.00     0.251 C 
ATOM      5  O   UNL     1      -3.284   5.071  -2.361  1.00  0.00    -0.269 OA
ATOM      6  H   UNL     1      -5.368   5.626  -3.181  1.00  0.00     0.163 HD
BRANCH   4   7
ATOM      7  C   UNL     1      -3.382   2.896  -3.236  1.00  0.00     0.044 A 
ATOM      8  C   UNL     1      -1.250   1.750  -3.747  1.00  0.00     0.071 A 
ATOM      9  C   UNL     1      -1.988   2.918  -3.470  1.00  0.00     0.034 A 
ATOM     10  C   UNL     1      -1.927   0.547  -3.959  1.00  0.00    -0.032 A 
ATOM     11  C   UNL     1      -3.292   0.510  -3.630  1.00  0.00     0.009 A 
ATOM     12  C   UNL     1      -1.344  -0.734  -4.475  1.00  0.00     0.046 C 
ATOM     13  C   UNL     1      -4.001   1.642  -3.178  1.00  0.00    -0.038 A 
ATOM     14  C   UNL     1      -5.343   1.367  -2.575  1.00  0.00     0.045 C 
BRANCH   8  15
ATOM     15  S   UNL     1       0.538   1.898  -3.773  1.00  0.00     0.181 S 
ATOM     16  O   UNL     1       0.852   3.297  -3.527  1.00  0.00    -0.223 OA
ATOM     17  O   UNL     1       1.003   1.295  -5.007  1.00  0.00    -0.223 OA
BRANCH  15  18
ATOM     18  C   UNL     1       1.198   0.983  -2.360  1.00  0.00     0.110 C 
ATOM     19  C   UNL     1       1.348  -0.513  -2.617  1.00  0.00     0.025 C 
BRANCH  18  20
ATOM     20  C   UNL     1       0.455   1.297  -1.050  1.00  0.00     0.016 C 
ATOM     21  C   UNL     1       0.978   0.517   0.153  1.00  0.00     0.005 C 
ENDBRANCH  18  20
ENDBRANCH  15  18
ENDBRANCH   8  15
ENDBRANCH   4   7
ENDBRANCH   2   3
ENDBRANCH   1   2
BRANCH   1  22
ATOM     22  C   UNL     1      -8.367   4.911  -2.733  1.00  0.00     0.118 C 
BRANCH  22  23
ATOM     23  N   UNL     1      -9.470   4.998  -3.677  1.00  0.00    -0.352 N 
ATOM     24  C   UNL     1     -10.817   4.788  -3.492  1.00  0.00     0.251 C 
ATOM     25  H   UNL     1      -9.212   5.247  -4.594  1.00  0.00     0.163 HD
ATOM     26  O   UNL     1     -11.537   4.685  -4.484  1.00  0.00    -0.269 OA
BRANCH  24  27
ATOM     27  C   UNL     1     -11.417   4.675  -2.136  1.00  0.00     0.039 A 
ATOM     28  C   UNL     1     -12.496   3.801  -1.950  1.00  0.00     0.014 A 
ATOM     29  C   UNL     1     -10.990   5.464  -1.065  1.00  0.00     0.014 A 
ATOM     30  C   UNL     1     -13.108   3.689  -0.696  1.00  0.00     0.010 A 
ATOM     31  C   UNL     1     -11.546   5.293   0.204  1.00  0.00     0.010 A 
ATOM     32  C   UNL     1     -12.625   4.419   0.401  1.00  0.00    -0.014 A 
BRANCH  32  33
ATOM     33  C   UNL     1     -13.246   4.303   1.749  1.00  0.00     0.031 A 
ATOM     34  C   UNL     1     -13.889   5.503   2.398  1.00  0.00     0.074 A 
ATOM     35  C   UNL     1     -13.162   3.143   2.431  1.00  0.00     0.049 A 
ATOM     36  N   UNL     1     -14.421   5.613   3.589  1.00  0.00    -0.248 NA
ATOM     37  C   UNL     1     -13.913   6.752   1.618  1.00  0.00     0.031 C 
ATOM     38  C   UNL     1     -12.497   1.929   1.954  1.00  0.00     0.029 A 
ATOM     39  N   UNL     1     -13.611   2.803   3.684  1.00  0.00    -0.354 N 
ATOM     40  C   UNL     1     -14.798   6.946   3.718  1.00  0.00     0.074 A 
ATOM     41  C   UNL     1     -14.409   7.613   2.494  1.00  0.00     0.031 C 
ATOM     42  C   UNL     1     -12.580   0.980   2.901  1.00  0.00     0.029 A 
ATOM     43  C   UNL     1     -13.283   1.521   4.061  1.00  0.00     0.049 A 
ATOM     44  H   UNL     1     -14.120   3.420   4.259  1.00  0.00     0.167 HD
ATOM     45  C   UNL     1     -15.438   7.555   4.745  1.00  0.00     0.034 A 
ATOM     46  C   UNL     1     -13.516   0.856   5.210  1.00  0.00     0.034 A 
ATOM     47  C   UNL     1     -15.885   6.878   5.932  1.00  0.00     0.049 A 
ATOM     48  C   UNL     1     -14.292   1.534   6.307  1.00  0.00     0.074 A 
ATOM     49  C   UNL     1     -16.633   7.385   6.980  1.00  0.00     0.029 A 
ATOM     50  N   UNL     1     -15.629   5.549   6.229  1.00  0.00    -0.354 N 
ATOM     51  N   UNL     1     -14.785   2.748   6.338  1.00  0.00    -0.248 NA
ATOM     52  C   UNL     1     -14.578   0.740   7.512  1.00  0.00     0.031 C 
ATOM     53  C   UNL     1     -16.821   6.362   7.917  1.00  0.00     0.029 A 
ATOM     54  C   UNL     1     -16.200   5.217   7.445  1.00  0.00     0.049 A 
ATOM     55  H   UNL     1     -15.116   4.932   5.658  1.00  0.00     0.167 HD
ATOM     56  C   UNL     1     -15.466   2.853   7.546  1.00  0.00     0.074 A 
ATOM     57  C   UNL     1     -15.340   1.572   8.209  1.00  0.00     0.031 C 
ATOM     58  C   UNL     1     -16.119   3.921   8.067  1.00  0.00     0.034 A 
BRANCH  45  59
ATOM     59  C   UNL     1     -15.756   9.021   4.602  1.00  0.00     0.023 A 
ATOM     60  C   UNL     1     -16.774   9.425   3.714  1.00  0.00     0.012 A 
ATOM     61  C   UNL     1     -15.096   9.991   5.382  1.00  0.00     0.148 A 
ATOM     62  C   UNL     1     -17.109  10.771   3.580  1.00  0.00     0.002 A 
ATOM     63  C   UNL     1     -15.464  11.328   5.273  1.00  0.00     0.091 A 
ATOM     64  F   UNL     1     -14.116   9.592   6.205  1.00  0.00    -0.205 F 
ATOM     65  C   UNL     1     -16.461  11.721   4.365  1.00  0.00     0.022 A 
BRANCH  63  66
ATOM     66  S   UNL     1     -14.742  12.616   6.297  1.00  0.00     0.127 S 
ATOM     67  O   UNL     1     -13.876  13.303   5.340  1.00  0.00    -0.237 OA
ATOM     68  O   UNL     1     -15.920  13.381   6.710  1.00  0.00    -0.237 OA
ATOM     69  O   UNL     1     -14.058  11.927   7.382  1.00  0.00    -0.744 OA
ENDBRANCH  63  66
ENDBRANCH  45  59
BRANCH  46  70
ATOM     70  C   UNL     1     -13.079  -0.563   5.345  1.00  0.00     0.023 A 
ATOM     71  C   UNL     1     -14.048  -1.585   5.337  1.00  0.00     0.012 A 
ATOM     72  C   UNL     1     -11.717  -0.910   5.436  1.00  0.00     0.148 A 
ATOM     73  C   UNL     1     -13.672  -2.925   5.444  1.00  0.00     0.002 A 
ATOM     74  C   UNL     1     -11.345  -2.249   5.487  1.00  0.00     0.091 A 
ATOM     75  F   UNL     1     -10.810   0.077   5.458  1.00  0.00    -0.205 F 
ATOM     76  C   UNL     1     -12.322  -3.257   5.506  1.00  0.00     0.022 A 
BRANCH  74  77
ATOM     77  S   UNL     1      -9.627  -2.770   5.428  1.00  0.00     0.127 S 
ATOM     78  O   UNL     1      -9.390  -3.182   6.809  1.00  0.00    -0.237 OA
ATOM     79  O   UNL     1      -9.672  -3.865   4.457  1.00  0.00    -0.237 OA
ATOM     80  O   UNL     1      -8.881  -1.603   4.974  1.00  0.00    -0.744 OA
ENDBRANCH  74  77
ENDBRANCH  46  70
BRANCH  58  81
ATOM     81  C   UNL     1     -16.778   3.752   9.411  1.00  0.00     0.023 A 
ATOM     82  C   UNL     1     -15.984   3.710  10.574  1.00  0.00     0.012 A 
ATOM     83  C   UNL     1     -18.181   3.720   9.529  1.00  0.00     0.148 A 
ATOM     84  C   UNL     1     -16.576   3.611  11.832  1.00  0.00     0.002 A 
ATOM     85  C   UNL     1     -18.766   3.666  10.789  1.00  0.00     0.091 A 
ATOM     86  F   UNL     1     -18.919   3.740   8.409  1.00  0.00    -0.205 F 
ATOM     87  C   UNL     1     -17.965   3.602  11.941  1.00  0.00     0.022 A 
BRANCH  85  88
ATOM     88  S   UNL     1     -20.545   3.742  11.024  1.00  0.00     0.127 S 
ATOM     89  O   UNL     1     -20.867   2.349  11.325  1.00  0.00    -0.237 OA
ATOM     90  O   UNL     1     -20.673   4.657  12.159  1.00  0.00    -0.237 OA
ATOM     91  O   UNL     1     -21.089   4.257   9.774  1.00  0.00    -0.744 OA
ENDBRANCH  85  88
ENDBRANCH  58  81
ENDBRANCH  32  33
ENDBRANCH  24  27
ENDBRANCH  22  23
ENDBRANCH   1  22
TORSDOF 16
