REMARK SMILES CN(C)c1ccc(F)c(C(=O)NCCCNC(=O)c2ccc(-c3c4nc(c(-c5cccc(S(=O)(=O)[O-])c5F)c5ccc([nH]5)c(-c5cccc(S(=O)(=O)[O-])c5F)c5nc(c(-c6cccc(S(=O)(=O)[O-])c6F)c6ccc3[nH]6)C=C5)C=C4)cc2)c1
REMARK SMILES IDX 15 1 14 2 13 3 12 4 10 5 11 6 9 8 4 9 5 10 82 11 6 12 7 13
REMARK SMILES IDX 8 14 2 15 1 16 3 17 16 18 17 19 18 21 19 22 20 23 81 24
REMARK SMILES IDX 21 25 80 26 22 27 23 28 24 29 74 30 25 31 79 32 73 33 75 34
REMARK SMILES IDX 26 35 78 36 72 37 71 38 27 40 59 41 39 42 58 43 40 44 43 45
REMARK SMILES IDX 57 46 76 47 41 48 42 49 56 51 77 52 44 53 28 54 29 55 37 56
REMARK SMILES IDX 30 57 32 58 38 59 31 60 33 61 34 62 35 63 36 64 60 65 61 66
REMARK SMILES IDX 69 67 62 68 64 69 70 70 63 71 65 72 66 73 67 74 68 75 45 76
REMARK SMILES IDX 46 77 54 78 47 79 49 80 55 81 48 82 50 83 51 84 52 85 53 86
REMARK H PARENT 12 7 16 20 75 39 43 50
REMARK Flexibility Score: inf
ROOT
ATOM      1  C   UNL     1       0.699  -9.318   3.471  1.00  0.00     0.118 C 
ENDROOT
BRANCH   1   2
ATOM      2  C   UNL     1       1.434  -8.200   2.733  1.00  0.00     0.042 C 
BRANCH   2   3
ATOM      3  C   UNL     1       0.634  -7.603   1.574  1.00  0.00     0.118 C 
BRANCH   3   4
ATOM      4  N   UNL     1      -0.399  -6.709   2.059  1.00  0.00    -0.352 N 
ATOM      5  C   UNL     1      -0.478  -5.350   2.201  1.00  0.00     0.254 C 
ATOM      6  O   UNL     1      -1.542  -4.921   2.658  1.00  0.00    -0.269 OA
ATOM      7  H   UNL     1      -1.216  -7.178   2.346  1.00  0.00     0.163 HD
BRANCH   5   8
ATOM      8  C   UNL     1       0.564  -4.367   1.793  1.00  0.00     0.077 A 
ATOM      9  C   UNL     1       0.941  -1.998   1.168  1.00  0.00     0.037 A 
ATOM     10  C   UNL     1       2.288  -2.303   0.956  1.00  0.00     0.029 A 
ATOM     11  C   UNL     1       0.101  -3.053   1.566  1.00  0.00     0.042 A 
ATOM     12  C   UNL     1       2.781  -3.583   1.216  1.00  0.00     0.042 A 
ATOM     13  C   UNL     1       1.928  -4.592   1.660  1.00  0.00     0.136 A 
ATOM     14  F   UNL     1       2.506  -5.749   1.995  1.00  0.00    -0.206 F 
BRANCH   9  15
ATOM     15  N   UNL     1       0.438  -0.713   1.025  1.00  0.00    -0.378 N 
ATOM     16  C   UNL     1       0.999   0.206   0.051  1.00  0.00     0.143 C 
ATOM     17  C   UNL     1      -0.390  -0.182   2.102  1.00  0.00     0.143 C 
ENDBRANCH   9  15
ENDBRANCH   5   8
ENDBRANCH   3   4
ENDBRANCH   2   3
ENDBRANCH   1   2
BRANCH   1  18
ATOM     18  N   UNL     1       0.532 -10.501   2.637  1.00  0.00    -0.352 N 
ATOM     19  C   UNL     1       0.963 -11.790   2.823  1.00  0.00     0.251 C 
ATOM     20  H   UNL     1       0.029 -10.351   1.804  1.00  0.00     0.163 HD
ATOM     21  O   UNL     1       0.922 -12.571   1.874  1.00  0.00    -0.269 OA
BRANCH  19  22
ATOM     22  C   UNL     1       1.465 -12.253   4.136  1.00  0.00     0.039 A 
ATOM     23  C   UNL     1       2.518 -13.173   4.161  1.00  0.00     0.014 A 
ATOM     24  C   UNL     1       0.864 -11.855   5.333  1.00  0.00     0.014 A 
ATOM     25  C   UNL     1       2.986 -13.666   5.381  1.00  0.00     0.010 A 
ATOM     26  C   UNL     1       1.379 -12.291   6.553  1.00  0.00     0.010 A 
ATOM     27  C   UNL     1       2.433 -13.215   6.591  1.00  0.00    -0.014 A 
BRANCH  27  28
ATOM     28  C   UNL     1       2.951 -13.704   7.894  1.00  0.00     0.031 A 
ATOM     29  C   UNL     1       2.071 -14.504   8.817  1.00  0.00     0.074 A 
ATOM     30  C   UNL     1       4.205 -13.380   8.270  1.00  0.00     0.049 A 
ATOM     31  N   UNL     1       2.355 -15.010   9.989  1.00  0.00    -0.248 NA
ATOM     32  C   UNL     1       0.685 -14.750   8.382  1.00  0.00     0.031 C 
ATOM     33  C   UNL     1       5.124 -12.543   7.497  1.00  0.00     0.029 A 
ATOM     34  N   UNL     1       4.918 -13.700   9.398  1.00  0.00    -0.354 N 
ATOM     35  C   UNL     1       1.183 -15.604  10.443  1.00  0.00     0.074 A 
ATOM     36  C   UNL     1       0.172 -15.366   9.437  1.00  0.00     0.031 C 
ATOM     37  C   UNL     1       6.285 -12.433   8.162  1.00  0.00     0.029 A 
ATOM     38  C   UNL     1       6.187 -13.168   9.419  1.00  0.00     0.049 A 
ATOM     39  H   UNL     1       4.556 -14.258  10.124  1.00  0.00     0.167 HD
ATOM     40  C   UNL     1       0.978 -16.314  11.577  1.00  0.00     0.034 A 
ATOM     41  C   UNL     1       7.165 -13.265  10.342  1.00  0.00     0.034 A 
ATOM     42  C   UNL     1       2.005 -16.596  12.542  1.00  0.00     0.049 A 
ATOM     43  C   UNL     1       6.929 -14.105  11.568  1.00  0.00     0.074 A 
ATOM     44  C   UNL     1       1.921 -17.386  13.674  1.00  0.00     0.029 A 
ATOM     45  N   UNL     1       3.299 -16.103  12.489  1.00  0.00    -0.354 N 
ATOM     46  N   UNL     1       5.861 -14.788  11.903  1.00  0.00    -0.248 NA
ATOM     47  C   UNL     1       8.038 -14.220  12.528  1.00  0.00     0.031 C 
ATOM     48  C   UNL     1       3.160 -17.354  14.318  1.00  0.00     0.029 A 
ATOM     49  C   UNL     1       4.023 -16.565  13.573  1.00  0.00     0.049 A 
ATOM     50  H   UNL     1       3.651 -15.512  11.785  1.00  0.00     0.167 HD
ATOM     51  C   UNL     1       6.178 -15.438  13.090  1.00  0.00     0.074 A 
ATOM     52  C   UNL     1       7.543 -15.078  13.412  1.00  0.00     0.031 C 
ATOM     53  C   UNL     1       5.401 -16.248  13.849  1.00  0.00     0.034 A 
BRANCH  40  54
ATOM     54  C   UNL     1      -0.388 -16.907  11.811  1.00  0.00     0.023 A 
ATOM     55  C   UNL     1      -0.803 -18.009  11.036  1.00  0.00     0.012 A 
ATOM     56  C   UNL     1      -1.211 -16.450  12.859  1.00  0.00     0.148 A 
ATOM     57  C   UNL     1      -2.025 -18.632  11.283  1.00  0.00     0.002 A 
ATOM     58  C   UNL     1      -2.408 -17.105  13.129  1.00  0.00     0.091 A 
ATOM     59  F   UNL     1      -0.807 -15.391  13.575  1.00  0.00    -0.205 F 
ATOM     60  C   UNL     1      -2.820 -18.189  12.336  1.00  0.00     0.022 A 
BRANCH  58  61
ATOM     61  S   UNL     1      -3.465 -16.669  14.515  1.00  0.00     0.127 S 
ATOM     62  O   UNL     1      -4.632 -16.111  13.832  1.00  0.00    -0.237 OA
ATOM     63  O   UNL     1      -3.693 -17.968  15.148  1.00  0.00    -0.237 OA
ATOM     64  O   UNL     1      -2.705 -15.723  15.320  1.00  0.00    -0.744 OA
ENDBRANCH  58  61
ENDBRANCH  40  54
BRANCH  41  65
ATOM     65  C   UNL     1       8.485 -12.624  10.080  1.00  0.00     0.023 A 
ATOM     66  C   UNL     1       9.594 -13.436   9.773  1.00  0.00     0.012 A 
ATOM     67  C   UNL     1       8.631 -11.223  10.053  1.00  0.00     0.148 A 
ATOM     68  C   UNL     1      10.828 -12.866   9.457  1.00  0.00     0.002 A 
ATOM     69  C   UNL     1       9.848 -10.661   9.684  1.00  0.00     0.091 A 
ATOM     70  F   UNL     1       7.567 -10.469  10.360  1.00  0.00    -0.205 F 
ATOM     71  C   UNL     1      10.952 -11.480   9.399  1.00  0.00     0.022 A 
BRANCH  69  72
ATOM     72  S   UNL     1      10.062  -8.893   9.442  1.00  0.00     0.127 S 
ATOM     73  O   UNL     1      10.929  -8.540  10.563  1.00  0.00    -0.237 OA
ATOM     74  O   UNL     1      10.701  -8.843   8.127  1.00  0.00    -0.237 OA
ATOM     75  O   UNL     1       8.720  -8.326   9.478  1.00  0.00    -0.744 OA
ENDBRANCH  69  72
ENDBRANCH  41  65
BRANCH  53  76
ATOM     76  C   UNL     1       5.990 -16.838  15.101  1.00  0.00     0.023 A 
ATOM     77  C   UNL     1       6.131 -16.033  16.247  1.00  0.00     0.012 A 
ATOM     78  C   UNL     1       6.243 -18.222  15.188  1.00  0.00     0.148 A 
ATOM     79  C   UNL     1       6.520 -16.596  17.462  1.00  0.00     0.002 A 
ATOM     80  C   UNL     1       6.584 -18.783  16.412  1.00  0.00     0.091 A 
ATOM     81  F   UNL     1       6.112 -18.965  14.079  1.00  0.00    -0.205 F 
ATOM     82  C   UNL     1       6.730 -17.971  17.548  1.00  0.00     0.022 A 
BRANCH  80  83
ATOM     83  S   UNL     1       6.769 -20.555  16.648  1.00  0.00     0.127 S 
ATOM     84  O   UNL     1       8.194 -20.668  16.952  1.00  0.00    -0.237 OA
ATOM     85  O   UNL     1       5.881 -20.809  17.782  1.00  0.00    -0.237 OA
ATOM     86  O   UNL     1       6.352 -21.176  15.397  1.00  0.00    -0.744 OA
ENDBRANCH  80  83
ENDBRANCH  53  76
ENDBRANCH  27  28
ENDBRANCH  19  22
ENDBRANCH   1  18
TORSDOF 14
