REMARK SMILES Cc1cc(C(=O)NCCCNC(=O)c2ccc(-c3c4nc(c(-c5cccc(S(=O)(=O)[O-])c5F)c5ccc([nH]5)c(-c5cccc(S(=O)(=O)[O-])c5F)c5nc(c(-c6cccc(S(=O)(=O)[O-])c6F)c6ccc3[nH]6)C=C5)C=C4)cc2)c(O)c(S(=O)(=O)N2CCCc3cc(F)cc(F)c32)c1
REMARK SMILES IDX 9 1 8 2 7 3 5 4 6 5 4 7 1 8 2 9 3 10 95 11 79 12 77 13 80 14
REMARK SMILES IDX 81 15 82 16 83 17 84 18 94 19 85 20 87 21 92 22 86 23 88 24
REMARK SMILES IDX 91 25 93 26 89 27 90 28 78 29 10 31 11 32 12 33 13 35 14 36
REMARK SMILES IDX 15 37 76 38 16 39 75 40 17 41 18 42 19 43 69 44 20 45 74 46
REMARK SMILES IDX 68 47 70 48 21 49 73 50 67 51 66 52 22 54 54 55 34 56 53 57
REMARK SMILES IDX 35 58 38 59 52 60 71 61 36 62 37 63 51 65 72 66 39 67 23 68
REMARK SMILES IDX 24 69 32 70 25 71 27 72 33 73 26 74 28 75 29 76 30 77 31 78
REMARK SMILES IDX 55 79 56 80 64 81 57 82 59 83 65 84 58 85 60 86 61 87 62 88
REMARK SMILES IDX 63 89 40 90 41 91 49 92 42 93 44 94 50 95 43 96 45 97 46 98
REMARK SMILES IDX 47 99 48 100
REMARK H PARENT 7 6 78 30 11 34 70 53 38 64
REMARK Flexibility Score: inf
ROOT
ATOM      1  C   UNL     1      -4.439   1.387   0.555  1.00  0.00     0.042 C 
ENDROOT
BRANCH   1   2
ATOM      2  C   UNL     1      -3.453   1.742  -0.566  1.00  0.00     0.118 C 
BRANCH   2   3
ATOM      3  N   UNL     1      -2.315   2.526  -0.084  1.00  0.00    -0.352 N 
ATOM      4  C   UNL     1      -1.006   2.199   0.218  1.00  0.00     0.255 C 
ATOM      5  O   UNL     1      -0.249   3.124   0.522  1.00  0.00    -0.269 OA
ATOM      6  H   UNL     1      -2.523   3.478   0.054  1.00  0.00     0.163 HD
BRANCH   4   7
ATOM      7  C   UNL     1      -0.426   0.825   0.095  1.00  0.00     0.083 A 
ATOM      8  C   UNL     1       3.025  -0.655  -0.496  1.00  0.00     0.044 C 
ATOM      9  C   UNL     1       1.529  -0.574  -0.398  1.00  0.00    -0.049 A 
ATOM     10  C   UNL     1       0.940   0.692  -0.183  1.00  0.00     0.021 A 
ATOM     11  C   UNL     1       0.707  -1.706  -0.531  1.00  0.00     0.029 A 
ATOM     12  C   UNL     1      -0.640  -1.574  -0.216  1.00  0.00     0.130 A 
ATOM     13  C   UNL     1      -1.140  -0.349   0.266  1.00  0.00     0.148 A 
BRANCH  12  14
ATOM     14  S   UNL     1      -1.902  -2.707  -0.709  1.00  0.00     0.268 S 
ATOM     15  O   UNL     1      -2.919  -2.550   0.304  1.00  0.00    -0.201 OA
ATOM     16  O   UNL     1      -2.202  -2.341  -2.091  1.00  0.00    -0.201 OA
BRANCH  14  17
ATOM     17  N   UNL     1      -1.444  -4.397  -0.690  1.00  0.00    -0.263 N 
ATOM     18  C   UNL     1      -0.750  -4.877   0.543  1.00  0.00     0.136 C 
ATOM     19  C   UNL     1      -2.707  -5.116  -0.992  1.00  0.00     0.091 A 
ATOM     20  C   UNL     1      -1.593  -5.790   1.436  1.00  0.00     0.028 C 
ATOM     21  C   UNL     1      -3.598  -5.309   0.086  1.00  0.00    -0.018 A 
ATOM     22  C   UNL     1      -3.213  -5.106  -2.301  1.00  0.00     0.150 A 
ATOM     23  C   UNL     1      -3.055  -5.366   1.489  1.00  0.00     0.040 C 
ATOM     24  C   UNL     1      -4.977  -5.270  -0.150  1.00  0.00     0.045 A 
ATOM     25  C   UNL     1      -4.583  -5.116  -2.537  1.00  0.00     0.080 A 
ATOM     26  F   UNL     1      -2.378  -4.975  -3.344  1.00  0.00    -0.205 F 
ATOM     27  C   UNL     1      -5.451  -5.140  -1.453  1.00  0.00     0.126 A 
ATOM     28  F   UNL     1      -6.767  -5.008  -1.664  1.00  0.00    -0.207 F 
ENDBRANCH  14  17
ENDBRANCH  12  14
BRANCH  13  29
ATOM     29  O   UNL     1      -2.284  -0.283   1.008  1.00  0.00    -0.506 OA
ATOM     30  H   UNL     1      -2.595   0.545   1.317  1.00  0.00     0.293 HD
ENDBRANCH  13  29
ENDBRANCH   4   7
ENDBRANCH   2   3
ENDBRANCH   1   2
BRANCH   1  31
ATOM     31  C   UNL     1      -5.483   2.450   0.865  1.00  0.00     0.118 C 
BRANCH  31  32
ATOM     32  N   UNL     1      -6.548   2.496  -0.124  1.00  0.00    -0.352 N 
ATOM     33  C   UNL     1      -7.908   2.364   0.032  1.00  0.00     0.251 C 
ATOM     34  H   UNL     1      -6.249   2.643  -1.050  1.00  0.00     0.163 HD
ATOM     35  O   UNL     1      -8.613   2.262  -0.971  1.00  0.00    -0.269 OA
BRANCH  33  36
ATOM     36  C   UNL     1      -8.540   2.332   1.376  1.00  0.00     0.039 A 
ATOM     37  C   UNL     1      -9.634   1.483   1.580  1.00  0.00     0.014 A 
ATOM     38  C   UNL     1      -8.113   3.164   2.415  1.00  0.00     0.014 A 
ATOM     39  C   UNL     1     -10.267   1.436   2.828  1.00  0.00     0.010 A 
ATOM     40  C   UNL     1      -8.698   3.064   3.679  1.00  0.00     0.010 A 
ATOM     41  C   UNL     1      -9.789   2.210   3.897  1.00  0.00    -0.014 A 
BRANCH  41  42
ATOM     42  C   UNL     1     -10.418   2.142   5.244  1.00  0.00     0.031 A 
ATOM     43  C   UNL     1     -11.085   3.356   5.836  1.00  0.00     0.074 A 
ATOM     44  C   UNL     1     -10.315   1.012   5.972  1.00  0.00     0.049 A 
ATOM     45  N   UNL     1     -11.632   3.505   7.016  1.00  0.00    -0.248 NA
ATOM     46  C   UNL     1     -11.121   4.570   5.004  1.00  0.00     0.031 C 
ATOM     47  C   UNL     1      -9.629  -0.208   5.543  1.00  0.00     0.029 A 
ATOM     48  N   UNL     1     -10.760   0.715   7.237  1.00  0.00    -0.354 N 
ATOM     49  C   UNL     1     -12.040   4.832   7.083  1.00  0.00     0.074 A 
ATOM     50  C   UNL     1     -11.653   5.455   5.836  1.00  0.00     0.031 C 
ATOM     51  C   UNL     1      -9.696  -1.120   6.527  1.00  0.00     0.029 A 
ATOM     52  C   UNL     1     -10.405  -0.543   7.665  1.00  0.00     0.049 A 
ATOM     53  H   UNL     1     -11.284   1.343   7.785  1.00  0.00     0.167 HD
ATOM     54  C   UNL     1     -12.701   5.470   8.079  1.00  0.00     0.034 A 
ATOM     55  C   UNL     1     -10.619  -1.163   8.844  1.00  0.00     0.034 A 
ATOM     56  C   UNL     1     -13.129   4.836   9.297  1.00  0.00     0.049 A 
ATOM     57  C   UNL     1     -11.402  -0.449   9.914  1.00  0.00     0.074 A 
ATOM     58  C   UNL     1     -13.886   5.370  10.326  1.00  0.00     0.029 A 
ATOM     59  N   UNL     1     -12.836   3.529   9.655  1.00  0.00    -0.354 N 
ATOM     60  N   UNL     1     -11.921   0.755   9.892  1.00  0.00    -0.248 NA
ATOM     61  C   UNL     1     -11.661  -1.191  11.156  1.00  0.00     0.031 C 
ATOM     62  C   UNL     1     -14.035   4.391  11.314  1.00  0.00     0.029 A 
ATOM     63  C   UNL     1     -13.389   3.240  10.891  1.00  0.00     0.049 A 
ATOM     64  H   UNL     1     -12.311   2.899   9.110  1.00  0.00     0.167 HD
ATOM     65  C   UNL     1     -12.597   0.901  11.098  1.00  0.00     0.074 A 
ATOM     66  C   UNL     1     -12.439  -0.345  11.819  1.00  0.00     0.031 C 
ATOM     67  C   UNL     1     -13.272   1.977  11.573  1.00  0.00     0.034 A 
BRANCH  54  68
ATOM     68  C   UNL     1     -13.058   6.920   7.870  1.00  0.00     0.023 A 
ATOM     69  C   UNL     1     -14.071   7.258   6.949  1.00  0.00     0.012 A 
ATOM     70  C   UNL     1     -12.441   7.939   8.622  1.00  0.00     0.148 A 
ATOM     71  C   UNL     1     -14.440   8.589   6.754  1.00  0.00     0.002 A 
ATOM     72  C   UNL     1     -12.845   9.259   8.454  1.00  0.00     0.091 A 
ATOM     73  F   UNL     1     -11.467   7.602   9.479  1.00  0.00    -0.205 F 
ATOM     74  C   UNL     1     -13.836   9.587   7.513  1.00  0.00     0.022 A 
BRANCH  72  75
ATOM     75  S   UNL     1     -12.184  10.608   9.439  1.00  0.00     0.127 S 
ATOM     76  O   UNL     1     -11.351  11.307   8.462  1.00  0.00    -0.237 OA
ATOM     77  O   UNL     1     -13.396  11.329   9.831  1.00  0.00    -0.237 OA
ATOM     78  O   UNL     1     -11.467   9.985  10.543  1.00  0.00    -0.744 OA
ENDBRANCH  72  75
ENDBRANCH  54  68
BRANCH  55  79
ATOM     79  C   UNL     1     -10.149  -2.564   9.042  1.00  0.00     0.023 A 
ATOM     80  C   UNL     1     -11.096  -3.605   9.103  1.00  0.00     0.012 A 
ATOM     81  C   UNL     1      -8.779  -2.876   9.132  1.00  0.00     0.148 A 
ATOM     82  C   UNL     1     -10.689  -4.928   9.280  1.00  0.00     0.002 A 
ATOM     83  C   UNL     1      -8.377  -4.202   9.252  1.00  0.00     0.091 A 
ATOM     84  F   UNL     1      -7.893  -1.871   9.085  1.00  0.00    -0.205 F 
ATOM     85  C   UNL     1      -9.331  -5.228   9.344  1.00  0.00     0.022 A 
BRANCH  83  86
ATOM     86  S   UNL     1      -6.649  -4.694   9.203  1.00  0.00     0.127 S 
ATOM     87  O   UNL     1      -6.405  -5.073  10.592  1.00  0.00    -0.237 OA
ATOM     88  O   UNL     1      -6.676  -5.809   8.256  1.00  0.00    -0.237 OA
ATOM     89  O   UNL     1      -5.922  -3.525   8.726  1.00  0.00    -0.744 OA
ENDBRANCH  83  86
ENDBRANCH  55  79
BRANCH  67  90
ATOM     90  C   UNL     1     -13.924   1.852  12.925  1.00  0.00     0.023 A 
ATOM     91  C   UNL     1     -13.128   1.857  14.088  1.00  0.00     0.012 A 
ATOM     92  C   UNL     1     -15.327   1.810  13.048  1.00  0.00     0.148 A 
ATOM     93  C   UNL     1     -13.716   1.791  15.350  1.00  0.00     0.002 A 
ATOM     94  C   UNL     1     -15.908   1.792  14.310  1.00  0.00     0.091 A 
ATOM     95  F   UNL     1     -16.067   1.787  11.930  1.00  0.00    -0.205 F 
ATOM     96  C   UNL     1     -15.105   1.771  15.462  1.00  0.00     0.022 A 
BRANCH  94  97
ATOM     97  S   UNL     1     -17.688   1.860  14.551  1.00  0.00     0.127 S 
ATOM     98  O   UNL     1     -17.988   0.487  14.950  1.00  0.00    -0.237 OA
ATOM     99  O   UNL     1     -17.820   2.850  15.621  1.00  0.00    -0.237 OA
ATOM    100  O   UNL     1     -18.248   2.278  13.272  1.00  0.00    -0.744 OA
ENDBRANCH  94  97
ENDBRANCH  67  90
ENDBRANCH  41  42
ENDBRANCH  33  36
ENDBRANCH  31  32
ENDBRANCH   1  31
TORSDOF 16
