REMARK SMILES COc1ccc(-c2[nH]nc3nc(-c4ccc(C(F)(F)F)cc4)cc(C(=O)NCCCNC(=O)c4ccc(-c5c6nc(c(-c7cccc(S(=O)(=O)[O-])c7F)c7ccc([nH]7)c(-c7cccc(S(=O)(=O)[O-])c7F)c7nc(c(-c8cccc(S(=O)(=O)[O-])c8F)c8ccc5[nH]8)C=C7)C=C6)cc4)c23)cc1
REMARK SMILES IDX 29 1 28 2 27 3 25 4 26 5 24 7 7 8 8 9 97 10 9 11 10 13 11 14
REMARK SMILES IDX 23 15 12 16 6 17 3 18 4 19 99 20 5 21 98 22 2 23 1 24 13 25
REMARK SMILES IDX 14 26 22 27 15 28 21 29 16 30 17 31 18 32 19 33 20 34 30 35
REMARK SMILES IDX 31 36 32 37 33 39 34 40 35 41 96 42 36 43 95 44 37 45 38 46
REMARK SMILES IDX 39 47 89 48 40 49 94 50 88 51 90 52 41 53 93 54 87 55 86 56
REMARK SMILES IDX 42 58 74 59 54 60 73 61 55 62 58 63 72 64 91 65 56 66 57 67
REMARK SMILES IDX 71 69 92 70 59 71 43 72 44 73 52 74 45 75 47 76 53 77 46 78
REMARK SMILES IDX 48 79 49 80 50 81 51 82 75 83 76 84 84 85 77 86 79 87 85 88
REMARK SMILES IDX 78 89 80 90 81 91 82 92 83 93 60 94 61 95 69 96 62 97 64 98
REMARK SMILES IDX 70 99 63 100 65 101 66 102 67 103 68 104
REMARK H PARENT 27 6 8 12 31 38 90 57 58 68
REMARK Flexibility Score: inf
ROOT
ATOM      1  C   UNL     1       6.912   4.831   5.741  1.00  0.00     0.042 C 
ENDROOT
BRANCH   1   2
ATOM      2  C   UNL     1       5.453   5.280   5.837  1.00  0.00     0.118 C 
BRANCH   2   3
ATOM      3  N   UNL     1       4.573   4.432   5.062  1.00  0.00    -0.352 N 
ATOM      4  C   UNL     1       3.722   3.412   5.395  1.00  0.00     0.252 C 
ATOM      5  O   UNL     1       2.835   3.210   4.575  1.00  0.00    -0.269 OA
ATOM      6  H   UNL     1       4.590   4.628   4.097  1.00  0.00     0.163 HD
BRANCH   4   7
ATOM      7  C   UNL     1       3.776   2.686   6.684  1.00  0.00     0.055 A 
ATOM      8  C   UNL     1       1.924   0.974   6.477  1.00  0.00     0.075 A 
ATOM      9  N   UNL     1       1.367   0.166   7.440  1.00  0.00    -0.275 N 
ATOM     10  C   UNL     1       2.882   1.710   7.154  1.00  0.00     0.059 A 
ATOM     11  N   UNL     1       1.854   0.331   8.682  1.00  0.00    -0.154 NA
ATOM     12  H   UNL     1       0.662  -0.489   7.234  1.00  0.00     0.190 HD
ATOM     13  C   UNL     1       2.812   1.243   8.520  1.00  0.00     0.182 A 
ATOM     14  N   UNL     1       3.616   1.723   9.509  1.00  0.00    -0.226 NA
ATOM     15  C   UNL     1       4.700   2.973   7.693  1.00  0.00     0.043 A 
ATOM     16  C   UNL     1       4.550   2.587   9.041  1.00  0.00     0.074 A 
BRANCH   8  17
ATOM     17  C   UNL     1       1.484   0.867   5.088  1.00  0.00     0.001 A 
ATOM     18  C   UNL     1       0.656   0.848   2.396  1.00  0.00     0.118 A 
ATOM     19  C   UNL     1      -0.223   1.243   3.405  1.00  0.00     0.047 A 
ATOM     20  C   UNL     1       1.948   0.445   2.735  1.00  0.00     0.047 A 
ATOM     21  C   UNL     1       0.181   1.246   4.742  1.00  0.00     0.014 A 
ATOM     22  C   UNL     1       2.356   0.440   4.078  1.00  0.00     0.014 A 
BRANCH  18  23
ATOM     23  O   UNL     1       0.145   0.943   1.129  1.00  0.00    -0.497 OA
ATOM     24  C   UNL     1       0.810   0.152   0.147  1.00  0.00     0.278 C 
ENDBRANCH  18  23
ENDBRANCH   8  17
BRANCH  16  25
ATOM     25  C   UNL     1       5.395   3.283  10.033  1.00  0.00     0.000 A 
ATOM     26  C   UNL     1       6.319   2.601  10.829  1.00  0.00     0.011 A 
ATOM     27  C   UNL     1       5.348   4.691  10.132  1.00  0.00     0.011 A 
ATOM     28  C   UNL     1       7.174   3.303  11.692  1.00  0.00     0.014 A 
ATOM     29  C   UNL     1       6.197   5.394  10.992  1.00  0.00     0.014 A 
ATOM     30  C   UNL     1       7.119   4.704  11.786  1.00  0.00     0.056 A 
BRANCH  30  31
ATOM     31  C   UNL     1       8.027   5.441  12.741  1.00  0.00     0.416 C 
ATOM     32  F   UNL     1       7.821   5.078  14.038  1.00  0.00    -0.166 F 
ATOM     33  F   UNL     1       9.347   5.215  12.495  1.00  0.00    -0.166 F 
ATOM     34  F   UNL     1       7.871   6.795  12.710  1.00  0.00    -0.166 F 
ENDBRANCH  30  31
ENDBRANCH  16  25
ENDBRANCH   4   7
ENDBRANCH   2   3
ENDBRANCH   1   2
BRANCH   1  35
ATOM     35  C   UNL     1       7.503   5.304   4.434  1.00  0.00     0.118 C 
BRANCH  35  36
ATOM     36  N   UNL     1       7.604   6.773   4.371  1.00  0.00    -0.352 N 
ATOM     37  C   UNL     1       8.314   7.551   3.465  1.00  0.00     0.251 C 
ATOM     38  H   UNL     1       7.103   7.267   5.059  1.00  0.00     0.163 HD
ATOM     39  O   UNL     1       8.550   8.720   3.672  1.00  0.00    -0.269 OA
BRANCH  37  40
ATOM     40  C   UNL     1       8.672   6.903   2.196  1.00  0.00     0.039 A 
ATOM     41  C   UNL     1       9.803   7.152   1.425  1.00  0.00     0.014 A 
ATOM     42  C   UNL     1       7.730   6.021   1.718  1.00  0.00     0.014 A 
ATOM     43  C   UNL     1       9.901   6.461   0.210  1.00  0.00     0.010 A 
ATOM     44  C   UNL     1       8.196   4.995   0.985  1.00  0.00     0.010 A 
ATOM     45  C   UNL     1       8.979   5.430  -0.042  1.00  0.00    -0.014 A 
BRANCH  45  46
ATOM     46  C   UNL     1       9.008   4.462  -1.115  1.00  0.00     0.031 A 
ATOM     47  C   UNL     1      10.329   3.788  -1.144  1.00  0.00     0.074 A 
ATOM     48  C   UNL     1       7.885   4.092  -1.786  1.00  0.00     0.049 A 
ATOM     49  N   UNL     1      11.338   4.202  -1.836  1.00  0.00    -0.248 NA
ATOM     50  C   UNL     1      10.716   2.831  -0.086  1.00  0.00     0.031 C 
ATOM     51  C   UNL     1       6.480   4.515  -1.642  1.00  0.00     0.029 A 
ATOM     52  N   UNL     1       7.783   3.190  -2.796  1.00  0.00    -0.354 N 
ATOM     53  C   UNL     1      12.351   3.294  -1.576  1.00  0.00     0.074 A 
ATOM     54  C   UNL     1      12.030   2.705  -0.309  1.00  0.00     0.031 C 
ATOM     55  C   UNL     1       5.667   3.709  -2.378  1.00  0.00     0.029 A 
ATOM     56  C   UNL     1       6.489   2.816  -3.170  1.00  0.00     0.049 A 
ATOM     57  H   UNL     1       8.579   2.820  -3.241  1.00  0.00     0.167 HD
ATOM     58  C   UNL     1      13.136   2.865  -2.601  1.00  0.00     0.034 A 
ATOM     59  C   UNL     1       6.155   1.872  -4.103  1.00  0.00     0.034 A 
ATOM     60  C   UNL     1      12.904   3.683  -3.775  1.00  0.00     0.049 A 
ATOM     61  C   UNL     1       7.345   1.733  -4.985  1.00  0.00     0.074 A 
ATOM     62  C   UNL     1      13.054   5.020  -4.082  1.00  0.00     0.029 A 
ATOM     63  N   UNL     1      11.967   3.187  -4.652  1.00  0.00    -0.354 N 
ATOM     64  N   UNL     1       7.756   2.721  -5.735  1.00  0.00    -0.248 NA
ATOM     65  C   UNL     1       8.364   0.778  -4.571  1.00  0.00     0.031 C 
ATOM     66  C   UNL     1      11.880   5.362  -4.822  1.00  0.00     0.029 A 
ATOM     67  C   UNL     1      11.134   4.203  -5.042  1.00  0.00     0.049 A 
ATOM     68  H   UNL     1      11.905   2.251  -4.952  1.00  0.00     0.167 HD
ATOM     69  C   UNL     1       9.122   2.789  -5.495  1.00  0.00     0.074 A 
ATOM     70  C   UNL     1       9.444   1.539  -4.788  1.00  0.00     0.031 C 
ATOM     71  C   UNL     1       9.792   3.981  -5.539  1.00  0.00     0.034 A 
BRANCH  58  72
ATOM     72  C   UNL     1      13.729   1.481  -2.735  1.00  0.00     0.023 A 
ATOM     73  C   UNL     1      14.620   1.288  -3.814  1.00  0.00     0.012 A 
ATOM     74  C   UNL     1      13.259   0.321  -2.074  1.00  0.00     0.148 A 
ATOM     75  C   UNL     1      14.973   0.011  -4.256  1.00  0.00     0.002 A 
ATOM     76  C   UNL     1      13.655  -0.948  -2.484  1.00  0.00     0.091 A 
ATOM     77  F   UNL     1      12.339   0.420  -1.114  1.00  0.00    -0.205 F 
ATOM     78  C   UNL     1      14.489  -1.108  -3.593  1.00  0.00     0.022 A 
BRANCH  76  79
ATOM     79  S   UNL     1      13.083  -2.446  -1.668  1.00  0.00     0.127 S 
ATOM     80  O   UNL     1      12.304  -3.079  -2.729  1.00  0.00    -0.237 OA
ATOM     81  O   UNL     1      14.349  -3.106  -1.349  1.00  0.00    -0.237 OA
ATOM     82  O   UNL     1      12.325  -2.002  -0.505  1.00  0.00    -0.744 OA
ENDBRANCH  76  79
ENDBRANCH  58  72
BRANCH  59  83
ATOM     83  C   UNL     1       5.155   0.766  -3.980  1.00  0.00     0.023 A 
ATOM     84  C   UNL     1       4.686   0.045  -5.105  1.00  0.00     0.012 A 
ATOM     85  C   UNL     1       4.885   0.218  -2.707  1.00  0.00     0.148 A 
ATOM     86  C   UNL     1       3.962  -1.155  -4.959  1.00  0.00     0.002 A 
ATOM     87  C   UNL     1       4.182  -0.978  -2.568  1.00  0.00     0.091 A 
ATOM     88  F   UNL     1       5.407   0.821  -1.632  1.00  0.00    -0.205 F 
ATOM     89  C   UNL     1       3.709  -1.667  -3.690  1.00  0.00     0.022 A 
BRANCH  87  90
ATOM     90  S   UNL     1       3.889  -1.707  -0.954  1.00  0.00     0.127 S 
ATOM     91  O   UNL     1       2.493  -2.131  -1.062  1.00  0.00    -0.237 OA
ATOM     92  O   UNL     1       4.859  -2.795  -0.921  1.00  0.00    -0.237 OA
ATOM     93  O   UNL     1       4.106  -0.631   0.005  1.00  0.00    -0.744 OA
ENDBRANCH  87  90
ENDBRANCH  59  83
BRANCH  71  94
ATOM     94  C   UNL     1       9.040   5.204  -6.021  1.00  0.00     0.023 A 
ATOM     95  C   UNL     1       8.022   5.854  -5.283  1.00  0.00     0.012 A 
ATOM     96  C   UNL     1       9.505   5.811  -7.194  1.00  0.00     0.148 A 
ATOM     97  C   UNL     1       7.467   7.064  -5.728  1.00  0.00     0.002 A 
ATOM     98  C   UNL     1       8.980   7.026  -7.613  1.00  0.00     0.091 A 
ATOM     99  F   UNL     1      10.496   5.201  -7.860  1.00  0.00    -0.205 F 
ATOM    100  C   UNL     1       7.951   7.652  -6.892  1.00  0.00     0.022 A 
BRANCH  98 101
ATOM    101  S   UNL     1       9.644   7.886  -9.037  1.00  0.00     0.127 S 
ATOM    102  O   UNL     1       8.523   7.832  -9.973  1.00  0.00    -0.237 OA
ATOM    103  O   UNL     1       9.924   9.215  -8.490  1.00  0.00    -0.237 OA
ATOM    104  O   UNL     1      10.830   7.143  -9.444  1.00  0.00    -0.744 OA
ENDBRANCH  98 101
ENDBRANCH  71  94
ENDBRANCH  45  46
ENDBRANCH  37  40
ENDBRANCH  35  36
ENDBRANCH   1  35
TORSDOF 17
