REMARK SMILES CC(=O)NS(=O)(=O)c1ccc(-c2ccn(C(F)F)c(=O)c2)cc1C(=O)NCCCNC(=O)c1ccc(-c2c3nc(c(-c4cccc(S(=O)(=O)[O-])c4F)c4ccc([nH]4)c(-c4cccc(S(=O)(=O)[O-])c4F)c4nc(c(-c5cccc(S(=O)(=O)[O-])c5F)c5ccc2[nH]5)C=C4)C=C3)cc1
REMARK SMILES IDX 28 1 27 2 26 3 24 4 25 5 23 7 8 8 9 9 10 10 22 11 11 12 5 13
REMARK SMILES IDX 6 14 7 15 4 16 1 17 2 18 3 19 12 21 13 22 21 23 14 24 19 25
REMARK SMILES IDX 15 26 20 27 16 28 17 29 18 30 29 31 30 32 31 33 32 35 33 36
REMARK SMILES IDX 34 37 95 38 35 39 94 40 36 41 37 42 38 43 88 44 39 45 93 46
REMARK SMILES IDX 87 47 89 48 40 49 92 50 86 51 85 52 41 54 73 55 53 56 72 57
REMARK SMILES IDX 54 58 57 59 71 60 90 61 55 62 56 63 70 65 91 66 58 67 42 68
REMARK SMILES IDX 43 69 51 70 44 71 46 72 52 73 45 74 47 75 48 76 49 77 50 78
REMARK SMILES IDX 74 79 75 80 83 81 76 82 78 83 84 84 77 85 79 86 80 87 81 88
REMARK SMILES IDX 82 89 59 90 60 91 68 92 61 93 63 94 69 95 62 96 64 97 65 98
REMARK SMILES IDX 66 99 67 100
REMARK H PARENT 26 6 4 20 30 34 89 53 57 64
REMARK Flexibility Score: inf
ROOT
ATOM      1  C   UNL     1       3.266   3.290   2.629  1.00  0.00     0.042 C 
ENDROOT
BRANCH   1   2
ATOM      2  C   UNL     1       3.242   2.593   1.278  1.00  0.00     0.118 C 
BRANCH   2   3
ATOM      3  N   UNL     1       4.184   1.510   1.257  1.00  0.00    -0.352 N 
ATOM      4  C   UNL     1       4.190   0.177   1.515  1.00  0.00     0.252 C 
ATOM      5  O   UNL     1       5.338  -0.294   1.478  1.00  0.00    -0.269 OA
ATOM      6  H   UNL     1       5.076   1.821   0.977  1.00  0.00     0.163 HD
BRANCH   4   7
ATOM      7  C   UNL     1       3.074  -0.815   1.712  1.00  0.00     0.060 A 
ATOM      8  C   UNL     1       1.833  -0.824   2.377  1.00  0.00     0.100 A 
ATOM      9  C   UNL     1       1.166  -2.061   2.606  1.00  0.00     0.024 A 
ATOM     10  C   UNL     1       1.627  -3.266   2.107  1.00  0.00     0.010 A 
ATOM     11  C   UNL     1       3.475  -2.073   1.158  1.00  0.00     0.024 A 
ATOM     12  C   UNL     1       2.768  -3.270   1.331  1.00  0.00    -0.017 A 
BRANCH   8  13
ATOM     13  S   UNL     1       0.936   0.526   3.078  1.00  0.00     0.264 S 
ATOM     14  O   UNL     1       1.861   1.259   3.897  1.00  0.00    -0.201 OA
ATOM     15  O   UNL     1      -0.279   0.004   3.677  1.00  0.00    -0.201 OA
BRANCH  13  16
ATOM     16  N   UNL     1       0.386   1.506   1.868  1.00  0.00    -0.249 N 
ATOM     17  C   UNL     1       0.270   0.015  -0.160  1.00  0.00     0.115 C 
ATOM     18  C   UNL     1      -0.031   1.300   0.546  1.00  0.00     0.230 C 
ATOM     19  O   UNL     1      -0.514   2.248  -0.062  1.00  0.00    -0.274 OA
ATOM     20  H   UNL     1       0.340   2.452   2.137  1.00  0.00     0.183 HD
ENDBRANCH  13  16
ENDBRANCH   8  13
BRANCH  12  21
ATOM     21  C   UNL     1       3.212  -4.518   0.701  1.00  0.00    -0.011 A 
ATOM     22  C   UNL     1       4.411  -5.229   1.087  1.00  0.00     0.027 A 
ATOM     23  C   UNL     1       2.430  -5.011  -0.274  1.00  0.00     0.080 A 
ATOM     24  C   UNL     1       4.736  -6.375   0.477  1.00  0.00     0.095 A 
ATOM     25  C   UNL     1       2.777  -6.281  -0.957  1.00  0.00     0.255 A 
ATOM     26  N   UNL     1       3.940  -6.898  -0.528  1.00  0.00    -0.258 N 
ATOM     27  O   UNL     1       2.026  -6.692  -1.836  1.00  0.00    -0.269 OA
BRANCH  26  28
ATOM     28  C   UNL     1       4.305  -8.117  -1.194  1.00  0.00     0.451 C 
ATOM     29  F   UNL     1       3.331  -9.053  -1.074  1.00  0.00    -0.185 F 
ATOM     30  F   UNL     1       4.516  -7.901  -2.516  1.00  0.00    -0.185 F 
ENDBRANCH  26  28
ENDBRANCH  12  21
ENDBRANCH   4   7
ENDBRANCH   2   3
ENDBRANCH   1   2
BRANCH   1  31
ATOM     31  C   UNL     1       4.018   4.602   2.605  1.00  0.00     0.118 C 
BRANCH  31  32
ATOM     32  N   UNL     1       3.221   5.641   1.968  1.00  0.00    -0.352 N 
ATOM     33  C   UNL     1       2.671   6.775   2.512  1.00  0.00     0.251 C 
ATOM     34  H   UNL     1       3.051   5.510   1.007  1.00  0.00     0.163 HD
ATOM     35  O   UNL     1       1.784   7.359   1.894  1.00  0.00    -0.269 OA
BRANCH  33  36
ATOM     36  C   UNL     1       3.137   7.293   3.820  1.00  0.00     0.039 A 
ATOM     37  C   UNL     1       2.240   7.994   4.632  1.00  0.00     0.014 A 
ATOM     38  C   UNL     1       4.463   7.140   4.231  1.00  0.00     0.014 A 
ATOM     39  C   UNL     1       2.674   8.521   5.851  1.00  0.00     0.010 A 
ATOM     40  C   UNL     1       4.854   7.540   5.502  1.00  0.00     0.010 A 
ATOM     41  C   UNL     1       3.983   8.285   6.303  1.00  0.00    -0.014 A 
BRANCH  41  42
ATOM     42  C   UNL     1       4.479   8.869   7.574  1.00  0.00     0.031 A 
ATOM     43  C   UNL     1       5.665   9.803   7.562  1.00  0.00     0.074 A 
ATOM     44  C   UNL     1       3.902   8.519   8.740  1.00  0.00     0.049 A 
ATOM     45  N   UNL     1       6.254  10.401   8.565  1.00  0.00    -0.248 NA
ATOM     46  C   UNL     1       6.298  10.076   6.258  1.00  0.00     0.031 C 
ATOM     47  C   UNL     1       2.811   7.553   8.889  1.00  0.00     0.029 A 
ATOM     48  N   UNL     1       4.163   8.924  10.024  1.00  0.00    -0.354 N 
ATOM     49  C   UNL     1       7.342  11.075   8.022  1.00  0.00     0.074 A 
ATOM     50  C   UNL     1       7.364  10.779   6.609  1.00  0.00     0.031 C 
ATOM     51  C   UNL     1       2.484   7.455  10.188  1.00  0.00     0.029 A 
ATOM     52  C   UNL     1       3.361   8.323  10.965  1.00  0.00     0.049 A 
ATOM     53  H   UNL     1       4.859   9.583  10.250  1.00  0.00     0.167 HD
ATOM     54  C   UNL     1       8.226  11.896   8.636  1.00  0.00     0.034 A 
ATOM     55  C   UNL     1       3.340   8.455  12.305  1.00  0.00     0.034 A 
ATOM     56  C   UNL     1       8.166  12.230  10.032  1.00  0.00     0.049 A 
ATOM     57  C   UNL     1       4.286   9.429  12.951  1.00  0.00     0.074 A 
ATOM     58  C   UNL     1       8.950  13.126  10.737  1.00  0.00     0.029 A 
ATOM     59  N   UNL     1       7.276  11.675  10.938  1.00  0.00    -0.354 N 
ATOM     60  N   UNL     1       5.207  10.179  12.396  1.00  0.00    -0.248 NA
ATOM     61  C   UNL     1       4.159   9.611  14.403  1.00  0.00     0.031 C 
ATOM     62  C   UNL     1       8.558  13.084  12.078  1.00  0.00     0.029 A 
ATOM     63  C   UNL     1       7.496  12.201  12.198  1.00  0.00     0.049 A 
ATOM     64  H   UNL     1       6.589  11.005  10.717  1.00  0.00     0.167 HD
ATOM     65  C   UNL     1       5.738  10.953  13.421  1.00  0.00     0.074 A 
ATOM     66  C   UNL     1       5.018  10.595  14.626  1.00  0.00     0.031 C 
ATOM     67  C   UNL     1       6.737  11.868  13.375  1.00  0.00     0.034 A 
BRANCH  54  68
ATOM     68  C   UNL     1       9.309  12.525   7.797  1.00  0.00     0.023 A 
ATOM     69  C   UNL     1       8.980  13.511   6.843  1.00  0.00     0.012 A 
ATOM     70  C   UNL     1      10.661  12.187   8.001  1.00  0.00     0.148 A 
ATOM     71  C   UNL     1       9.975  14.125   6.083  1.00  0.00     0.002 A 
ATOM     72  C   UNL     1      11.651  12.841   7.277  1.00  0.00     0.091 A 
ATOM     73  F   UNL     1      10.953  11.232   8.895  1.00  0.00    -0.205 F 
ATOM     74  C   UNL     1      11.310  13.800   6.309  1.00  0.00     0.022 A 
BRANCH  72  75
ATOM     75  S   UNL     1      13.403  12.558   7.554  1.00  0.00     0.127 S 
ATOM     76  O   UNL     1      13.804  11.937   6.292  1.00  0.00    -0.237 OA
ATOM     77  O   UNL     1      13.904  13.918   7.751  1.00  0.00    -0.237 OA
ATOM     78  O   UNL     1      13.494  11.697   8.725  1.00  0.00    -0.744 OA
ENDBRANCH  72  75
ENDBRANCH  54  68
BRANCH  55  79
ATOM     79  C   UNL     1       2.353   7.689  13.119  1.00  0.00     0.023 A 
ATOM     80  C   UNL     1       1.305   8.368  13.771  1.00  0.00     0.012 A 
ATOM     81  C   UNL     1       2.446   6.290  13.243  1.00  0.00     0.148 A 
ATOM     82  C   UNL     1       0.397   7.673  14.571  1.00  0.00     0.002 A 
ATOM     83  C   UNL     1       1.503   5.597  13.992  1.00  0.00     0.091 A 
ATOM     84  F   UNL     1       3.454   5.663  12.620  1.00  0.00    -0.205 F 
ATOM     85  C   UNL     1       0.490   6.288  14.674  1.00  0.00     0.022 A 
BRANCH  83  86
ATOM     86  S   UNL     1       1.469   3.804  14.073  1.00  0.00     0.127 S 
ATOM     87  O   UNL     1       1.881   3.560  15.453  1.00  0.00    -0.237 OA
ATOM     88  O   UNL     1       0.062   3.516  13.790  1.00  0.00    -0.237 OA
ATOM     89  O   UNL     1       2.394   3.346  13.046  1.00  0.00    -0.744 OA
ENDBRANCH  83  86
ENDBRANCH  55  79
BRANCH  67  90
ATOM     90  C   UNL     1       7.070  12.596  14.650  1.00  0.00     0.023 A 
ATOM     91  C   UNL     1       7.682  11.915  15.721  1.00  0.00     0.012 A 
ATOM     92  C   UNL     1       6.811  13.976  14.767  1.00  0.00     0.148 A 
ATOM     93  C   UNL     1       7.980  12.584  16.907  1.00  0.00     0.002 A 
ATOM     94  C   UNL     1       7.165  14.649  15.929  1.00  0.00     0.091 A 
ATOM     95  F   UNL     1       6.213  14.605  13.744  1.00  0.00    -0.205 F 
ATOM     96  C   UNL     1       7.732  13.951  17.007  1.00  0.00     0.022 A 
BRANCH  94  97
ATOM     97  S   UNL     1       6.980  16.426  16.100  1.00  0.00     0.127 S 
ATOM     98  O   UNL     1       5.829  16.520  16.996  1.00  0.00    -0.237 OA
ATOM     99  O   UNL     1       8.255  16.815  16.703  1.00  0.00    -0.237 OA
ATOM    100  O   UNL     1       6.770  16.939  14.753  1.00  0.00    -0.744 OA
ENDBRANCH  94  97
ENDBRANCH  67  90
ENDBRANCH  41  42
ENDBRANCH  33  36
ENDBRANCH  31  32
ENDBRANCH   1  31
TORSDOF 17
