REMARK SMILES O=C(C[N@@H+]1CCC[C@@H]1c1ccccc1Cl)NCCCNC(=O)c1ccc(-c2c3nc(c(-c4cccc(S(=O)(=O)[O-])c4F)c4ccc([nH]4)c(-c4cccc(S(=O)(=O)[O-])c4F)c4nc(c(-c5cccc(S(=O)(=O)[O-])c5F)c5ccc2[nH]5)C=C4)C=C3)cc1
REMARK SMILES IDX 18 1 17 2 16 3 1 4 2 5 3 7 4 8 5 9 8 10 6 12 7 13 9 14 10 15
REMARK SMILES IDX 14 16 11 17 13 18 15 19 12 20 19 21 20 22 21 23 22 25 23 26
REMARK SMILES IDX 24 27 85 28 25 29 84 30 26 31 27 32 28 33 78 34 29 35 83 36
REMARK SMILES IDX 77 37 79 38 30 39 82 40 76 41 75 42 31 44 63 45 43 46 62 47
REMARK SMILES IDX 44 48 47 49 61 50 80 51 45 52 46 53 60 55 81 56 48 57 32 58
REMARK SMILES IDX 33 59 41 60 34 61 36 62 42 63 35 64 37 65 38 66 39 67 40 68
REMARK SMILES IDX 64 69 65 70 73 71 66 72 68 73 74 74 67 75 69 76 70 77 71 78
REMARK SMILES IDX 72 79 49 80 50 81 58 82 51 83 53 84 59 85 52 86 54 87 55 88
REMARK SMILES IDX 56 89 57 90
REMARK H PARENT 16 6 4 11 20 24 79 43 47 54
REMARK Flexibility Score: inf
ROOT
ATOM      1  C   UNL     1       2.510   3.026  -1.216  1.00  0.00     0.042 C 
ENDROOT
BRANCH   1   2
ATOM      2  C   UNL     1       2.151   1.634  -1.736  1.00  0.00     0.118 C 
BRANCH   2   3
ATOM      3  N   UNL     1       2.626   0.556  -0.894  1.00  0.00    -0.351 N 
ATOM      4  O   UNL     1       0.672   0.207   0.266  1.00  0.00    -0.269 OA
ATOM      5  C   UNL     1       1.840  -0.096   0.035  1.00  0.00     0.275 C 
ATOM      6  H   UNL     1       3.564   0.273  -0.989  1.00  0.00     0.163 HD
BRANCH   5   7
ATOM      7  C   UNL     1       2.552  -1.234   0.802  1.00  0.00     0.364 C 
BRANCH   7   8
ATOM      8  N   UNL     1       3.840  -1.577   0.137  1.00  0.00    -0.321 N 
ATOM      9  C   UNL     1       3.777  -3.010  -0.250  1.00  0.00     0.263 C 
ATOM     10  C   UNL     1       5.093  -1.502   0.965  1.00  0.00     0.217 C 
ATOM     11  H   UNL     1       3.914  -0.884  -0.609  1.00  0.00     0.349 HD
ATOM     12  C   UNL     1       4.114  -3.747   1.031  1.00  0.00     0.068 C 
ATOM     13  C   UNL     1       5.228  -2.901   1.613  1.00  0.00     0.076 C 
BRANCH  10  14
ATOM     14  C   UNL     1       5.402  -0.339   1.911  1.00  0.00     0.028 A 
ATOM     15  C   UNL     1       4.568   0.781   2.063  1.00  0.00     0.011 A 
ATOM     16  C   UNL     1       6.594  -0.319   2.677  1.00  0.00     0.050 A 
ATOM     17  C   UNL     1       4.804   1.771   3.025  1.00  0.00     0.001 A 
ATOM     18  C   UNL     1       6.837   0.674   3.638  1.00  0.00     0.021 A 
ATOM     19  Cl  UNL     1       7.881  -1.459   2.449  1.00  0.00    -0.084 Cl
ATOM     20  C   UNL     1       5.926   1.703   3.834  1.00  0.00     0.002 A 
ENDBRANCH  10  14
ENDBRANCH   7   8
ENDBRANCH   5   7
ENDBRANCH   2   3
ENDBRANCH   1   2
BRANCH   1  21
ATOM     21  C   UNL     1       3.994   3.391  -1.288  1.00  0.00     0.118 C 
BRANCH  21  22
ATOM     22  N   UNL     1       4.517   3.402  -2.647  1.00  0.00    -0.352 N 
ATOM     23  C   UNL     1       5.126   4.383  -3.392  1.00  0.00     0.251 C 
ATOM     24  H   UNL     1       4.416   2.546  -3.122  1.00  0.00     0.163 HD
ATOM     25  O   UNL     1       5.343   4.153  -4.582  1.00  0.00    -0.269 OA
BRANCH  23  26
ATOM     26  C   UNL     1       5.522   5.697  -2.823  1.00  0.00     0.039 A 
ATOM     27  C   UNL     1       5.470   6.820  -3.660  1.00  0.00     0.014 A 
ATOM     28  C   UNL     1       6.029   5.839  -1.530  1.00  0.00     0.014 A 
ATOM     29  C   UNL     1       5.887   8.073  -3.195  1.00  0.00     0.010 A 
ATOM     30  C   UNL     1       6.373   7.104  -1.042  1.00  0.00     0.010 A 
ATOM     31  C   UNL     1       6.327   8.234  -1.873  1.00  0.00    -0.014 A 
BRANCH  31  32
ATOM     32  C   UNL     1       6.760   9.567  -1.365  1.00  0.00     0.031 A 
ATOM     33  C   UNL     1       8.180   9.792  -0.908  1.00  0.00     0.074 A 
ATOM     34  C   UNL     1       5.866  10.572  -1.263  1.00  0.00     0.049 A 
ATOM     35  N   UNL     1       8.731  10.876  -0.422  1.00  0.00    -0.248 NA
ATOM     36  C   UNL     1       9.097   8.643  -0.984  1.00  0.00     0.031 C 
ATOM     37  C   UNL     1       4.445  10.476  -1.603  1.00  0.00     0.029 A 
ATOM     38  N   UNL     1       6.014  11.866  -0.825  1.00  0.00    -0.354 N 
ATOM     39  C   UNL     1      10.040  10.532  -0.103  1.00  0.00     0.074 A 
ATOM     40  C   UNL     1      10.192   9.129  -0.418  1.00  0.00     0.031 C 
ATOM     41  C   UNL     1       3.855  11.660  -1.368  1.00  0.00     0.029 A 
ATOM     42  C   UNL     1       4.845  12.591  -0.837  1.00  0.00     0.049 A 
ATOM     43  H   UNL     1       6.877  12.239  -0.531  1.00  0.00     0.167 HD
ATOM     44  C   UNL     1      11.036  11.315   0.379  1.00  0.00     0.034 A 
ATOM     45  C   UNL     1       4.595  13.862  -0.460  1.00  0.00     0.034 A 
ATOM     46  C   UNL     1      10.901  12.721   0.653  1.00  0.00     0.049 A 
ATOM     47  C   UNL     1       5.728  14.722   0.032  1.00  0.00     0.074 A 
ATOM     48  C   UNL     1      11.874  13.615   1.067  1.00  0.00     0.029 A 
ATOM     49  N   UNL     1       9.720  13.439   0.547  1.00  0.00    -0.354 N 
ATOM     50  N   UNL     1       6.993  14.416   0.182  1.00  0.00    -0.248 NA
ATOM     51  C   UNL     1       5.407  16.118   0.364  1.00  0.00     0.031 C 
ATOM     52  C   UNL     1      11.275  14.868   1.237  1.00  0.00     0.029 A 
ATOM     53  C   UNL     1       9.938  14.763   0.892  1.00  0.00     0.049 A 
ATOM     54  H   UNL     1       8.854  13.064   0.267  1.00  0.00     0.167 HD
ATOM     55  C   UNL     1       7.626  15.589   0.580  1.00  0.00     0.074 A 
ATOM     56  C   UNL     1       6.606  16.616   0.632  1.00  0.00     0.031 C 
ATOM     57  C   UNL     1       8.931  15.793   0.884  1.00  0.00     0.034 A 
BRANCH  44  58
ATOM     58  C   UNL     1      12.386  10.677   0.598  1.00  0.00     0.023 A 
ATOM     59  C   UNL     1      13.165  10.293  -0.513  1.00  0.00     0.012 A 
ATOM     60  C   UNL     1      12.910  10.513   1.896  1.00  0.00     0.148 A 
ATOM     61  C   UNL     1      14.423   9.720  -0.337  1.00  0.00     0.002 A 
ATOM     62  C   UNL     1      14.186   9.985   2.062  1.00  0.00     0.091 A 
ATOM     63  F   UNL     1      12.151  10.867   2.942  1.00  0.00    -0.205 F 
ATOM     64  C   UNL     1      14.937   9.575   0.948  1.00  0.00     0.022 A 
BRANCH  62  65
ATOM     65  S   UNL     1      14.972   9.834   3.670  1.00  0.00     0.127 S 
ATOM     66  O   UNL     1      14.972   8.384   3.864  1.00  0.00    -0.237 OA
ATOM     67  O   UNL     1      16.291  10.415   3.424  1.00  0.00    -0.237 OA
ATOM     68  O   UNL     1      14.139  10.587   4.598  1.00  0.00    -0.744 OA
ENDBRANCH  62  65
ENDBRANCH  44  58
BRANCH  45  69
ATOM     69  C   UNL     1       3.220  14.424  -0.599  1.00  0.00     0.023 A 
ATOM     70  C   UNL     1       2.970  15.412  -1.572  1.00  0.00     0.012 A 
ATOM     71  C   UNL     1       2.161  13.977   0.214  1.00  0.00     0.148 A 
ATOM     72  C   UNL     1       1.700  15.973  -1.707  1.00  0.00     0.002 A 
ATOM     73  C   UNL     1       0.885  14.500   0.036  1.00  0.00     0.091 A 
ATOM     74  F   UNL     1       2.421  13.044   1.140  1.00  0.00    -0.205 F 
ATOM     75  C   UNL     1       0.656  15.511  -0.910  1.00  0.00     0.022 A 
BRANCH  73  76
ATOM     76  S   UNL     1      -0.545  13.878   0.927  1.00  0.00     0.127 S 
ATOM     77  O   UNL     1      -0.861  15.000   1.806  1.00  0.00    -0.237 OA
ATOM     78  O   UNL     1      -1.502  13.655  -0.157  1.00  0.00    -0.237 OA
ATOM     79  O   UNL     1      -0.096  12.661   1.591  1.00  0.00    -0.744 OA
ENDBRANCH  73  76
ENDBRANCH  45  69
BRANCH  57  80
ATOM     80  C   UNL     1       9.358  17.193   1.245  1.00  0.00     0.023 A 
ATOM     81  C   UNL     1       8.969  17.758   2.476  1.00  0.00     0.012 A 
ATOM     82  C   UNL     1      10.202  17.926   0.387  1.00  0.00     0.148 A 
ATOM     83  C   UNL     1       9.380  19.044   2.829  1.00  0.00     0.002 A 
ATOM     84  C   UNL     1      10.650  19.185   0.768  1.00  0.00     0.091 A 
ATOM     85  F   UNL     1      10.546  17.382  -0.790  1.00  0.00    -0.205 F 
ATOM     86  C   UNL     1      10.229  19.751   1.981  1.00  0.00     0.022 A 
BRANCH  84  87
ATOM     87  S   UNL     1      11.826  20.123  -0.215  1.00  0.00     0.127 S 
ATOM     88  O   UNL     1      10.973  21.164  -0.787  1.00  0.00    -0.237 OA
ATOM     89  O   UNL     1      12.770  20.598   0.798  1.00  0.00    -0.237 OA
ATOM     90  O   UNL     1      12.391  19.181  -1.171  1.00  0.00    -0.744 OA
ENDBRANCH  84  87
ENDBRANCH  57  80
ENDBRANCH  31  32
ENDBRANCH  23  26
ENDBRANCH  21  22
ENDBRANCH   1  21
TORSDOF 15
