REMARK SMILES O=C(CCC(=O)N1N=C(c2ccc(F)cc2)C[C@@H]1c1ccc2nccnc2c1)NCCCNC(=O)c1ccc(-c2c3nc(c(-c4cccc(S(=O)(=O)[O-])c4F)c4ccc([nH]4)c(-c4cccc(S(=O)(=O)[O-])c4F)c4nc(c(-c5cccc(S(=O)(=O)[O-])c5F)c5ccc2[nH]5)C=C4)C=C3)cc1
REMARK SMILES IDX 30 1 29 2 1 3 2 4 3 6 4 7 5 8 6 9 7 10 8 11 18 12 9 13 17 14
REMARK SMILES IDX 19 15 20 16 28 17 21 18 27 19 22 20 26 21 23 22 25 23 24 24
REMARK SMILES IDX 10 25 11 26 16 27 12 28 15 29 13 30 14 31 31 32 32 33 33 34
REMARK SMILES IDX 34 35 35 37 36 38 37 39 98 40 38 41 97 42 39 43 40 44 41 45
REMARK SMILES IDX 91 46 42 47 96 48 90 49 92 50 43 51 95 52 89 53 88 54 44 56
REMARK SMILES IDX 76 57 56 58 75 59 57 60 60 61 74 62 93 63 58 64 59 65 73 67
REMARK SMILES IDX 94 68 61 69 45 70 46 71 54 72 47 73 49 74 55 75 48 76 50 77
REMARK SMILES IDX 51 78 52 79 53 80 77 81 78 82 86 83 79 84 81 85 87 86 80 87
REMARK SMILES IDX 82 88 83 89 84 90 85 91 62 92 63 93 71 94 64 95 66 96 72 97
REMARK SMILES IDX 65 98 67 99 68 100 69 101 70 102
REMARK H PARENT 29 5 33 36 92 55 60 66
REMARK Flexibility Score: inf
ROOT
ATOM      1  C   UNL     1       0.987   1.750   2.110  1.00  0.00     0.117 C 
ENDROOT
BRANCH   1   2
ATOM      2  N   UNL     1       1.375   0.588   1.298  1.00  0.00    -0.356 N 
ATOM      3  O   UNL     1       0.966   1.608  -0.716  1.00  0.00    -0.275 OA
ATOM      4  C   UNL     1       1.480   0.685  -0.086  1.00  0.00     0.220 C 
ATOM      5  H   UNL     1       1.562  -0.272   1.740  1.00  0.00     0.163 HD
BRANCH   4   6
ATOM      6  C   UNL     1       2.380  -0.359  -0.768  1.00  0.00     0.110 C 
BRANCH   6   7
ATOM      7  C   UNL     1       3.357   0.287  -1.768  1.00  0.00     0.112 C 
BRANCH   7   8
ATOM      8  C   UNL     1       4.815   0.712  -1.466  1.00  0.00     0.243 C 
ATOM      9  O   UNL     1       5.621   0.686  -2.408  1.00  0.00    -0.273 OA
BRANCH   8  10
ATOM     10  N   UNL     1       5.147   1.291  -0.254  1.00  0.00    -0.225 N 
ATOM     11  N   UNL     1       5.859   2.500  -0.254  1.00  0.00    -0.174 NA
ATOM     12  C   UNL     1       4.557   1.021   1.039  1.00  0.00     0.147 C 
ATOM     13  C   UNL     1       5.749   2.996   0.942  1.00  0.00     0.071 C 
ATOM     14  C   UNL     1       4.970   2.173   1.913  1.00  0.00     0.091 C 
BRANCH  12  15
ATOM     15  C   UNL     1       4.732  -0.368   1.632  1.00  0.00    -0.021 A 
ATOM     16  C   UNL     1       3.836  -0.788   2.623  1.00  0.00     0.008 A 
ATOM     17  C   UNL     1       5.648  -1.324   1.182  1.00  0.00     0.036 A 
ATOM     18  C   UNL     1       3.801  -2.081   3.122  1.00  0.00     0.031 A 
ATOM     19  C   UNL     1       5.617  -2.649   1.647  1.00  0.00     0.089 A 
ATOM     20  C   UNL     1       4.661  -3.024   2.628  1.00  0.00     0.089 A 
ATOM     21  N   UNL     1       6.453  -3.575   1.143  1.00  0.00    -0.253 NA
ATOM     22  N   UNL     1       4.527  -4.277   3.084  1.00  0.00    -0.253 NA
ATOM     23  C   UNL     1       6.321  -4.836   1.623  1.00  0.00     0.132 A 
ATOM     24  C   UNL     1       5.376  -5.181   2.569  1.00  0.00     0.132 A 
ENDBRANCH  12  15
BRANCH  13  25
ATOM     25  C   UNL     1       6.180   4.327   1.406  1.00  0.00    -0.002 A 
ATOM     26  C   UNL     1       6.886   4.417   2.613  1.00  0.00     0.013 A 
ATOM     27  C   UNL     1       5.659   5.480   0.805  1.00  0.00     0.013 A 
ATOM     28  C   UNL     1       7.064   5.657   3.227  1.00  0.00     0.040 A 
ATOM     29  C   UNL     1       5.837   6.720   1.431  1.00  0.00     0.040 A 
ATOM     30  C   UNL     1       6.530   6.796   2.637  1.00  0.00     0.123 A 
ATOM     31  F   UNL     1       6.670   7.981   3.246  1.00  0.00    -0.207 F 
ENDBRANCH  13  25
ENDBRANCH   8  10
ENDBRANCH   7   8
ENDBRANCH   6   7
ENDBRANCH   4   6
ENDBRANCH   1   2
BRANCH   1  32
ATOM     32  C   UNL     1       1.160   1.664   3.653  1.00  0.00     0.042 C 
BRANCH  32  33
ATOM     33  C   UNL     1       2.501   1.972   4.379  1.00  0.00     0.118 C 
BRANCH  33  34
ATOM     34  N   UNL     1       2.992   3.332   4.341  1.00  0.00    -0.352 N 
ATOM     35  C   UNL     1       4.036   3.920   5.034  1.00  0.00     0.251 C 
ATOM     36  H   UNL     1       2.509   3.932   3.728  1.00  0.00     0.163 HD
ATOM     37  O   UNL     1       4.250   5.113   4.811  1.00  0.00    -0.269 OA
BRANCH  35  38
ATOM     38  C   UNL     1       4.878   3.227   6.067  1.00  0.00     0.039 A 
ATOM     39  C   UNL     1       5.270   4.001   7.171  1.00  0.00     0.014 A 
ATOM     40  C   UNL     1       5.333   1.904   6.006  1.00  0.00     0.014 A 
ATOM     41  C   UNL     1       5.994   3.442   8.235  1.00  0.00     0.010 A 
ATOM     42  C   UNL     1       6.037   1.329   7.091  1.00  0.00     0.010 A 
ATOM     43  C   UNL     1       6.330   2.078   8.241  1.00  0.00    -0.014 A 
BRANCH  43  44
ATOM     44  C   UNL     1       6.747   1.445   9.533  1.00  0.00     0.031 A 
ATOM     45  C   UNL     1       8.139   0.945   9.810  1.00  0.00     0.074 A 
ATOM     46  C   UNL     1       5.809   1.335  10.500  1.00  0.00     0.049 A 
ATOM     47  N   UNL     1       8.647   0.529  10.945  1.00  0.00    -0.248 NA
ATOM     48  C   UNL     1       9.076   0.888   8.681  1.00  0.00     0.031 C 
ATOM     49  C   UNL     1       4.401   1.707  10.335  1.00  0.00     0.029 A 
ATOM     50  N   UNL     1       5.881   0.899  11.802  1.00  0.00    -0.354 N 
ATOM     51  C   UNL     1       9.958   0.154  10.673  1.00  0.00     0.074 A 
ATOM     52  C   UNL     1      10.160   0.373   9.254  1.00  0.00     0.031 C 
ATOM     53  C   UNL     1       3.756   1.527  11.495  1.00  0.00     0.029 A 
ATOM     54  C   UNL     1       4.689   0.999  12.485  1.00  0.00     0.049 A 
ATOM     55  H   UNL     1       6.707   0.549  12.207  1.00  0.00     0.167 HD
ATOM     56  C   UNL     1      10.906  -0.308  11.528  1.00  0.00     0.034 A 
ATOM     57  C   UNL     1       4.370   0.717  13.765  1.00  0.00     0.034 A 
ATOM     58  C   UNL     1      10.697  -0.512  12.941  1.00  0.00     0.049 A 
ATOM     59  C   UNL     1       5.448   0.246  14.701  1.00  0.00     0.074 A 
ATOM     60  C   UNL     1      11.621  -0.902  13.898  1.00  0.00     0.029 A 
ATOM     61  N   UNL     1       9.486  -0.365  13.600  1.00  0.00    -0.354 N 
ATOM     62  N   UNL     1       6.723   0.067  14.457  1.00  0.00    -0.248 NA
ATOM     63  C   UNL     1       5.058  -0.029  16.092  1.00  0.00     0.031 C 
ATOM     64  C   UNL     1      10.961  -1.028  15.123  1.00  0.00     0.029 A 
ATOM     65  C   UNL     1       9.634  -0.677  14.942  1.00  0.00     0.049 A 
ATOM     66  H   UNL     1       8.644  -0.081  13.176  1.00  0.00     0.167 HD
ATOM     67  C   UNL     1       7.292  -0.317  15.665  1.00  0.00     0.074 A 
ATOM     68  C   UNL     1       6.227  -0.326  16.646  1.00  0.00     0.031 C 
ATOM     69  C   UNL     1       8.581  -0.643  15.927  1.00  0.00     0.034 A 
BRANCH  56  70
ATOM     70  C   UNL     1      12.291  -0.583  10.990  1.00  0.00     0.023 A 
ATOM     71  C   UNL     1      13.127   0.499  10.648  1.00  0.00     0.012 A 
ATOM     72  C   UNL     1      12.812  -1.894  10.944  1.00  0.00     0.148 A 
ATOM     73  C   UNL     1      14.444   0.284  10.243  1.00  0.00     0.002 A 
ATOM     74  C   UNL     1      14.140  -2.098  10.579  1.00  0.00     0.091 A 
ATOM     75  F   UNL     1      12.006  -2.913  11.272  1.00  0.00    -0.205 F 
ATOM     76  C   UNL     1      14.953  -1.012  10.218  1.00  0.00     0.022 A 
BRANCH  74  77
ATOM     77  S   UNL     1      14.919  -3.718  10.593  1.00  0.00     0.127 S 
ATOM     78  O   UNL     1      15.151  -3.945   9.166  1.00  0.00    -0.237 OA
ATOM     79  O   UNL     1      16.131  -3.470  11.374  1.00  0.00    -0.237 OA
ATOM     80  O   UNL     1      13.963  -4.621  11.217  1.00  0.00    -0.744 OA
ENDBRANCH  74  77
ENDBRANCH  56  70
BRANCH  57  81
ATOM     81  C   UNL     1       2.977   0.956  14.241  1.00  0.00     0.023 A 
ATOM     82  C   UNL     1       2.716   2.013  15.134  1.00  0.00     0.012 A 
ATOM     83  C   UNL     1       1.898   0.195  13.746  1.00  0.00     0.148 A 
ATOM     84  C   UNL     1       1.410   2.300  15.536  1.00  0.00     0.002 A 
ATOM     85  C   UNL     1       0.595   0.526  14.099  1.00  0.00     0.091 A 
ATOM     86  F   UNL     1       2.168  -0.814  12.906  1.00  0.00    -0.205 F 
ATOM     87  C   UNL     1       0.349   1.567  15.007  1.00  0.00     0.022 A 
BRANCH  85  88
ATOM     88  S   UNL     1      -0.834  -0.258  13.344  1.00  0.00     0.127 S 
ATOM     89  O   UNL     1      -1.391  -1.009  14.467  1.00  0.00    -0.237 OA
ATOM     90  O   UNL     1      -1.625   0.899  12.923  1.00  0.00    -0.237 OA
ATOM     91  O   UNL     1      -0.312  -1.058  12.246  1.00  0.00    -0.744 OA
ENDBRANCH  85  88
ENDBRANCH  57  81
BRANCH  69  92
ATOM     92  C   UNL     1       8.947  -1.034  17.335  1.00  0.00     0.023 A 
ATOM     93  C   UNL     1       8.578  -2.301  17.827  1.00  0.00     0.012 A 
ATOM     94  C   UNL     1       9.784  -0.207  18.112  1.00  0.00     0.148 A 
ATOM     95  C   UNL     1       9.030  -2.737  19.072  1.00  0.00     0.002 A 
ATOM     96  C   UNL     1      10.273  -0.668  19.328  1.00  0.00     0.091 A 
ATOM     97  F   UNL     1      10.108   1.002  17.631  1.00  0.00    -0.205 F 
ATOM     98  C   UNL     1       9.890  -1.929  19.813  1.00  0.00     0.022 A 
BRANCH  96  99
ATOM     99  S   UNL     1      11.470   0.251  20.303  1.00  0.00     0.127 S 
ATOM    100  O   UNL     1      10.698   0.564  21.505  1.00  0.00    -0.237 OA
ATOM    101  O   UNL     1      12.530  -0.738  20.498  1.00  0.00    -0.237 OA
ATOM    102  O   UNL     1      11.851   1.402  19.496  1.00  0.00    -0.744 OA
ENDBRANCH  96  99
ENDBRANCH  69  92
ENDBRANCH  43  44
ENDBRANCH  35  38
ENDBRANCH  33  34
ENDBRANCH  32  33
ENDBRANCH   1  32
TORSDOF 18
