REMARK SMILES Cc1c(C(=O)NCCCNC(=O)c2ccc(-c3c4nc(c(-c5cccc(S(=O)(=O)[O-])c5F)c5ccc([nH]5)c(-c5cccc(S(=O)(=O)[O-])c5F)c5nc(c(-c6cccc(S(=O)(=O)[O-])c6F)c6ccc3[nH]6)C=C5)C=C4)cc2)ccc2c1N[C@@H](c1ccc(S(=O)(=O)N3CCOCC3)cc1)[C@@H]1CC=C[C@H]21
REMARK SMILES IDX 8 1 7 2 6 3 4 4 5 5 3 7 1 8 2 9 79 10 76 11 78 12 80 13
REMARK SMILES IDX 77 14 101 15 81 16 97 18 100 19 98 20 99 21 82 22 83 23
REMARK SMILES IDX 96 24 84 25 95 26 85 27 86 28 87 29 88 30 89 31 90 32 94 33
REMARK SMILES IDX 91 34 93 35 92 36 9 37 10 38 11 39 12 41 13 42 14 43 75 44
REMARK SMILES IDX 15 45 74 46 16 47 17 48 18 49 68 50 19 51 73 52 67 53 69 54
REMARK SMILES IDX 20 55 72 56 66 57 65 58 21 60 53 61 33 62 52 63 34 64 37 65
REMARK SMILES IDX 51 66 70 67 35 68 36 69 50 71 71 72 38 73 22 74 23 75 31 76
REMARK SMILES IDX 24 77 26 78 32 79 25 80 27 81 28 82 29 83 30 84 54 85 55 86
REMARK SMILES IDX 63 87 56 88 58 89 64 90 57 91 59 92 60 93 61 94 62 95 39 96
REMARK SMILES IDX 40 97 48 98 41 99 43 100 49 101 42 102 44 103 45 104 46 105
REMARK SMILES IDX 47 106
REMARK H PARENT 6 6 80 17 10 40 69 59 37 70
REMARK Flexibility Score: inf
ROOT
ATOM      1  C   UNL     1       3.092  -2.046   1.456  1.00  0.00     0.042 C 
ENDROOT
BRANCH   1   2
ATOM      2  C   UNL     1       1.832  -1.239   1.184  1.00  0.00     0.118 C 
BRANCH   2   3
ATOM      3  N   UNL     1       0.942  -1.103   2.329  1.00  0.00    -0.352 N 
ATOM      4  C   UNL     1       0.085  -0.086   2.674  1.00  0.00     0.251 C 
ATOM      5  O   UNL     1      -0.607  -0.207   3.683  1.00  0.00    -0.269 OA
ATOM      6  H   UNL     1       0.957  -1.861   2.956  1.00  0.00     0.163 HD
BRANCH   4   7
ATOM      7  C   UNL     1       0.035   1.181   1.905  1.00  0.00     0.044 A 
ATOM      8  C   UNL     1      -0.478   0.089  -0.346  1.00  0.00     0.047 C 
ATOM      9  C   UNL     1      -0.061   1.260   0.507  1.00  0.00    -0.015 A 
ATOM     10  C   UNL     1       0.143   2.506  -0.118  1.00  0.00     0.042 A 
ATOM     11  C   UNL     1       0.056   2.358   2.664  1.00  0.00     0.014 A 
ATOM     12  C   UNL     1       0.048   3.675   0.636  1.00  0.00    -0.017 A 
ATOM     13  N   UNL     1       0.347   2.557  -1.485  1.00  0.00    -0.377 N 
ATOM     14  C   UNL     1       0.004   3.598   2.034  1.00  0.00     0.007 A 
ATOM     15  C   UNL     1      -0.098   5.000  -0.053  1.00  0.00     0.049 C 
ATOM     16  C   UNL     1       0.669   3.803  -2.179  1.00  0.00     0.114 C 
ATOM     17  H   UNL     1       0.273   1.727  -2.009  1.00  0.00     0.161 HD
ATOM     18  C   UNL     1      -0.212   4.951  -1.603  1.00  0.00     0.031 C 
ATOM     19  C   UNL     1       1.040   5.959   0.162  1.00  0.00    -0.023 C 
ATOM     20  C   UNL     1       0.214   6.389  -1.972  1.00  0.00     0.034 C 
ATOM     21  C   UNL     1       1.204   6.741  -0.909  1.00  0.00    -0.030 C 
BRANCH  16  22
ATOM     22  C   UNL     1       0.524   3.535  -3.691  1.00  0.00    -0.025 A 
ATOM     23  C   UNL     1       0.060   2.308  -4.225  1.00  0.00     0.007 A 
ATOM     24  C   UNL     1       0.946   4.497  -4.611  1.00  0.00     0.007 A 
ATOM     25  C   UNL     1       0.039   2.058  -5.604  1.00  0.00     0.022 A 
ATOM     26  C   UNL     1       0.826   4.292  -5.982  1.00  0.00     0.022 A 
ATOM     27  C   UNL     1       0.410   3.068  -6.484  1.00  0.00     0.082 A 
BRANCH  27  28
ATOM     28  S   UNL     1       0.434   2.744  -8.231  1.00  0.00     0.243 S 
ATOM     29  O   UNL     1       1.143   1.497  -8.414  1.00  0.00    -0.207 OA
ATOM     30  O   UNL     1      -0.925   2.923  -8.698  1.00  0.00    -0.207 OA
BRANCH  28  31
ATOM     31  N   UNL     1       1.383   3.966  -8.873  1.00  0.00    -0.193 NA
ATOM     32  C   UNL     1       2.858   3.935  -8.786  1.00  0.00     0.131 C 
ATOM     33  C   UNL     1       0.802   5.160  -9.514  1.00  0.00     0.131 C 
ATOM     34  C   UNL     1       3.400   5.282  -8.287  1.00  0.00     0.177 C 
ATOM     35  C   UNL     1       1.466   6.446  -9.008  1.00  0.00     0.177 C 
ATOM     36  O   UNL     1       2.895   6.379  -9.064  1.00  0.00    -0.379 OA
ENDBRANCH  28  31
ENDBRANCH  27  28
ENDBRANCH  16  22
ENDBRANCH   4   7
ENDBRANCH   2   3
ENDBRANCH   1   2
BRANCH   1  37
ATOM     37  C   UNL     1       2.832  -3.457   1.970  1.00  0.00     0.118 C 
BRANCH  37  38
ATOM     38  N   UNL     1       2.092  -4.299   1.037  1.00  0.00    -0.352 N 
ATOM     39  C   UNL     1       2.507  -5.146   0.037  1.00  0.00     0.251 C 
ATOM     40  H   UNL     1       1.114  -4.252   1.143  1.00  0.00     0.163 HD
ATOM     41  O   UNL     1       1.665  -5.639  -0.712  1.00  0.00    -0.269 OA
BRANCH  39  42
ATOM     42  C   UNL     1       3.941  -5.439  -0.182  1.00  0.00     0.039 A 
ATOM     43  C   UNL     1       4.419  -5.533  -1.495  1.00  0.00     0.014 A 
ATOM     44  C   UNL     1       4.813  -5.662   0.882  1.00  0.00     0.014 A 
ATOM     45  C   UNL     1       5.779  -5.760  -1.731  1.00  0.00     0.010 A 
ATOM     46  C   UNL     1       6.179  -5.787   0.651  1.00  0.00     0.010 A 
ATOM     47  C   UNL     1       6.679  -5.845  -0.658  1.00  0.00    -0.014 A 
BRANCH  47  48
ATOM     48  C   UNL     1       8.140  -6.014  -0.862  1.00  0.00     0.031 A 
ATOM     49  C   UNL     1       8.839  -7.229  -0.311  1.00  0.00     0.074 A 
ATOM     50  C   UNL     1       8.855  -5.029  -1.442  1.00  0.00     0.049 A 
ATOM     51  N   UNL     1      10.119  -7.491  -0.263  1.00  0.00    -0.248 NA
ATOM     52  C   UNL     1       7.993  -8.272   0.297  1.00  0.00     0.031 C 
ATOM     53  C   UNL     1       8.307  -3.773  -1.961  1.00  0.00     0.029 A 
ATOM     54  N   UNL     1      10.204  -4.921  -1.675  1.00  0.00    -0.354 N 
ATOM     55  C   UNL     1      10.235  -8.691   0.428  1.00  0.00     0.074 A 
ATOM     56  C   UNL     1       8.898  -9.101   0.796  1.00  0.00     0.031 C 
ATOM     57  C   UNL     1       9.306  -3.033  -2.469  1.00  0.00     0.029 A 
ATOM     58  C   UNL     1      10.568  -3.744  -2.286  1.00  0.00     0.049 A 
ATOM     59  H   UNL     1      10.851  -5.621  -1.428  1.00  0.00     0.167 HD
ATOM     60  C   UNL     1      11.349  -9.406   0.702  1.00  0.00     0.034 A 
ATOM     61  C   UNL     1      11.780  -3.289  -2.661  1.00  0.00     0.034 A 
ATOM     62  C   UNL     1      12.664  -9.054   0.245  1.00  0.00     0.049 A 
ATOM     63  C   UNL     1      12.994  -4.140  -2.410  1.00  0.00     0.074 A 
ATOM     64  C   UNL     1      13.837  -9.775   0.374  1.00  0.00     0.029 A 
ATOM     65  N   UNL     1      12.975  -7.894  -0.444  1.00  0.00    -0.354 N 
ATOM     66  N   UNL     1      13.065  -5.327  -1.859  1.00  0.00    -0.248 NA
ATOM     67  C   UNL     1      14.290  -3.602  -2.849  1.00  0.00     0.031 C 
ATOM     68  C   UNL     1      14.860  -9.053  -0.247  1.00  0.00     0.029 A 
ATOM     69  C   UNL     1      14.322  -7.881  -0.755  1.00  0.00     0.049 A 
ATOM     70  H   UNL     1      12.333  -7.186  -0.678  1.00  0.00     0.167 HD
ATOM     71  C   UNL     1      14.405  -5.691  -1.912  1.00  0.00     0.074 A 
ATOM     72  C   UNL     1      15.111  -4.603  -2.556  1.00  0.00     0.031 C 
ATOM     73  C   UNL     1      14.997  -6.819  -1.452  1.00  0.00     0.034 A 
BRANCH  60  74
ATOM     74  C   UNL     1      11.191 -10.694   1.459  1.00  0.00     0.023 A 
ATOM     75  C   UNL     1      10.741 -11.839   0.774  1.00  0.00     0.012 A 
ATOM     76  C   UNL     1      11.560 -10.792   2.814  1.00  0.00     0.148 A 
ATOM     77  C   UNL     1      10.645 -13.064   1.431  1.00  0.00     0.002 A 
ATOM     78  C   UNL     1      11.489 -12.023   3.455  1.00  0.00     0.091 A 
ATOM     79  F   UNL     1      11.974  -9.684   3.445  1.00  0.00    -0.205 F 
ATOM     80  C   UNL     1      11.027 -13.158   2.767  1.00  0.00     0.022 A 
BRANCH  78  81
ATOM     81  S   UNL     1      11.999 -12.268   5.160  1.00  0.00     0.127 S 
ATOM     82  O   UNL     1      10.738 -12.656   5.792  1.00  0.00    -0.237 OA
ATOM     83  O   UNL     1      12.976 -13.349   5.033  1.00  0.00    -0.237 OA
ATOM     84  O   UNL     1      12.546 -10.995   5.606  1.00  0.00    -0.744 OA
ENDBRANCH  78  81
ENDBRANCH  60  74
BRANCH  61  85
ATOM     85  C   UNL     1      11.886  -2.010  -3.413  1.00  0.00     0.023 A 
ATOM     86  C   UNL     1      12.103  -2.064  -4.804  1.00  0.00     0.012 A 
ATOM     87  C   UNL     1      11.726  -0.759  -2.788  1.00  0.00     0.148 A 
ATOM     88  C   UNL     1      12.174  -0.894  -5.559  1.00  0.00     0.002 A 
ATOM     89  C   UNL     1      11.762   0.403  -3.552  1.00  0.00     0.091 A 
ATOM     90  F   UNL     1      11.523  -0.734  -1.463  1.00  0.00    -0.205 F 
ATOM     91  C   UNL     1      11.996   0.338  -4.936  1.00  0.00     0.022 A 
BRANCH  89  92
ATOM     92  S   UNL     1      11.447   2.032  -2.863  1.00  0.00     0.127 S 
ATOM     93  O   UNL     1      12.746   2.682  -3.026  1.00  0.00    -0.237 OA
ATOM     94  O   UNL     1      10.393   2.533  -3.745  1.00  0.00    -0.237 OA
ATOM     95  O   UNL     1      11.026   1.806  -1.487  1.00  0.00    -0.744 OA
ENDBRANCH  89  92
ENDBRANCH  61  85
BRANCH  73  96
ATOM     96  C   UNL     1      16.480  -6.968  -1.635  1.00  0.00     0.023 A 
ATOM     97  C   UNL     1      17.348  -6.340  -0.723  1.00  0.00     0.012 A 
ATOM     98  C   UNL     1      17.001  -7.842  -2.609  1.00  0.00     0.148 A 
ATOM     99  C   UNL     1      18.720  -6.581  -0.777  1.00  0.00     0.002 A 
ATOM    100  C   UNL     1      18.365  -8.101  -2.636  1.00  0.00     0.091 A 
ATOM    101  F   UNL     1      16.149  -8.416  -3.471  1.00  0.00    -0.205 F 
ATOM    102  C   UNL     1      19.226  -7.470  -1.723  1.00  0.00     0.022 A 
BRANCH 100 103
ATOM    103  S   UNL     1      19.100  -9.292  -3.763  1.00  0.00     0.127 S 
ATOM    104  O   UNL     1      19.863  -8.423  -4.657  1.00  0.00    -0.237 OA
ATOM    105  O   UNL     1      19.915 -10.108  -2.862  1.00  0.00    -0.237 OA
ATOM    106  O   UNL     1      17.988 -10.000  -4.383  1.00  0.00    -0.744 OA
ENDBRANCH 100 103
ENDBRANCH  73  96
ENDBRANCH  47  48
ENDBRANCH  39  42
ENDBRANCH  37  38
ENDBRANCH   1  37
TORSDOF 16
