REMARK SMILES COCc1cc(SCC(=O)NCCCNC(=O)c2ccc(-c3c4nc(c(-c5cccc(S(=O)(=O)[O-])c5F)c5ccc([nH]5)c(-c5cccc(S(=O)(=O)[O-])c5F)c5nc(c(-c6cccc(S(=O)(=O)[O-])c6F)c6ccc3[nH]6)C=C5)C=C4)cc2)nc(-c2cccnc2)n1
REMARK SMILES IDX 12 1 11 2 9 3 10 4 8 6 7 7 6 8 4 9 5 10 89 11 82 12 81 13
REMARK SMILES IDX 3 14 2 15 1 16 83 17 84 18 88 19 85 20 87 21 86 22 13 23
REMARK SMILES IDX 14 24 15 25 16 26 17 28 18 29 19 30 80 31 20 32 79 33 21 34
REMARK SMILES IDX 22 35 23 36 73 37 24 38 78 39 72 40 74 41 25 42 77 43 71 44
REMARK SMILES IDX 70 45 26 47 58 48 38 49 57 50 39 51 42 52 56 53 75 54 40 55
REMARK SMILES IDX 41 56 55 58 76 59 43 60 27 61 28 62 36 63 29 64 31 65 37 66
REMARK SMILES IDX 30 67 32 68 33 69 34 70 35 71 59 72 60 73 68 74 61 75 63 76
REMARK SMILES IDX 69 77 62 78 64 79 65 80 66 81 67 82 44 83 45 84 53 85 46 86
REMARK SMILES IDX 48 87 54 88 47 89 49 90 50 91 51 92 52 93
REMARK H PARENT 11 5 15 27 74 46 42 57
REMARK Flexibility Score: inf
ROOT
ATOM      1  C   UNL     1       0.963  -4.628  -7.381  1.00  0.00     0.117 C 
ENDROOT
BRANCH   1   2
ATOM      2  N   UNL     1       1.071  -5.005  -5.984  1.00  0.00    -0.355 N 
ATOM      3  C   UNL     1       0.167  -4.881  -4.976  1.00  0.00     0.230 C 
ATOM      4  O   UNL     1       0.515  -5.245  -3.848  1.00  0.00    -0.274 OA
ATOM      5  H   UNL     1       1.930  -5.412  -5.726  1.00  0.00     0.163 HD
BRANCH   3   6
ATOM      6  C   UNL     1      -1.248  -4.402  -5.230  1.00  0.00     0.176 C 
BRANCH   6   7
ATOM      7  S   UNL     1      -1.412  -2.648  -5.670  1.00  0.00    -0.096 SA
BRANCH   7   8
ATOM      8  C   UNL     1      -0.576  -1.742  -4.386  1.00  0.00     0.101 A 
ATOM      9  C   UNL     1       0.551  -1.440  -2.346  1.00  0.00     0.071 A 
ATOM     10  C   UNL     1      -0.203  -2.258  -3.165  1.00  0.00     0.062 A 
ATOM     11  N   UNL     1       0.870  -0.180  -2.698  1.00  0.00    -0.230 NA
ATOM     12  C   UNL     1       0.363   0.283  -3.850  1.00  0.00     0.162 A 
ATOM     13  N   UNL     1      -0.342  -0.458  -4.717  1.00  0.00    -0.222 NA
BRANCH   9  14
ATOM     14  C   UNL     1       1.066  -1.935  -1.013  1.00  0.00     0.215 C 
BRANCH  14  15
ATOM     15  O   UNL     1       0.453  -1.288   0.108  1.00  0.00    -0.378 OA
ATOM     16  C   UNL     1       0.933   0.039   0.312  1.00  0.00     0.195 C 
ENDBRANCH  14  15
ENDBRANCH   9  14
BRANCH  12  17
ATOM     17  C   UNL     1       0.496   1.715  -4.092  1.00  0.00     0.038 A 
ATOM     18  C   UNL     1      -0.577   2.505  -4.527  1.00  0.00     0.015 A 
ATOM     19  C   UNL     1       1.688   2.387  -3.829  1.00  0.00     0.123 A 
ATOM     20  C   UNL     1      -0.421   3.882  -4.680  1.00  0.00     0.021 A 
ATOM     21  N   UNL     1       1.871   3.724  -3.957  1.00  0.00    -0.264 NA
ATOM     22  C   UNL     1       0.814   4.439  -4.397  1.00  0.00     0.111 A 
ENDBRANCH  12  17
ENDBRANCH   7   8
ENDBRANCH   6   7
ENDBRANCH   3   6
ENDBRANCH   1   2
BRANCH   1  23
ATOM     23  C   UNL     1       1.835  -3.420  -7.712  1.00  0.00     0.042 C 
BRANCH  23  24
ATOM     24  C   UNL     1       3.333  -3.647  -7.511  1.00  0.00     0.118 C 
BRANCH  24  25
ATOM     25  N   UNL     1       3.871  -4.694  -8.371  1.00  0.00    -0.352 N 
ATOM     26  C   UNL     1       4.876  -4.641  -9.305  1.00  0.00     0.251 C 
ATOM     27  H   UNL     1       3.447  -5.576  -8.266  1.00  0.00     0.163 HD
ATOM     28  O   UNL     1       5.057  -5.608 -10.047  1.00  0.00    -0.269 OA
BRANCH  26  29
ATOM     29  C   UNL     1       5.727  -3.439  -9.439  1.00  0.00     0.039 A 
ATOM     30  C   UNL     1       6.053  -2.983 -10.720  1.00  0.00     0.014 A 
ATOM     31  C   UNL     1       6.225  -2.774  -8.316  1.00  0.00     0.014 A 
ATOM     32  C   UNL     1       6.821  -1.825 -10.872  1.00  0.00     0.010 A 
ATOM     33  C   UNL     1       6.923  -1.578  -8.469  1.00  0.00     0.010 A 
ATOM     34  C   UNL     1       7.232  -1.091  -9.747  1.00  0.00    -0.014 A 
BRANCH  34  35
ATOM     35  C   UNL     1       7.966   0.195  -9.890  1.00  0.00     0.031 A 
ATOM     36  C   UNL     1       9.360   0.346  -9.341  1.00  0.00     0.074 A 
ATOM     37  C   UNL     1       7.344   1.256 -10.443  1.00  0.00     0.049 A 
ATOM     38  N   UNL     1      10.130   1.403  -9.325  1.00  0.00    -0.248 NA
ATOM     39  C   UNL     1       9.957  -0.839  -8.703  1.00  0.00     0.031 C 
ATOM     40  C   UNL     1       5.970   1.262 -10.948  1.00  0.00     0.029 A 
ATOM     41  N   UNL     1       7.777   2.543 -10.648  1.00  0.00    -0.354 N 
ATOM     42  C   UNL     1      11.284   1.024  -8.649  1.00  0.00     0.074 A 
ATOM     43  C   UNL     1      11.099  -0.351  -8.240  1.00  0.00     0.031 C 
ATOM     44  C   UNL     1       5.675   2.487 -11.411  1.00  0.00     0.029 A 
ATOM     45  C   UNL     1       6.823   3.364 -11.204  1.00  0.00     0.049 A 
ATOM     46  H   UNL     1       8.684   2.850 -10.419  1.00  0.00     0.167 HD
ATOM     47  C   UNL     1      12.409   1.743  -8.414  1.00  0.00     0.034 A 
ATOM     48  C   UNL     1       6.862   4.677 -11.504  1.00  0.00     0.034 A 
ATOM     49  C   UNL     1      12.602   3.101  -8.849  1.00  0.00     0.049 A 
ATOM     50  C   UNL     1       8.129   5.449 -11.248  1.00  0.00     0.074 A 
ATOM     51  C   UNL     1      13.734   3.889  -8.731  1.00  0.00     0.029 A 
ATOM     52  N   UNL     1      11.638   3.879  -9.471  1.00  0.00    -0.354 N 
ATOM     53  N   UNL     1       9.266   5.029 -10.750  1.00  0.00    -0.248 NA
ATOM     54  C   UNL     1       8.130   6.868 -11.631  1.00  0.00     0.031 C 
ATOM     55  C   UNL     1      13.443   5.153  -9.253  1.00  0.00     0.029 A 
ATOM     56  C   UNL     1      12.143   5.142  -9.732  1.00  0.00     0.049 A 
ATOM     57  H   UNL     1      10.728   3.577  -9.695  1.00  0.00     0.167 HD
ATOM     58  C   UNL     1      10.128   6.119 -10.793  1.00  0.00     0.074 A 
ATOM     59  C   UNL     1       9.387   7.212 -11.387  1.00  0.00     0.031 C 
ATOM     60  C   UNL     1      11.413   6.209 -10.368  1.00  0.00     0.034 A 
BRANCH  47  61
ATOM     61  C   UNL     1      13.539   1.057  -7.687  1.00  0.00     0.023 A 
ATOM     62  C   UNL     1      14.259   0.029  -8.331  1.00  0.00     0.012 A 
ATOM     63  C   UNL     1      13.921   1.460  -6.393  1.00  0.00     0.148 A 
ATOM     64  C   UNL     1      15.312  -0.616  -7.683  1.00  0.00     0.002 A 
ATOM     65  C   UNL     1      15.003   0.845  -5.772  1.00  0.00     0.091 A 
ATOM     66  F   UNL     1      13.216   2.426  -5.788  1.00  0.00    -0.205 F 
ATOM     67  C   UNL     1      15.690  -0.202  -6.409  1.00  0.00     0.022 A 
BRANCH  65  68
ATOM     68  S   UNL     1      15.622   1.359  -4.166  1.00  0.00     0.127 S 
ATOM     69  O   UNL     1      15.233   0.229  -3.324  1.00  0.00    -0.237 OA
ATOM     70  O   UNL     1      17.060   1.469  -4.412  1.00  0.00    -0.237 OA
ATOM     71  O   UNL     1      14.959   2.620  -3.865  1.00  0.00    -0.744 OA
ENDBRANCH  65  68
ENDBRANCH  47  61
BRANCH  48  72
ATOM     72  C   UNL     1       5.684   5.333 -12.141  1.00  0.00     0.023 A 
ATOM     73  C   UNL     1       5.769   5.746 -13.485  1.00  0.00     0.012 A 
ATOM     74  C   UNL     1       4.479   5.527 -11.438  1.00  0.00     0.148 A 
ATOM     75  C   UNL     1       4.689   6.373 -14.107  1.00  0.00     0.002 A 
ATOM     76  C   UNL     1       3.388   6.101 -12.081  1.00  0.00     0.091 A 
ATOM     77  F   UNL     1       4.419   5.132 -10.159  1.00  0.00    -0.205 F 
ATOM     78  C   UNL     1       3.496   6.542 -13.409  1.00  0.00     0.022 A 
BRANCH  76  79
ATOM     79  S   UNL     1       1.773   6.246 -11.306  1.00  0.00     0.127 S 
ATOM     80  O   UNL     1       1.638   7.694 -11.164  1.00  0.00    -0.237 OA
ATOM     81  O   UNL     1       0.901   5.643 -12.315  1.00  0.00    -0.237 OA
ATOM     82  O   UNL     1       1.861   5.497 -10.061  1.00  0.00    -0.744 OA
ENDBRANCH  76  79
ENDBRANCH  48  72
BRANCH  60  83
ATOM     83  C   UNL     1      12.125   7.523 -10.566  1.00  0.00     0.023 A 
ATOM     84  C   UNL     1      11.773   8.641  -9.784  1.00  0.00     0.012 A 
ATOM     85  C   UNL     1      13.192   7.628 -11.480  1.00  0.00     0.148 A 
ATOM     86  C   UNL     1      12.448   9.852  -9.935  1.00  0.00     0.002 A 
ATOM     87  C   UNL     1      13.895   8.822 -11.587  1.00  0.00     0.091 A 
ATOM     88  F   UNL     1      13.502   6.558 -12.228  1.00  0.00    -0.205 F 
ATOM     89  C   UNL     1      13.515   9.939 -10.826  1.00  0.00     0.022 A 
BRANCH  87  90
ATOM     90  S   UNL     1      15.344   8.999 -12.634  1.00  0.00     0.127 S 
ATOM     91  O   UNL     1      14.841   9.871 -13.694  1.00  0.00    -0.237 OA
ATOM     92  O   UNL     1      16.304   9.631 -11.729  1.00  0.00    -0.237 OA
ATOM     93  O   UNL     1      15.705   7.652 -13.053  1.00  0.00    -0.744 OA
ENDBRANCH  87  90
ENDBRANCH  60  83
ENDBRANCH  34  35
ENDBRANCH  26  29
ENDBRANCH  24  25
ENDBRANCH  23  24
ENDBRANCH   1  23
TORSDOF 18
