REMARK SMILES COc1cc(-c2cc(C(=O)NCCCNC(=O)c3ccc(-c4c5nc(c(-c6cccc(S(=O)(=O)[O-])c6F)c6ccc([nH]6)c(-c6cccc(S(=O)(=O)[O-])c6F)c6nc(c(-c7cccc(S(=O)(=O)[O-])c7F)c7ccc4[nH]7)C=C6)C=C5)cc3)c3cc(C)ccc3n2)cc(OC)c1OC
REMARK SMILES IDX 13 1 12 2 11 3 9 4 10 5 8 7 6 8 7 9 88 10 87 11 81 12 86 13
REMARK SMILES IDX 82 14 85 15 83 16 84 17 5 18 3 19 4 20 93 21 90 22 89 23
REMARK SMILES IDX 2 24 1 25 94 26 95 27 91 28 92 29 14 30 15 31 16 32 17 34
REMARK SMILES IDX 18 35 19 36 80 37 20 38 79 39 21 40 22 41 23 42 73 43 24 44
REMARK SMILES IDX 78 45 72 46 74 47 25 48 77 49 71 50 70 51 26 53 58 54 38 55
REMARK SMILES IDX 57 56 39 57 42 58 56 59 75 60 40 61 41 62 55 64 76 65 43 66
REMARK SMILES IDX 27 67 28 68 36 69 29 70 31 71 37 72 30 73 32 74 33 75 34 76
REMARK SMILES IDX 35 77 59 78 60 79 68 80 61 81 63 82 69 83 62 84 64 85 65 86
REMARK SMILES IDX 66 87 67 88 44 89 45 90 53 91 46 92 48 93 54 94 47 95 49 96
REMARK SMILES IDX 50 97 51 98 52 99
REMARK H PARENT 11 6 15 33 74 52 42 63
REMARK Flexibility Score: inf
ROOT
ATOM      1  C   UNL     1      -1.434   7.108   7.739  1.00  0.00     0.042 C 
ENDROOT
BRANCH   1   2
ATOM      2  C   UNL     1      -0.374   7.292   6.655  1.00  0.00     0.118 C 
BRANCH   2   3
ATOM      3  N   UNL     1       0.922   6.895   7.170  1.00  0.00    -0.352 N 
ATOM      4  C   UNL     1       1.429   5.624   7.270  1.00  0.00     0.252 C 
ATOM      5  O   UNL     1       2.012   5.303   8.303  1.00  0.00    -0.269 OA
ATOM      6  H   UNL     1       1.507   7.622   7.484  1.00  0.00     0.163 HD
BRANCH   4   7
ATOM      7  C   UNL     1       1.546   4.826   6.030  1.00  0.00     0.051 A 
ATOM      8  C   UNL     1       0.858   4.094   3.915  1.00  0.00     0.072 A 
ATOM      9  C   UNL     1       0.493   4.462   5.195  1.00  0.00     0.043 A 
ATOM     10  N   UNL     1       2.042   4.543   3.421  1.00  0.00    -0.248 NA
ATOM     11  C   UNL     1       3.067   4.450   4.263  1.00  0.00     0.072 A 
ATOM     12  C   UNL     1       2.840   4.451   5.635  1.00  0.00     0.013 A 
ATOM     13  C   UNL     1       4.309   4.091   3.772  1.00  0.00     0.029 A 
ATOM     14  C   UNL     1       3.792   3.852   6.485  1.00  0.00     0.014 A 
ATOM     15  C   UNL     1       5.229   3.449   4.603  1.00  0.00     0.005 A 
ATOM     16  C   UNL     1       4.912   3.220   5.941  1.00  0.00    -0.050 A 
ATOM     17  C   UNL     1       5.666   2.214   6.758  1.00  0.00     0.044 C 
BRANCH   8  18
ATOM     18  C   UNL     1       0.624   2.727   3.343  1.00  0.00     0.008 A 
ATOM     19  C   UNL     1       0.620   1.712   1.159  1.00  0.00     0.165 A 
ATOM     20  C   UNL     1       0.046   2.593   2.082  1.00  0.00     0.061 A 
ATOM     21  C   UNL     1       1.830   1.054   1.447  1.00  0.00     0.203 A 
ATOM     22  C   UNL     1       2.258   0.997   2.772  1.00  0.00     0.165 A 
ATOM     23  C   UNL     1       1.555   1.728   3.740  1.00  0.00     0.061 A 
BRANCH  19  24
ATOM     24  O   UNL     1       0.008   1.632  -0.068  1.00  0.00    -0.493 OA
ATOM     25  C   UNL     1      -0.242   0.271  -0.431  1.00  0.00     0.278 C 
ENDBRANCH  19  24
BRANCH  21  26
ATOM     26  O   UNL     1       2.654   0.794   0.380  1.00  0.00    -0.490 OA
ATOM     27  C   UNL     1       2.932  -0.570   0.121  1.00  0.00     0.278 C 
ENDBRANCH  21  26
BRANCH  22  28
ATOM     28  O   UNL     1       3.349   0.316   3.241  1.00  0.00    -0.493 OA
ATOM     29  C   UNL     1       4.587   0.633   2.612  1.00  0.00     0.278 C 
ENDBRANCH  22  28
ENDBRANCH   8  18
ENDBRANCH   4   7
ENDBRANCH   2   3
ENDBRANCH   1   2
BRANCH   1  30
ATOM     30  C   UNL     1      -1.135   7.885   9.023  1.00  0.00     0.118 C 
BRANCH  30  31
ATOM     31  N   UNL     1      -1.110   9.326   8.807  1.00  0.00    -0.352 N 
ATOM     32  C   UNL     1      -1.879  10.300   9.387  1.00  0.00     0.251 C 
ATOM     33  H   UNL     1      -0.447   9.645   8.152  1.00  0.00     0.163 HD
ATOM     34  O   UNL     1      -1.871  11.444   8.924  1.00  0.00    -0.269 OA
BRANCH  32  35
ATOM     35  C   UNL     1      -2.722   9.979  10.555  1.00  0.00     0.039 A 
ATOM     36  C   UNL     1      -4.030  10.466  10.604  1.00  0.00     0.014 A 
ATOM     37  C   UNL     1      -2.218   9.207  11.606  1.00  0.00     0.014 A 
ATOM     38  C   UNL     1      -4.846  10.142  11.689  1.00  0.00     0.010 A 
ATOM     39  C   UNL     1      -3.059   8.815  12.642  1.00  0.00     0.010 A 
ATOM     40  C   UNL     1      -4.375   9.294  12.706  1.00  0.00    -0.014 A 
BRANCH  40  41
ATOM     41  C   UNL     1      -5.244   8.908  13.846  1.00  0.00     0.031 A 
ATOM     42  C   UNL     1      -4.864   9.288  15.252  1.00  0.00     0.074 A 
ATOM     43  C   UNL     1      -6.332   8.146  13.624  1.00  0.00     0.049 A 
ATOM     44  N   UNL     1      -5.480   9.017  16.373  1.00  0.00    -0.248 NA
ATOM     45  C   UNL     1      -3.612  10.043  15.425  1.00  0.00     0.031 C 
ATOM     46  C   UNL     1      -6.752   7.633  12.318  1.00  0.00     0.029 A 
ATOM     47  N   UNL     1      -7.268   7.645  14.493  1.00  0.00    -0.354 N 
ATOM     48  C   UNL     1      -4.673   9.526  17.384  1.00  0.00     0.074 A 
ATOM     49  C   UNL     1      -3.505  10.091  16.745  1.00  0.00     0.031 C 
ATOM     50  C   UNL     1      -7.863   6.896  12.471  1.00  0.00     0.029 A 
ATOM     51  C   UNL     1      -8.219   6.859  13.886  1.00  0.00     0.049 A 
ATOM     52  H   UNL     1      -7.260   7.831  15.460  1.00  0.00     0.167 HD
ATOM     53  C   UNL     1      -4.894   9.547  18.720  1.00  0.00     0.034 A 
ATOM     54  C   UNL     1      -9.258   6.179  14.410  1.00  0.00     0.034 A 
ATOM     55  C   UNL     1      -6.078   9.022  19.344  1.00  0.00     0.049 A 
ATOM     56  C   UNL     1      -9.520   6.272  15.888  1.00  0.00     0.074 A 
ATOM     57  C   UNL     1      -6.453   9.092  20.674  1.00  0.00     0.029 A 
ATOM     58  N   UNL     1      -7.072   8.316  18.684  1.00  0.00    -0.354 N 
ATOM     59  N   UNL     1      -8.839   6.912  16.807  1.00  0.00    -0.248 NA
ATOM     60  C   UNL     1     -10.717   5.587  16.395  1.00  0.00     0.031 C 
ATOM     61  C   UNL     1      -7.657   8.396  20.824  1.00  0.00     0.029 A 
ATOM     62  C   UNL     1      -8.053   7.928  19.581  1.00  0.00     0.049 A 
ATOM     63  H   UNL     1      -7.080   8.119  17.720  1.00  0.00     0.167 HD
ATOM     64  C   UNL     1      -9.539   6.735  17.995  1.00  0.00     0.074 A 
ATOM     65  C   UNL     1     -10.710   5.945  17.672  1.00  0.00     0.031 C 
ATOM     66  C   UNL     1      -9.235   7.177  19.240  1.00  0.00     0.034 A 
BRANCH  53  67
ATOM     67  C   UNL     1      -3.847  10.194  19.591  1.00  0.00     0.023 A 
ATOM     68  C   UNL     1      -3.647  11.589  19.533  1.00  0.00     0.012 A 
ATOM     69  C   UNL     1      -3.086   9.427  20.496  1.00  0.00     0.148 A 
ATOM     70  C   UNL     1      -2.677  12.203  20.324  1.00  0.00     0.002 A 
ATOM     71  C   UNL     1      -2.156  10.053  21.318  1.00  0.00     0.091 A 
ATOM     72  F   UNL     1      -3.272   8.100  20.525  1.00  0.00    -0.205 F 
ATOM     73  C   UNL     1      -1.939  11.438  21.222  1.00  0.00     0.022 A 
BRANCH  71  74
ATOM     74  S   UNL     1      -1.219   9.168  22.568  1.00  0.00     0.127 S 
ATOM     75  O   UNL     1       0.120   9.156  21.980  1.00  0.00    -0.237 OA
ATOM     76  O   UNL     1      -1.363  10.038  23.735  1.00  0.00    -0.237 OA
ATOM     77  O   UNL     1      -1.857   7.866  22.700  1.00  0.00    -0.744 OA
ENDBRANCH  71  74
ENDBRANCH  53  67
BRANCH  54  78
ATOM     78  C   UNL     1     -10.159   5.405  13.511  1.00  0.00     0.023 A 
ATOM     79  C   UNL     1     -11.464   5.874  13.264  1.00  0.00     0.012 A 
ATOM     80  C   UNL     1      -9.711   4.240  12.858  1.00  0.00     0.148 A 
ATOM     81  C   UNL     1     -12.317   5.181  12.403  1.00  0.00     0.002 A 
ATOM     82  C   UNL     1     -10.545   3.588  11.959  1.00  0.00     0.091 A 
ATOM     83  F   UNL     1      -8.468   3.809  13.113  1.00  0.00    -0.205 F 
ATOM     84  C   UNL     1     -11.854   4.046  11.743  1.00  0.00     0.022 A 
BRANCH  82  85
ATOM     85  S   UNL     1      -9.991   2.202  10.959  1.00  0.00     0.127 S 
ATOM     86  O   UNL     1     -10.793   1.106  11.496  1.00  0.00    -0.237 OA
ATOM     87  O   UNL     1     -10.364   2.637   9.612  1.00  0.00    -0.237 OA
ATOM     88  O   UNL     1      -8.556   2.102  11.182  1.00  0.00    -0.744 OA
ENDBRANCH  82  85
ENDBRANCH  54  78
BRANCH  66  89
ATOM     89  C   UNL     1     -10.198   6.850  20.352  1.00  0.00     0.023 A 
ATOM     90  C   UNL     1     -10.302   5.529  20.830  1.00  0.00     0.012 A 
ATOM     91  C   UNL     1     -10.949   7.869  20.970  1.00  0.00     0.148 A 
ATOM     92  C   UNL     1     -11.165   5.221  21.881  1.00  0.00     0.002 A 
ATOM     93  C   UNL     1     -11.767   7.565  22.051  1.00  0.00     0.091 A 
ATOM     94  F   UNL     1     -10.852   9.117  20.489  1.00  0.00    -0.205 F 
ATOM     95  C   UNL     1     -11.888   6.239  22.499  1.00  0.00     0.022 A 
BRANCH  93  96
ATOM     96  S   UNL     1     -12.655   8.827  22.970  1.00  0.00     0.127 S 
ATOM     97  O   UNL     1     -14.034   8.587  22.549  1.00  0.00    -0.237 OA
ATOM     98  O   UNL     1     -12.369   8.460  24.357  1.00  0.00    -0.237 OA
ATOM     99  O   UNL     1     -12.087  10.102  22.554  1.00  0.00    -0.744 OA
ENDBRANCH  93  96
ENDBRANCH  66  89
ENDBRANCH  40  41
ENDBRANCH  32  35
ENDBRANCH  30  31
ENDBRANCH   1  30
TORSDOF 17
