REMARK SMILES CCOc1c(F)cccc1C(=O)NCCCNC(=O)c1ccc(-c2c3nc(c(-c4cccc(S(=O)(=O)[O-])c4F)c4ccc([nH]4)c(-c4cccc(S(=O)(=O)[O-])c4F)c4nc(c(-c5cccc(S(=O)(=O)[O-])c5F)c5ccc2[nH]5)C=C4)C=C3)cc1
REMARK SMILES IDX 15 1 14 2 13 3 11 4 12 5 10 7 4 8 5 9 6 10 7 11 9 12 8 13
REMARK SMILES IDX 3 14 2 15 1 16 16 17 17 18 18 19 19 21 20 22 21 23 82 24
REMARK SMILES IDX 22 25 81 26 23 27 24 28 25 29 75 30 26 31 80 32 74 33 76 34
REMARK SMILES IDX 27 35 79 36 73 37 72 38 28 40 60 41 40 42 59 43 41 44 44 45
REMARK SMILES IDX 58 46 77 47 42 48 43 49 57 51 78 52 45 53 29 54 30 55 38 56
REMARK SMILES IDX 31 57 33 58 39 59 32 60 34 61 35 62 36 63 37 64 61 65 62 66
REMARK SMILES IDX 70 67 63 68 65 69 71 70 64 71 66 72 67 73 68 74 69 75 46 76
REMARK SMILES IDX 47 77 55 78 48 79 50 80 56 81 49 82 51 83 52 84 53 85 54 86
REMARK H PARENT 13 6 17 20 76 39 44 50
REMARK Flexibility Score: inf
ROOT
ATOM      1  C   UNL     1      -0.968   2.780  -2.393  1.00  0.00     0.042 C 
ENDROOT
BRANCH   1   2
ATOM      2  C   UNL     1      -0.300   2.015  -3.534  1.00  0.00     0.118 C 
BRANCH   2   3
ATOM      3  N   UNL     1       0.811   2.761  -4.078  1.00  0.00    -0.352 N 
ATOM      4  C   UNL     1       2.166   2.776  -3.930  1.00  0.00     0.255 C 
ATOM      5  O   UNL     1       2.711   3.649  -4.623  1.00  0.00    -0.269 OA
ATOM      6  H   UNL     1       0.510   3.438  -4.726  1.00  0.00     0.163 HD
BRANCH   4   7
ATOM      7  C   UNL     1       3.056   1.886  -3.103  1.00  0.00     0.084 A 
ATOM      8  C   UNL     1       2.755   0.894  -2.157  1.00  0.00     0.167 A 
ATOM      9  C   UNL     1       3.803   0.118  -1.615  1.00  0.00     0.165 A 
ATOM     10  F   UNL     1       3.528  -0.931  -0.827  1.00  0.00    -0.203 F 
ATOM     11  C   UNL     1       5.141   0.365  -1.893  1.00  0.00     0.043 A 
ATOM     12  C   UNL     1       4.438   2.116  -3.364  1.00  0.00     0.018 A 
ATOM     13  C   UNL     1       5.466   1.384  -2.764  1.00  0.00     0.004 A 
BRANCH   8  14
ATOM     14  O   UNL     1       1.488   0.547  -1.787  1.00  0.00    -0.490 OA
BRANCH  14  15
ATOM     15  C   UNL     1       1.133   0.966  -0.460  1.00  0.00     0.226 C 
ATOM     16  C   UNL     1       1.251  -0.146   0.567  1.00  0.00     0.049 C 
ENDBRANCH  14  15
ENDBRANCH   8  14
ENDBRANCH   4   7
ENDBRANCH   2   3
ENDBRANCH   1   2
BRANCH   1  17
ATOM     17  C   UNL     1      -1.954   3.844  -2.869  1.00  0.00     0.118 C 
BRANCH  17  18
ATOM     18  N   UNL     1      -3.116   3.236  -3.506  1.00  0.00    -0.352 N 
ATOM     19  C   UNL     1      -4.418   3.132  -3.089  1.00  0.00     0.251 C 
ATOM     20  H   UNL     1      -2.935   2.831  -4.384  1.00  0.00     0.163 HD
ATOM     21  O   UNL     1      -5.138   2.290  -3.623  1.00  0.00    -0.269 OA
BRANCH  19  22
ATOM     22  C   UNL     1      -4.975   4.018  -2.042  1.00  0.00     0.039 A 
ATOM     23  C   UNL     1      -6.017   3.535  -1.243  1.00  0.00     0.014 A 
ATOM     24  C   UNL     1      -4.559   5.345  -1.903  1.00  0.00     0.014 A 
ATOM     25  C   UNL     1      -6.623   4.371  -0.304  1.00  0.00     0.010 A 
ATOM     26  C   UNL     1      -5.099   6.149  -0.901  1.00  0.00     0.010 A 
ATOM     27  C   UNL     1      -6.159   5.683  -0.113  1.00  0.00    -0.014 A 
BRANCH  27  28
ATOM     28  C   UNL     1      -6.781   6.569   0.903  1.00  0.00     0.031 A 
ATOM     29  C   UNL     1      -7.461   7.849   0.497  1.00  0.00     0.074 A 
ATOM     30  C   UNL     1      -6.681   6.244   2.206  1.00  0.00     0.049 A 
ATOM     31  N   UNL     1      -8.086   8.719   1.247  1.00  0.00    -0.248 NA
ATOM     32  C   UNL     1      -7.406   8.223  -0.926  1.00  0.00     0.031 C 
ATOM     33  C   UNL     1      -5.951   5.087   2.727  1.00  0.00     0.029 A 
ATOM     34  N   UNL     1      -7.177   6.858   3.328  1.00  0.00    -0.354 N 
ATOM     35  C   UNL     1      -8.458   9.756   0.400  1.00  0.00     0.074 A 
ATOM     36  C   UNL     1      -7.958   9.427  -0.915  1.00  0.00     0.031 C 
ATOM     37  C   UNL     1      -6.069   5.058   4.062  1.00  0.00     0.029 A 
ATOM     38  C   UNL     1      -6.863   6.205   4.496  1.00  0.00     0.049 A 
ATOM     39  H   UNL     1      -7.708   7.686   3.299  1.00  0.00     0.167 HD
ATOM     40  C   UNL     1      -9.182  10.864   0.686  1.00  0.00     0.034 A 
ATOM     41  C   UNL     1      -7.185   6.487   5.775  1.00  0.00     0.034 A 
ATOM     42  C   UNL     1      -9.732  11.143   1.984  1.00  0.00     0.049 A 
ATOM     43  C   UNL     1      -8.070   7.666   6.060  1.00  0.00     0.074 A 
ATOM     44  C   UNL     1     -10.592  12.162   2.349  1.00  0.00     0.029 A 
ATOM     45  N   UNL     1      -9.469  10.406   3.129  1.00  0.00    -0.354 N 
ATOM     46  N   UNL     1      -8.574   8.534   5.215  1.00  0.00    -0.248 NA
ATOM     47  C   UNL     1      -8.467   7.888   7.457  1.00  0.00     0.031 C 
ATOM     48  C   UNL     1     -10.826  12.060   3.722  1.00  0.00     0.029 A 
ATOM     49  C   UNL     1     -10.136  10.959   4.207  1.00  0.00     0.049 A 
ATOM     50  H   UNL     1      -8.894   9.609   3.168  1.00  0.00     0.167 HD
ATOM     51  C   UNL     1      -9.366   9.389   5.970  1.00  0.00     0.074 A 
ATOM     52  C   UNL     1      -9.286   8.929   7.342  1.00  0.00     0.031 C 
ATOM     53  C   UNL     1     -10.085  10.463   5.561  1.00  0.00     0.034 A 
BRANCH  40  54
ATOM     54  C   UNL     1      -9.479  11.827  -0.435  1.00  0.00     0.023 A 
ATOM     55  C   UNL     1     -10.373  11.454  -1.458  1.00  0.00     0.012 A 
ATOM     56  C   UNL     1      -8.934  13.127  -0.437  1.00  0.00     0.148 A 
ATOM     57  C   UNL     1     -10.693  12.342  -2.485  1.00  0.00     0.002 A 
ATOM     58  C   UNL     1      -9.295  14.024  -1.437  1.00  0.00     0.091 A 
ATOM     59  F   UNL     1      -8.068  13.461   0.531  1.00  0.00    -0.205 F 
ATOM     60  C   UNL     1     -10.164  13.629  -2.467  1.00  0.00     0.022 A 
BRANCH  58  61
ATOM     61  S   UNL     1      -8.737  15.732  -1.448  1.00  0.00     0.127 S 
ATOM     62  O   UNL     1      -7.739  15.709  -2.517  1.00  0.00    -0.237 OA
ATOM     63  O   UNL     1      -9.965  16.457  -1.777  1.00  0.00    -0.237 OA
ATOM     64  O   UNL     1      -8.222  15.992  -0.112  1.00  0.00    -0.744 OA
ENDBRANCH  58  61
ENDBRANCH  40  54
BRANCH  41  65
ATOM     65  C   UNL     1      -6.739   5.550   6.843  1.00  0.00     0.023 A 
ATOM     66  C   UNL     1      -7.669   4.659   7.410  1.00  0.00     0.012 A 
ATOM     67  C   UNL     1      -5.376   5.435   7.186  1.00  0.00     0.148 A 
ATOM     68  C   UNL     1      -7.251   3.666   8.298  1.00  0.00     0.002 A 
ATOM     69  C   UNL     1      -4.959   4.408   8.024  1.00  0.00     0.091 A 
ATOM     70  F   UNL     1      -4.511   6.296   6.633  1.00  0.00    -0.205 F 
ATOM     71  C   UNL     1      -5.896   3.530   8.591  1.00  0.00     0.022 A 
BRANCH  69  72
ATOM     72  S   UNL     1      -3.224   4.050   8.329  1.00  0.00     0.127 S 
ATOM     73  O   UNL     1      -3.116   4.292   9.765  1.00  0.00    -0.237 OA
ATOM     74  O   UNL     1      -3.135   2.646   7.930  1.00  0.00    -0.237 OA
ATOM     75  O   UNL     1      -2.474   4.968   7.480  1.00  0.00    -0.744 OA
ENDBRANCH  69  72
ENDBRANCH  41  65
BRANCH  53  76
ATOM     76  C   UNL     1     -10.868  11.236   6.588  1.00  0.00     0.023 A 
ATOM     77  C   UNL     1     -10.195  12.120   7.451  1.00  0.00     0.012 A 
ATOM     78  C   UNL     1     -12.277  11.213   6.574  1.00  0.00     0.148 A 
ATOM     79  C   UNL     1     -10.914  12.972   8.289  1.00  0.00     0.002 A 
ATOM     80  C   UNL     1     -12.987  12.098   7.376  1.00  0.00     0.091 A 
ATOM     81  F   UNL     1     -12.893  10.352   5.750  1.00  0.00    -0.205 F 
ATOM     82  C   UNL     1     -12.307  12.973   8.239  1.00  0.00     0.022 A 
BRANCH  80  83
ATOM     83  S   UNL     1     -14.775  12.252   7.300  1.00  0.00     0.127 S 
ATOM     84  O   UNL     1     -15.172  11.768   8.621  1.00  0.00    -0.237 OA
ATOM     85  O   UNL     1     -14.952  13.691   7.099  1.00  0.00    -0.237 OA
ATOM     86  O   UNL     1     -15.206  11.424   6.181  1.00  0.00    -0.744 OA
ENDBRANCH  80  83
ENDBRANCH  53  76
ENDBRANCH  27  28
ENDBRANCH  19  22
ENDBRANCH  17  18
ENDBRANCH   1  17
TORSDOF 15
