REMARK SMILES C[C@H]1[C@H](C(=O)NCCCNC(=O)c2ccc(-c3c4nc(c(-c5cccc(S(=O)(=O)[O-])c5F)c5ccc([nH]5)c(-c5cccc(S(=O)(=O)[O-])c5F)c5nc(c(-c6cccc(S(=O)(=O)[O-])c6F)c6ccc3[nH]6)C=C5)C=C4)cc2)CC[N@@H+]1[C@@H](c1ccccc1)c1ccco1
REMARK SMILES IDX 8 1 7 2 6 3 4 4 5 5 3 7 1 8 2 9 78 10 76 11 77 12 79 14
REMARK SMILES IDX 80 15 81 16 85 17 82 18 84 19 83 20 86 21 87 22 90 23 88 24
REMARK SMILES IDX 89 25 9 26 10 27 11 28 12 30 13 31 14 32 75 33 15 34 74 35
REMARK SMILES IDX 16 36 17 37 18 38 68 39 19 40 73 41 67 42 69 43 20 44 72 45
REMARK SMILES IDX 66 46 65 47 21 49 53 50 33 51 52 52 34 53 37 54 51 55 70 56
REMARK SMILES IDX 35 57 36 58 50 60 71 61 38 62 22 63 23 64 31 65 24 66 26 67
REMARK SMILES IDX 32 68 25 69 27 70 28 71 29 72 30 73 54 74 55 75 63 76 56 77
REMARK SMILES IDX 58 78 64 79 57 80 59 81 60 82 61 83 62 84 39 85 40 86 48 87
REMARK SMILES IDX 41 88 43 89 49 90 42 91 44 92 45 93 46 94 47 95
REMARK H PARENT 6 6 78 13 10 29 69 48 37 59
REMARK Flexibility Score: inf
ROOT
ATOM      1  C   UNL     1       0.494   1.086   4.130  1.00  0.00     0.042 C 
ENDROOT
BRANCH   1   2
ATOM      2  C   UNL     1      -0.474   1.588   3.066  1.00  0.00     0.117 C 
BRANCH   2   3
ATOM      3  N   UNL     1       0.109   2.573   2.187  1.00  0.00    -0.356 N 
ATOM      4  C   UNL     1       0.345   2.509   0.851  1.00  0.00     0.229 C 
ATOM      5  O   UNL     1       0.731   3.554   0.311  1.00  0.00    -0.275 OA
ATOM      6  H   UNL     1       0.374   3.417   2.620  1.00  0.00     0.163 HD
BRANCH   4   7
ATOM      7  C   UNL     1       0.098   1.267  -0.009  1.00  0.00     0.142 C 
ATOM      8  C   UNL     1       1.913  -0.434  -0.311  1.00  0.00     0.076 C 
ATOM      9  C   UNL     1       0.638  -0.095   0.476  1.00  0.00     0.194 C 
ATOM     10  N   UNL     1      -0.404  -1.099   0.155  1.00  0.00    -0.319 N 
ATOM     11  C   UNL     1      -1.362   1.009  -0.348  1.00  0.00     0.081 C 
ATOM     12  C   UNL     1      -1.370  -0.468  -0.729  1.00  0.00     0.264 C 
ATOM     13  H   UNL     1       0.023  -1.872  -0.356  1.00  0.00     0.349 HD
BRANCH  10  14
ATOM     14  C   UNL     1      -0.898  -1.964   1.262  1.00  0.00     0.283 C 
BRANCH  14  15
ATOM     15  C   UNL     1      -1.845  -1.393   2.332  1.00  0.00     0.017 A 
ATOM     16  C   UNL     1      -1.599  -1.704   3.684  1.00  0.00     0.010 A 
ATOM     17  C   UNL     1      -3.026  -0.686   2.048  1.00  0.00     0.010 A 
ATOM     18  C   UNL     1      -2.436  -1.237   4.700  1.00  0.00     0.001 A 
ATOM     19  C   UNL     1      -3.843  -0.183   3.065  1.00  0.00     0.001 A 
ATOM     20  C   UNL     1      -3.539  -0.448   4.393  1.00  0.00     0.000 A 
ENDBRANCH  14  15
BRANCH  14  21
ATOM     21  C   UNL     1      -1.404  -3.308   0.781  1.00  0.00     0.165 A 
ATOM     22  C   UNL     1      -0.782  -4.401   0.205  1.00  0.00     0.052 A 
ATOM     23  O   UNL     1      -2.699  -3.638   1.085  1.00  0.00    -0.463 OA
ATOM     24  C   UNL     1      -1.725  -5.461   0.229  1.00  0.00     0.042 A 
ATOM     25  C   UNL     1      -2.869  -4.947   0.787  1.00  0.00     0.195 A 
ENDBRANCH  14  21
ENDBRANCH  10  14
ENDBRANCH   4   7
ENDBRANCH   2   3
ENDBRANCH   1   2
BRANCH   1  26
ATOM     26  C   UNL     1       0.354   1.794   5.472  1.00  0.00     0.118 C 
BRANCH  26  27
ATOM     27  N   UNL     1      -0.970   1.659   6.077  1.00  0.00    -0.352 N 
ATOM     28  C   UNL     1      -1.427   0.997   7.190  1.00  0.00     0.251 C 
ATOM     29  H   UNL     1      -1.676   2.140   5.588  1.00  0.00     0.163 HD
ATOM     30  O   UNL     1      -2.639   0.963   7.401  1.00  0.00    -0.269 OA
BRANCH  28  31
ATOM     31  C   UNL     1      -0.513   0.300   8.121  1.00  0.00     0.039 A 
ATOM     32  C   UNL     1      -0.949  -0.874   8.752  1.00  0.00     0.014 A 
ATOM     33  C   UNL     1       0.743   0.813   8.428  1.00  0.00     0.014 A 
ATOM     34  C   UNL     1      -0.106  -1.548   9.643  1.00  0.00     0.010 A 
ATOM     35  C   UNL     1       1.624   0.080   9.213  1.00  0.00     0.010 A 
ATOM     36  C   UNL     1       1.201  -1.090   9.860  1.00  0.00    -0.014 A 
BRANCH  36  37
ATOM     37  C   UNL     1       2.138  -1.763  10.798  1.00  0.00     0.031 A 
ATOM     38  C   UNL     1       2.729  -0.982  11.947  1.00  0.00     0.074 A 
ATOM     39  C   UNL     1       2.548  -3.023  10.557  1.00  0.00     0.049 A 
ATOM     40  N   UNL     1       3.684  -1.318  12.774  1.00  0.00    -0.248 NA
ATOM     41  C   UNL     1       2.208   0.380  12.162  1.00  0.00     0.031 C 
ATOM     42  C   UNL     1       2.112  -3.859   9.437  1.00  0.00     0.029 A 
ATOM     43  N   UNL     1       3.459  -3.807  11.221  1.00  0.00    -0.354 N 
ATOM     44  C   UNL     1       3.916  -0.196  13.562  1.00  0.00     0.074 A 
ATOM     45  C   UNL     1       3.036   0.846  13.084  1.00  0.00     0.031 C 
ATOM     46  C   UNL     1       2.757  -5.035   9.488  1.00  0.00     0.029 A 
ATOM     47  C   UNL     1       3.680  -5.024  10.618  1.00  0.00     0.049 A 
ATOM     48  H   UNL     1       3.911  -3.526  12.049  1.00  0.00     0.167 HD
ATOM     49  C   UNL     1       4.758  -0.052  14.613  1.00  0.00     0.034 A 
ATOM     50  C   UNL     1       4.544  -6.010  10.928  1.00  0.00     0.034 A 
ATOM     51  C   UNL     1       5.586  -1.111  15.123  1.00  0.00     0.049 A 
ATOM     52  C   UNL     1       5.428  -5.851  12.135  1.00  0.00     0.074 A 
ATOM     53  C   UNL     1       6.405  -1.103  16.237  1.00  0.00     0.029 A 
ATOM     54  N   UNL     1       5.698  -2.369  14.552  1.00  0.00    -0.354 N 
ATOM     55  N   UNL     1       5.535  -4.831  12.951  1.00  0.00    -0.248 NA
ATOM     56  C   UNL     1       6.282  -6.994  12.486  1.00  0.00     0.031 C 
ATOM     57  C   UNL     1       7.033  -2.351  16.325  1.00  0.00     0.029 A 
ATOM     58  C   UNL     1       6.576  -3.147  15.286  1.00  0.00     0.049 A 
ATOM     59  H   UNL     1       5.223  -2.666  13.742  1.00  0.00     0.167 HD
ATOM     60  C   UNL     1       6.442  -5.220  13.931  1.00  0.00     0.074 A 
ATOM     61  C   UNL     1       6.832  -6.580  13.619  1.00  0.00     0.031 C 
ATOM     62  C   UNL     1       6.920  -4.513  14.986  1.00  0.00     0.034 A 
BRANCH  49  63
ATOM     63  C   UNL     1       4.783   1.284  15.313  1.00  0.00     0.023 A 
ATOM     64  C   UNL     1       3.658   1.708  16.052  1.00  0.00     0.012 A 
ATOM     65  C   UNL     1       5.929   2.103  15.276  1.00  0.00     0.148 A 
ATOM     66  C   UNL     1       3.654   2.943  16.700  1.00  0.00     0.002 A 
ATOM     67  C   UNL     1       5.937   3.309  15.969  1.00  0.00     0.091 A 
ATOM     68  F   UNL     1       6.983   1.697  14.555  1.00  0.00    -0.205 F 
ATOM     69  C   UNL     1       4.795   3.737  16.667  1.00  0.00     0.022 A 
BRANCH  67  70
ATOM     70  S   UNL     1       7.387   4.365  16.062  1.00  0.00     0.127 S 
ATOM     71  O   UNL     1       6.962   5.519  15.267  1.00  0.00    -0.237 OA
ATOM     72  O   UNL     1       7.485   4.623  17.501  1.00  0.00    -0.237 OA
ATOM     73  O   UNL     1       8.485   3.594  15.505  1.00  0.00    -0.744 OA
ENDBRANCH  67  70
ENDBRANCH  49  63
BRANCH  50  74
ATOM     74  C   UNL     1       4.572  -7.257  10.111  1.00  0.00     0.023 A 
ATOM     75  C   UNL     1       4.084  -8.458  10.662  1.00  0.00     0.012 A 
ATOM     76  C   UNL     1       5.044  -7.253   8.784  1.00  0.00     0.148 A 
ATOM     77  C   UNL     1       4.096  -9.639   9.920  1.00  0.00     0.002 A 
ATOM     78  C   UNL     1       4.999  -8.419   8.030  1.00  0.00     0.091 A 
ATOM     79  F   UNL     1       5.512  -6.102   8.281  1.00  0.00    -0.205 F 
ATOM     80  C   UNL     1       4.543  -9.618   8.601  1.00  0.00     0.022 A 
BRANCH  78  81
ATOM     81  S   UNL     1       5.424  -8.457   6.285  1.00  0.00     0.127 S 
ATOM     82  O   UNL     1       6.655  -9.243   6.293  1.00  0.00    -0.237 OA
ATOM     83  O   UNL     1       4.262  -9.135   5.708  1.00  0.00    -0.237 OA
ATOM     84  O   UNL     1       5.566  -7.064   5.884  1.00  0.00    -0.744 OA
ENDBRANCH  78  81
ENDBRANCH  50  74
BRANCH  62  85
ATOM     85  C   UNL     1       7.890  -5.208  15.905  1.00  0.00     0.023 A 
ATOM     86  C   UNL     1       9.199  -5.489  15.467  1.00  0.00     0.012 A 
ATOM     87  C   UNL     1       7.518  -5.532  17.225  1.00  0.00     0.148 A 
ATOM     88  C   UNL     1      10.110  -6.121  16.313  1.00  0.00     0.002 A 
ATOM     89  C   UNL     1       8.447  -6.112  18.080  1.00  0.00     0.091 A 
ATOM     90  F   UNL     1       6.263  -5.273  17.618  1.00  0.00    -0.205 F 
ATOM     91  C   UNL     1       9.737  -6.422  17.621  1.00  0.00     0.022 A 
BRANCH  89  92
ATOM     92  S   UNL     1       8.087  -6.443  19.808  1.00  0.00     0.127 S 
ATOM     93  O   UNL     1       7.972  -7.900  19.815  1.00  0.00    -0.237 OA
ATOM     94  O   UNL     1       9.280  -5.922  20.478  1.00  0.00    -0.237 OA
ATOM     95  O   UNL     1       6.861  -5.717  20.109  1.00  0.00    -0.744 OA
ENDBRANCH  89  92
ENDBRANCH  62  85
ENDBRANCH  36  37
ENDBRANCH  28  31
ENDBRANCH  26  27
ENDBRANCH   1  26
TORSDOF 16
