REMARK SMILES O=C(NCCCNC(=O)c1ccc(-c2c3nc(c(-c4cccc(S(=O)(=O)[O-])c4F)c4ccc([nH]4)c(-c4cccc(S(=O)(=O)[O-])c4F)c4nc(c(-c5cccc(S(=O)(=O)[O-])c5F)c5ccc2[nH]5)C=C4)C=C3)cc1)C1=Cc2cc(Cl)c(Cl)cc2O[C@@H]1C(F)(F)F
REMARK SMILES IDX 6 1 5 2 4 3 3 4 1 5 2 6 73 8 74 9 84 10 75 11 83 12 76 13
REMARK SMILES IDX 82 14 77 15 81 16 78 17 79 18 80 19 85 20 86 21 87 22 88 23
REMARK SMILES IDX 7 24 8 25 9 27 10 28 11 29 72 30 12 31 71 32 13 33 14 34
REMARK SMILES IDX 15 35 65 36 16 37 70 38 64 39 66 40 17 41 69 42 63 43 62 44
REMARK SMILES IDX 18 46 50 47 30 48 49 49 31 50 34 51 48 52 67 53 32 54 33 55
REMARK SMILES IDX 47 57 68 58 35 59 19 60 20 61 28 62 21 63 23 64 29 65 22 66
REMARK SMILES IDX 24 67 25 68 26 69 27 70 51 71 52 72 60 73 53 74 55 75 61 76
REMARK SMILES IDX 54 77 56 78 57 79 58 80 59 81 36 82 37 83 45 84 38 85 40 86
REMARK SMILES IDX 46 87 39 88 41 89 42 90 43 91 44 92
REMARK H PARENT 3 7 7 26 66 45 34 56
REMARK Flexibility Score: inf
ROOT
ATOM      1  C   UNL     1       3.900  -2.133  -3.531  1.00  0.00     0.118 C 
ENDROOT
BRANCH   1   2
ATOM      2  C   UNL     1       4.122  -1.962  -2.032  1.00  0.00     0.042 C 
BRANCH   2   3
ATOM      3  C   UNL     1       3.386  -0.752  -1.467  1.00  0.00     0.118 C 
BRANCH   3   4
ATOM      4  N   UNL     1       2.360  -1.093  -0.478  1.00  0.00    -0.352 N 
ATOM      5  O   UNL     1       1.142  -0.817   1.420  1.00  0.00    -0.270 OA
ATOM      6  C   UNL     1       2.183  -0.630   0.805  1.00  0.00     0.251 C 
ATOM      7  H   UNL     1       1.696  -1.755  -0.778  1.00  0.00     0.163 HD
BRANCH   6   8
ATOM      8  C   UNL     1       3.271   0.184   1.379  1.00  0.00     0.067 C 
ATOM      9  C   UNL     1       4.439  -0.432   1.603  1.00  0.00     0.025 C 
ATOM     10  C   UNL     1       3.133   1.671   1.278  1.00  0.00     0.314 C 
ATOM     11  C   UNL     1       5.587   0.306   1.061  1.00  0.00     0.019 A 
ATOM     12  O   UNL     1       4.222   2.280   0.539  1.00  0.00    -0.475 OA
ATOM     13  C   UNL     1       6.741  -0.430   0.772  1.00  0.00     0.034 A 
ATOM     14  C   UNL     1       5.382   1.551   0.436  1.00  0.00     0.129 A 
ATOM     15  C   UNL     1       7.618   0.010  -0.223  1.00  0.00     0.060 A 
ATOM     16  C   UNL     1       6.281   2.010  -0.525  1.00  0.00     0.069 A 
ATOM     17  Cl  UNL     1       8.904  -1.048  -0.676  1.00  0.00    -0.083 Cl
ATOM     18  C   UNL     1       7.375   1.219  -0.887  1.00  0.00     0.063 A 
ATOM     19  Cl  UNL     1       8.328   1.745  -2.228  1.00  0.00    -0.083 Cl
BRANCH  10  20
ATOM     20  C   UNL     1       2.990   2.321   2.663  1.00  0.00     0.429 C 
ATOM     21  F   UNL     1       2.702   3.642   2.549  1.00  0.00    -0.167 F 
ATOM     22  F   UNL     1       1.990   1.768   3.387  1.00  0.00    -0.167 F 
ATOM     23  F   UNL     1       4.123   2.225   3.398  1.00  0.00    -0.167 F 
ENDBRANCH  10  20
ENDBRANCH   6   8
ENDBRANCH   3   4
ENDBRANCH   2   3
ENDBRANCH   1   2
BRANCH   1  24
ATOM     24  N   UNL     1       4.484  -1.062  -4.338  1.00  0.00    -0.352 N 
ATOM     25  C   UNL     1       5.393  -1.106  -5.378  1.00  0.00     0.251 C 
ATOM     26  H   UNL     1       4.177  -0.158  -4.100  1.00  0.00     0.163 HD
ATOM     27  O   UNL     1       5.803  -0.064  -5.861  1.00  0.00    -0.269 OA
BRANCH  25  28
ATOM     28  C   UNL     1       5.891  -2.409  -5.882  1.00  0.00     0.039 A 
ATOM     29  C   UNL     1       7.249  -2.549  -6.185  1.00  0.00     0.014 A 
ATOM     30  C   UNL     1       5.033  -3.495  -6.032  1.00  0.00     0.014 A 
ATOM     31  C   UNL     1       7.757  -3.807  -6.532  1.00  0.00     0.010 A 
ATOM     32  C   UNL     1       5.557  -4.762  -6.253  1.00  0.00     0.010 A 
ATOM     33  C   UNL     1       6.925  -4.937  -6.508  1.00  0.00    -0.014 A 
BRANCH  33  34
ATOM     34  C   UNL     1       7.443  -6.315  -6.731  1.00  0.00     0.031 A 
ATOM     35  C   UNL     1       6.841  -7.178  -7.811  1.00  0.00     0.074 A 
ATOM     36  C   UNL     1       8.349  -6.837  -5.880  1.00  0.00     0.049 A 
ATOM     37  N   UNL     1       7.035  -8.447  -8.059  1.00  0.00    -0.248 NA
ATOM     38  C   UNL     1       5.851  -6.543  -8.699  1.00  0.00     0.031 C 
ATOM     39  C   UNL     1       8.939  -6.141  -4.733  1.00  0.00     0.029 A 
ATOM     40  N   UNL     1       8.908  -8.091  -5.825  1.00  0.00    -0.354 N 
ATOM     41  C   UNL     1       6.151  -8.774  -9.082  1.00  0.00     0.074 A 
ATOM     42  C   UNL     1       5.391  -7.581  -9.381  1.00  0.00     0.031 C 
ATOM     43  C   UNL     1       9.781  -6.971  -4.097  1.00  0.00     0.029 A 
ATOM     44  C   UNL     1       9.766  -8.268  -4.762  1.00  0.00     0.049 A 
ATOM     45  H   UNL     1       8.714  -8.796  -6.483  1.00  0.00     0.167 HD
ATOM     46  C   UNL     1       6.009  -9.948  -9.742  1.00  0.00     0.034 A 
ATOM     47  C   UNL     1      10.455  -9.356  -4.363  1.00  0.00     0.034 A 
ATOM     48  C   UNL     1       6.825 -11.105  -9.499  1.00  0.00     0.049 A 
ATOM     49  C   UNL     1      10.343 -10.623  -5.166  1.00  0.00     0.074 A 
ATOM     50  C   UNL     1       6.845 -12.304 -10.188  1.00  0.00     0.029 A 
ATOM     51  N   UNL     1       7.774 -11.205  -8.493  1.00  0.00    -0.354 N 
ATOM     52  N   UNL     1       9.617 -10.863  -6.232  1.00  0.00    -0.248 NA
ATOM     53  C   UNL     1      11.170 -11.759  -4.735  1.00  0.00     0.031 C 
ATOM     54  C   UNL     1       7.798 -13.135  -9.590  1.00  0.00     0.029 A 
ATOM     55  C   UNL     1       8.384 -12.446  -8.540  1.00  0.00     0.049 A 
ATOM     56  H   UNL     1       7.982 -10.497  -7.841  1.00  0.00     0.167 HD
ATOM     57  C   UNL     1       9.923 -12.163  -6.617  1.00  0.00     0.074 A 
ATOM     58  C   UNL     1      10.919 -12.651  -5.685  1.00  0.00     0.031 C 
ATOM     59  C   UNL     1       9.414 -12.894  -7.639  1.00  0.00     0.034 A 
BRANCH  46  60
ATOM     60  C   UNL     1       4.978 -10.015 -10.840  1.00  0.00     0.023 A 
ATOM     61  C   UNL     1       5.195  -9.309 -12.041  1.00  0.00     0.012 A 
ATOM     62  C   UNL     1       3.823 -10.811 -10.707  1.00  0.00     0.148 A 
ATOM     63  C   UNL     1       4.263  -9.359 -13.076  1.00  0.00     0.002 A 
ATOM     64  C   UNL     1       2.921 -10.894 -11.762  1.00  0.00     0.091 A 
ATOM     65  F   UNL     1       3.621 -11.459  -9.551  1.00  0.00    -0.205 F 
ATOM     66  C   UNL     1       3.132 -10.159 -12.940  1.00  0.00     0.022 A 
BRANCH  64  67
ATOM     67  S   UNL     1       1.474 -11.959 -11.719  1.00  0.00     0.127 S 
ATOM     68  O   UNL     1       0.392 -10.982 -11.604  1.00  0.00    -0.237 OA
ATOM     69  O   UNL     1       1.550 -12.634 -13.015  1.00  0.00    -0.237 OA
ATOM     70  O   UNL     1       1.653 -12.832 -10.568  1.00  0.00    -0.744 OA
ENDBRANCH  64  67
ENDBRANCH  46  60
BRANCH  47  71
ATOM     71  C   UNL     1      11.372  -9.269  -3.191  1.00  0.00     0.023 A 
ATOM     72  C   UNL     1      12.764  -9.303  -3.404  1.00  0.00     0.012 A 
ATOM     73  C   UNL     1      10.884  -9.120  -1.878  1.00  0.00     0.148 A 
ATOM     74  C   UNL     1      13.653  -9.222  -2.331  1.00  0.00     0.002 A 
ATOM     75  C   UNL     1      11.775  -8.985  -0.819  1.00  0.00     0.091 A 
ATOM     76  F   UNL     1       9.556  -9.101  -1.692  1.00  0.00    -0.205 F 
ATOM     77  C   UNL     1      13.159  -9.053  -1.041  1.00  0.00     0.022 A 
BRANCH  75  78
ATOM     78  S   UNL     1      11.231  -8.633   0.857  1.00  0.00     0.127 S 
ATOM     79  O   UNL     1      11.465  -9.911   1.524  1.00  0.00    -0.237 OA
ATOM     80  O   UNL     1      12.139  -7.556   1.252  1.00  0.00    -0.237 OA
ATOM     81  O   UNL     1       9.837  -8.225   0.737  1.00  0.00    -0.744 OA
ENDBRANCH  75  78
ENDBRANCH  47  71
BRANCH  59  82
ATOM     82  C   UNL     1       9.941 -14.291  -7.828  1.00  0.00     0.023 A 
ATOM     83  C   UNL     1       9.561 -15.308  -6.931  1.00  0.00     0.012 A 
ATOM     84  C   UNL     1      10.745 -14.611  -8.939  1.00  0.00     0.148 A 
ATOM     85  C   UNL     1       9.999 -16.618  -7.120  1.00  0.00     0.002 A 
ATOM     86  C   UNL     1      11.138 -15.928  -9.148  1.00  0.00     0.091 A 
ATOM     87  F   UNL     1      11.111 -13.625  -9.771  1.00  0.00    -0.205 F 
ATOM     88  C   UNL     1      10.775 -16.930  -8.234  1.00  0.00     0.022 A 
BRANCH  86  89
ATOM     89  S   UNL     1      12.056 -16.437 -10.606  1.00  0.00     0.127 S 
ATOM     90  O   UNL     1      13.388 -16.671 -10.052  1.00  0.00    -0.237 OA
ATOM     91  O   UNL     1      11.343 -17.648 -11.015  1.00  0.00    -0.237 OA
ATOM     92  O   UNL     1      11.954 -15.331 -11.549  1.00  0.00    -0.744 OA
ENDBRANCH  86  89
ENDBRANCH  59  82
ENDBRANCH  33  34
ENDBRANCH  25  28
ENDBRANCH   1  24
TORSDOF 14
