REMARK SMILES Cc1c(C(=O)NCCCNC(=O)c2ccc(-c3c4nc(c(-c5cccc(S(=O)(=O)[O-])c5F)c5ccc([nH]5)c(-c5cccc(S(=O)(=O)[O-])c5F)c5nc(c(-c6cccc(S(=O)(=O)[O-])c6F)c6ccc3[nH]6)C=C5)C=C4)cc2)sc2c1=C(CSc1nncn1-c1ccccc1)CC(=O)N=2
REMARK SMILES IDX 7 1 6 2 4 3 5 4 3 6 1 7 2 8 78 9 76 10 77 11 79 12 96 13
REMARK SMILES IDX 93 14 94 15 95 16 80 17 81 18 82 19 83 20 86 21 84 22 85 23
REMARK SMILES IDX 87 24 88 25 92 26 89 27 91 28 90 29 8 30 9 31 10 32 11 33
REMARK SMILES IDX 12 35 13 36 14 37 75 38 15 39 74 40 16 41 17 42 18 43 68 44
REMARK SMILES IDX 19 45 73 46 67 47 69 48 20 49 72 50 66 51 65 52 21 54 53 55
REMARK SMILES IDX 33 56 52 57 34 58 37 59 51 60 70 61 35 62 36 63 50 65 71 66
REMARK SMILES IDX 38 67 22 68 23 69 31 70 24 71 26 72 32 73 25 74 27 75 28 76
REMARK SMILES IDX 29 77 30 78 54 79 55 80 63 81 56 82 58 83 64 84 57 85 59 86
REMARK SMILES IDX 60 87 61 88 62 89 39 90 40 91 48 92 41 93 43 94 49 95 42 96
REMARK SMILES IDX 44 97 45 98 46 99 47 100
REMARK H PARENT 6 5 10 34 69 53 37 64
REMARK Flexibility Score: inf
ROOT
ATOM      1  C   UNL     1       3.576  -1.629   1.586  1.00  0.00     0.118 C 
ENDROOT
BRANCH   1   2
ATOM      2  N   UNL     1       2.613  -2.757   1.460  1.00  0.00    -0.351 N 
ATOM      3  C   UNL     1       1.624  -3.399   0.797  1.00  0.00     0.261 C 
ATOM      4  O   UNL     1       1.330  -4.454   1.386  1.00  0.00    -0.268 OA
ATOM      5  H   UNL     1       2.776  -3.312   2.257  1.00  0.00     0.163 HD
BRANCH   3   6
ATOM      6  C   UNL     1       0.862  -3.137  -0.509  1.00  0.00     0.098 A 
ATOM      7  C   UNL     1      -0.621  -1.051  -0.287  1.00  0.00     0.047 C 
ATOM      8  C   UNL     1       0.053  -2.166  -1.021  1.00  0.00    -0.018 A 
ATOM      9  C   UNL     1      -0.800  -2.606  -2.128  1.00  0.00     0.016 A 
ATOM     10  S   UNL     1       0.300  -4.736  -1.258  1.00  0.00    -0.110 S 
ATOM     11  C   UNL     1      -1.147  -4.020  -1.940  1.00  0.00     0.128 A 
ATOM     12  C   UNL     1      -1.568  -1.927  -3.001  1.00  0.00    -0.040 C 
ATOM     13  N   UNL     1      -2.247  -4.623  -2.206  1.00  0.00    -0.202 NA
ATOM     14  C   UNL     1      -3.019  -2.369  -3.008  1.00  0.00     0.135 C 
ATOM     15  C   UNL     1      -3.270  -3.852  -2.721  1.00  0.00     0.251 C 
ATOM     16  O   UNL     1      -4.400  -4.299  -2.920  1.00  0.00    -0.272 OA
BRANCH  12  17
ATOM     17  C   UNL     1      -1.331  -0.680  -3.825  1.00  0.00     0.110 C 
BRANCH  17  18
ATOM     18  S   UNL     1       0.364  -0.089  -3.931  1.00  0.00    -0.081 SA
BRANCH  18  19
ATOM     19  C   UNL     1       0.125   1.644  -3.954  1.00  0.00     0.195 A 
ATOM     20  N   UNL     1      -0.641   2.281  -4.811  1.00  0.00    -0.123 NA
ATOM     21  N   UNL     1       0.535   2.524  -2.960  1.00  0.00    -0.277 N 
ATOM     22  N   UNL     1      -0.770   3.583  -4.378  1.00  0.00    -0.138 NA
ATOM     23  C   UNL     1      -0.094   3.701  -3.259  1.00  0.00     0.231 A 
BRANCH  21  24
ATOM     24  C   UNL     1       1.218   2.228  -1.767  1.00  0.00     0.049 A 
ATOM     25  C   UNL     1       2.199   1.243  -1.821  1.00  0.00     0.027 A 
ATOM     26  C   UNL     1       0.637   2.642  -0.554  1.00  0.00     0.027 A 
ATOM     27  C   UNL     1       2.324   0.419  -0.739  1.00  0.00     0.002 A 
ATOM     28  C   UNL     1       0.842   1.861   0.564  1.00  0.00     0.002 A 
ATOM     29  C   UNL     1       1.592   0.704   0.408  1.00  0.00     0.000 A 
ENDBRANCH  21  24
ENDBRANCH  18  19
ENDBRANCH  17  18
ENDBRANCH  12  17
ENDBRANCH   3   6
ENDBRANCH   1   2
BRANCH   1  30
ATOM     30  C   UNL     1       3.204  -0.661   2.740  1.00  0.00     0.042 C 
BRANCH  30  31
ATOM     31  C   UNL     1       4.333   0.109   3.395  1.00  0.00     0.118 C 
BRANCH  31  32
ATOM     32  N   UNL     1       4.973   1.170   2.593  1.00  0.00    -0.352 N 
ATOM     33  C   UNL     1       6.091   1.943   2.966  1.00  0.00     0.251 C 
ATOM     34  H   UNL     1       4.580   1.356   1.710  1.00  0.00     0.163 HD
ATOM     35  O   UNL     1       6.351   3.000   2.457  1.00  0.00    -0.269 OA
BRANCH  33  36
ATOM     36  C   UNL     1       6.955   1.366   4.026  1.00  0.00     0.039 A 
ATOM     37  C   UNL     1       7.282   2.045   5.207  1.00  0.00     0.014 A 
ATOM     38  C   UNL     1       7.167   0.010   3.897  1.00  0.00     0.014 A 
ATOM     39  C   UNL     1       7.654   1.290   6.325  1.00  0.00     0.010 A 
ATOM     40  C   UNL     1       7.199  -0.707   5.055  1.00  0.00     0.010 A 
ATOM     41  C   UNL     1       7.542  -0.104   6.259  1.00  0.00    -0.014 A 
BRANCH  41  42
ATOM     42  C   UNL     1       7.612  -0.988   7.423  1.00  0.00     0.031 A 
ATOM     43  C   UNL     1       6.773  -0.580   8.585  1.00  0.00     0.074 A 
ATOM     44  C   UNL     1       8.141  -2.233   7.328  1.00  0.00     0.049 A 
ATOM     45  N   UNL     1       7.180  -0.137   9.730  1.00  0.00    -0.248 NA
ATOM     46  C   UNL     1       5.313  -0.502   8.411  1.00  0.00     0.031 C 
ATOM     47  C   UNL     1       8.710  -2.888   6.133  1.00  0.00     0.029 A 
ATOM     48  N   UNL     1       8.114  -3.256   8.223  1.00  0.00    -0.354 N 
ATOM     49  C   UNL     1       6.030  -0.003  10.508  1.00  0.00     0.074 A 
ATOM     50  C   UNL     1       4.936   0.030   9.577  1.00  0.00     0.031 C 
ATOM     51  C   UNL     1       8.677  -4.226   6.285  1.00  0.00     0.029 A 
ATOM     52  C   UNL     1       8.322  -4.513   7.657  1.00  0.00     0.049 A 
ATOM     53  H   UNL     1       7.961  -3.120   9.186  1.00  0.00     0.167 HD
ATOM     54  C   UNL     1       6.058  -0.252  11.851  1.00  0.00     0.034 A 
ATOM     55  C   UNL     1       8.205  -5.717   8.263  1.00  0.00     0.034 A 
ATOM     56  C   UNL     1       7.424  -0.357  12.318  1.00  0.00     0.049 A 
ATOM     57  C   UNL     1       8.311  -5.468   9.716  1.00  0.00     0.074 A 
ATOM     58  C   UNL     1       8.541   0.453  12.284  1.00  0.00     0.029 A 
ATOM     59  N   UNL     1       7.887  -1.628  12.567  1.00  0.00    -0.354 N 
ATOM     60  N   UNL     1       9.397  -5.026  10.286  1.00  0.00    -0.248 NA
ATOM     61  C   UNL     1       7.085  -5.280  10.470  1.00  0.00     0.031 C 
ATOM     62  C   UNL     1       9.631  -0.435  12.040  1.00  0.00     0.029 A 
ATOM     63  C   UNL     1       9.138  -1.742  12.027  1.00  0.00     0.049 A 
ATOM     64  H   UNL     1       7.401  -2.335  13.050  1.00  0.00     0.167 HD
ATOM     65  C   UNL     1       8.940  -4.093  11.207  1.00  0.00     0.074 A 
ATOM     66  C   UNL     1       7.519  -4.398  11.374  1.00  0.00     0.031 C 
ATOM     67  C   UNL     1       9.677  -2.980  11.502  1.00  0.00     0.034 A 
BRANCH  54  68
ATOM     68  C   UNL     1       4.919  -0.828  12.685  1.00  0.00     0.023 A 
ATOM     69  C   UNL     1       5.168  -0.992  14.071  1.00  0.00     0.012 A 
ATOM     70  C   UNL     1       3.768  -1.471  12.177  1.00  0.00     0.148 A 
ATOM     71  C   UNL     1       4.388  -1.832  14.873  1.00  0.00     0.002 A 
ATOM     72  C   UNL     1       2.954  -2.252  12.994  1.00  0.00     0.091 A 
ATOM     73  F   UNL     1       3.493  -1.442  10.874  1.00  0.00    -0.205 F 
ATOM     74  C   UNL     1       3.281  -2.468  14.333  1.00  0.00     0.022 A 
BRANCH  72  75
ATOM     75  S   UNL     1       1.484  -3.068  12.352  1.00  0.00     0.127 S 
ATOM     76  O   UNL     1       1.926  -4.458  12.299  1.00  0.00    -0.237 OA
ATOM     77  O   UNL     1       0.498  -2.766  13.389  1.00  0.00    -0.237 OA
ATOM     78  O   UNL     1       1.211  -2.434  11.068  1.00  0.00    -0.744 OA
ENDBRANCH  72  75
ENDBRANCH  54  68
BRANCH  55  79
ATOM     79  C   UNL     1       7.846  -7.037   7.705  1.00  0.00     0.023 A 
ATOM     80  C   UNL     1       8.213  -8.210   8.391  1.00  0.00     0.012 A 
ATOM     81  C   UNL     1       6.912  -7.144   6.651  1.00  0.00     0.148 A 
ATOM     82  C   UNL     1       7.636  -9.444   8.069  1.00  0.00     0.002 A 
ATOM     83  C   UNL     1       6.344  -8.373   6.331  1.00  0.00     0.091 A 
ATOM     84  F   UNL     1       6.513  -6.026   6.027  1.00  0.00    -0.205 F 
ATOM     85  C   UNL     1       6.693  -9.525   7.047  1.00  0.00     0.022 A 
BRANCH  83  86
ATOM     86  S   UNL     1       5.099  -8.545   5.044  1.00  0.00     0.127 S 
ATOM     87  O   UNL     1       5.593  -9.704   4.299  1.00  0.00    -0.237 OA
ATOM     88  O   UNL     1       3.892  -8.787   5.828  1.00  0.00    -0.237 OA
ATOM     89  O   UNL     1       5.133  -7.293   4.298  1.00  0.00    -0.744 OA
ENDBRANCH  83  86
ENDBRANCH  55  79
BRANCH  67  90
ATOM     90  C   UNL     1      11.108  -2.926  11.019  1.00  0.00     0.023 A 
ATOM     91  C   UNL     1      11.449  -2.912   9.650  1.00  0.00     0.012 A 
ATOM     92  C   UNL     1      12.119  -2.700  11.967  1.00  0.00     0.148 A 
ATOM     93  C   UNL     1      12.767  -2.697   9.237  1.00  0.00     0.002 A 
ATOM     94  C   UNL     1      13.419  -2.439  11.553  1.00  0.00     0.091 A 
ATOM     95  F   UNL     1      11.783  -2.713  13.266  1.00  0.00    -0.205 F 
ATOM     96  C   UNL     1      13.751  -2.446  10.189  1.00  0.00     0.022 A 
BRANCH  94  97
ATOM     97  S   UNL     1      14.696  -1.978  12.725  1.00  0.00     0.127 S 
ATOM     98  O   UNL     1      15.473  -3.210  12.831  1.00  0.00    -0.237 OA
ATOM     99  O   UNL     1      15.378  -0.881  12.035  1.00  0.00    -0.237 OA
ATOM    100  O   UNL     1      13.995  -1.569  13.937  1.00  0.00    -0.744 OA
ENDBRANCH  94  97
ENDBRANCH  67  90
ENDBRANCH  41  42
ENDBRANCH  33  36
ENDBRANCH  31  32
ENDBRANCH  30  31
ENDBRANCH   1  30
TORSDOF 17
