REMARK SMILES CCC(C)(C)c1ccc(O[C@H](F)C(=O)NCCCNC(=O)c2ccc(-c3c4nc(c(-c5cccc(S(=O)(=O)[O-])c5F)c5ccc([nH]5)c(-c5cccc(S(=O)(=O)[O-])c5F)c5nc(c(-c6cccc(S(=O)(=O)[O-])c6F)c6ccc3[nH]6)C=C5)C=C4)cc2)cc1
REMARK SMILES IDX 16 1 15 2 13 3 14 4 11 6 12 7 10 8 9 9 6 10 7 11 86 12 8 13
REMARK SMILES IDX 85 14 3 15 4 16 5 17 2 18 1 19 17 20 18 21 19 22 20 23 21 25
REMARK SMILES IDX 22 26 23 27 84 28 24 29 83 30 25 31 26 32 27 33 77 34 28 35
REMARK SMILES IDX 82 36 76 37 78 38 29 39 81 40 75 41 74 42 30 44 62 45 42 46
REMARK SMILES IDX 61 47 43 48 46 49 60 50 79 51 44 52 45 53 59 55 80 56 47 57
REMARK SMILES IDX 31 58 32 59 40 60 33 61 35 62 41 63 34 64 36 65 37 66 38 67
REMARK SMILES IDX 39 68 63 69 64 70 72 71 65 72 67 73 73 74 66 75 68 76 69 77
REMARK SMILES IDX 70 78 71 79 48 80 49 81 57 82 50 83 52 84 58 85 51 86 53 87
REMARK SMILES IDX 54 88 55 89 56 90
REMARK H PARENT 15 5 19 24 78 43 46 54
REMARK Flexibility Score: inf
ROOT
ATOM      1  C   UNL     1       4.610   4.569   1.675  1.00  0.00     0.118 C 
ENDROOT
BRANCH   1   2
ATOM      2  N   UNL     1       5.703   5.016   2.521  1.00  0.00    -0.350 N 
ATOM      3  C   UNL     1       7.041   4.730   2.387  1.00  0.00     0.294 C 
ATOM      4  O   UNL     1       7.839   5.284   3.148  1.00  0.00    -0.267 OA
ATOM      5  H   UNL     1       5.456   5.593   3.280  1.00  0.00     0.163 HD
BRANCH   3   6
ATOM      6  C   UNL     1       7.494   3.714   1.322  1.00  0.00     0.440 C 
ATOM      7  F   UNL     1       6.886   2.520   1.550  1.00  0.00    -0.191 F 
BRANCH   6   8
ATOM      8  O   UNL     1       7.227   4.236   0.016  1.00  0.00    -0.452 OA
BRANCH   8   9
ATOM      9  C   UNL     1       6.742   3.489  -1.013  1.00  0.00     0.123 A 
ATOM     10  C   UNL     1       5.713   2.217  -3.352  1.00  0.00    -0.042 A 
ATOM     11  C   UNL     1       5.758   1.565  -2.114  1.00  0.00     0.008 A 
ATOM     12  C   UNL     1       6.138   3.556  -3.373  1.00  0.00     0.008 A 
ATOM     13  C   UNL     1       6.288   2.179  -0.972  1.00  0.00     0.047 A 
ATOM     14  C   UNL     1       6.638   4.180  -2.221  1.00  0.00     0.047 A 
BRANCH  10  15
ATOM     15  C   UNL     1       5.222   1.521  -4.635  1.00  0.00    -0.011 C 
ATOM     16  C   UNL     1       6.267   1.702  -5.760  1.00  0.00     0.016 C 
ATOM     17  C   UNL     1       3.902   2.194  -5.081  1.00  0.00     0.016 C 
BRANCH  15  18
ATOM     18  C   UNL     1       4.920  -0.006  -4.479  1.00  0.00     0.008 C 
ATOM     19  C   UNL     1       6.132  -0.910  -4.249  1.00  0.00     0.005 C 
ENDBRANCH  15  18
ENDBRANCH  10  15
ENDBRANCH   8   9
ENDBRANCH   6   8
ENDBRANCH   3   6
ENDBRANCH   1   2
BRANCH   1  20
ATOM     20  C   UNL     1       3.623   3.658   2.385  1.00  0.00     0.042 C 
BRANCH  20  21
ATOM     21  C   UNL     1       2.880   4.321   3.532  1.00  0.00     0.118 C 
BRANCH  21  22
ATOM     22  N   UNL     1       2.120   5.493   3.115  1.00  0.00    -0.352 N 
ATOM     23  C   UNL     1       0.795   5.797   3.294  1.00  0.00     0.251 C 
ATOM     24  H   UNL     1       2.639   6.173   2.628  1.00  0.00     0.163 HD
ATOM     25  O   UNL     1       0.321   6.779   2.720  1.00  0.00    -0.269 OA
BRANCH  23  26
ATOM     26  C   UNL     1      -0.065   4.956   4.154  1.00  0.00     0.039 A 
ATOM     27  C   UNL     1      -1.389   4.728   3.768  1.00  0.00     0.014 A 
ATOM     28  C   UNL     1       0.413   4.416   5.350  1.00  0.00     0.014 A 
ATOM     29  C   UNL     1      -2.216   3.931   4.561  1.00  0.00     0.010 A 
ATOM     30  C   UNL     1      -0.377   3.537   6.081  1.00  0.00     0.010 A 
ATOM     31  C   UNL     1      -1.710   3.311   5.715  1.00  0.00    -0.014 A 
BRANCH  31  32
ATOM     32  C   UNL     1      -2.572   2.463   6.577  1.00  0.00     0.031 A 
ATOM     33  C   UNL     1      -2.815   2.847   8.013  1.00  0.00     0.074 A 
ATOM     34  C   UNL     1      -3.079   1.312   6.094  1.00  0.00     0.049 A 
ATOM     35  N   UNL     1      -3.503   2.219   8.931  1.00  0.00    -0.248 NA
ATOM     36  C   UNL     1      -2.171   4.082   8.491  1.00  0.00     0.031 C 
ATOM     37  C   UNL     1      -2.841   0.781   4.750  1.00  0.00     0.029 A 
ATOM     38  N   UNL     1      -3.876   0.368   6.689  1.00  0.00    -0.354 N 
ATOM     39  C   UNL     1      -3.345   2.959  10.097  1.00  0.00     0.074 A 
ATOM     40  C   UNL     1      -2.450   4.051   9.784  1.00  0.00     0.031 C 
ATOM     41  C   UNL     1      -3.481  -0.392   4.622  1.00  0.00     0.029 A 
ATOM     42  C   UNL     1      -4.151  -0.709   5.880  1.00  0.00     0.049 A 
ATOM     43  H   UNL     1      -4.220   0.453   7.607  1.00  0.00     0.167 HD
ATOM     44  C   UNL     1      -3.919   2.774  11.310  1.00  0.00     0.034 A 
ATOM     45  C   UNL     1      -4.857  -1.830   6.125  1.00  0.00     0.034 A 
ATOM     46  C   UNL     1      -4.834   1.706  11.607  1.00  0.00     0.049 A 
ATOM     47  C   UNL     1      -5.533  -1.991   7.458  1.00  0.00     0.074 A 
ATOM     48  C   UNL     1      -5.534   1.471  12.777  1.00  0.00     0.029 A 
ATOM     49  N   UNL     1      -5.171   0.688  10.728  1.00  0.00    -0.354 N 
ATOM     50  N   UNL     1      -5.495  -1.200   8.503  1.00  0.00    -0.248 NA
ATOM     51  C   UNL     1      -6.388  -3.174   7.631  1.00  0.00     0.031 C 
ATOM     52  C   UNL     1      -6.272   0.293  12.614  1.00  0.00     0.029 A 
ATOM     53  C   UNL     1      -6.066  -0.182  11.329  1.00  0.00     0.049 A 
ATOM     54  H   UNL     1      -4.825   0.596   9.811  1.00  0.00     0.167 HD
ATOM     55  C   UNL     1      -6.349  -1.767   9.443  1.00  0.00     0.074 A 
ATOM     56  C   UNL     1      -6.902  -2.960   8.834  1.00  0.00     0.031 C 
ATOM     57  C   UNL     1      -6.643  -1.342  10.697  1.00  0.00     0.034 A 
BRANCH  44  58
ATOM     58  C   UNL     1      -3.601   3.783  12.386  1.00  0.00     0.023 A 
ATOM     59  C   UNL     1      -4.059   5.112  12.255  1.00  0.00     0.012 A 
ATOM     60  C   UNL     1      -2.864   3.421  13.529  1.00  0.00     0.148 A 
ATOM     61  C   UNL     1      -3.739   6.075  13.210  1.00  0.00     0.002 A 
ATOM     62  C   UNL     1      -2.595   4.374  14.505  1.00  0.00     0.091 A 
ATOM     63  F   UNL     1      -2.418   2.161  13.633  1.00  0.00    -0.205 F 
ATOM     64  C   UNL     1      -3.015   5.704  14.339  1.00  0.00     0.022 A 
BRANCH  62  65
ATOM     65  S   UNL     1      -1.745   3.976  16.037  1.00  0.00     0.127 S 
ATOM     66  O   UNL     1      -0.438   4.594  15.818  1.00  0.00    -0.237 OA
ATOM     67  O   UNL     1      -2.577   4.649  17.035  1.00  0.00    -0.237 OA
ATOM     68  O   UNL     1      -1.746   2.523  16.128  1.00  0.00    -0.744 OA
ENDBRANCH  62  65
ENDBRANCH  44  58
BRANCH  45  69
ATOM     69  C   UNL     1      -5.009  -2.850   5.050  1.00  0.00     0.023 A 
ATOM     70  C   UNL     1      -6.251  -3.004   4.405  1.00  0.00     0.012 A 
ATOM     71  C   UNL     1      -3.912  -3.625   4.626  1.00  0.00     0.148 A 
ATOM     72  C   UNL     1      -6.405  -3.932   3.374  1.00  0.00     0.002 A 
ATOM     73  C   UNL     1      -4.058  -4.505   3.562  1.00  0.00     0.091 A 
ATOM     74  F   UNL     1      -2.741  -3.462   5.257  1.00  0.00    -0.205 F 
ATOM     75  C   UNL     1      -5.308  -4.674   2.946  1.00  0.00     0.022 A 
BRANCH  73  76
ATOM     76  S   UNL     1      -2.672  -5.401   2.852  1.00  0.00     0.127 S 
ATOM     77  O   UNL     1      -3.019  -6.785   3.164  1.00  0.00    -0.237 OA
ATOM     78  O   UNL     1      -2.778  -5.042   1.437  1.00  0.00    -0.237 OA
ATOM     79  O   UNL     1      -1.483  -4.885   3.517  1.00  0.00    -0.744 OA
ENDBRANCH  73  76
ENDBRANCH  45  69
BRANCH  57  80
ATOM     80  C   UNL     1      -7.648  -2.139  11.488  1.00  0.00     0.023 A 
ATOM     81  C   UNL     1      -7.312  -3.416  11.980  1.00  0.00     0.012 A 
ATOM     82  C   UNL     1      -8.909  -1.589  11.796  1.00  0.00     0.148 A 
ATOM     83  C   UNL     1      -8.231  -4.149  12.732  1.00  0.00     0.002 A 
ATOM     84  C   UNL     1      -9.797  -2.303  12.590  1.00  0.00     0.091 A 
ATOM     85  F   UNL     1      -9.218  -0.382  11.302  1.00  0.00    -0.205 F 
ATOM     86  C   UNL     1      -9.466  -3.589  13.046  1.00  0.00     0.022 A 
BRANCH  84  87
ATOM     87  S   UNL     1     -11.368  -1.616  13.128  1.00  0.00     0.127 S 
ATOM     88  O   UNL     1     -12.317  -2.361  12.303  1.00  0.00    -0.237 OA
ATOM     89  O   UNL     1     -11.389  -1.966  14.549  1.00  0.00    -0.237 OA
ATOM     90  O   UNL     1     -11.293  -0.186  12.861  1.00  0.00    -0.744 OA
ENDBRANCH  84  87
ENDBRANCH  57  80
ENDBRANCH  31  32
ENDBRANCH  23  26
ENDBRANCH  21  22
ENDBRANCH  20  21
ENDBRANCH   1  20
TORSDOF 17
