REMARK SMILES CN(C(=O)N1CCC(C(=O)NCCCNC(=O)c2ccc(-c3c4nc(c(-c5cccc(S(=O)(=O)[O-])c5F)c5ccc([nH]5)c(-c5cccc(S(=O)(=O)[O-])c5F)c5nc(c(-c6cccc(S(=O)(=O)[O-])c6F)c6ccc3[nH]6)C=C5)C=C4)cc2)CC1)[C@H]1CCSC1
REMARK SMILES IDX 13 1 12 2 11 3 9 4 10 5 8 7 3 8 4 9 5 10 6 11 82 12 7 13
REMARK SMILES IDX 81 14 2 15 1 16 83 17 84 18 87 19 85 20 86 21 14 22 15 23
REMARK SMILES IDX 16 24 17 26 18 27 19 28 80 29 20 30 79 31 21 32 22 33 23 34
REMARK SMILES IDX 73 35 24 36 78 37 72 38 74 39 25 40 77 41 71 42 70 43 26 45
REMARK SMILES IDX 58 46 38 47 57 48 39 49 42 50 56 51 75 52 40 53 41 54 55 56
REMARK SMILES IDX 76 57 43 58 27 59 28 60 36 61 29 62 31 63 37 64 30 65 32 66
REMARK SMILES IDX 33 67 34 68 35 69 59 70 60 71 68 72 61 73 63 74 69 75 62 76
REMARK SMILES IDX 64 77 65 78 66 79 67 80 44 81 45 82 53 83 46 84 48 85 54 86
REMARK SMILES IDX 47 87 49 88 50 89 51 90 52 91
REMARK H PARENT 11 6 15 25 74 44 42 55
REMARK Flexibility Score: inf
ROOT
ATOM      1  C   UNL     1       1.677   6.515  -6.944  1.00  0.00     0.042 C 
ENDROOT
BRANCH   1   2
ATOM      2  C   UNL     1       0.234   6.296  -6.519  1.00  0.00     0.117 C 
BRANCH   2   3
ATOM      3  N   UNL     1      -0.683   6.308  -7.652  1.00  0.00    -0.356 N 
ATOM      4  C   UNL     1      -1.452   5.322  -8.187  1.00  0.00     0.223 C 
ATOM      5  O   UNL     1      -2.158   5.603  -9.159  1.00  0.00    -0.275 OA
ATOM      6  H   UNL     1      -0.760   7.178  -8.106  1.00  0.00     0.163 HD
BRANCH   4   7
ATOM      7  C   UNL     1      -1.486   3.923  -7.593  1.00  0.00     0.082 C 
ATOM      8  C   UNL     1       0.294   2.159  -4.506  1.00  0.00     0.320 C 
ATOM      9  O   UNL     1       1.355   2.764  -4.639  1.00  0.00    -0.248 OA
ATOM     10  N   UNL     1      -0.605   2.095  -5.554  1.00  0.00    -0.325 N 
ATOM     11  C   UNL     1      -0.093   1.925  -6.905  1.00  0.00     0.122 C 
ATOM     12  C   UNL     1      -1.959   2.618  -5.452  1.00  0.00     0.122 C 
ATOM     13  C   UNL     1      -0.126   3.221  -7.697  1.00  0.00     0.035 C 
ATOM     14  C   UNL     1      -2.110   3.942  -6.190  1.00  0.00     0.035 C 
BRANCH   8  15
ATOM     15  N   UNL     1      -0.037   1.455  -3.353  1.00  0.00    -0.324 N 
ATOM     16  C   UNL     1      -1.231   0.629  -3.215  1.00  0.00     0.149 C 
BRANCH  15  17
ATOM     17  C   UNL     1       0.858   1.462  -2.181  1.00  0.00     0.097 C 
ATOM     18  C   UNL     1       2.320   1.078  -2.435  1.00  0.00     0.037 C 
ATOM     19  C   UNL     1       0.895   2.787  -1.422  1.00  0.00     0.094 C 
ATOM     20  C   UNL     1       3.014   1.159  -1.083  1.00  0.00     0.072 C 
ATOM     21  S   UNL     1       2.263   2.587  -0.236  1.00  0.00    -0.160 SA
ENDBRANCH  15  17
ENDBRANCH   8  15
ENDBRANCH   4   7
ENDBRANCH   2   3
ENDBRANCH   1   2
BRANCH   1  22
ATOM     22  C   UNL     1       1.939   7.895  -7.525  1.00  0.00     0.118 C 
BRANCH  22  23
ATOM     23  N   UNL     1       1.709   8.965  -6.560  1.00  0.00    -0.352 N 
ATOM     24  C   UNL     1       2.594   9.865  -6.022  1.00  0.00     0.251 C 
ATOM     25  H   UNL     1       0.780   9.054  -6.247  1.00  0.00     0.163 HD
ATOM     26  O   UNL     1       2.250  10.567  -5.073  1.00  0.00    -0.269 OA
BRANCH  24  27
ATOM     27  C   UNL     1       3.960   9.978  -6.574  1.00  0.00     0.039 A 
ATOM     28  C   UNL     1       5.044  10.077  -5.698  1.00  0.00     0.014 A 
ATOM     29  C   UNL     1       4.171   9.976  -7.954  1.00  0.00     0.014 A 
ATOM     30  C   UNL     1       6.344  10.101  -6.210  1.00  0.00     0.010 A 
ATOM     31  C   UNL     1       5.464   9.899  -8.455  1.00  0.00     0.010 A 
ATOM     32  C   UNL     1       6.566   9.970  -7.590  1.00  0.00    -0.014 A 
BRANCH  32  33
ATOM     33  C   UNL     1       7.938   9.896  -8.156  1.00  0.00     0.031 A 
ATOM     34  C   UNL     1       8.401  10.927  -9.151  1.00  0.00     0.074 A 
ATOM     35  C   UNL     1       8.729   8.848  -7.851  1.00  0.00     0.049 A 
ATOM     36  N   UNL     1       9.525  10.985  -9.816  1.00  0.00    -0.248 NA
ATOM     37  C   UNL     1       7.465  12.020  -9.465  1.00  0.00     0.031 C 
ATOM     38  C   UNL     1       8.365   7.741  -6.963  1.00  0.00     0.029 A 
ATOM     39  N   UNL     1       9.993   8.525  -8.280  1.00  0.00    -0.354 N 
ATOM     40  C   UNL     1       9.416  12.089 -10.652  1.00  0.00     0.074 A 
ATOM     41  C   UNL     1       8.101  12.652 -10.440  1.00  0.00     0.031 C 
ATOM     42  C   UNL     1       9.382   6.867  -6.909  1.00  0.00     0.029 A 
ATOM     43  C   UNL     1      10.454   7.327  -7.785  1.00  0.00     0.049 A 
ATOM     44  H   UNL     1      10.519   9.098  -8.884  1.00  0.00     0.167 HD
ATOM     45  C   UNL     1      10.336  12.606 -11.501  1.00  0.00     0.034 A 
ATOM     46  C   UNL     1      11.604   6.666  -8.021  1.00  0.00     0.034 A 
ATOM     47  C   UNL     1      11.656  12.066 -11.679  1.00  0.00     0.049 A 
ATOM     48  C   UNL     1      12.624   7.281  -8.942  1.00  0.00     0.074 A 
ATOM     49  C   UNL     1      12.694  12.567 -12.445  1.00  0.00     0.029 A 
ATOM     50  N   UNL     1      12.119  10.898 -11.093  1.00  0.00    -0.354 N 
ATOM     51  N   UNL     1      12.562   8.410  -9.606  1.00  0.00    -0.248 NA
ATOM     52  C   UNL     1      13.886   6.549  -9.119  1.00  0.00     0.031 C 
ATOM     53  C   UNL     1      13.773  11.684 -12.349  1.00  0.00     0.029 A 
ATOM     54  C   UNL     1      13.423  10.655 -11.490  1.00  0.00     0.049 A 
ATOM     55  H   UNL     1      11.598  10.326 -10.485  1.00  0.00     0.167 HD
ATOM     56  C   UNL     1      13.789   8.544 -10.245  1.00  0.00     0.074 A 
ATOM     57  C   UNL     1      14.581   7.389  -9.874  1.00  0.00     0.031 C 
ATOM     58  C   UNL     1      14.218   9.529 -11.072  1.00  0.00     0.034 A 
BRANCH  45  59
ATOM     59  C   UNL     1       9.962  13.847 -12.271  1.00  0.00     0.023 A 
ATOM     60  C   UNL     1       9.819  15.075 -11.592  1.00  0.00     0.012 A 
ATOM     61  C   UNL     1       9.809  13.811 -13.671  1.00  0.00     0.148 A 
ATOM     62  C   UNL     1       9.492  16.238 -12.287  1.00  0.00     0.002 A 
ATOM     63  C   UNL     1       9.533  14.984 -14.363  1.00  0.00     0.091 A 
ATOM     64  F   UNL     1       9.929  12.632 -14.298  1.00  0.00    -0.205 F 
ATOM     65  C   UNL     1       9.360  16.195 -13.672  1.00  0.00     0.022 A 
BRANCH  63  66
ATOM     66  S   UNL     1       9.427  15.052 -16.155  1.00  0.00     0.127 S 
ATOM     67  O   UNL     1       8.001  15.305 -16.357  1.00  0.00    -0.237 OA
ATOM     68  O   UNL     1      10.297  16.185 -16.471  1.00  0.00    -0.237 OA
ATOM     69  O   UNL     1       9.906  13.764 -16.636  1.00  0.00    -0.744 OA
ENDBRANCH  63  66
ENDBRANCH  45  59
BRANCH  46  70
ATOM     70  C   UNL     1      11.878   5.374  -7.330  1.00  0.00     0.023 A 
ATOM     71  C   UNL     1      12.878   5.317  -6.339  1.00  0.00     0.012 A 
ATOM     72  C   UNL     1      11.144   4.211  -7.632  1.00  0.00     0.148 A 
ATOM     73  C   UNL     1      13.167   4.118  -5.688  1.00  0.00     0.002 A 
ATOM     74  C   UNL     1      11.400   3.032  -6.941  1.00  0.00     0.091 A 
ATOM     75  F   UNL     1      10.203   4.284  -8.584  1.00  0.00    -0.205 F 
ATOM     76  C   UNL     1      12.423   2.979  -5.982  1.00  0.00     0.022 A 
BRANCH  74  77
ATOM     77  S   UNL     1      10.411   1.549  -7.163  1.00  0.00     0.127 S 
ATOM     78  O   UNL     1      11.362   0.650  -7.812  1.00  0.00    -0.237 OA
ATOM     79  O   UNL     1      10.078   1.200  -5.781  1.00  0.00    -0.237 OA
ATOM     80  O   UNL     1       9.270   1.952  -7.973  1.00  0.00    -0.744 OA
ENDBRANCH  74  77
ENDBRANCH  46  70
BRANCH  58  81
ATOM     81  C   UNL     1      15.626   9.438 -11.600  1.00  0.00     0.023 A 
ATOM     82  C   UNL     1      15.957   8.474 -12.572  1.00  0.00     0.012 A 
ATOM     83  C   UNL     1      16.603  10.366 -11.186  1.00  0.00     0.148 A 
ATOM     84  C   UNL     1      17.246   8.413 -13.099  1.00  0.00     0.002 A 
ATOM     85  C   UNL     1      17.870  10.334 -11.755  1.00  0.00     0.091 A 
ATOM     86  F   UNL     1      16.273  11.266 -10.248  1.00  0.00    -0.205 F 
ATOM     87  C   UNL     1      18.198   9.349 -12.701  1.00  0.00     0.022 A 
BRANCH  85  88
ATOM     88  S   UNL     1      19.127  11.560 -11.379  1.00  0.00     0.127 S 
ATOM     89  O   UNL     1      20.090  10.774 -10.610  1.00  0.00    -0.237 OA
ATOM     90  O   UNL     1      19.585  11.951 -12.713  1.00  0.00    -0.237 OA
ATOM     91  O   UNL     1      18.451  12.617 -10.638  1.00  0.00    -0.744 OA
ENDBRANCH  85  88
ENDBRANCH  58  81
ENDBRANCH  32  33
ENDBRANCH  24  27
ENDBRANCH  22  23
ENDBRANCH   1  22
TORSDOF 15
