REMARK SMILES CCc1ccsc1CNC(=O)N1[C@H]2CC[C@@H]1[C@H](C(=O)NCCCNC(=O)c1ccc(-c3c4nc(c(-c5cccc(S(=O)(=O)[O-])c5F)c5ccc([nH]5)c(-c5cccc(S(=O)(=O)[O-])c5F)c5nc(c(-c6cccc(S(=O)(=O)[O-])c6F)c6ccc3[nH]6)C=C5)C=C4)cc1)C2
REMARK SMILES IDX 21 1 20 2 18 3 19 4 17 6 12 7 13 8 16 9 14 10 90 11 15 12
REMARK SMILES IDX 10 13 9 14 11 16 8 17 7 18 3 19 4 20 5 21 6 22 2 23 1 24
REMARK SMILES IDX 22 25 23 26 24 27 25 28 26 30 27 31 28 32 89 33 29 34 88 35
REMARK SMILES IDX 30 36 31 37 32 38 82 39 33 40 87 41 81 42 83 43 34 44 86 45
REMARK SMILES IDX 80 46 79 47 35 49 67 50 47 51 66 52 48 53 51 54 65 55 84 56
REMARK SMILES IDX 49 57 50 58 64 60 85 61 52 62 36 63 37 64 45 65 38 66 40 67
REMARK SMILES IDX 46 68 39 69 41 70 42 71 43 72 44 73 68 74 69 75 77 76 70 77
REMARK SMILES IDX 72 78 78 79 71 80 73 81 74 82 75 83 76 84 53 85 54 86 62 87
REMARK SMILES IDX 55 88 57 89 63 90 56 91 58 92 59 93 60 94 61 95
REMARK H PARENT 20 5 9 15 24 29 83 48 51 59
REMARK Flexibility Score: inf
ROOT
ATOM      1  C   UNL     1       7.609   2.122   5.193  1.00  0.00     0.117 C 
ENDROOT
BRANCH   1   2
ATOM      2  N   UNL     1       7.355   0.913   5.952  1.00  0.00    -0.356 N 
ATOM      3  C   UNL     1       6.303   0.068   6.042  1.00  0.00     0.225 C 
ATOM      4  O   UNL     1       6.407  -0.818   6.900  1.00  0.00    -0.275 OA
ATOM      5  H   UNL     1       8.111   0.652   6.526  1.00  0.00     0.163 HD
BRANCH   3   6
ATOM      6  C   UNL     1       5.042   0.124   5.202  1.00  0.00     0.103 C 
ATOM      7  N   UNL     1       2.961   0.860   4.661  1.00  0.00    -0.318 N 
ATOM      8  C   UNL     1       3.813   1.544   3.709  1.00  0.00     0.088 C 
ATOM      9  C   UNL     1       3.833   0.861   5.822  1.00  0.00     0.099 C 
ATOM     10  C   UNL     1       4.105   2.839   4.488  1.00  0.00     0.027 C 
ATOM     11  C   UNL     1       5.033   0.605   3.731  1.00  0.00     0.040 C 
ATOM     12  C   UNL     1       4.075   2.365   5.957  1.00  0.00     0.028 C 
BRANCH   7  13
ATOM     13  C   UNL     1       1.626   0.661   4.679  1.00  0.00     0.318 C 
ATOM     14  N   UNL     1       1.004   0.365   3.513  1.00  0.00    -0.333 N 
ATOM     15  H   UNL     1       0.034   0.534   3.482  1.00  0.00     0.165 HD
ATOM     16  O   UNL     1       0.962   0.686   5.712  1.00  0.00    -0.249 OA
BRANCH  14  17
ATOM     17  C   UNL     1       1.595  -0.170   2.309  1.00  0.00     0.165 C 
BRANCH  17  18
ATOM     18  C   UNL     1       1.145  -1.581   2.063  1.00  0.00     0.027 A 
ATOM     19  C   UNL     1       0.582  -2.187   0.942  1.00  0.00    -0.033 A 
ATOM     20  C   UNL     1       0.405  -3.602   1.177  1.00  0.00     0.016 A 
ATOM     21  C   UNL     1       0.842  -4.018   2.409  1.00  0.00     0.065 A 
ATOM     22  S   UNL     1       1.479  -2.733   3.312  1.00  0.00    -0.147 S 
BRANCH  19  23
ATOM     23  C   UNL     1       0.168  -1.603  -0.390  1.00  0.00     0.033 C 
ATOM     24  C   UNL     1       0.631  -0.208  -0.755  1.00  0.00     0.009 C 
ENDBRANCH  19  23
ENDBRANCH  17  18
ENDBRANCH  14  17
ENDBRANCH   7  13
ENDBRANCH   3   6
ENDBRANCH   1   2
BRANCH   1  25
ATOM     25  C   UNL     1       7.595   3.357   6.078  1.00  0.00     0.042 C 
BRANCH  25  26
ATOM     26  C   UNL     1       8.925   3.613   6.756  1.00  0.00     0.118 C 
BRANCH  26  27
ATOM     27  N   UNL     1       9.906   4.171   5.838  1.00  0.00    -0.352 N 
ATOM     28  C   UNL     1      10.488   5.416   5.820  1.00  0.00     0.251 C 
ATOM     29  H   UNL     1      10.198   3.564   5.120  1.00  0.00     0.163 HD
ATOM     30  O   UNL     1      11.129   5.760   4.829  1.00  0.00    -0.269 OA
BRANCH  28  31
ATOM     31  C   UNL     1      10.339   6.343   6.968  1.00  0.00     0.039 A 
ATOM     32  C   UNL     1      10.245   7.716   6.725  1.00  0.00     0.014 A 
ATOM     33  C   UNL     1      10.326   5.873   8.283  1.00  0.00     0.014 A 
ATOM     34  C   UNL     1      10.099   8.605   7.795  1.00  0.00     0.010 A 
ATOM     35  C   UNL     1      10.057   6.742   9.333  1.00  0.00     0.010 A 
ATOM     36  C   UNL     1       9.983   8.122   9.108  1.00  0.00    -0.014 A 
BRANCH  36  37
ATOM     37  C   UNL     1       9.854   9.037  10.271  1.00  0.00     0.031 A 
ATOM     38  C   UNL     1      10.905   9.023  11.353  1.00  0.00     0.074 A 
ATOM     39  C   UNL     1       8.762   9.816  10.400  1.00  0.00     0.049 A 
ATOM     40  N   UNL     1      10.942   9.689  12.477  1.00  0.00    -0.248 NA
ATOM     41  C   UNL     1      12.046   8.108  11.167  1.00  0.00     0.031 C 
ATOM     42  C   UNL     1       7.630   9.851   9.471  1.00  0.00     0.029 A 
ATOM     43  N   UNL     1       8.416  10.714  11.377  1.00  0.00    -0.354 N 
ATOM     44  C   UNL     1      12.071   9.235  13.150  1.00  0.00     0.074 A 
ATOM     45  C   UNL     1      12.668   8.205  12.332  1.00  0.00     0.031 C 
ATOM     46  C   UNL     1       6.725  10.739   9.914  1.00  0.00     0.029 A 
ATOM     47  C   UNL     1       7.199  11.320  11.165  1.00  0.00     0.049 A 
ATOM     48  H   UNL     1       8.984  10.906  12.158  1.00  0.00     0.167 HD
ATOM     49  C   UNL     1      12.595   9.666  14.322  1.00  0.00     0.034 A 
ATOM     50  C   UNL     1       6.548  12.248  11.894  1.00  0.00     0.034 A 
ATOM     51  C   UNL     1      12.052  10.754  15.085  1.00  0.00     0.049 A 
ATOM     52  C   UNL     1       7.201  12.785  13.139  1.00  0.00     0.074 A 
ATOM     53  C   UNL     1      12.561  11.344  16.228  1.00  0.00     0.029 A 
ATOM     54  N   UNL     1      10.882  11.428  14.771  1.00  0.00    -0.354 N 
ATOM     55  N   UNL     1       8.352  12.455  13.675  1.00  0.00    -0.248 NA
ATOM     56  C   UNL     1       6.488  13.850  13.859  1.00  0.00     0.031 C 
ATOM     57  C   UNL     1      11.698  12.379  16.603  1.00  0.00     0.029 A 
ATOM     58  C   UNL     1      10.655  12.434  15.692  1.00  0.00     0.049 A 
ATOM     59  H   UNL     1      10.299  11.220  14.005  1.00  0.00     0.167 HD
ATOM     60  C   UNL     1       8.518  13.293  14.770  1.00  0.00     0.074 A 
ATOM     61  C   UNL     1       7.358  14.161  14.811  1.00  0.00     0.031 C 
ATOM     62  C   UNL     1       9.528  13.331  15.673  1.00  0.00     0.034 A 
BRANCH  49  63
ATOM     63  C   UNL     1      13.866   9.014  14.800  1.00  0.00     0.023 A 
ATOM     64  C   UNL     1      15.075   9.284  14.126  1.00  0.00     0.012 A 
ATOM     65  C   UNL     1      13.879   8.172  15.928  1.00  0.00     0.148 A 
ATOM     66  C   UNL     1      16.269   8.696  14.541  1.00  0.00     0.002 A 
ATOM     67  C   UNL     1      15.081   7.623  16.362  1.00  0.00     0.091 A 
ATOM     68  F   UNL     1      12.717   7.904  16.542  1.00  0.00    -0.205 F 
ATOM     69  C   UNL     1      16.273   7.874  15.664  1.00  0.00     0.022 A 
BRANCH  67  70
ATOM     70  S   UNL     1      15.200   6.612  17.843  1.00  0.00     0.127 S 
ATOM     71  O   UNL     1      15.331   5.271  17.276  1.00  0.00    -0.237 OA
ATOM     72  O   UNL     1      16.416   7.128  18.475  1.00  0.00    -0.237 OA
ATOM     73  O   UNL     1      13.978   6.863  18.594  1.00  0.00    -0.744 OA
ENDBRANCH  67  70
ENDBRANCH  49  63
BRANCH  50  74
ATOM     74  C   UNL     1       5.259  12.807  11.398  1.00  0.00     0.023 A 
ATOM     75  C   UNL     1       5.234  14.121  10.889  1.00  0.00     0.012 A 
ATOM     76  C   UNL     1       4.077  12.043  11.382  1.00  0.00     0.148 A 
ATOM     77  C   UNL     1       4.051  14.673  10.397  1.00  0.00     0.002 A 
ATOM     78  C   UNL     1       2.913  12.582  10.843  1.00  0.00     0.091 A 
ATOM     79  F   UNL     1       4.115  10.801  11.883  1.00  0.00    -0.205 F 
ATOM     80  C   UNL     1       2.894  13.901  10.363  1.00  0.00     0.022 A 
BRANCH  78  81
ATOM     81  S   UNL     1       1.413  11.612  10.639  1.00  0.00     0.127 S 
ATOM     82  O   UNL     1       0.578  12.120  11.722  1.00  0.00    -0.237 OA
ATOM     83  O   UNL     1       0.981  11.996   9.294  1.00  0.00    -0.237 OA
ATOM     84  O   UNL     1       1.835  10.222  10.754  1.00  0.00    -0.744 OA
ENDBRANCH  78  81
ENDBRANCH  50  74
BRANCH  62  85
ATOM     85  C   UNL     1       9.450  14.359  16.768  1.00  0.00     0.023 A 
ATOM     86  C   UNL     1       8.563  14.160  17.844  1.00  0.00     0.012 A 
ATOM     87  C   UNL     1      10.316  15.470  16.777  1.00  0.00     0.148 A 
ATOM     88  C   UNL     1       8.523  15.066  18.903  1.00  0.00     0.002 A 
ATOM     89  C   UNL     1      10.300  16.345  17.857  1.00  0.00     0.091 A 
ATOM     90  F   UNL     1      11.137  15.651  15.733  1.00  0.00    -0.205 F 
ATOM     91  C   UNL     1       9.399  16.149  18.916  1.00  0.00     0.022 A 
BRANCH  89  92
ATOM     92  S   UNL     1      11.458  17.711  17.995  1.00  0.00     0.127 S 
ATOM     93  O   UNL     1      10.624  18.849  17.614  1.00  0.00    -0.237 OA
ATOM     94  O   UNL     1      11.825  17.671  19.411  1.00  0.00    -0.237 OA
ATOM     95  O   UNL     1      12.551  17.397  17.084  1.00  0.00    -0.744 OA
ENDBRANCH  89  92
ENDBRANCH  62  85
ENDBRANCH  36  37
ENDBRANCH  28  31
ENDBRANCH  26  27
ENDBRANCH  25  26
ENDBRANCH   1  25
TORSDOF 17
