REMARK SMILES CC[C@H](C)[C@H](NC(=O)N1CCc2cc(OC)c(OC)cc2[C@@H]1c1ccc(F)cc1)C(=O)NCCCNC(=O)c1ccc(-c2c3nc(c(-c4cccc(S(=O)(=O)[O-])c4F)c4ccc([nH]4)c(-c4cccc(S(=O)(=O)[O-])c4F)c4nc(c(-c5cccc(S(=O)(=O)[O-])c5F)c5ccc2[nH]5)C=C4)C=C3)cc1
REMARK SMILES IDX 34 1 33 2 32 3 30 4 31 5 5 7 3 8 4 9 2 10 1 11 6 12 7 13
REMARK SMILES IDX 8 15 9 16 10 17 22 18 11 19 21 20 12 21 20 22 13 23 17 24
REMARK SMILES IDX 14 25 23 26 24 27 29 28 25 29 28 30 26 31 27 32 18 33 19 34
REMARK SMILES IDX 15 35 16 36 35 37 36 38 37 39 38 41 39 42 40 43 101 44 41 45
REMARK SMILES IDX 100 46 42 47 43 48 44 49 94 50 45 51 99 52 93 53 95 54 46 55
REMARK SMILES IDX 98 56 92 57 91 58 47 60 79 61 59 62 78 63 60 64 63 65 77 66
REMARK SMILES IDX 96 67 61 68 62 69 76 71 97 72 64 73 48 74 49 75 57 76 50 77
REMARK SMILES IDX 52 78 58 79 51 80 53 81 54 82 55 83 56 84 80 85 81 86 89 87
REMARK SMILES IDX 82 88 84 89 90 90 83 91 85 92 86 93 87 94 88 95 65 96 66 97
REMARK SMILES IDX 74 98 67 99 69 100 75 101 68 102 70 103 71 104 72 105 73 106
REMARK H PARENT 32 6 6 14 36 40 95 59 63 70
REMARK Flexibility Score: inf
ROOT
ATOM      1  C   UNL     1       4.786  -3.088  -2.261  1.00  0.00     0.042 C 
ENDROOT
BRANCH   1   2
ATOM      2  C   UNL     1       4.176  -2.688  -3.599  1.00  0.00     0.117 C 
BRANCH   2   3
ATOM      3  N   UNL     1       3.208  -3.628  -4.129  1.00  0.00    -0.354 N 
ATOM      4  C   UNL     1       1.851  -3.651  -4.004  1.00  0.00     0.242 C 
ATOM      5  O   UNL     1       1.248  -4.573  -4.564  1.00  0.00    -0.273 OA
ATOM      6  H   UNL     1       3.590  -4.363  -4.662  1.00  0.00     0.163 HD
BRANCH   4   7
ATOM      7  C   UNL     1       1.082  -2.556  -3.237  1.00  0.00     0.176 C 
BRANCH   7   8
ATOM      8  C   UNL     1       1.058  -1.208  -4.078  1.00  0.00     0.018 C 
ATOM      9  C   UNL     1       1.746   0.008  -3.424  1.00  0.00     0.010 C 
BRANCH   8  10
ATOM     10  C   UNL     1       1.532  -1.303  -5.562  1.00  0.00     0.002 C 
ATOM     11  C   UNL     1       0.741  -2.252  -6.457  1.00  0.00     0.004 C 
ENDBRANCH   8  10
ENDBRANCH   7   8
BRANCH   7  12
ATOM     12  N   UNL     1       1.388  -2.404  -1.778  1.00  0.00    -0.326 N 
ATOM     13  C   UNL     1       1.008  -3.164  -0.698  1.00  0.00     0.318 C 
ATOM     14  H   UNL     1       1.956  -1.631  -1.556  1.00  0.00     0.166 HD
ATOM     15  O   UNL     1       0.602  -2.554   0.291  1.00  0.00    -0.249 OA
BRANCH  13  16
ATOM     16  N   UNL     1       1.060  -4.532  -0.741  1.00  0.00    -0.313 N 
ATOM     17  C   UNL     1       2.064  -5.245  -1.487  1.00  0.00     0.127 C 
ATOM     18  C   UNL     1       0.295  -5.393   0.228  1.00  0.00     0.148 C 
ATOM     19  C   UNL     1       1.446  -6.448  -2.178  1.00  0.00     0.057 C 
ATOM     20  C   UNL     1       0.824  -6.866   0.195  1.00  0.00    -0.014 A 
ATOM     21  C   UNL     1       1.232  -7.403  -1.044  1.00  0.00    -0.037 A 
ATOM     22  C   UNL     1       0.984  -7.675   1.333  1.00  0.00     0.057 A 
ATOM     23  C   UNL     1       1.651  -8.723  -1.168  1.00  0.00     0.054 A 
ATOM     24  C   UNL     1       1.496  -8.994   1.227  1.00  0.00     0.161 A 
ATOM     25  C   UNL     1       1.794  -9.529  -0.042  1.00  0.00     0.161 A 
BRANCH  18  26
ATOM     26  C   UNL     1      -1.222  -5.372  -0.078  1.00  0.00    -0.021 A 
ATOM     27  C   UNL     1      -2.123  -6.090   0.730  1.00  0.00     0.009 A 
ATOM     28  C   UNL     1      -1.758  -4.666  -1.174  1.00  0.00     0.009 A 
ATOM     29  C   UNL     1      -3.491  -6.115   0.433  1.00  0.00     0.039 A 
ATOM     30  C   UNL     1      -3.124  -4.668  -1.457  1.00  0.00     0.039 A 
ATOM     31  C   UNL     1      -3.978  -5.402  -0.654  1.00  0.00     0.123 A 
ATOM     32  F   UNL     1      -5.287  -5.429  -0.938  1.00  0.00    -0.207 F 
ENDBRANCH  18  26
BRANCH  24  33
ATOM     33  O   UNL     1       1.704  -9.803   2.312  1.00  0.00    -0.493 OA
ATOM     34  C   UNL     1       1.797  -9.198   3.594  1.00  0.00     0.278 C 
ENDBRANCH  24  33
BRANCH  25  35
ATOM     35  O   UNL     1       2.275 -10.763  -0.388  1.00  0.00    -0.493 OA
ATOM     36  C   UNL     1       2.600 -11.700   0.624  1.00  0.00     0.278 C 
ENDBRANCH  25  35
ENDBRANCH  13  16
ENDBRANCH   7  12
ENDBRANCH   4   7
ENDBRANCH   2   3
ENDBRANCH   1   2
BRANCH   1  37
ATOM     37  C   UNL     1       5.386  -4.487  -2.236  1.00  0.00     0.118 C 
BRANCH  37  38
ATOM     38  N   UNL     1       6.373  -4.688  -3.282  1.00  0.00    -0.352 N 
ATOM     39  C   UNL     1       7.718  -4.899  -3.184  1.00  0.00     0.251 C 
ATOM     40  H   UNL     1       6.018  -4.669  -4.200  1.00  0.00     0.163 HD
ATOM     41  O   UNL     1       8.413  -4.831  -4.201  1.00  0.00    -0.269 OA
BRANCH  39  42
ATOM     42  C   UNL     1       8.338  -5.185  -1.877  1.00  0.00     0.039 A 
ATOM     43  C   UNL     1       9.553  -4.572  -1.567  1.00  0.00     0.014 A 
ATOM     44  C   UNL     1       7.744  -6.068  -0.969  1.00  0.00     0.014 A 
ATOM     45  C   UNL     1      10.153  -4.816  -0.332  1.00  0.00     0.010 A 
ATOM     46  C   UNL     1       8.296  -6.236   0.297  1.00  0.00     0.010 A 
ATOM     47  C   UNL     1       9.517  -5.630   0.620  1.00  0.00    -0.014 A 
BRANCH  47  48
ATOM     48  C   UNL     1      10.132  -5.858   1.951  1.00  0.00     0.031 A 
ATOM     49  C   UNL     1      10.543  -7.242   2.374  1.00  0.00     0.074 A 
ATOM     50  C   UNL     1      10.276  -4.821   2.800  1.00  0.00     0.049 A 
ATOM     51  N   UNL     1      11.101  -7.625   3.492  1.00  0.00    -0.248 NA
ATOM     52  C   UNL     1      10.272  -8.343   1.434  1.00  0.00     0.031 C 
ATOM     53  C   UNL     1       9.842  -3.448   2.533  1.00  0.00     0.029 A 
ATOM     54  N   UNL     1      10.816  -4.760   4.060  1.00  0.00    -0.354 N 
ATOM     55  C   UNL     1      11.217  -9.007   3.405  1.00  0.00     0.074 A 
ATOM     56  C   UNL     1      10.637  -9.402   2.141  1.00  0.00     0.031 C 
ATOM     57  C   UNL     1      10.152  -2.677   3.586  1.00  0.00     0.029 A 
ATOM     58  C   UNL     1      10.775  -3.503   4.616  1.00  0.00     0.049 A 
ATOM     59  H   UNL     1      11.195  -5.542   4.522  1.00  0.00     0.167 HD
ATOM     60  C   UNL     1      11.784  -9.865   4.284  1.00  0.00     0.034 A 
ATOM     61  C   UNL     1      11.190  -3.062   5.820  1.00  0.00     0.034 A 
ATOM     62  C   UNL     1      12.402  -9.458   5.516  1.00  0.00     0.049 A 
ATOM     63  C   UNL     1      11.854  -4.027   6.763  1.00  0.00     0.074 A 
ATOM     64  C   UNL     1      13.093 -10.239   6.425  1.00  0.00     0.029 A 
ATOM     65  N   UNL     1      12.396  -8.166   6.019  1.00  0.00    -0.354 N 
ATOM     66  N   UNL     1      12.097  -5.304   6.594  1.00  0.00    -0.248 NA
ATOM     67  C   UNL     1      12.331  -3.489   8.045  1.00  0.00     0.031 C 
ATOM     68  C   UNL     1      13.470  -9.427   7.497  1.00  0.00     0.029 A 
ATOM     69  C   UNL     1      13.052  -8.131   7.236  1.00  0.00     0.049 A 
ATOM     70  H   UNL     1      11.985  -7.389   5.575  1.00  0.00     0.167 HD
ATOM     71  C   UNL     1      12.779  -5.718   7.732  1.00  0.00     0.074 A 
ATOM     72  C   UNL     1      12.925  -4.550   8.578  1.00  0.00     0.031 C 
ATOM     73  C   UNL     1      13.231  -6.955   8.050  1.00  0.00     0.034 A 
BRANCH  60  74
ATOM     74  C   UNL     1      11.812 -11.329   3.929  1.00  0.00     0.023 A 
ATOM     75  C   UNL     1      12.657 -11.781   2.895  1.00  0.00     0.012 A 
ATOM     76  C   UNL     1      11.073 -12.267   4.677  1.00  0.00     0.148 A 
ATOM     77  C   UNL     1      12.745 -13.139   2.591  1.00  0.00     0.002 A 
ATOM     78  C   UNL     1      11.205 -13.623   4.402  1.00  0.00     0.091 A 
ATOM     79  F   UNL     1      10.258 -11.816   5.641  1.00  0.00    -0.205 F 
ATOM     80  C   UNL     1      12.030 -14.059   3.353  1.00  0.00     0.022 A 
BRANCH  78  81
ATOM     81  S   UNL     1      10.399 -14.893   5.383  1.00  0.00     0.127 S 
ATOM     82  O   UNL     1       9.416 -15.418   4.436  1.00  0.00    -0.237 OA
ATOM     83  O   UNL     1      11.507 -15.802   5.678  1.00  0.00    -0.237 OA
ATOM     84  O   UNL     1       9.843 -14.214   6.545  1.00  0.00    -0.744 OA
ENDBRANCH  78  81
ENDBRANCH  60  74
BRANCH  61  85
ATOM     85  C   UNL     1      11.049  -1.617   6.153  1.00  0.00     0.023 A 
ATOM     86  C   UNL     1      12.194  -0.799   6.189  1.00  0.00     0.012 A 
ATOM     87  C   UNL     1       9.780  -1.034   6.341  1.00  0.00     0.148 A 
ATOM     88  C   UNL     1      12.081   0.573   6.418  1.00  0.00     0.002 A 
ATOM     89  C   UNL     1       9.669   0.341   6.510  1.00  0.00     0.091 A 
ATOM     90  F   UNL     1       8.705  -1.833   6.308  1.00  0.00    -0.205 F 
ATOM     91  C   UNL     1      10.819   1.145   6.564  1.00  0.00     0.022 A 
BRANCH  89  92
ATOM     92  S   UNL     1       8.084   1.185   6.555  1.00  0.00     0.127 S 
ATOM     93  O   UNL     1       8.074   1.728   7.912  1.00  0.00    -0.237 OA
ATOM     94  O   UNL     1       8.246   2.179   5.493  1.00  0.00    -0.237 OA
ATOM     95  O   UNL     1       7.083   0.164   6.280  1.00  0.00    -0.744 OA
ENDBRANCH  89  92
ENDBRANCH  61  85
BRANCH  73  96
ATOM     96  C   UNL     1      13.951  -7.137   9.360  1.00  0.00     0.023 A 
ATOM     97  C   UNL     1      13.223  -7.128  10.565  1.00  0.00     0.012 A 
ATOM     98  C   UNL     1      15.324  -7.455   9.382  1.00  0.00     0.148 A 
ATOM     99  C   UNL     1      13.853  -7.420  11.775  1.00  0.00     0.002 A 
ATOM    100  C   UNL     1      15.933  -7.797  10.583  1.00  0.00     0.091 A 
ATOM    101  F   UNL     1      16.001  -7.444   8.224  1.00  0.00    -0.205 F 
ATOM    102  C   UNL     1      15.202  -7.769  11.782  1.00  0.00     0.022 A 
BRANCH 100 103
ATOM    103  S   UNL     1      17.634  -8.368  10.677  1.00  0.00     0.127 S 
ATOM    104  O   UNL     1      18.277  -7.270  11.398  1.00  0.00    -0.237 OA
ATOM    105  O   UNL     1      17.501  -9.606  11.444  1.00  0.00    -0.237 OA
ATOM    106  O   UNL     1      18.077  -8.550   9.301  1.00  0.00    -0.744 OA
ENDBRANCH 100 103
ENDBRANCH  73  96
ENDBRANCH  47  48
ENDBRANCH  39  42
ENDBRANCH  37  38
ENDBRANCH   1  37
TORSDOF 20
