REMARK SMILES CC[C@@](C)([NH3+])C(=O)N1CC[NH+]([C@H](C)C(=O)NCCCNC(=O)c2ccc(-c3c4nc(c(-c5cccc(S(=O)(=O)[O-])c5F)c5ccc([nH]5)c(-c5cccc(S(=O)(=O)[O-])c5F)c5nc(c(-c6cccc(S(=O)(=O)[O-])c6F)c6ccc3[nH]6)C=C5)C=C4)cc2)CC1
REMARK SMILES IDX 18 1 17 2 16 3 14 4 15 5 12 7 13 8 11 9 6 10 7 11 8 12 9 13
REMARK SMILES IDX 87 14 10 15 86 16 3 18 4 19 2 20 1 21 5 22 19 26 20 27 21 28
REMARK SMILES IDX 22 30 23 31 24 32 85 33 25 34 84 35 26 36 27 37 28 38 78 39
REMARK SMILES IDX 29 40 83 41 77 42 79 43 30 44 82 45 76 46 75 47 31 49 63 50
REMARK SMILES IDX 43 51 62 52 44 53 47 54 61 55 80 56 45 57 46 58 60 60 81 61
REMARK SMILES IDX 48 62 32 63 33 64 41 65 34 66 36 67 42 68 35 69 37 70 38 71
REMARK SMILES IDX 39 72 40 73 64 74 65 75 73 76 66 77 68 78 74 79 67 80 69 81
REMARK SMILES IDX 70 82 71 83 72 84 49 85 50 86 58 87 51 88 53 89 59 90 52 91
REMARK SMILES IDX 54 92 55 93 56 94 57 95
REMARK H PARENT 16 6 11 17 5 23 5 24 5 25 20 29 79 48 47 59
REMARK Flexibility Score: inf
ROOT
ATOM      1  C   UNL     1       5.461   4.660   2.450  1.00  0.00     0.042 C 
ENDROOT
BRANCH   1   2
ATOM      2  C   UNL     1       5.706   3.418   3.286  1.00  0.00     0.118 C 
BRANCH   2   3
ATOM      3  N   UNL     1       6.264   3.683   4.601  1.00  0.00    -0.351 N 
ATOM      4  C   UNL     1       6.047   3.072   5.803  1.00  0.00     0.278 C 
ATOM      5  O   UNL     1       6.837   3.351   6.713  1.00  0.00    -0.268 OA
ATOM      6  H   UNL     1       6.906   4.429   4.631  1.00  0.00     0.163 HD
BRANCH   4   7
ATOM      7  C   UNL     1       4.873   2.092   6.051  1.00  0.00     0.271 C 
ATOM      8  C   UNL     1       3.519   2.661   5.606  1.00  0.00     0.086 C 
BRANCH   7   9
ATOM      9  N   UNL     1       5.190   0.672   5.705  1.00  0.00    -0.322 N 
ATOM     10  C   UNL     1       4.068  -2.126   2.939  1.00  0.00     0.283 C 
ATOM     11  O   UNL     1       4.774  -2.464   1.979  1.00  0.00    -0.268 OA
ATOM     12  N   UNL     1       4.696  -1.694   4.098  1.00  0.00    -0.326 N 
ATOM     13  C   UNL     1       5.974  -1.007   3.970  1.00  0.00     0.181 C 
ATOM     14  C   UNL     1       4.215  -1.673   5.475  1.00  0.00     0.181 C 
ATOM     15  C   UNL     1       5.748   0.468   4.354  1.00  0.00     0.284 C 
ATOM     16  C   UNL     1       4.043  -0.227   5.983  1.00  0.00     0.284 C 
ATOM     17  H   UNL     1       5.953   0.413   6.330  1.00  0.00     0.348 HD
BRANCH  10  18
ATOM     18  C   UNL     1       2.508  -1.983   2.744  1.00  0.00     0.171 C 
ATOM     19  C   UNL     1       2.143  -0.492   2.664  1.00  0.00     0.090 C 
BRANCH  18  20
ATOM     20  C   UNL     1       2.058  -2.720   1.445  1.00  0.00     0.075 C 
ATOM     21  C   UNL     1       2.407  -2.038   0.122  1.00  0.00     0.011 C 
ENDBRANCH  18  20
BRANCH  18  22
ATOM     22  N   UNL     1       1.756  -2.608   3.864  1.00  0.00    -0.345 N 
ATOM     23  H   UNL     1       0.754  -2.497   3.705  1.00  0.00     0.345 HD
ATOM     24  H   UNL     1       2.013  -2.155   4.741  1.00  0.00     0.345 HD
ATOM     25  H   UNL     1       1.984  -3.600   3.915  1.00  0.00     0.345 HD
ENDBRANCH  18  22
ENDBRANCH  10  18
ENDBRANCH   7   9
ENDBRANCH   4   7
ENDBRANCH   2   3
ENDBRANCH   1   2
BRANCH   1  26
ATOM     26  C   UNL     1       6.720   5.449   2.126  1.00  0.00     0.118 C 
BRANCH  26  27
ATOM     27  N   UNL     1       7.689   4.701   1.331  1.00  0.00    -0.352 N 
ATOM     28  C   UNL     1       7.999   4.746  -0.012  1.00  0.00     0.251 C 
ATOM     29  H   UNL     1       8.216   4.047   1.845  1.00  0.00     0.163 HD
ATOM     30  O   UNL     1       8.759   3.910  -0.482  1.00  0.00    -0.269 OA
BRANCH  28  31
ATOM     31  C   UNL     1       7.388   5.768  -0.892  1.00  0.00     0.039 A 
ATOM     32  C   UNL     1       6.941   5.392  -2.163  1.00  0.00     0.014 A 
ATOM     33  C   UNL     1       7.242   7.088  -0.471  1.00  0.00     0.014 A 
ATOM     34  C   UNL     1       6.242   6.310  -2.953  1.00  0.00     0.010 A 
ATOM     35  C   UNL     1       6.446   7.962  -1.203  1.00  0.00     0.010 A 
ATOM     36  C   UNL     1       5.927   7.582  -2.448  1.00  0.00    -0.014 A 
BRANCH  36  37
ATOM     37  C   UNL     1       5.021   8.515  -3.169  1.00  0.00     0.031 A 
ATOM     38  C   UNL     1       5.484   9.902  -3.531  1.00  0.00     0.074 A 
ATOM     39  C   UNL     1       3.735   8.162  -3.374  1.00  0.00     0.049 A 
ATOM     40  N   UNL     1       4.800  10.893  -4.039  1.00  0.00    -0.248 NA
ATOM     41  C   UNL     1       6.892  10.231  -3.248  1.00  0.00     0.031 C 
ATOM     42  C   UNL     1       3.134   6.884  -2.982  1.00  0.00     0.029 A 
ATOM     43  N   UNL     1       2.689   8.858  -3.930  1.00  0.00    -0.354 N 
ATOM     44  C   UNL     1       5.674  11.972  -4.091  1.00  0.00     0.074 A 
ATOM     45  C   UNL     1       6.930  11.525  -3.530  1.00  0.00     0.031 C 
ATOM     46  C   UNL     1       1.834   6.885  -3.315  1.00  0.00     0.029 A 
ATOM     47  C   UNL     1       1.496   8.174  -3.908  1.00  0.00     0.049 A 
ATOM     48  H   UNL     1       2.785   9.762  -4.309  1.00  0.00     0.167 HD
ATOM     49  C   UNL     1       5.464  13.213  -4.592  1.00  0.00     0.034 A 
ATOM     50  C   UNL     1       0.263   8.543  -4.307  1.00  0.00     0.034 A 
ATOM     51  C   UNL     1       4.236  13.633  -5.210  1.00  0.00     0.049 A 
ATOM     52  C   UNL     1       0.070   9.908  -4.910  1.00  0.00     0.074 A 
ATOM     53  C   UNL     1       3.962  14.827  -5.853  1.00  0.00     0.029 A 
ATOM     54  N   UNL     1       3.076  12.876  -5.259  1.00  0.00    -0.354 N 
ATOM     55  N   UNL     1       0.957  10.853  -5.109  1.00  0.00    -0.248 NA
ATOM     56  C   UNL     1      -1.283  10.246  -5.372  1.00  0.00     0.031 C 
ATOM     57  C   UNL     1       2.629  14.798  -6.276  1.00  0.00     0.029 A 
ATOM     58  C   UNL     1       2.078  13.580  -5.910  1.00  0.00     0.049 A 
ATOM     59  H   UNL     1       2.977  11.970  -4.887  1.00  0.00     0.167 HD
ATOM     60  C   UNL     1       0.276  11.887  -5.739  1.00  0.00     0.074 A 
ATOM     61  C   UNL     1      -1.091  11.441  -5.916  1.00  0.00     0.031 C 
ATOM     62  C   UNL     1       0.735  13.105  -6.119  1.00  0.00     0.034 A 
BRANCH  49  63
ATOM     63  C   UNL     1       6.614  14.186  -4.558  1.00  0.00     0.023 A 
ATOM     64  C   UNL     1       7.712  13.991  -5.421  1.00  0.00     0.012 A 
ATOM     65  C   UNL     1       6.588  15.317  -3.719  1.00  0.00     0.148 A 
ATOM     66  C   UNL     1       8.780  14.886  -5.427  1.00  0.00     0.002 A 
ATOM     67  C   UNL     1       7.637  16.228  -3.761  1.00  0.00     0.091 A 
ATOM     68  F   UNL     1       5.547  15.474  -2.889  1.00  0.00    -0.205 F 
ATOM     69  C   UNL     1       8.738  16.009  -4.606  1.00  0.00     0.022 A 
BRANCH  67  70
ATOM     70  S   UNL     1       7.643  17.745  -2.798  1.00  0.00     0.127 S 
ATOM     71  O   UNL     1       8.654  17.447  -1.785  1.00  0.00    -0.237 OA
ATOM     72  O   UNL     1       8.050  18.740  -3.791  1.00  0.00    -0.237 OA
ATOM     73  O   UNL     1       6.284  17.907  -2.299  1.00  0.00    -0.744 OA
ENDBRANCH  67  70
ENDBRANCH  49  63
BRANCH  50  74
ATOM     74  C   UNL     1      -0.870   7.579  -4.210  1.00  0.00     0.023 A 
ATOM     75  C   UNL     1      -1.398   7.020  -5.390  1.00  0.00     0.012 A 
ATOM     76  C   UNL     1      -1.398   7.181  -2.966  1.00  0.00     0.148 A 
ATOM     77  C   UNL     1      -2.449   6.104  -5.336  1.00  0.00     0.002 A 
ATOM     78  C   UNL     1      -2.407   6.224  -2.916  1.00  0.00     0.091 A 
ATOM     79  F   UNL     1      -0.892   7.733  -1.854  1.00  0.00    -0.205 F 
ATOM     80  C   UNL     1      -2.945   5.697  -4.100  1.00  0.00     0.022 A 
BRANCH  78  81
ATOM     81  S   UNL     1      -3.005   5.542  -1.365  1.00  0.00     0.127 S 
ATOM     82  O   UNL     1      -4.319   6.168  -1.248  1.00  0.00    -0.237 OA
ATOM     83  O   UNL     1      -3.029   4.106  -1.652  1.00  0.00    -0.237 OA
ATOM     84  O   UNL     1      -2.022   5.930  -0.362  1.00  0.00    -0.744 OA
ENDBRANCH  78  81
ENDBRANCH  50  74
BRANCH  62  85
ATOM     85  C   UNL     1      -0.242  14.044  -6.774  1.00  0.00     0.023 A 
ATOM     86  C   UNL     1      -1.227  14.678  -5.991  1.00  0.00     0.012 A 
ATOM     87  C   UNL     1      -0.138  14.359  -8.143  1.00  0.00     0.148 A 
ATOM     88  C   UNL     1      -2.111  15.590  -6.565  1.00  0.00     0.002 A 
ATOM     89  C   UNL     1      -0.993  15.303  -8.699  1.00  0.00     0.091 A 
ATOM     90  F   UNL     1       0.794  13.731  -8.875  1.00  0.00    -0.205 F 
ATOM     91  C   UNL     1      -1.986  15.911  -7.915  1.00  0.00     0.022 A 
BRANCH  89  92
ATOM     92  S   UNL     1      -0.848  15.848 -10.405  1.00  0.00     0.127 S 
ATOM     93  O   UNL     1      -2.017  15.220 -11.018  1.00  0.00    -0.237 OA
ATOM     94  O   UNL     1      -0.934  17.303 -10.275  1.00  0.00    -0.237 OA
ATOM     95  O   UNL     1       0.443  15.360 -10.873  1.00  0.00    -0.744 OA
ENDBRANCH  89  92
ENDBRANCH  62  85
ENDBRANCH  36  37
ENDBRANCH  28  31
ENDBRANCH  26  27
ENDBRANCH   1  26
TORSDOF 17
