REMARK SMILES Cc1cc(N2N=C(C(=O)NCCCNC(=O)c3ccc(-c4c5nc(c(-c6cccc(S(=O)(=O)[O-])c6F)c6ccc([nH]6)c(-c6cccc(S(=O)(=O)[O-])c6F)c6nc(c(-c7cccc(S(=O)(=O)[O-])c7F)c7ccc4[nH]7)C=C6)C=C5)cc3)C[C@H]2c2ccccc2)c([N+](=O)[O-])cc1C
REMARK SMILES IDX 12 1 11 2 10 3 8 4 9 5 7 7 5 8 6 9 81 10 80 11 4 12 1 13
REMARK SMILES IDX 2 14 3 15 93 16 92 17 94 18 88 19 89 20 90 21 91 22 82 23
REMARK SMILES IDX 83 24 87 25 84 26 86 27 85 28 13 29 14 30 15 31 16 33 17 34
REMARK SMILES IDX 18 35 79 36 19 37 78 38 20 39 21 40 22 41 72 42 23 43 77 44
REMARK SMILES IDX 71 45 73 46 24 47 76 48 70 49 69 50 25 52 57 53 37 54 56 55
REMARK SMILES IDX 38 56 41 57 55 58 74 59 39 60 40 61 54 63 75 64 42 65 26 66
REMARK SMILES IDX 27 67 35 68 28 69 30 70 36 71 29 72 31 73 32 74 33 75 34 76
REMARK SMILES IDX 58 77 59 78 67 79 60 80 62 81 68 82 61 83 63 84 64 85 65 86
REMARK SMILES IDX 66 87 43 88 44 89 52 90 45 91 47 92 53 93 46 94 48 95 49 96
REMARK SMILES IDX 50 97 51 98
REMARK H PARENT 10 6 14 32 73 51 41 62
REMARK Flexibility Score: inf
ROOT
ATOM      1  C   UNL     1      -8.575   3.340  -0.651  1.00  0.00     0.042 C 
ENDROOT
BRANCH   1   2
ATOM      2  C   UNL     1      -7.495   3.852   0.294  1.00  0.00     0.118 C 
BRANCH   2   3
ATOM      3  N   UNL     1      -7.186   2.876   1.316  1.00  0.00    -0.351 N 
ATOM      4  C   UNL     1      -6.128   2.038   1.544  1.00  0.00     0.267 C 
ATOM      5  O   UNL     1      -6.196   1.295   2.521  1.00  0.00    -0.268 OA
ATOM      6  H   UNL     1      -7.893   2.796   1.997  1.00  0.00     0.163 HD
BRANCH   4   7
ATOM      7  C   UNL     1      -4.857   2.020   0.710  1.00  0.00     0.128 C 
ATOM      8  N   UNL     1      -2.797   1.675   0.272  1.00  0.00    -0.250 N 
ATOM      9  N   UNL     1      -3.754   1.556   1.224  1.00  0.00    -0.171 NA
ATOM     10  C   UNL     1      -3.275   2.275  -0.979  1.00  0.00     0.144 C 
ATOM     11  C   UNL     1      -4.785   2.388  -0.740  1.00  0.00     0.096 C 
BRANCH   8  12
ATOM     12  C   UNL     1      -1.710   0.804   0.261  1.00  0.00     0.138 A 
ATOM     13  C   UNL     1       2.058   1.377   0.234  1.00  0.00     0.045 C 
ATOM     14  C   UNL     1       0.752   0.632   0.229  1.00  0.00    -0.046 A 
ATOM     15  C   UNL     1      -0.432   1.376   0.363  1.00  0.00     0.039 A 
ATOM     16  C   UNL     1       0.671  -0.760   0.075  1.00  0.00    -0.041 A 
ATOM     17  C   UNL     1      -0.598  -1.363   0.028  1.00  0.00     0.091 A 
ATOM     18  C   UNL     1       1.882  -1.645  -0.032  1.00  0.00     0.045 C 
ATOM     19  C   UNL     1      -1.769  -0.584   0.106  1.00  0.00     0.294 A 
BRANCH  19  20
ATOM     20  N   UNL     1      -3.040  -1.280  -0.059  1.00  0.00     0.065 N 
ATOM     21  O   UNL     1      -3.170  -2.362   0.535  1.00  0.00    -0.258 OA
ATOM     22  O   UNL     1      -3.860  -0.812  -0.865  1.00  0.00    -0.258 OA
ENDBRANCH  19  20
ENDBRANCH   8  12
BRANCH  10  23
ATOM     23  C   UNL     1      -2.523   3.579  -1.256  1.00  0.00    -0.023 A 
ATOM     24  C   UNL     1      -2.951   4.841  -0.812  1.00  0.00     0.006 A 
ATOM     25  C   UNL     1      -1.297   3.510  -1.946  1.00  0.00     0.006 A 
ATOM     26  C   UNL     1      -2.193   5.989  -1.072  1.00  0.00     0.000 A 
ATOM     27  C   UNL     1      -0.520   4.649  -2.165  1.00  0.00     0.000 A 
ATOM     28  C   UNL     1      -0.974   5.891  -1.738  1.00  0.00     0.000 A 
ENDBRANCH  10  23
ENDBRANCH   4   7
ENDBRANCH   2   3
ENDBRANCH   1   2
BRANCH   1  29
ATOM     29  C   UNL     1      -9.965   3.407  -0.025  1.00  0.00     0.118 C 
BRANCH  29  30
ATOM     30  N   UNL     1     -10.368   4.785   0.252  1.00  0.00    -0.352 N 
ATOM     31  C   UNL     1     -11.361   5.542  -0.317  1.00  0.00     0.251 C 
ATOM     32  H   UNL     1      -9.848   5.239   0.953  1.00  0.00     0.163 HD
ATOM     33  O   UNL     1     -11.375   6.759  -0.144  1.00  0.00    -0.269 OA
BRANCH  31  34
ATOM     34  C   UNL     1     -12.404   4.890  -1.130  1.00  0.00     0.039 A 
ATOM     35  C   UNL     1     -12.840   5.496  -2.311  1.00  0.00     0.014 A 
ATOM     36  C   UNL     1     -12.954   3.675  -0.716  1.00  0.00     0.014 A 
ATOM     37  C   UNL     1     -13.782   4.846  -3.111  1.00  0.00     0.010 A 
ATOM     38  C   UNL     1     -13.809   2.985  -1.560  1.00  0.00     0.010 A 
ATOM     39  C   UNL     1     -14.245   3.568  -2.759  1.00  0.00    -0.014 A 
BRANCH  39  40
ATOM     40  C   UNL     1     -15.204   2.814  -3.603  1.00  0.00     0.031 A 
ATOM     41  C   UNL     1     -16.535   2.408  -3.029  1.00  0.00     0.074 A 
ATOM     42  C   UNL     1     -14.831   2.393  -4.827  1.00  0.00     0.049 A 
ATOM     43  N   UNL     1     -17.447   1.623  -3.538  1.00  0.00    -0.248 NA
ATOM     44  C   UNL     1     -16.866   2.920  -1.688  1.00  0.00     0.031 C 
ATOM     45  C   UNL     1     -13.539   2.666  -5.462  1.00  0.00     0.029 A 
ATOM     46  N   UNL     1     -15.490   1.610  -5.742  1.00  0.00    -0.354 N 
ATOM     47  C   UNL     1     -18.431   1.506  -2.563  1.00  0.00     0.074 A 
ATOM     48  C   UNL     1     -17.988   2.271  -1.419  1.00  0.00     0.031 C 
ATOM     49  C   UNL     1     -13.500   2.060  -6.659  1.00  0.00     0.029 A 
ATOM     50  C   UNL     1     -14.742   1.321  -6.860  1.00  0.00     0.049 A 
ATOM     51  H   UNL     1     -16.411   1.287  -5.610  1.00  0.00     0.167 HD
ATOM     52  C   UNL     1     -19.610   0.845  -2.624  1.00  0.00     0.034 A 
ATOM     53  C   UNL     1     -15.019   0.532  -7.917  1.00  0.00     0.034 A 
ATOM     54  C   UNL     1     -20.063   0.128  -3.783  1.00  0.00     0.049 A 
ATOM     55  C   UNL     1     -16.352  -0.165  -7.975  1.00  0.00     0.074 A 
ATOM     56  C   UNL     1     -21.279  -0.500  -3.983  1.00  0.00     0.029 A 
ATOM     57  N   UNL     1     -19.318  -0.060  -4.936  1.00  0.00    -0.354 N 
ATOM     58  N   UNL     1     -17.330  -0.148  -7.103  1.00  0.00    -0.248 NA
ATOM     59  C   UNL     1     -16.635  -0.962  -9.178  1.00  0.00     0.031 C 
ATOM     60  C   UNL     1     -21.256  -1.096  -5.248  1.00  0.00     0.029 A 
ATOM     61  C   UNL     1     -20.043  -0.802  -5.851  1.00  0.00     0.049 A 
ATOM     62  H   UNL     1     -18.407   0.283  -5.083  1.00  0.00     0.167 HD
ATOM     63  C   UNL     1     -18.360  -0.889  -7.670  1.00  0.00     0.074 A 
ATOM     64  C   UNL     1     -17.890  -1.335  -8.965  1.00  0.00     0.031 C 
ATOM     65  C   UNL     1     -19.583  -1.181  -7.162  1.00  0.00     0.034 A 
BRANCH  52  66
ATOM     66  C   UNL     1     -20.511   0.903  -1.418  1.00  0.00     0.023 A 
ATOM     67  C   UNL     1     -21.144   2.115  -1.075  1.00  0.00     0.012 A 
ATOM     68  C   UNL     1     -20.774  -0.252  -0.657  1.00  0.00     0.148 A 
ATOM     69  C   UNL     1     -21.992   2.188   0.029  1.00  0.00     0.002 A 
ATOM     70  C   UNL     1     -21.660  -0.184   0.412  1.00  0.00     0.091 A 
ATOM     71  F   UNL     1     -20.148  -1.391  -0.985  1.00  0.00    -0.205 F 
ATOM     72  C   UNL     1     -22.258   1.036   0.765  1.00  0.00     0.022 A 
BRANCH  70  73
ATOM     73  S   UNL     1     -22.136  -1.627   1.369  1.00  0.00     0.127 S 
ATOM     74  O   UNL     1     -21.497  -1.352   2.655  1.00  0.00    -0.237 OA
ATOM     75  O   UNL     1     -23.596  -1.520   1.379  1.00  0.00    -0.237 OA
ATOM     76  O   UNL     1     -21.616  -2.780   0.648  1.00  0.00    -0.744 OA
ENDBRANCH  70  73
ENDBRANCH  52  66
BRANCH  53  77
ATOM     77  C   UNL     1     -14.038   0.405  -9.032  1.00  0.00     0.023 A 
ATOM     78  C   UNL     1     -14.336   0.981 -10.282  1.00  0.00     0.012 A 
ATOM     79  C   UNL     1     -12.808  -0.257  -8.857  1.00  0.00     0.148 A 
ATOM     80  C   UNL     1     -13.445   0.867 -11.350  1.00  0.00     0.002 A 
ATOM     81  C   UNL     1     -11.899  -0.318  -9.908  1.00  0.00     0.091 A 
ATOM     82  F   UNL     1     -12.545  -0.802  -7.661  1.00  0.00    -0.205 F 
ATOM     83  C   UNL     1     -12.224   0.226 -11.160  1.00  0.00     0.022 A 
BRANCH  81  84
ATOM     84  S   UNL     1     -10.251  -1.006  -9.720  1.00  0.00     0.127 S 
ATOM     85  O   UNL     1     -10.336  -2.214 -10.536  1.00  0.00    -0.237 OA
ATOM     86  O   UNL     1      -9.416   0.058 -10.279  1.00  0.00    -0.237 OA
ATOM     87  O   UNL     1     -10.073  -1.219  -8.290  1.00  0.00    -0.744 OA
ENDBRANCH  81  84
ENDBRANCH  53  77
BRANCH  65  88
ATOM     88  C   UNL     1     -20.537  -1.963  -8.024  1.00  0.00     0.023 A 
ATOM     89  C   UNL     1     -20.333  -3.339  -8.239  1.00  0.00     0.012 A 
ATOM     90  C   UNL     1     -21.698  -1.345  -8.532  1.00  0.00     0.148 A 
ATOM     91  C   UNL     1     -21.259  -4.084  -8.969  1.00  0.00     0.002 A 
ATOM     92  C   UNL     1     -22.641  -2.104  -9.211  1.00  0.00     0.091 A 
ATOM     93  F   UNL     1     -21.862  -0.030  -8.328  1.00  0.00    -0.205 F 
ATOM     94  C   UNL     1     -22.418  -3.471  -9.441  1.00  0.00     0.022 A 
BRANCH  92  95
ATOM     95  S   UNL     1     -24.209  -1.424  -9.764  1.00  0.00     0.127 S 
ATOM     96  O   UNL     1     -24.045  -1.442 -11.216  1.00  0.00    -0.237 OA
ATOM     97  O   UNL     1     -25.168  -2.400  -9.245  1.00  0.00    -0.237 OA
ATOM     98  O   UNL     1     -24.309  -0.100  -9.166  1.00  0.00    -0.744 OA
ENDBRANCH  92  95
ENDBRANCH  65  88
ENDBRANCH  39  40
ENDBRANCH  31  34
ENDBRANCH  29  30
ENDBRANCH   1  29
TORSDOF 16
