REMARK SMILES O=C(CCC(=O)c1c[nH]c2ccccc12)NCCCNC(=O)c1ccc(-c2c3nc(c(-c4cccc(S(=O)(=O)[O-])c4F)c4ccc([nH]4)c(-c4cccc(S(=O)(=O)[O-])c4F)c4nc(c(-c5cccc(S(=O)(=O)[O-])c5F)c5ccc2[nH]5)C=C4)C=C3)cc1
REMARK SMILES IDX 18 1 17 2 16 3 1 4 2 5 3 7 4 8 5 9 6 10 7 11 8 12 15 13 9 14
REMARK SMILES IDX 10 15 14 16 11 18 13 19 12 20 19 21 20 22 21 23 22 25 23 26
REMARK SMILES IDX 24 27 85 28 25 29 84 30 26 31 27 32 28 33 78 34 29 35 83 36
REMARK SMILES IDX 77 37 79 38 30 39 82 40 76 41 75 42 31 44 63 45 43 46 62 47
REMARK SMILES IDX 44 48 47 49 61 50 80 51 45 52 46 53 60 55 81 56 48 57 32 58
REMARK SMILES IDX 33 59 41 60 34 61 36 62 42 63 35 64 37 65 38 66 39 67 40 68
REMARK SMILES IDX 64 69 65 70 73 71 66 72 68 73 74 74 67 75 69 76 70 77 71 78
REMARK SMILES IDX 72 79 49 80 50 81 58 82 51 83 53 84 59 85 52 86 54 87 55 88
REMARK SMILES IDX 56 89 57 90
REMARK H PARENT 16 6 9 17 20 24 79 43 47 54
REMARK Flexibility Score: inf
ROOT
ATOM      1  C   UNL     1       2.870   2.958  -1.366  1.00  0.00     0.042 C 
ENDROOT
BRANCH   1   2
ATOM      2  C   UNL     1       1.590   1.168  -1.382  1.00  0.00     0.117 C 
BRANCH   2   3
ATOM      3  N   UNL     1       1.877  -0.366  -0.946  1.00  0.00    -0.356 N 
ATOM      4  O   UNL     1       0.874  -0.610   1.095  1.00  0.00    -0.275 OA
ATOM      5  C   UNL     1       1.772  -0.901   0.310  1.00  0.00     0.220 C 
ATOM      6  H   UNL     1       2.158  -0.980  -1.662  1.00  0.00     0.163 HD
BRANCH   5   7
ATOM      7  C   UNL     1       2.975  -1.732   0.766  1.00  0.00     0.108 C 
BRANCH   7   8
ATOM      8  C   UNL     1       4.050  -2.120  -0.247  1.00  0.00     0.091 C 
BRANCH   8   9
ATOM      9  C   UNL     1       5.060  -1.019  -0.601  1.00  0.00     0.165 C 
ATOM     10  O   UNL     1       6.222  -1.060  -0.208  1.00  0.00    -0.294 OA
BRANCH   9  11
ATOM     11  C   UNL     1       4.602  -0.002  -1.538  1.00  0.00     0.043 A 
ATOM     12  C   UNL     1       4.773  -0.055  -2.922  1.00  0.00     0.095 A 
ATOM     13  C   UNL     1       3.676   1.035  -1.243  1.00  0.00     0.010 A 
ATOM     14  N   UNL     1       3.926   0.775  -3.654  1.00  0.00    -0.360 N 
ATOM     15  C   UNL     1       3.074   1.475  -2.836  1.00  0.00     0.046 A 
ATOM     16  C   UNL     1       2.813   1.664   0.235  1.00  0.00     0.011 A 
ATOM     17  H   UNL     1       3.937   0.851  -4.635  1.00  0.00     0.166 HD
ATOM     18  C   UNL     1       1.624   2.528  -3.021  1.00  0.00     0.027 A 
ATOM     19  C   UNL     1       1.329   2.671   0.079  1.00  0.00     0.001 A 
ATOM     20  C   UNL     1       0.762   3.112  -1.553  1.00  0.00     0.002 A 
ENDBRANCH   9  11
ENDBRANCH   8   9
ENDBRANCH   7   8
ENDBRANCH   5   7
ENDBRANCH   2   3
ENDBRANCH   1   2
BRANCH   1  21
ATOM     21  C   UNL     1       4.550   3.307  -1.380  1.00  0.00     0.118 C 
BRANCH  21  22
ATOM     22  N   UNL     1       5.221   3.341  -2.676  1.00  0.00    -0.352 N 
ATOM     23  C   UNL     1       5.566   4.377  -3.499  1.00  0.00     0.251 C 
ATOM     24  H   UNL     1       5.472   2.454  -3.021  1.00  0.00     0.163 HD
ATOM     25  O   UNL     1       5.767   4.148  -4.691  1.00  0.00    -0.269 OA
BRANCH  23  26
ATOM     26  C   UNL     1       5.778   5.737  -2.957  1.00  0.00     0.039 A 
ATOM     27  C   UNL     1       5.618   6.842  -3.800  1.00  0.00     0.014 A 
ATOM     28  C   UNL     1       6.266   5.921  -1.661  1.00  0.00     0.014 A 
ATOM     29  C   UNL     1       5.942   8.120  -3.338  1.00  0.00     0.010 A 
ATOM     30  C   UNL     1       6.483   7.199  -1.167  1.00  0.00     0.010 A 
ATOM     31  C   UNL     1       6.376   8.305  -2.016  1.00  0.00    -0.014 A 
BRANCH  31  32
ATOM     32  C   UNL     1       6.796   9.632  -1.510  1.00  0.00     0.031 A 
ATOM     33  C   UNL     1       8.220   9.841  -1.059  1.00  0.00     0.074 A 
ATOM     34  C   UNL     1       5.880  10.608  -1.374  1.00  0.00     0.049 A 
ATOM     35  N   UNL     1       8.770  10.898  -0.521  1.00  0.00    -0.248 NA
ATOM     36  C   UNL     1       9.139   8.695  -1.190  1.00  0.00     0.031 C 
ATOM     37  C   UNL     1       4.455  10.479  -1.690  1.00  0.00     0.029 A 
ATOM     38  N   UNL     1       6.003  11.891  -0.909  1.00  0.00    -0.354 N 
ATOM     39  C   UNL     1      10.073  10.529  -0.205  1.00  0.00     0.074 A 
ATOM     40  C   UNL     1      10.223   9.140  -0.572  1.00  0.00     0.031 C 
ATOM     41  C   UNL     1       3.839  11.641  -1.419  1.00  0.00     0.029 A 
ATOM     42  C   UNL     1       4.817  12.586  -0.893  1.00  0.00     0.049 A 
ATOM     43  H   UNL     1       6.859  12.278  -0.616  1.00  0.00     0.167 HD
ATOM     44  C   UNL     1      11.068  11.290   0.310  1.00  0.00     0.034 A 
ATOM     45  C   UNL     1       4.556  13.848  -0.502  1.00  0.00     0.034 A 
ATOM     46  C   UNL     1      10.921  12.689   0.604  1.00  0.00     0.049 A 
ATOM     47  C   UNL     1       5.702  14.705  -0.037  1.00  0.00     0.074 A 
ATOM     48  C   UNL     1      11.878  13.586   1.040  1.00  0.00     0.029 A 
ATOM     49  N   UNL     1       9.734  13.396   0.479  1.00  0.00    -0.354 N 
ATOM     50  N   UNL     1       6.965  14.383   0.111  1.00  0.00    -0.248 NA
ATOM     51  C   UNL     1       5.399  16.110   0.267  1.00  0.00     0.031 C 
ATOM     52  C   UNL     1      11.266  14.836   1.185  1.00  0.00     0.029 A 
ATOM     53  C   UNL     1       9.934  14.721   0.820  1.00  0.00     0.049 A 
ATOM     54  H   UNL     1       8.875  13.011   0.190  1.00  0.00     0.167 HD
ATOM     55  C   UNL     1       7.615  15.552   0.486  1.00  0.00     0.074 A 
ATOM     56  C   UNL     1       6.608  16.593   0.523  1.00  0.00     0.031 C 
ATOM     57  C   UNL     1       8.923  15.747   0.788  1.00  0.00     0.034 A 
BRANCH  44  58
ATOM     58  C   UNL     1      12.414  10.641   0.522  1.00  0.00     0.023 A 
ATOM     59  C   UNL     1      13.192  10.271  -0.595  1.00  0.00     0.012 A 
ATOM     60  C   UNL     1      12.929  10.432   1.817  1.00  0.00     0.148 A 
ATOM     61  C   UNL     1      14.437   9.666  -0.430  1.00  0.00     0.002 A 
ATOM     62  C   UNL     1      14.193   9.872   1.974  1.00  0.00     0.091 A 
ATOM     63  F   UNL     1      12.172  10.770   2.870  1.00  0.00    -0.205 F 
ATOM     64  C   UNL     1      14.941   9.476   0.853  1.00  0.00     0.022 A 
BRANCH  62  65
ATOM     65  S   UNL     1      14.969   9.657   3.580  1.00  0.00     0.127 S 
ATOM     66  O   UNL     1      14.924   8.204   3.739  1.00  0.00    -0.237 OA
ATOM     67  O   UNL     1      16.307  10.204   3.351  1.00  0.00    -0.237 OA
ATOM     68  O   UNL     1      14.157  10.415   4.522  1.00  0.00    -0.744 OA
ENDBRANCH  62  65
ENDBRANCH  44  58
BRANCH  45  69
ATOM     69  C   UNL     1       3.179  14.397  -0.646  1.00  0.00     0.023 A 
ATOM     70  C   UNL     1       2.920  15.351  -1.649  1.00  0.00     0.012 A 
ATOM     71  C   UNL     1       2.116  13.944   0.160  1.00  0.00     0.148 A 
ATOM     72  C   UNL     1       1.637  15.868  -1.828  1.00  0.00     0.002 A 
ATOM     73  C   UNL     1       0.829  14.424  -0.059  1.00  0.00     0.091 A 
ATOM     74  F   UNL     1       2.381  13.041   1.114  1.00  0.00    -0.205 F 
ATOM     75  C   UNL     1       0.590  15.397  -1.042  1.00  0.00     0.022 A 
BRANCH  73  76
ATOM     76  S   UNL     1      -0.601  13.772   0.813  1.00  0.00     0.127 S 
ATOM     77  O   UNL     1      -0.913  14.862   1.732  1.00  0.00    -0.237 OA
ATOM     78  O   UNL     1      -1.563  13.587  -0.274  1.00  0.00    -0.237 OA
ATOM     79  O   UNL     1      -0.150  12.530   1.427  1.00  0.00    -0.744 OA
ENDBRANCH  73  76
ENDBRANCH  45  69
BRANCH  57  80
ATOM     80  C   UNL     1       9.351  17.145   1.141  1.00  0.00     0.023 A 
ATOM     81  C   UNL     1       8.996  17.692   2.389  1.00  0.00     0.012 A 
ATOM     82  C   UNL     1      10.167  17.886   0.263  1.00  0.00     0.148 A 
ATOM     83  C   UNL     1       9.420  18.971   2.745  1.00  0.00     0.002 A 
ATOM     84  C   UNL     1      10.626  19.140   0.646  1.00  0.00     0.091 A 
ATOM     85  F   UNL     1      10.474  17.355  -0.929  1.00  0.00    -0.205 F 
ATOM     86  C   UNL     1      10.243  19.689   1.880  1.00  0.00     0.022 A 
BRANCH  84  87
ATOM     87  S   UNL     1      11.769  20.086  -0.365  1.00  0.00     0.127 S 
ATOM     88  O   UNL     1      10.885  21.086  -0.960  1.00  0.00    -0.237 OA
ATOM     89  O   UNL     1      12.705  20.613   0.629  1.00  0.00    -0.237 OA
ATOM     90  O   UNL     1      12.358  19.133  -1.297  1.00  0.00    -0.744 OA
ENDBRANCH  84  87
ENDBRANCH  57  80
ENDBRANCH  31  32
ENDBRANCH  23  26
ENDBRANCH  21  22
ENDBRANCH   1  21
TORSDOF 16
