REMARK SMILES CC(C)(C)OC(=O)N1CCN(c2nc3ccccc3s2)[C@H](C(=O)NCCCNC(=O)c2ccc(-c3c4nc(c(-c5cccc(S(=O)(=O)[O-])c5F)c5ccc([nH]5)c(-c5cccc(S(=O)(=O)[O-])c5F)c5nc(c(-c6cccc(S(=O)(=O)[O-])c6F)c6ccc3[nH]6)C=C5)C=C4)cc2)C1
REMARK SMILES IDX 26 1 25 2 24 3 22 4 23 5 21 7 8 8 9 9 94 10 10 11 11 12 6 13
REMARK SMILES IDX 7 14 5 15 2 16 1 17 3 18 4 19 12 20 13 21 20 22 14 23 19 24
REMARK SMILES IDX 15 25 18 26 16 27 17 28 27 29 28 30 29 31 30 33 31 34 32 35
REMARK SMILES IDX 93 36 33 37 92 38 34 39 35 40 36 41 86 42 37 43 91 44 85 45
REMARK SMILES IDX 87 46 38 47 90 48 84 49 83 50 39 52 71 53 51 54 70 55 52 56
REMARK SMILES IDX 55 57 69 58 88 59 53 60 54 61 68 63 89 64 56 65 40 66 41 67
REMARK SMILES IDX 49 68 42 69 44 70 50 71 43 72 45 73 46 74 47 75 48 76 72 77
REMARK SMILES IDX 73 78 81 79 74 80 76 81 82 82 75 83 77 84 78 85 79 86 80 87
REMARK SMILES IDX 57 88 58 89 66 90 59 91 61 92 67 93 60 94 62 95 63 96 64 97
REMARK SMILES IDX 65 98
REMARK H PARENT 24 6 28 32 87 51 55 62
REMARK Flexibility Score: inf
ROOT
ATOM      1  C   UNL     1       4.890  -7.516   5.153  1.00  0.00     0.042 C 
ENDROOT
BRANCH   1   2
ATOM      2  C   UNL     1       4.891  -5.994   5.274  1.00  0.00     0.117 C 
BRANCH   2   3
ATOM      3  N   UNL     1       4.746  -5.407   3.965  1.00  0.00    -0.354 N 
ATOM      4  C   UNL     1       3.652  -5.241   3.183  1.00  0.00     0.244 C 
ATOM      5  O   UNL     1       3.930  -5.153   1.972  1.00  0.00    -0.273 OA
ATOM      6  H   UNL     1       5.584  -5.071   3.573  1.00  0.00     0.163 HD
BRANCH   4   7
ATOM      7  C   UNL     1       2.218  -4.883   3.614  1.00  0.00     0.193 C 
ATOM      8  N   UNL     1       0.934  -2.708   4.000  1.00  0.00    -0.304 N 
ATOM      9  C   UNL     1       0.182  -3.332   5.083  1.00  0.00     0.144 C 
ATOM     10  C   UNL     1       2.239  -3.316   3.676  1.00  0.00     0.158 C 
ATOM     11  C   UNL     1       0.137  -4.846   4.897  1.00  0.00     0.141 C 
ATOM     12  N   UNL     1       1.527  -5.363   4.842  1.00  0.00    -0.332 N 
BRANCH   8  13
ATOM     13  C   UNL     1       0.475  -1.523   3.477  1.00  0.00     0.410 C 
ATOM     14  O   UNL     1      -0.411  -0.860   4.011  1.00  0.00    -0.224 OA
BRANCH  13  15
ATOM     15  O   UNL     1       1.054  -1.214   2.291  1.00  0.00    -0.444 OA
BRANCH  15  16
ATOM     16  C   UNL     1       0.580  -0.075   1.526  1.00  0.00     0.106 C 
ATOM     17  C   UNL     1       1.240  -0.216   0.145  1.00  0.00     0.056 C 
ATOM     18  C   UNL     1       1.057   1.224   2.180  1.00  0.00     0.056 C 
ATOM     19  C   UNL     1      -0.943  -0.087   1.315  1.00  0.00     0.056 C 
ENDBRANCH  15  16
ENDBRANCH  13  15
ENDBRANCH   8  13
BRANCH  12  20
ATOM     20  C   UNL     1       1.653  -6.574   5.432  1.00  0.00     0.187 A 
ATOM     21  N   UNL     1       1.475  -7.747   4.877  1.00  0.00    -0.220 NA
ATOM     22  S   UNL     1       1.847  -6.619   7.163  1.00  0.00    -0.097 S 
ATOM     23  C   UNL     1       1.674  -8.760   5.822  1.00  0.00     0.084 A 
ATOM     24  C   UNL     1       2.045  -8.318   7.094  1.00  0.00     0.056 A 
ATOM     25  C   UNL     1       1.631 -10.150   5.593  1.00  0.00     0.030 A 
ATOM     26  C   UNL     1       2.525  -9.186   8.088  1.00  0.00     0.021 A 
ATOM     27  C   UNL     1       2.086 -11.030   6.585  1.00  0.00     0.002 A 
ATOM     28  C   UNL     1       2.568 -10.549   7.799  1.00  0.00     0.002 A 
ENDBRANCH  12  20
ENDBRANCH   4   7
ENDBRANCH   2   3
ENDBRANCH   1   2
BRANCH   1  29
ATOM     29  C   UNL     1       6.171  -8.217   5.564  1.00  0.00     0.118 C 
BRANCH  29  30
ATOM     30  N   UNL     1       6.520  -7.983   6.959  1.00  0.00    -0.352 N 
ATOM     31  C   UNL     1       6.767  -8.851   7.995  1.00  0.00     0.251 C 
ATOM     32  H   UNL     1       6.591  -7.032   7.204  1.00  0.00     0.163 HD
ATOM     33  O   UNL     1       6.910  -8.381   9.124  1.00  0.00    -0.269 OA
BRANCH  31  34
ATOM     34  C   UNL     1       6.838 -10.320   7.799  1.00  0.00     0.039 A 
ATOM     35  C   UNL     1       6.447 -11.150   8.858  1.00  0.00     0.014 A 
ATOM     36  C   UNL     1       7.308 -10.900   6.620  1.00  0.00     0.014 A 
ATOM     37  C   UNL     1       6.458 -12.540   8.707  1.00  0.00     0.010 A 
ATOM     38  C   UNL     1       7.216 -12.276   6.430  1.00  0.00     0.010 A 
ATOM     39  C   UNL     1       6.800 -13.114   7.474  1.00  0.00    -0.014 A 
BRANCH  39  40
ATOM     40  C   UNL     1       6.734 -14.580   7.249  1.00  0.00     0.031 A 
ATOM     41  C   UNL     1       7.975 -15.345   6.874  1.00  0.00     0.074 A 
ATOM     42  C   UNL     1       5.539 -15.204   7.285  1.00  0.00     0.049 A 
ATOM     43  N   UNL     1       8.100 -16.606   6.550  1.00  0.00    -0.248 NA
ATOM     44  C   UNL     1       9.239 -14.589   6.831  1.00  0.00     0.031 C 
ATOM     45  C   UNL     1       4.256 -14.558   7.568  1.00  0.00     0.029 A 
ATOM     46  N   UNL     1       5.204 -16.514   7.050  1.00  0.00    -0.354 N 
ATOM     47  C   UNL     1       9.440 -16.785   6.228  1.00  0.00     0.074 A 
ATOM     48  C   UNL     1      10.083 -15.497   6.363  1.00  0.00     0.031 C 
ATOM     49  C   UNL     1       3.274 -15.469   7.488  1.00  0.00     0.029 A 
ATOM     50  C   UNL     1       3.850 -16.755   7.110  1.00  0.00     0.049 A 
ATOM     51  H   UNL     1       5.868 -17.215   6.858  1.00  0.00     0.167 HD
ATOM     52  C   UNL     1      10.083 -17.923   5.877  1.00  0.00     0.034 A 
ATOM     53  C   UNL     1       3.150 -17.880   6.867  1.00  0.00     0.034 A 
ATOM     54  C   UNL     1       9.445 -19.207   5.776  1.00  0.00     0.049 A 
ATOM     55  C   UNL     1       3.893 -19.135   6.494  1.00  0.00     0.074 A 
ATOM     56  C   UNL     1      10.023 -20.436   5.513  1.00  0.00     0.029 A 
ATOM     57  N   UNL     1       8.084 -19.428   5.920  1.00  0.00    -0.354 N 
ATOM     58  N   UNL     1       5.182 -19.316   6.345  1.00  0.00    -0.248 NA
ATOM     59  C   UNL     1       3.088 -20.348   6.292  1.00  0.00     0.031 C 
ATOM     60  C   UNL     1       9.006 -21.394   5.459  1.00  0.00     0.029 A 
ATOM     61  C   UNL     1       7.800 -20.770   5.734  1.00  0.00     0.049 A 
ATOM     62  H   UNL     1       7.417 -18.733   6.124  1.00  0.00     0.167 HD
ATOM     63  C   UNL     1       5.347 -20.669   6.071  1.00  0.00     0.074 A 
ATOM     64  C   UNL     1       4.027 -21.263   6.096  1.00  0.00     0.031 C 
ATOM     65  C   UNL     1       6.487 -21.356   5.810  1.00  0.00     0.034 A 
BRANCH  52  66
ATOM     66  C   UNL     1      11.565 -17.841   5.612  1.00  0.00     0.023 A 
ATOM     67  C   UNL     1      12.456 -17.614   6.681  1.00  0.00     0.012 A 
ATOM     68  C   UNL     1      12.079 -18.054   4.318  1.00  0.00     0.148 A 
ATOM     69  C   UNL     1      13.832 -17.564   6.461  1.00  0.00     0.002 A 
ATOM     70  C   UNL     1      13.454 -18.052   4.115  1.00  0.00     0.091 A 
ATOM     71  F   UNL     1      11.216 -18.249   3.311  1.00  0.00    -0.205 F 
ATOM     72  C   UNL     1      14.330 -17.795   5.182  1.00  0.00     0.022 A 
BRANCH  70  73
ATOM     73  S   UNL     1      14.202 -18.420   2.524  1.00  0.00     0.127 S 
ATOM     74  O   UNL     1      14.785 -17.127   2.167  1.00  0.00    -0.237 OA
ATOM     75  O   UNL     1      15.177 -19.452   2.876  1.00  0.00    -0.237 OA
ATOM     76  O   UNL     1      13.118 -18.872   1.663  1.00  0.00    -0.744 OA
ENDBRANCH  70  73
ENDBRANCH  52  66
BRANCH  53  77
ATOM     77  C   UNL     1       1.666 -17.885   7.007  1.00  0.00     0.023 A 
ATOM     78  C   UNL     1       1.068 -18.616   8.052  1.00  0.00     0.012 A 
ATOM     79  C   UNL     1       0.846 -17.161   6.120  1.00  0.00     0.148 A 
ATOM     80  C   UNL     1      -0.320 -18.662   8.185  1.00  0.00     0.002 A 
ATOM     81  C   UNL     1      -0.533 -17.163   6.294  1.00  0.00     0.091 A 
ATOM     82  F   UNL     1       1.433 -16.477   5.128  1.00  0.00    -0.205 F 
ATOM     83  C   UNL     1      -1.120 -17.929   7.313  1.00  0.00     0.022 A 
BRANCH  81  84
ATOM     84  S   UNL     1      -1.628 -16.142   5.302  1.00  0.00     0.127 S 
ATOM     85  O   UNL     1      -2.321 -17.144   4.496  1.00  0.00    -0.237 OA
ATOM     86  O   UNL     1      -2.449 -15.498   6.327  1.00  0.00    -0.237 OA
ATOM     87  O   UNL     1      -0.758 -15.231   4.571  1.00  0.00    -0.744 OA
ENDBRANCH  81  84
ENDBRANCH  53  77
BRANCH  65  88
ATOM     88  C   UNL     1       6.370 -22.840   5.579  1.00  0.00     0.023 A 
ATOM     89  C   UNL     1       5.785 -23.327   4.393  1.00  0.00     0.012 A 
ATOM     90  C   UNL     1       6.907 -23.750   6.511  1.00  0.00     0.148 A 
ATOM     91  C   UNL     1       5.702 -24.699   4.157  1.00  0.00     0.002 A 
ATOM     92  C   UNL     1       6.870 -25.112   6.243  1.00  0.00     0.091 A 
ATOM     93  F   UNL     1       7.445 -23.267   7.640  1.00  0.00    -0.205 F 
ATOM     94  C   UNL     1       6.255 -25.590   5.074  1.00  0.00     0.022 A 
BRANCH  92  95
ATOM     95  S   UNL     1       7.646 -26.326   7.316  1.00  0.00     0.127 S 
ATOM     96  O   UNL     1       6.483 -27.007   7.883  1.00  0.00    -0.237 OA
ATOM     97  O   UNL     1       8.419 -27.128   6.366  1.00  0.00    -0.237 OA
ATOM     98  O   UNL     1       8.450 -25.570   8.266  1.00  0.00    -0.744 OA
ENDBRANCH  92  95
ENDBRANCH  65  88
ENDBRANCH  39  40
ENDBRANCH  31  34
ENDBRANCH  29  30
ENDBRANCH   1  29
TORSDOF 17
