REMARK SMILES CN(C)C(=O)c1ccc2c(c1)N(CC(=O)NCCCNC(=O)c1ccc(-c3c4nc(c(-c5cccc(S(=O)(=O)[O-])c5F)c5ccc([nH]5)c(-c5cccc(S(=O)(=O)[O-])c5F)c5nc(c(-c6cccc(S(=O)(=O)[O-])c6F)c6ccc3[nH]6)C=C5)C=C4)cc1)C(=O)[C@@H]1CCCCN21
REMARK SMILES IDX 18 1 17 2 16 3 14 4 15 5 13 7 12 8 6 9 7 10 11 11 8 12 10 13
REMARK SMILES IDX 9 14 93 15 86 16 88 17 92 18 87 19 89 20 91 21 90 22 4 23
REMARK SMILES IDX 1 24 2 25 3 26 5 27 19 28 20 29 21 30 22 32 23 33 24 34
REMARK SMILES IDX 85 35 25 36 84 37 26 38 27 39 28 40 78 41 29 42 83 43 77 44
REMARK SMILES IDX 79 45 30 46 82 47 76 48 75 49 31 51 63 52 43 53 62 54 44 55
REMARK SMILES IDX 47 56 61 57 80 58 45 59 46 60 60 62 81 63 48 64 32 65 33 66
REMARK SMILES IDX 41 67 34 68 36 69 42 70 35 71 37 72 38 73 39 74 40 75 64 76
REMARK SMILES IDX 65 77 73 78 66 79 68 80 74 81 67 82 69 83 70 84 71 85 72 86
REMARK SMILES IDX 49 87 50 88 58 89 51 90 53 91 59 92 52 93 54 94 55 95 56 96
REMARK SMILES IDX 57 97
REMARK H PARENT 16 6 20 31 79 50 47 61
REMARK Flexibility Score: inf
ROOT
ATOM      1  C   UNL     1      -2.666  -5.392   3.953  1.00  0.00     0.042 C 
ENDROOT
BRANCH   1   2
ATOM      2  C   UNL     1      -3.923  -4.780   3.348  1.00  0.00     0.117 C 
BRANCH   2   3
ATOM      3  N   UNL     1      -3.653  -3.545   2.640  1.00  0.00    -0.354 N 
ATOM      4  C   UNL     1      -3.620  -3.300   1.302  1.00  0.00     0.240 C 
ATOM      5  O   UNL     1      -3.522  -2.121   0.947  1.00  0.00    -0.273 OA
ATOM      6  H   UNL     1      -3.467  -2.766   3.213  1.00  0.00     0.163 HD
BRANCH   4   7
ATOM      7  C   UNL     1      -3.808  -4.414   0.263  1.00  0.00     0.225 C 
BRANCH   7   8
ATOM      8  N   UNL     1      -2.852  -5.528   0.269  1.00  0.00    -0.299 N 
ATOM      9  C   UNL     1       0.381  -3.781  -0.465  1.00  0.00     0.042 A 
ATOM     10  C   UNL     1       1.288  -4.823  -0.382  1.00  0.00     0.016 A 
ATOM     11  C   UNL     1      -0.984  -4.024  -0.303  1.00  0.00     0.042 A 
ATOM     12  C   UNL     1       0.825  -6.107  -0.091  1.00  0.00     0.029 A 
ATOM     13  C   UNL     1      -1.460  -5.313   0.011  1.00  0.00     0.069 A 
ATOM     14  C   UNL     1      -0.543  -6.394   0.115  1.00  0.00     0.062 A 
ATOM     15  N   UNL     1      -0.969  -7.687   0.408  1.00  0.00    -0.358 N 
ATOM     16  C   UNL     1      -3.351  -6.806   0.481  1.00  0.00     0.250 C 
ATOM     17  C   UNL     1      -2.400  -7.996   0.292  1.00  0.00     0.172 C 
ATOM     18  C   UNL     1      -0.045  -8.721   0.895  1.00  0.00     0.117 C 
ATOM     19  O   UNL     1      -4.550  -6.999   0.720  1.00  0.00    -0.272 OA
ATOM     20  C   UNL     1      -2.781  -9.092   1.293  1.00  0.00     0.035 C 
ATOM     21  C   UNL     1      -0.552 -10.158   0.761  1.00  0.00     0.022 C 
ATOM     22  C   UNL     1      -2.042 -10.375   0.971  1.00  0.00     0.004 C 
BRANCH   9  23
ATOM     23  C   UNL     1       0.879  -2.420  -0.754  1.00  0.00     0.253 C 
ATOM     24  C   UNL     1       1.067  -0.065  -0.149  1.00  0.00     0.146 C 
ATOM     25  N   UNL     1       0.649  -1.414   0.181  1.00  0.00    -0.345 N 
ATOM     26  C   UNL     1       0.111  -1.626   1.518  1.00  0.00     0.146 C 
ATOM     27  O   UNL     1       1.485  -2.248  -1.809  1.00  0.00    -0.269 OA
ENDBRANCH   9  23
ENDBRANCH   7   8
ENDBRANCH   4   7
ENDBRANCH   2   3
ENDBRANCH   1   2
BRANCH   1  28
ATOM     28  C   UNL     1      -1.980  -4.514   4.999  1.00  0.00     0.118 C 
BRANCH  28  29
ATOM     29  N   UNL     1      -2.805  -4.257   6.173  1.00  0.00    -0.352 N 
ATOM     30  C   UNL     1      -2.565  -4.510   7.504  1.00  0.00     0.251 C 
ATOM     31  H   UNL     1      -3.673  -3.833   5.983  1.00  0.00     0.163 HD
ATOM     32  O   UNL     1      -3.466  -4.331   8.321  1.00  0.00    -0.269 OA
BRANCH  30  33
ATOM     33  C   UNL     1      -1.252  -5.027   7.948  1.00  0.00     0.039 A 
ATOM     34  C   UNL     1      -0.063  -4.492   7.449  1.00  0.00     0.014 A 
ATOM     35  C   UNL     1      -1.211  -6.069   8.880  1.00  0.00     0.014 A 
ATOM     36  C   UNL     1       1.148  -5.114   7.738  1.00  0.00     0.010 A 
ATOM     37  C   UNL     1       0.016  -6.640   9.234  1.00  0.00     0.010 A 
ATOM     38  C   UNL     1       1.201  -6.205   8.622  1.00  0.00    -0.014 A 
BRANCH  38  39
ATOM     39  C   UNL     1       2.501  -6.882   8.871  1.00  0.00     0.031 A 
ATOM     40  C   UNL     1       2.723  -8.308   8.438  1.00  0.00     0.074 A 
ATOM     41  C   UNL     1       3.510  -6.189   9.434  1.00  0.00     0.049 A 
ATOM     42  N   UNL     1       3.808  -9.033   8.530  1.00  0.00    -0.248 NA
ATOM     43  C   UNL     1       1.586  -9.012   7.822  1.00  0.00     0.031 C 
ATOM     44  C   UNL     1       3.418  -4.806   9.905  1.00  0.00     0.029 A 
ATOM     45  N   UNL     1       4.812  -6.541   9.683  1.00  0.00    -0.354 N 
ATOM     46  C   UNL     1       3.480 -10.281   8.014  1.00  0.00     0.074 A 
ATOM     47  C   UNL     1       2.089 -10.223   7.622  1.00  0.00     0.031 C 
ATOM     48  C   UNL     1       4.625  -4.409  10.334  1.00  0.00     0.029 A 
ATOM     49  C   UNL     1       5.564  -5.520  10.214  1.00  0.00     0.049 A 
ATOM     50  H   UNL     1       5.173  -7.438   9.499  1.00  0.00     0.167 HD
ATOM     51  C   UNL     1       4.270 -11.368   7.855  1.00  0.00     0.034 A 
ATOM     52  C   UNL     1       6.864  -5.476  10.564  1.00  0.00     0.034 A 
ATOM     53  C   UNL     1       5.664 -11.418   8.201  1.00  0.00     0.049 A 
ATOM     54  C   UNL     1       7.720  -6.694  10.378  1.00  0.00     0.074 A 
ATOM     55  C   UNL     1       6.546 -12.475   8.060  1.00  0.00     0.029 A 
ATOM     56  N   UNL     1       6.383 -10.366   8.746  1.00  0.00    -0.354 N 
ATOM     57  N   UNL     1       7.400  -7.848   9.844  1.00  0.00    -0.248 NA
ATOM     58  C   UNL     1       9.116  -6.605  10.830  1.00  0.00     0.031 C 
ATOM     59  C   UNL     1       7.802 -12.060   8.515  1.00  0.00     0.029 A 
ATOM     60  C   UNL     1       7.700 -10.745   8.938  1.00  0.00     0.049 A 
ATOM     61  H   UNL     1       6.012  -9.480   8.963  1.00  0.00     0.167 HD
ATOM     62  C   UNL     1       8.553  -8.620   9.889  1.00  0.00     0.074 A 
ATOM     63  C   UNL     1       9.587  -7.797  10.482  1.00  0.00     0.031 C 
ATOM     64  C   UNL     1       8.729  -9.903   9.492  1.00  0.00     0.034 A 
BRANCH  51  65
ATOM     65  C   UNL     1       3.664 -12.586   7.214  1.00  0.00     0.023 A 
ATOM     66  C   UNL     1       3.522 -12.619   5.812  1.00  0.00     0.012 A 
ATOM     67  C   UNL     1       3.313 -13.717   7.975  1.00  0.00     0.148 A 
ATOM     68  C   UNL     1       3.026 -13.756   5.177  1.00  0.00     0.002 A 
ATOM     69  C   UNL     1       2.844 -14.857   7.332  1.00  0.00     0.091 A 
ATOM     70  F   UNL     1       3.442 -13.655   9.308  1.00  0.00    -0.205 F 
ATOM     71  C   UNL     1       2.696 -14.877   5.935  1.00  0.00     0.022 A 
BRANCH  69  72
ATOM     72  S   UNL     1       2.438 -16.372   8.209  1.00  0.00     0.127 S 
ATOM     73  O   UNL     1       0.983 -16.413   8.063  1.00  0.00    -0.237 OA
ATOM     74  O   UNL     1       3.158 -17.380   7.431  1.00  0.00    -0.237 OA
ATOM     75  O   UNL     1       2.922 -16.191   9.570  1.00  0.00    -0.744 OA
ENDBRANCH  69  72
ENDBRANCH  51  65
BRANCH  52  76
ATOM     76  C   UNL     1       7.432  -4.195  11.062  1.00  0.00     0.023 A 
ATOM     77  C   UNL     1       8.232  -3.421  10.200  1.00  0.00     0.012 A 
ATOM     78  C   UNL     1       7.096  -3.694  12.334  1.00  0.00     0.148 A 
ATOM     79  C   UNL     1       8.686  -2.163  10.597  1.00  0.00     0.002 A 
ATOM     80  C   UNL     1       7.515  -2.423  12.705  1.00  0.00     0.091 A 
ATOM     81  F   UNL     1       6.333  -4.454  13.131  1.00  0.00    -0.205 F 
ATOM     82  C   UNL     1       8.317  -1.659  11.842  1.00  0.00     0.022 A 
BRANCH  80  83
ATOM     83  S   UNL     1       6.996  -1.639  14.235  1.00  0.00     0.127 S 
ATOM     84  O   UNL     1       8.274  -1.418  14.907  1.00  0.00    -0.237 OA
ATOM     85  O   UNL     1       6.341  -0.428  13.739  1.00  0.00    -0.237 OA
ATOM     86  O   UNL     1       6.106  -2.589  14.888  1.00  0.00    -0.744 OA
ENDBRANCH  80  83
ENDBRANCH  52  76
BRANCH  64  87
ATOM     87  C   UNL     1      10.087 -10.519   9.680  1.00  0.00     0.023 A 
ATOM     88  C   UNL     1      10.445 -11.010  10.950  1.00  0.00     0.012 A 
ATOM     89  C   UNL     1      10.947 -10.722   8.585  1.00  0.00     0.148 A 
ATOM     90  C   UNL     1      11.648 -11.693  11.129  1.00  0.00     0.002 A 
ATOM     91  C   UNL     1      12.130 -11.430   8.764  1.00  0.00     0.091 A 
ATOM     92  F   UNL     1      10.584 -10.236   7.389  1.00  0.00    -0.205 F 
ATOM     93  C   UNL     1      12.483 -11.912  10.036  1.00  0.00     0.022 A 
BRANCH  91  94
ATOM     94  S   UNL     1      13.238 -11.826   7.407  1.00  0.00     0.127 S 
ATOM     95  O   UNL     1      14.418 -11.032   7.745  1.00  0.00    -0.237 OA
ATOM     96  O   UNL     1      13.409 -13.271   7.561  1.00  0.00    -0.237 OA
ATOM     97  O   UNL     1      12.547 -11.422   6.190  1.00  0.00    -0.744 OA
ENDBRANCH  91  94
ENDBRANCH  64  87
ENDBRANCH  38  39
ENDBRANCH  30  33
ENDBRANCH  28  29
ENDBRANCH   1  28
TORSDOF 15
