REMARK SMILES Cc1ccc(OCC(=O)Oc2ccc(C(=O)NCCCNC(=O)c3ccc(-c4c5nc(c(-c6cccc(S(=O)(=O)[O-])c6F)c6ccc([nH]6)c(-c6cccc(S(=O)(=O)[O-])c6F)c6nc(c(-c7cccc(S(=O)(=O)[O-])c7F)c7ccc4[nH]7)C=C6)C=C5)cc3)cc2)cc1C
REMARK SMILES IDX 18 1 17 2 15 3 16 4 14 6 11 7 12 8 88 9 13 10 87 11 10 12
REMARK SMILES IDX 8 13 9 14 7 15 6 16 5 17 1 18 2 19 3 20 90 21 4 22 89 23
REMARK SMILES IDX 91 24 19 25 20 26 21 27 22 28 23 30 24 31 25 32 86 33 26 34
REMARK SMILES IDX 85 35 27 36 28 37 29 38 79 39 30 40 84 41 78 42 80 43 31 44
REMARK SMILES IDX 83 45 77 46 76 47 32 49 64 50 44 51 63 52 45 53 48 54 62 55
REMARK SMILES IDX 81 56 46 57 47 58 61 60 82 61 49 62 33 63 34 64 42 65 35 66
REMARK SMILES IDX 37 67 43 68 36 69 38 70 39 71 40 72 41 73 65 74 66 75 74 76
REMARK SMILES IDX 67 77 69 78 75 79 68 80 70 81 71 82 72 83 73 84 50 85 51 86
REMARK SMILES IDX 59 87 52 88 54 89 60 90 53 91 55 92 56 93 57 94 58 95
REMARK H PARENT 17 5 21 29 80 48 48 59
REMARK Flexibility Score: inf
ROOT
ATOM      1  C   UNL     1      -6.662   4.053   6.171  1.00  0.00     0.118 C 
ENDROOT
BRANCH   1   2
ATOM      2  N   UNL     1      -6.050   3.244   7.213  1.00  0.00    -0.352 N 
ATOM      3  C   UNL     1      -5.339   2.071   7.147  1.00  0.00     0.251 C 
ATOM      4  O   UNL     1      -4.797   1.657   8.172  1.00  0.00    -0.269 OA
ATOM      5  H   UNL     1      -6.165   3.599   8.124  1.00  0.00     0.163 HD
BRANCH   3   6
ATOM      6  C   UNL     1      -5.152   1.322   5.877  1.00  0.00     0.040 A 
ATOM      7  C   UNL     1      -4.638  -0.046   3.498  1.00  0.00     0.131 A 
ATOM      8  C   UNL     1      -3.666  -0.020   4.494  1.00  0.00     0.048 A 
ATOM      9  C   UNL     1      -5.892   0.523   3.709  1.00  0.00     0.048 A 
ATOM     10  C   UNL     1      -3.924   0.669   5.682  1.00  0.00     0.017 A 
ATOM     11  C   UNL     1      -6.148   1.198   4.904  1.00  0.00     0.017 A 
BRANCH   7  12
ATOM     12  O   UNL     1      -4.335  -0.726   2.312  1.00  0.00    -0.424 OA
BRANCH  12  13
ATOM     13  C   UNL     1      -4.497   0.016   1.145  1.00  0.00     0.349 C 
ATOM     14  O   UNL     1      -4.884   1.177   1.058  1.00  0.00    -0.248 OA
BRANCH  13  15
ATOM     15  C   UNL     1      -4.128  -0.833  -0.063  1.00  0.00     0.352 C 
BRANCH  15  16
ATOM     16  O   UNL     1      -2.857  -1.462  -0.030  1.00  0.00    -0.482 OA
BRANCH  16  17
ATOM     17  C   UNL     1      -1.746  -0.668  -0.084  1.00  0.00     0.120 A 
ATOM     18  C   UNL     1       1.995   1.505  -0.041  1.00  0.00     0.044 C 
ATOM     19  C   UNL     1       0.717   0.715  -0.075  1.00  0.00    -0.048 A 
ATOM     20  C   UNL     1      -0.501   1.401  -0.183  1.00  0.00     0.007 A 
ATOM     21  C   UNL     1       0.702  -0.690  -0.005  1.00  0.00    -0.045 A 
ATOM     22  C   UNL     1      -1.721   0.718  -0.198  1.00  0.00     0.047 A 
ATOM     23  C   UNL     1      -0.535  -1.360  -0.003  1.00  0.00     0.050 A 
ATOM     24  C   UNL     1       1.949  -1.527   0.067  1.00  0.00     0.045 C 
ENDBRANCH  16  17
ENDBRANCH  15  16
ENDBRANCH  13  15
ENDBRANCH  12  13
ENDBRANCH   7  12
ENDBRANCH   3   6
ENDBRANCH   1   2
BRANCH   1  25
ATOM     25  C   UNL     1      -8.182   3.911   6.164  1.00  0.00     0.042 C 
BRANCH  25  26
ATOM     26  C   UNL     1      -8.873   4.620   7.325  1.00  0.00     0.118 C 
BRANCH  26  27
ATOM     27  N   UNL     1      -8.807   6.069   7.200  1.00  0.00    -0.352 N 
ATOM     28  C   UNL     1      -9.819   6.997   7.165  1.00  0.00     0.251 C 
ATOM     29  H   UNL     1      -7.898   6.441   7.131  1.00  0.00     0.163 HD
ATOM     30  O   UNL     1      -9.559   8.155   6.845  1.00  0.00    -0.269 OA
BRANCH  28  31
ATOM     31  C   UNL     1     -11.211   6.618   7.498  1.00  0.00     0.039 A 
ATOM     32  C   UNL     1     -12.255   7.166   6.747  1.00  0.00     0.014 A 
ATOM     33  C   UNL     1     -11.497   5.769   8.571  1.00  0.00     0.014 A 
ATOM     34  C   UNL     1     -13.579   6.827   7.041  1.00  0.00     0.010 A 
ATOM     35  C   UNL     1     -12.811   5.376   8.817  1.00  0.00     0.010 A 
ATOM     36  C   UNL     1     -13.867   5.910   8.064  1.00  0.00    -0.014 A 
BRANCH  36  37
ATOM     37  C   UNL     1     -15.263   5.495   8.360  1.00  0.00     0.031 A 
ATOM     38  C   UNL     1     -15.882   5.805   9.696  1.00  0.00     0.074 A 
ATOM     39  C   UNL     1     -15.943   4.762   7.457  1.00  0.00     0.049 A 
ATOM     40  N   UNL     1     -17.058   5.468  10.159  1.00  0.00    -0.248 NA
ATOM     41  C   UNL     1     -15.060   6.569  10.649  1.00  0.00     0.031 C 
ATOM     42  C   UNL     1     -15.422   4.326   6.160  1.00  0.00     0.029 A 
ATOM     43  N   UNL     1     -17.205   4.224   7.506  1.00  0.00    -0.354 N 
ATOM     44  C   UNL     1     -17.106   5.946  11.463  1.00  0.00     0.074 A 
ATOM     45  C   UNL     1     -15.826   6.566  11.731  1.00  0.00     0.031 C 
ATOM     46  C   UNL     1     -16.353   3.584   5.540  1.00  0.00     0.029 A 
ATOM     47  C   UNL     1     -17.524   3.469   6.403  1.00  0.00     0.049 A 
ATOM     48  H   UNL     1     -17.822   4.366   8.260  1.00  0.00     0.167 HD
ATOM     49  C   UNL     1     -18.131   5.904  12.348  1.00  0.00     0.034 A 
ATOM     50  C   UNL     1     -18.632   2.755   6.120  1.00  0.00     0.034 A 
ATOM     51  C   UNL     1     -19.416   5.322  12.063  1.00  0.00     0.049 A 
ATOM     52  C   UNL     1     -19.777   2.765   7.096  1.00  0.00     0.074 A 
ATOM     53  C   UNL     1     -20.547   5.301  12.859  1.00  0.00     0.029 A 
ATOM     54  N   UNL     1     -19.739   4.654  10.892  1.00  0.00    -0.354 N 
ATOM     55  N   UNL     1     -19.861   3.359   8.261  1.00  0.00    -0.248 NA
ATOM     56  C   UNL     1     -20.994   2.041   6.701  1.00  0.00     0.031 C 
ATOM     57  C   UNL     1     -21.550   4.606  12.175  1.00  0.00     0.029 A 
ATOM     58  C   UNL     1     -21.051   4.213  10.944  1.00  0.00     0.049 A 
ATOM     59  H   UNL     1     -19.127   4.515  10.134  1.00  0.00     0.167 HD
ATOM     60  C   UNL     1     -21.147   3.108   8.726  1.00  0.00     0.074 A 
ATOM     61  C   UNL     1     -21.814   2.327   7.704  1.00  0.00     0.031 C 
ATOM     62  C   UNL     1     -21.718   3.479   9.899  1.00  0.00     0.034 A 
BRANCH  49  63
ATOM     63  C   UNL     1     -17.920   6.559  13.689  1.00  0.00     0.023 A 
ATOM     64  C   UNL     1     -17.844   7.965  13.768  1.00  0.00     0.012 A 
ATOM     65  C   UNL     1     -17.839   5.797  14.871  1.00  0.00     0.148 A 
ATOM     66  C   UNL     1     -17.648   8.601  14.993  1.00  0.00     0.002 A 
ATOM     67  C   UNL     1     -17.688   6.441  16.095  1.00  0.00     0.091 A 
ATOM     68  F   UNL     1     -17.892   4.461  14.778  1.00  0.00    -0.205 F 
ATOM     69  C   UNL     1     -17.579   7.840  16.157  1.00  0.00     0.022 A 
BRANCH  67  70
ATOM     70  S   UNL     1     -17.669   5.555  17.658  1.00  0.00     0.127 S 
ATOM     71  O   UNL     1     -16.254   5.622  18.018  1.00  0.00    -0.237 OA
ATOM     72  O   UNL     1     -18.549   6.376  18.491  1.00  0.00    -0.237 OA
ATOM     73  O   UNL     1     -18.182   4.223  17.367  1.00  0.00    -0.744 OA
ENDBRANCH  67  70
ENDBRANCH  49  63
BRANCH  50  74
ATOM     74  C   UNL     1     -18.729   2.032   4.821  1.00  0.00     0.023 A 
ATOM     75  C   UNL     1     -19.594   2.518   3.822  1.00  0.00     0.012 A 
ATOM     76  C   UNL     1     -17.931   0.903   4.550  1.00  0.00     0.148 A 
ATOM     77  C   UNL     1     -19.681   1.879   2.584  1.00  0.00     0.002 A 
ATOM     78  C   UNL     1     -17.982   0.305   3.296  1.00  0.00     0.091 A 
ATOM     79  F   UNL     1     -17.122   0.451   5.518  1.00  0.00    -0.205 F 
ATOM     80  C   UNL     1     -18.868   0.781   2.317  1.00  0.00     0.022 A 
BRANCH  78  81
ATOM     81  S   UNL     1     -16.873  -1.024   2.816  1.00  0.00     0.127 S 
ATOM     82  O   UNL     1     -17.784  -2.162   2.740  1.00  0.00    -0.237 OA
ATOM     83  O   UNL     1     -16.371  -0.548   1.526  1.00  0.00    -0.237 OA
ATOM     84  O   UNL     1     -15.861  -1.090   3.864  1.00  0.00    -0.744 OA
ENDBRANCH  78  81
ENDBRANCH  50  74
BRANCH  62  85
ATOM     85  C   UNL     1     -23.148   3.070  10.139  1.00  0.00     0.023 A 
ATOM     86  C   UNL     1     -23.451   1.725  10.428  1.00  0.00     0.012 A 
ATOM     87  C   UNL     1     -24.179   4.030  10.152  1.00  0.00     0.148 A 
ATOM     88  C   UNL     1     -24.763   1.336  10.699  1.00  0.00     0.002 A 
ATOM     89  C   UNL     1     -25.476   3.644  10.469  1.00  0.00     0.091 A 
ATOM     90  F   UNL     1     -23.873   5.301   9.854  1.00  0.00    -0.205 F 
ATOM     91  C   UNL     1     -25.772   2.296  10.731  1.00  0.00     0.022 A 
BRANCH  89  92
ATOM     92  S   UNL     1     -26.820   4.826  10.625  1.00  0.00     0.127 S 
ATOM     93  O   UNL     1     -27.590   4.564   9.411  1.00  0.00    -0.237 OA
ATOM     94  O   UNL     1     -27.470   4.396  11.864  1.00  0.00    -0.237 OA
ATOM     95  O   UNL     1     -26.192   6.138  10.698  1.00  0.00    -0.744 OA
ENDBRANCH  89  92
ENDBRANCH  62  85
ENDBRANCH  36  37
ENDBRANCH  28  31
ENDBRANCH  26  27
ENDBRANCH  25  26
ENDBRANCH   1  25
TORSDOF 18
