REMARK SMILES CCOc1ccccc1[C@@H](C(=O)NCCCNC(=O)c1ccc(-c2c3nc(c(-c4cccc(S(=O)(=O)[O-])c4F)c4ccc([nH]4)c(-c4cccc(S(=O)(=O)[O-])c4F)c4nc(c(-c5cccc(S(=O)(=O)[O-])c5F)c5ccc2[nH]5)C=C4)C=C3)cc1)[NH+]1CCC(C(=O)N2CCCC2)CC1
REMARK SMILES IDX 15 1 14 2 13 3 11 4 12 5 10 7 9 8 4 9 5 10 6 11 8 12 7 13
REMARK SMILES IDX 3 14 2 15 1 16 83 17 84 18 95 19 85 21 94 22 86 23 87 24
REMARK SMILES IDX 88 25 89 26 90 27 93 28 91 29 92 30 16 31 17 32 18 33 19 35
REMARK SMILES IDX 20 36 21 37 82 38 22 39 81 40 23 41 24 42 25 43 75 44 26 45
REMARK SMILES IDX 80 46 74 47 76 48 27 49 79 50 73 51 72 52 28 54 60 55 40 56
REMARK SMILES IDX 59 57 41 58 44 59 58 60 77 61 42 62 43 63 57 65 78 66 45 67
REMARK SMILES IDX 29 68 30 69 38 70 31 71 33 72 39 73 32 74 34 75 35 76 36 77
REMARK SMILES IDX 37 78 61 79 62 80 70 81 63 82 65 83 71 84 64 85 66 86 67 87
REMARK SMILES IDX 68 88 69 89 46 90 47 91 55 92 48 93 50 94 56 95 49 96 51 97
REMARK SMILES IDX 52 98 53 99 54 100
REMARK H PARENT 13 6 83 20 17 34 76 53 44 64
REMARK Flexibility Score: inf
ROOT
ATOM      1  C   UNL     1       1.633  -0.372   4.303  1.00  0.00     0.042 C 
ENDROOT
BRANCH   1   2
ATOM      2  C   UNL     1       1.199   0.549   3.169  1.00  0.00     0.118 C 
BRANCH   2   3
ATOM      3  N   UNL     1       2.265   1.430   2.742  1.00  0.00    -0.351 N 
ATOM      4  C   UNL     1       3.145   1.299   1.700  1.00  0.00     0.283 C 
ATOM      5  O   UNL     1       3.953   2.225   1.576  1.00  0.00    -0.268 OA
ATOM      6  H   UNL     1       2.374   2.246   3.281  1.00  0.00     0.163 HD
BRANCH   4   7
ATOM      7  C   UNL     1       3.020   0.099   0.704  1.00  0.00     0.309 C 
BRANCH   7   8
ATOM      8  C   UNL     1       3.254  -1.278   1.313  1.00  0.00     0.061 A 
ATOM      9  C   UNL     1       2.256  -2.277   1.293  1.00  0.00     0.128 A 
ATOM     10  C   UNL     1       2.528  -3.567   1.754  1.00  0.00     0.047 A 
ATOM     11  C   UNL     1       3.793  -3.878   2.253  1.00  0.00     0.004 A 
ATOM     12  C   UNL     1       4.500  -1.601   1.879  1.00  0.00     0.014 A 
ATOM     13  C   UNL     1       4.770  -2.890   2.337  1.00  0.00     0.001 A 
BRANCH   9  14
ATOM     14  O   UNL     1       0.939  -1.939   1.126  1.00  0.00    -0.493 OA
BRANCH  14  15
ATOM     15  C   UNL     1       0.386  -2.102  -0.177  1.00  0.00     0.226 C 
ATOM     16  C   UNL     1      -0.334  -0.804  -0.541  1.00  0.00     0.049 C 
ENDBRANCH  14  15
ENDBRANCH   9  14
ENDBRANCH   7   8
BRANCH   7  17
ATOM     17  N   UNL     1       3.767   0.337  -0.581  1.00  0.00    -0.321 N 
ATOM     18  C   UNL     1       5.227   0.462  -0.461  1.00  0.00     0.263 C 
ATOM     19  C   UNL     1       3.440  -0.660  -1.609  1.00  0.00     0.263 C 
ATOM     20  H   UNL     1       3.431   1.256  -0.869  1.00  0.00     0.349 HD
ATOM     21  C   UNL     1       5.766   1.034  -1.774  1.00  0.00     0.075 C 
ATOM     22  C   UNL     1       3.989  -0.259  -2.973  1.00  0.00     0.075 C 
ATOM     23  C   UNL     1       5.486   0.073  -2.921  1.00  0.00     0.090 C 
BRANCH  23  24
ATOM     24  C   UNL     1       5.922   0.427  -4.343  1.00  0.00     0.226 C 
ATOM     25  O   UNL     1       6.385  -0.472  -5.058  1.00  0.00    -0.275 OA
ATOM     26  N   UNL     1       5.514   1.607  -4.911  1.00  0.00    -0.342 N 
ATOM     27  C   UNL     1       5.528   2.961  -4.401  1.00  0.00     0.119 C 
ATOM     28  C   UNL     1       4.915   1.588  -6.233  1.00  0.00     0.119 C 
ATOM     29  C   UNL     1       4.240   3.530  -4.958  1.00  0.00     0.023 C 
ATOM     30  C   UNL     1       4.215   2.941  -6.368  1.00  0.00     0.023 C 
ENDBRANCH  23  24
ENDBRANCH   7  17
ENDBRANCH   4   7
ENDBRANCH   2   3
ENDBRANCH   1   2
BRANCH   1  31
ATOM     31  C   UNL     1       1.827   0.361   5.624  1.00  0.00     0.118 C 
BRANCH  31  32
ATOM     32  N   UNL     1       0.583   0.937   6.119  1.00  0.00    -0.352 N 
ATOM     33  C   UNL     1       0.001   0.844   7.353  1.00  0.00     0.251 C 
ATOM     34  H   UNL     1       0.085   1.477   5.464  1.00  0.00     0.163 HD
ATOM     35  O   UNL     1      -1.156   1.247   7.501  1.00  0.00    -0.269 OA
BRANCH  33  36
ATOM     36  C   UNL     1       0.734   0.264   8.496  1.00  0.00     0.039 A 
ATOM     37  C   UNL     1       0.029  -0.526   9.408  1.00  0.00     0.014 A 
ATOM     38  C   UNL     1       2.093   0.520   8.698  1.00  0.00     0.014 A 
ATOM     39  C   UNL     1       0.695  -1.087  10.497  1.00  0.00     0.010 A 
ATOM     40  C   UNL     1       2.773  -0.110   9.736  1.00  0.00     0.010 A 
ATOM     41  C   UNL     1       2.079  -0.905  10.657  1.00  0.00    -0.014 A 
BRANCH  41  42
ATOM     42  C   UNL     1       2.801  -1.554  11.778  1.00  0.00     0.031 A 
ATOM     43  C   UNL     1       3.498  -0.731  12.827  1.00  0.00     0.074 A 
ATOM     44  C   UNL     1       2.884  -2.898  11.814  1.00  0.00     0.049 A 
ATOM     45  N   UNL     1       4.157  -1.131  13.883  1.00  0.00    -0.248 NA
ATOM     46  C   UNL     1       3.479   0.730  12.652  1.00  0.00     0.031 C 
ATOM     47  C   UNL     1       2.347  -3.803  10.795  1.00  0.00     0.029 A 
ATOM     48  N   UNL     1       3.471  -3.736  12.727  1.00  0.00    -0.354 N 
ATOM     49  C   UNL     1       4.657   0.020  14.480  1.00  0.00     0.074 A 
ATOM     50  C   UNL     1       4.261   1.132  13.643  1.00  0.00     0.031 C 
ATOM     51  C   UNL     1       2.623  -5.069  11.143  1.00  0.00     0.029 A 
ATOM     52  C   UNL     1       3.376  -5.066  12.393  1.00  0.00     0.049 A 
ATOM     53  H   UNL     1       3.918  -3.416  13.544  1.00  0.00     0.167 HD
ATOM     54  C   UNL     1       5.355   0.146  15.634  1.00  0.00     0.034 A 
ATOM     55  C   UNL     1       3.844  -6.162  13.021  1.00  0.00     0.034 A 
ATOM     56  C   UNL     1       5.720  -0.962  16.477  1.00  0.00     0.049 A 
ATOM     57  C   UNL     1       4.550  -6.001  14.337  1.00  0.00     0.074 A 
ATOM     58  C   UNL     1       6.336  -0.937  17.716  1.00  0.00     0.029 A 
ATOM     59  N   UNL     1       5.517  -2.297  16.160  1.00  0.00    -0.354 N 
ATOM     60  N   UNL     1       4.849  -4.901  14.984  1.00  0.00    -0.248 NA
ATOM     61  C   UNL     1       4.940  -7.234  15.035  1.00  0.00     0.031 C 
ATOM     62  C   UNL     1       6.533  -2.259  18.133  1.00  0.00     0.029 A 
ATOM     63  C   UNL     1       6.008  -3.107  17.171  1.00  0.00     0.049 A 
ATOM     64  H   UNL     1       5.087  -2.622  15.336  1.00  0.00     0.167 HD
ATOM     65  C   UNL     1       5.442  -5.306  16.174  1.00  0.00     0.074 A 
ATOM     66  C   UNL     1       5.428  -6.755  16.171  1.00  0.00     0.031 C 
ATOM     67  C   UNL     1       5.964  -4.548  17.171  1.00  0.00     0.034 A 
BRANCH  54  68
ATOM     68  C   UNL     1       5.729   1.540  16.071  1.00  0.00     0.023 A 
ATOM     69  C   UNL     1       4.722   2.435  16.491  1.00  0.00     0.012 A 
ATOM     70  C   UNL     1       7.074   1.959  16.096  1.00  0.00     0.148 A 
ATOM     71  C   UNL     1       5.040   3.736  16.879  1.00  0.00     0.002 A 
ATOM     72  C   UNL     1       7.388   3.242  16.532  1.00  0.00     0.091 A 
ATOM     73  F   UNL     1       8.019   1.107  15.674  1.00  0.00    -0.205 F 
ATOM     74  C   UNL     1       6.372   4.136  16.909  1.00  0.00     0.022 A 
BRANCH  72  75
ATOM     75  S   UNL     1       9.081   3.821  16.686  1.00  0.00     0.127 S 
ATOM     76  O   UNL     1       9.186   4.734  15.548  1.00  0.00    -0.237 OA
ATOM     77  O   UNL     1       9.065   4.480  17.994  1.00  0.00    -0.237 OA
ATOM     78  O   UNL     1       9.918   2.633  16.619  1.00  0.00    -0.744 OA
ENDBRANCH  72  75
ENDBRANCH  54  68
BRANCH  55  79
ATOM     79  C   UNL     1       3.595  -7.505  12.429  1.00  0.00     0.023 A 
ATOM     80  C   UNL     1       2.667  -8.374  13.034  1.00  0.00     0.012 A 
ATOM     81  C   UNL     1       4.225  -7.896  11.232  1.00  0.00     0.148 A 
ATOM     82  C   UNL     1       2.391  -9.621  12.472  1.00  0.00     0.002 A 
ATOM     83  C   UNL     1       3.901  -9.113  10.645  1.00  0.00     0.091 A 
ATOM     84  F   UNL     1       5.110  -7.055  10.678  1.00  0.00    -0.205 F 
ATOM     85  C   UNL     1       2.998  -9.985  11.272  1.00  0.00     0.022 A 
BRANCH  83  86
ATOM     86  S   UNL     1       4.522  -9.596   9.030  1.00  0.00     0.127 S 
ATOM     87  O   UNL     1       5.403 -10.712   9.371  1.00  0.00    -0.237 OA
ATOM     88  O   UNL     1       3.288  -9.976   8.337  1.00  0.00    -0.237 OA
ATOM     89  O   UNL     1       5.176  -8.418   8.487  1.00  0.00    -0.744 OA
ENDBRANCH  83  86
ENDBRANCH  55  79
BRANCH  67  90
ATOM     90  C   UNL     1       6.553  -5.274  18.354  1.00  0.00     0.023 A 
ATOM     91  C   UNL     1       7.756  -5.994  18.208  1.00  0.00     0.012 A 
ATOM     92  C   UNL     1       5.936  -5.211  19.619  1.00  0.00     0.148 A 
ATOM     93  C   UNL     1       8.310  -6.677  19.290  1.00  0.00     0.002 A 
ATOM     94  C   UNL     1       6.522  -5.851  20.704  1.00  0.00     0.091 A 
ATOM     95  F   UNL     1       4.781  -4.539  19.736  1.00  0.00    -0.205 F 
ATOM     96  C   UNL     1       7.699  -6.597  20.539  1.00  0.00     0.022 A 
BRANCH  94  97
ATOM     97  S   UNL     1       5.855  -5.720  22.367  1.00  0.00     0.127 S 
ATOM     98  O   UNL     1       5.225  -7.027  22.540  1.00  0.00    -0.237 OA
ATOM     99  O   UNL     1       7.061  -5.513  23.172  1.00  0.00    -0.237 OA
ATOM    100  O   UNL     1       4.947  -4.581  22.343  1.00  0.00    -0.744 OA
ENDBRANCH  94  97
ENDBRANCH  67  90
ENDBRANCH  41  42
ENDBRANCH  33  36
ENDBRANCH  31  32
ENDBRANCH   1  31
TORSDOF 18
