REMARK SMILES O=C(NCCCNC(=O)[C@@H]1CC[C@H](CNc2c(F)c(F)c(F)c(F)c2F)O1)c1ccc(-c2c3nc(c(-c4cccc(S(=O)(=O)[O-])c4F)c4ccc([nH]4)c(-c4cccc(S(=O)(=O)[O-])c4F)c4nc(c(-c5cccc(S(=O)(=O)[O-])c5F)c5ccc2[nH]5)C=C4)C=C3)cc1
REMARK SMILES IDX 5 1 4 2 3 3 1 4 2 5 28 7 29 8 90 9 30 10 89 11 31 12 32 13
REMARK SMILES IDX 33 14 83 15 34 16 88 17 82 18 84 19 35 20 87 21 81 22 80 23
REMARK SMILES IDX 36 25 68 26 48 27 67 28 49 29 52 30 66 31 85 32 50 33 51 34
REMARK SMILES IDX 65 36 86 37 53 38 37 39 38 40 46 41 39 42 41 43 47 44 40 45
REMARK SMILES IDX 42 46 43 47 44 48 45 49 69 50 70 51 78 52 71 53 73 54 79 55
REMARK SMILES IDX 72 56 74 57 75 58 76 59 77 60 54 61 55 62 63 63 56 64 58 65
REMARK SMILES IDX 64 66 57 67 59 68 60 69 61 70 62 71 6 72 7 73 8 74 9 76
REMARK SMILES IDX 10 77 11 78 27 79 12 80 13 81 14 82 15 83 16 85 17 86 25 87
REMARK SMILES IDX 18 88 19 89 23 90 26 91 20 92 21 93 24 94 22 95
REMARK H PARENT 3 6 84 24 52 35 7 75 15 84
REMARK Flexibility Score: inf
ROOT
ATOM      1  C   UNL     1       4.635  -2.685  -0.712  1.00  0.00     0.042 C 
ENDROOT
BRANCH   1   2
ATOM      2  C   UNL     1       4.412  -1.188  -0.915  1.00  0.00     0.118 C 
BRANCH   2   3
ATOM      3  N   UNL     1       3.004  -0.814  -0.920  1.00  0.00    -0.352 N 
ATOM      4  O   UNL     1       1.090   0.129  -0.220  1.00  0.00    -0.269 OA
ATOM      5  C   UNL     1       2.315   0.080  -0.133  1.00  0.00     0.251 C 
ATOM      6  H   UNL     1       2.457  -1.275  -1.596  1.00  0.00     0.163 HD
BRANCH   5   7
ATOM      7  C   UNL     1       3.027   0.948   0.832  1.00  0.00     0.039 A 
ATOM      8  C   UNL     1       4.228   1.574   0.497  1.00  0.00     0.014 A 
ATOM      9  C   UNL     1       2.468   1.155   2.098  1.00  0.00     0.014 A 
ATOM     10  C   UNL     1       4.951   2.256   1.472  1.00  0.00     0.010 A 
ATOM     11  C   UNL     1       3.155   1.915   3.051  1.00  0.00     0.010 A 
ATOM     12  C   UNL     1       4.429   2.428   2.765  1.00  0.00    -0.014 A 
BRANCH  12  13
ATOM     13  C   UNL     1       5.226   3.163   3.783  1.00  0.00     0.031 A 
ATOM     14  C   UNL     1       5.720   2.478   5.031  1.00  0.00     0.074 A 
ATOM     15  C   UNL     1       5.532   4.458   3.566  1.00  0.00     0.049 A 
ATOM     16  N   UNL     1       6.500   2.947   5.972  1.00  0.00    -0.248 NA
ATOM     17  C   UNL     1       5.277   1.093   5.262  1.00  0.00     0.031 C 
ATOM     18  C   UNL     1       5.070   5.252   2.426  1.00  0.00     0.029 A 
ATOM     19  N   UNL     1       6.310   5.331   4.285  1.00  0.00    -0.354 N 
ATOM     20  C   UNL     1       6.607   1.939   6.923  1.00  0.00     0.074 A 
ATOM     21  C   UNL     1       5.803   0.832   6.452  1.00  0.00     0.031 C 
ATOM     22  C   UNL     1       5.602   6.481   2.500  1.00  0.00     0.029 A 
ATOM     23  C   UNL     1       6.414   6.576   3.709  1.00  0.00     0.049 A 
ATOM     24  H   UNL     1       6.751   5.090   5.131  1.00  0.00     0.167 HD
ATOM     25  C   UNL     1       7.325   1.925   8.072  1.00  0.00     0.034 A 
ATOM     26  C   UNL     1       7.092   7.671   4.103  1.00  0.00     0.034 A 
ATOM     27  C   UNL     1       8.168   3.004   8.514  1.00  0.00     0.049 A 
ATOM     28  C   UNL     1       7.928   7.605   5.350  1.00  0.00     0.074 A 
ATOM     29  C   UNL     1       8.995   3.051   9.623  1.00  0.00     0.029 A 
ATOM     30  N   UNL     1       8.293   4.226   7.872  1.00  0.00    -0.354 N 
ATOM     31  N   UNL     1       8.134   6.589   6.152  1.00  0.00    -0.248 NA
ATOM     32  C   UNL     1       8.653   8.827   5.728  1.00  0.00     0.031 C 
ATOM     33  C   UNL     1       9.611   4.306   9.658  1.00  0.00     0.029 A 
ATOM     34  C   UNL     1       9.179   5.036   8.563  1.00  0.00     0.049 A 
ATOM     35  H   UNL     1       7.821   4.481   7.046  1.00  0.00     0.167 HD
ATOM     36  C   UNL     1       9.034   7.038   7.111  1.00  0.00     0.074 A 
ATOM     37  C   UNL     1       9.353   8.411   6.774  1.00  0.00     0.031 C 
ATOM     38  C   UNL     1       9.535   6.379   8.184  1.00  0.00     0.034 A 
BRANCH  25  39
ATOM     39  C   UNL     1       7.276   0.678   8.917  1.00  0.00     0.023 A 
ATOM     40  C   UNL     1       7.979  -0.470   8.502  1.00  0.00     0.012 A 
ATOM     41  C   UNL     1       6.598   0.663  10.152  1.00  0.00     0.148 A 
ATOM     42  C   UNL     1       7.988  -1.622   9.288  1.00  0.00     0.002 A 
ATOM     43  C   UNL     1       6.642  -0.476  10.949  1.00  0.00     0.091 A 
ATOM     44  F   UNL     1       5.914   1.756  10.521  1.00  0.00    -0.205 F 
ATOM     45  C   UNL     1       7.329  -1.622  10.514  1.00  0.00     0.022 A 
BRANCH  43  46
ATOM     46  S   UNL     1       5.886  -0.543  12.578  1.00  0.00     0.127 S 
ATOM     47  O   UNL     1       4.684  -1.332  12.313  1.00  0.00    -0.237 OA
ATOM     48  O   UNL     1       6.907  -1.234  13.367  1.00  0.00    -0.237 OA
ATOM     49  O   UNL     1       5.659   0.842  12.966  1.00  0.00    -0.744 OA
ENDBRANCH  43  46
ENDBRANCH  25  39
BRANCH  26  50
ATOM     50  C   UNL     1       7.071   8.896   3.256  1.00  0.00     0.023 A 
ATOM     51  C   UNL     1       8.235   9.272   2.557  1.00  0.00     0.012 A 
ATOM     52  C   UNL     1       5.899   9.660   3.099  1.00  0.00     0.148 A 
ATOM     53  C   UNL     1       8.238  10.399   1.736  1.00  0.00     0.002 A 
ATOM     54  C   UNL     1       5.893  10.749   2.235  1.00  0.00     0.091 A 
ATOM     55  F   UNL     1       4.807   9.299   3.788  1.00  0.00    -0.205 F 
ATOM     56  C   UNL     1       7.065  11.130   1.564  1.00  0.00     0.022 A 
BRANCH  54  57
ATOM     57  S   UNL     1       4.388  11.652   1.852  1.00  0.00     0.127 S 
ATOM     58  O   UNL     1       4.561  12.869   2.640  1.00  0.00    -0.237 OA
ATOM     59  O   UNL     1       4.500  11.834   0.404  1.00  0.00    -0.237 OA
ATOM     60  O   UNL     1       3.298  10.775   2.259  1.00  0.00    -0.744 OA
ENDBRANCH  54  57
ENDBRANCH  26  50
BRANCH  38  61
ATOM     61  C   UNL     1      10.507   7.121   9.063  1.00  0.00     0.023 A 
ATOM     62  C   UNL     1      10.036   8.130   9.925  1.00  0.00     0.012 A 
ATOM     63  C   UNL     1      11.872   6.777   9.081  1.00  0.00     0.148 A 
ATOM     64  C   UNL     1      10.915   8.809  10.769  1.00  0.00     0.002 A 
ATOM     65  C   UNL     1      12.735   7.428   9.956  1.00  0.00     0.091 A 
ATOM     66  F   UNL     1      12.307   5.830   8.236  1.00  0.00    -0.205 F 
ATOM     67  C   UNL     1      12.261   8.450  10.792  1.00  0.00     0.022 A 
BRANCH  65  68
ATOM     68  S   UNL     1      14.463   6.958  10.108  1.00  0.00     0.127 S 
ATOM     69  O   UNL     1      15.122   7.973   9.289  1.00  0.00    -0.237 OA
ATOM     70  O   UNL     1      14.701   7.088  11.546  1.00  0.00    -0.237 OA
ATOM     71  O   UNL     1      14.543   5.592   9.609  1.00  0.00    -0.744 OA
ENDBRANCH  65  68
ENDBRANCH  38  61
ENDBRANCH  12  13
ENDBRANCH   5   7
ENDBRANCH   2   3
ENDBRANCH   1   2
BRANCH   1  72
ATOM     72  C   UNL     1       4.068  -3.561  -1.824  1.00  0.00     0.117 C 
BRANCH  72  73
ATOM     73  N   UNL     1       4.673  -3.268  -3.111  1.00  0.00    -0.354 N 
ATOM     74  C   UNL     1       5.670  -3.945  -3.759  1.00  0.00     0.249 C 
ATOM     75  H   UNL     1       4.319  -2.478  -3.580  1.00  0.00     0.163 HD
ATOM     76  O   UNL     1       6.078  -3.501  -4.833  1.00  0.00    -0.272 OA
BRANCH  74  77
ATOM     77  C   UNL     1       6.231  -5.220  -3.115  1.00  0.00     0.207 C 
ATOM     78  C   UNL     1       7.485  -5.740  -3.801  1.00  0.00     0.045 C 
ATOM     79  O   UNL     1       5.259  -6.282  -3.179  1.00  0.00    -0.363 OA
ATOM     80  C   UNL     1       7.390  -7.224  -3.559  1.00  0.00     0.037 C 
ATOM     81  C   UNL     1       5.894  -7.479  -3.662  1.00  0.00     0.138 C 
BRANCH  81  82
ATOM     82  C   UNL     1       5.401  -7.798  -5.093  1.00  0.00     0.145 C 
BRANCH  82  83
ATOM     83  N   UNL     1       5.916  -9.092  -5.526  1.00  0.00    -0.378 N 
ATOM     84  H   UNL     1       6.882  -9.252  -5.426  1.00  0.00     0.160 HD
BRANCH  83  85
ATOM     85  C   UNL     1       5.152 -10.115  -6.067  1.00  0.00     0.113 A 
ATOM     86  C   UNL     1       3.938  -9.942  -6.748  1.00  0.00     0.188 A 
ATOM     87  C   UNL     1       5.590 -11.441  -5.882  1.00  0.00     0.188 A 
ATOM     88  F   UNL     1       3.471  -8.709  -7.001  1.00  0.00    -0.201 F 
ATOM     89  C   UNL     1       3.204 -11.034  -7.212  1.00  0.00     0.199 A 
ATOM     90  C   UNL     1       4.855 -12.531  -6.332  1.00  0.00     0.199 A 
ATOM     91  F   UNL     1       6.745 -11.658  -5.229  1.00  0.00    -0.201 F 
ATOM     92  F   UNL     1       2.054 -10.835  -7.872  1.00  0.00    -0.200 F 
ATOM     93  C   UNL     1       3.659 -12.326  -6.997  1.00  0.00     0.200 A 
ATOM     94  F   UNL     1       5.301 -13.777  -6.114  1.00  0.00    -0.200 F 
ATOM     95  F   UNL     1       2.945 -13.373  -7.434  1.00  0.00    -0.200 F 
ENDBRANCH  83  85
ENDBRANCH  82  83
ENDBRANCH  81  82
ENDBRANCH  74  77
ENDBRANCH  72  73
ENDBRANCH   1  72
TORSDOF 16
