REMARK SMILES COC(=O)c1cccc(-c2cnc(Cl)cc2C(=O)NCCCNC(=O)c2ccc(-c3c4nc(c(-c5cccc(S(=O)(=O)[O-])c5F)c5ccc([nH]5)c(-c5cccc(S(=O)(=O)[O-])c5F)c5nc(c(-c6cccc(S(=O)(=O)[O-])c6F)c6ccc3[nH]6)C=C5)C=C4)cc2)c1
REMARK SMILES IDX 21 1 20 2 19 3 17 4 18 5 16 7 10 8 11 9 12 10 15 11 13 12
REMARK SMILES IDX 14 13 9 14 5 15 6 16 89 17 7 18 8 19 3 20 4 21 2 22 1 23
REMARK SMILES IDX 22 24 23 25 24 26 25 28 26 29 27 30 88 31 28 32 87 33 29 34
REMARK SMILES IDX 30 35 31 36 81 37 32 38 86 39 80 40 82 41 33 42 85 43 79 44
REMARK SMILES IDX 78 45 34 47 66 48 46 49 65 50 47 51 50 52 64 53 83 54 48 55
REMARK SMILES IDX 49 56 63 58 84 59 51 60 35 61 36 62 44 63 37 64 39 65 45 66
REMARK SMILES IDX 38 67 40 68 41 69 42 70 43 71 67 72 68 73 76 74 69 75 71 76
REMARK SMILES IDX 77 77 70 78 72 79 73 80 74 81 75 82 52 83 53 84 61 85 54 86
REMARK SMILES IDX 56 87 62 88 55 89 57 90 58 91 59 92 60 93
REMARK H PARENT 19 6 23 27 82 46 50 57
REMARK Flexibility Score: inf
ROOT
ATOM      1  C   UNL     1      -6.789   4.247  -1.359  1.00  0.00     0.042 C 
ENDROOT
BRANCH   1   2
ATOM      2  C   UNL     1      -5.987   5.160  -2.284  1.00  0.00     0.118 C 
BRANCH   2   3
ATOM      3  N   UNL     1      -4.565   4.923  -2.136  1.00  0.00    -0.352 N 
ATOM      4  C   UNL     1      -3.608   4.194  -2.786  1.00  0.00     0.252 C 
ATOM      5  O   UNL     1      -2.492   4.299  -2.279  1.00  0.00    -0.269 OA
ATOM      6  H   UNL     1      -4.192   5.415  -1.369  1.00  0.00     0.163 HD
BRANCH   4   7
ATOM      7  C   UNL     1      -3.824   3.372  -4.030  1.00  0.00     0.052 A 
ATOM      8  C   UNL     1      -2.716   2.926  -4.800  1.00  0.00     0.013 A 
ATOM      9  C   UNL     1      -3.005   2.310  -6.026  1.00  0.00     0.122 A 
ATOM     10  N   UNL     1      -4.241   2.096  -6.520  1.00  0.00    -0.244 NA
ATOM     11  C   UNL     1      -5.106   3.048  -4.482  1.00  0.00     0.055 A 
ATOM     12  C   UNL     1      -5.255   2.452  -5.721  1.00  0.00     0.129 A 
ATOM     13  Cl  UNL     1      -6.814   2.148  -6.369  1.00  0.00    -0.062 Cl
BRANCH   8  14
ATOM     14  C   UNL     1      -1.297   3.039  -4.412  1.00  0.00    -0.015 A 
ATOM     15  C   UNL     1       0.528   2.536  -2.869  1.00  0.00     0.060 A 
ATOM     16  C   UNL     1       1.383   3.357  -3.611  1.00  0.00     0.016 A 
ATOM     17  C   UNL     1      -0.796   2.352  -3.289  1.00  0.00     0.024 A 
ATOM     18  C   UNL     1       0.920   3.991  -4.762  1.00  0.00     0.002 A 
ATOM     19  C   UNL     1      -0.412   3.839  -5.155  1.00  0.00     0.009 A 
BRANCH  15  20
ATOM     20  C   UNL     1       1.052   1.935  -1.616  1.00  0.00     0.337 C 
ATOM     21  O   UNL     1       2.018   2.377  -1.016  1.00  0.00    -0.246 OA
BRANCH  20  22
ATOM     22  O   UNL     1       0.350   0.820  -1.293  1.00  0.00    -0.465 OA
ATOM     23  C   UNL     1       0.822   0.158  -0.117  1.00  0.00     0.282 C 
ENDBRANCH  20  22
ENDBRANCH  15  20
ENDBRANCH   8  14
ENDBRANCH   4   7
ENDBRANCH   2   3
ENDBRANCH   1   2
BRANCH   1  24
ATOM     24  C   UNL     1      -6.656   4.625   0.117  1.00  0.00     0.118 C 
BRANCH  24  25
ATOM     25  N   UNL     1      -7.170   5.963   0.380  1.00  0.00    -0.352 N 
ATOM     26  C   UNL     1      -8.213   6.375   1.167  1.00  0.00     0.251 C 
ATOM     27  H   UNL     1      -6.692   6.688  -0.084  1.00  0.00     0.163 HD
ATOM     28  O   UNL     1      -8.658   7.510   1.017  1.00  0.00    -0.269 OA
BRANCH  26  29
ATOM     29  C   UNL     1      -8.784   5.484   2.199  1.00  0.00     0.039 A 
ATOM     30  C   UNL     1     -10.150   5.572   2.482  1.00  0.00     0.014 A 
ATOM     31  C   UNL     1      -7.970   4.630   2.949  1.00  0.00     0.014 A 
ATOM     32  C   UNL     1     -10.696   4.801   3.508  1.00  0.00     0.010 A 
ATOM     33  C   UNL     1      -8.533   3.793   3.906  1.00  0.00     0.010 A 
ATOM     34  C   UNL     1      -9.893   3.900   4.226  1.00  0.00    -0.014 A 
BRANCH  34  35
ATOM     35  C   UNL     1     -10.456   3.103   5.344  1.00  0.00     0.031 A 
ATOM     36  C   UNL     1      -9.935   3.286   6.745  1.00  0.00     0.074 A 
ATOM     37  C   UNL     1     -11.402   2.179   5.090  1.00  0.00     0.049 A 
ATOM     38  N   UNL     1     -10.309   2.692   7.849  1.00  0.00    -0.248 NA
ATOM     39  C   UNL     1      -8.825   4.237   6.929  1.00  0.00     0.031 C 
ATOM     40  C   UNL     1     -11.921   1.845   3.763  1.00  0.00     0.029 A 
ATOM     41  N   UNL     1     -12.081   1.339   5.935  1.00  0.00    -0.354 N 
ATOM     42  C   UNL     1      -9.458   3.162   8.842  1.00  0.00     0.074 A 
ATOM     43  C   UNL     1      -8.520   4.058   8.205  1.00  0.00     0.031 C 
ATOM     44  C   UNL     1     -12.847   0.881   3.884  1.00  0.00     0.029 A 
ATOM     45  C   UNL     1     -12.968   0.510   5.290  1.00  0.00     0.049 A 
ATOM     46  H   UNL     1     -11.946   1.330   6.910  1.00  0.00     0.167 HD
ATOM     47  C   UNL     1      -9.473   2.896  10.171  1.00  0.00     0.034 A 
ATOM     48  C   UNL     1     -13.787  -0.441   5.777  1.00  0.00     0.034 A 
ATOM     49  C   UNL     1     -10.434   2.034  10.803  1.00  0.00     0.049 A 
ATOM     50  C   UNL     1     -13.837  -0.667   7.263  1.00  0.00     0.074 A 
ATOM     51  C   UNL     1     -10.603   1.774  12.151  1.00  0.00     0.029 A 
ATOM     52  N   UNL     1     -11.383   1.281  10.128  1.00  0.00    -0.354 N 
ATOM     53  N   UNL     1     -13.137  -0.090   8.209  1.00  0.00    -0.248 NA
ATOM     54  C   UNL     1     -14.825  -1.638   7.752  1.00  0.00     0.031 C 
ATOM     55  C   UNL     1     -11.630   0.832  12.287  1.00  0.00     0.029 A 
ATOM     56  C   UNL     1     -12.133   0.545  11.028  1.00  0.00     0.049 A 
ATOM     57  H   UNL     1     -11.505   1.271   9.151  1.00  0.00     0.167 HD
ATOM     58  C   UNL     1     -13.624  -0.597   9.408  1.00  0.00     0.074 A 
ATOM     59  C   UNL     1     -14.693  -1.514   9.066  1.00  0.00     0.031 C 
ATOM     60  C   UNL     1     -13.219  -0.334  10.676  1.00  0.00     0.034 A 
BRANCH  47  61
ATOM     61  C   UNL     1      -8.432   3.571  11.030  1.00  0.00     0.023 A 
ATOM     62  C   UNL     1      -8.476   4.968  11.225  1.00  0.00     0.012 A 
ATOM     63  C   UNL     1      -7.427   2.820  11.669  1.00  0.00     0.148 A 
ATOM     64  C   UNL     1      -7.508   5.611  11.998  1.00  0.00     0.002 A 
ATOM     65  C   UNL     1      -6.498   3.460  12.482  1.00  0.00     0.091 A 
ATOM     66  F   UNL     1      -7.385   1.496  11.457  1.00  0.00    -0.205 F 
ATOM     67  C   UNL     1      -6.527   4.856  12.633  1.00  0.00     0.022 A 
BRANCH  65  68
ATOM     68  S   UNL     1      -5.250   2.567  13.413  1.00  0.00     0.127 S 
ATOM     69  O   UNL     1      -4.030   2.927  12.692  1.00  0.00    -0.237 OA
ATOM     70  O   UNL     1      -5.371   3.166  14.743  1.00  0.00    -0.237 OA
ATOM     71  O   UNL     1      -5.626   1.162  13.345  1.00  0.00    -0.744 OA
ENDBRANCH  65  68
ENDBRANCH  47  61
BRANCH  48  72
ATOM     72  C   UNL     1     -14.673  -1.196   4.849  1.00  0.00     0.023 A 
ATOM     73  C   UNL     1     -16.061  -0.956   4.858  1.00  0.00     0.012 A 
ATOM     74  C   UNL     1     -14.139  -2.112   3.922  1.00  0.00     0.148 A 
ATOM     75  C   UNL     1     -16.905  -1.638   3.981  1.00  0.00     0.002 A 
ATOM     76  C   UNL     1     -14.978  -2.744   3.013  1.00  0.00     0.091 A 
ATOM     77  F   UNL     1     -12.816  -2.325   3.934  1.00  0.00    -0.205 F 
ATOM     78  C   UNL     1     -16.363  -2.523   3.053  1.00  0.00     0.022 A 
BRANCH  76  79
ATOM     79  S   UNL     1     -14.355  -3.793   1.695  1.00  0.00     0.127 S 
ATOM     80  O   UNL     1     -14.878  -5.101   2.081  1.00  0.00    -0.237 OA
ATOM     81  O   UNL     1     -14.988  -3.198   0.517  1.00  0.00    -0.237 OA
ATOM     82  O   UNL     1     -12.906  -3.658   1.732  1.00  0.00    -0.744 OA
ENDBRANCH  76  79
ENDBRANCH  48  72
BRANCH  60  83
ATOM     83  C   UNL     1     -13.968  -1.007  11.797  1.00  0.00     0.023 A 
ATOM     84  C   UNL     1     -13.843  -2.395  12.005  1.00  0.00     0.012 A 
ATOM     85  C   UNL     1     -14.761  -0.245  12.679  1.00  0.00     0.148 A 
ATOM     86  C   UNL     1     -14.534  -3.021  13.042  1.00  0.00     0.002 A 
ATOM     87  C   UNL     1     -15.400  -0.867  13.744  1.00  0.00     0.091 A 
ATOM     88  F   UNL     1     -14.884   1.071  12.456  1.00  0.00    -0.205 F 
ATOM     89  C   UNL     1     -15.302  -2.257  13.917  1.00  0.00     0.022 A 
BRANCH  87  90
ATOM     90  S   UNL     1     -16.322   0.057  14.978  1.00  0.00     0.127 S 
ATOM     91  O   UNL     1     -17.703  -0.254  14.613  1.00  0.00    -0.237 OA
ATOM     92  O   UNL     1     -15.869  -0.556  16.228  1.00  0.00    -0.237 OA
ATOM     93  O   UNL     1     -15.927   1.449  14.813  1.00  0.00    -0.744 OA
ENDBRANCH  87  90
ENDBRANCH  60  83
ENDBRANCH  34  35
ENDBRANCH  26  29
ENDBRANCH  24  25
ENDBRANCH   1  24
TORSDOF 16
