REMARK SMILES O=C(NCCCNC(=O)c1nn(Cc2ccc(F)cc2)c2c1CN(C(=O)[C@H]1CC1(F)F)CC2)c1ccc(-c2c3nc(c(-c4cccc(S(=O)(=O)[O-])c4F)c4ccc([nH]4)c(-c4cccc(S(=O)(=O)[O-])c4F)c4nc(c(-c5cccc(S(=O)(=O)[O-])c5F)c5ccc2[nH]5)C=C4)C=C3)cc1
REMARK SMILES IDX 4 1 3 2 1 3 2 4 34 6 35 7 96 8 36 9 95 10 37 11 38 12 39 13
REMARK SMILES IDX 89 14 40 15 94 16 88 17 90 18 41 19 93 20 87 21 86 22 42 24
REMARK SMILES IDX 74 25 54 26 73 27 55 28 58 29 72 30 91 31 56 32 57 33 71 35
REMARK SMILES IDX 92 36 59 37 43 38 44 39 52 40 45 41 47 42 53 43 46 44 48 45
REMARK SMILES IDX 49 46 50 47 51 48 75 49 76 50 84 51 77 52 79 53 85 54 78 55
REMARK SMILES IDX 80 56 81 57 82 58 83 59 60 60 61 61 69 62 62 63 64 64 70 65
REMARK SMILES IDX 63 66 65 67 66 68 67 69 68 70 5 71 6 72 7 73 8 74 9 76 10 77
REMARK SMILES IDX 11 78 22 79 12 80 21 81 23 82 33 83 24 84 32 85 13 86 14 87
REMARK SMILES IDX 15 88 20 89 16 90 19 91 17 92 18 93 25 94 26 95 27 96 28 97
REMARK SMILES IDX 29 98 30 99 31 100
REMARK H PARENT 3 5 90 23 58 34 7 75
REMARK Flexibility Score: inf
ROOT
ATOM      1  C   UNL     1      15.404  -0.261  16.284  1.00  0.00     0.118 C 
ENDROOT
BRANCH   1   2
ATOM      2  N   UNL     1      16.308  -0.103  17.407  1.00  0.00    -0.352 N 
ATOM      3  O   UNL     1      17.331  -0.246  19.349  1.00  0.00    -0.269 OA
ATOM      4  C   UNL     1      16.258  -0.371  18.749  1.00  0.00     0.251 C 
ATOM      5  H   UNL     1      17.168   0.295  17.139  1.00  0.00     0.163 HD
BRANCH   4   6
ATOM      6  C   UNL     1      15.042  -0.744  19.529  1.00  0.00     0.039 A 
ATOM      7  C   UNL     1      13.819  -1.152  18.998  1.00  0.00     0.014 A 
ATOM      8  C   UNL     1      15.167  -0.675  20.933  1.00  0.00     0.014 A 
ATOM      9  C   UNL     1      12.745  -1.450  19.844  1.00  0.00     0.010 A 
ATOM     10  C   UNL     1      14.100  -0.973  21.780  1.00  0.00     0.010 A 
ATOM     11  C   UNL     1      12.878  -1.351  21.235  1.00  0.00    -0.014 A 
BRANCH  11  12
ATOM     12  C   UNL     1      11.772  -1.817  22.077  1.00  0.00     0.031 A 
ATOM     13  C   UNL     1      11.512  -3.285  22.031  1.00  0.00     0.074 A 
ATOM     14  C   UNL     1      11.104  -1.069  22.980  1.00  0.00     0.049 A 
ATOM     15  N   UNL     1      10.447  -3.895  21.619  1.00  0.00    -0.248 NA
ATOM     16  C   UNL     1      12.603  -4.185  22.430  1.00  0.00     0.031 C 
ATOM     17  C   UNL     1      11.432   0.283  23.436  1.00  0.00     0.029 A 
ATOM     18  N   UNL     1      10.046  -1.421  23.775  1.00  0.00    -0.354 N 
ATOM     19  C   UNL     1      10.654  -5.248  21.894  1.00  0.00     0.074 A 
ATOM     20  C   UNL     1      12.041  -5.381  22.254  1.00  0.00     0.031 C 
ATOM     21  C   UNL     1      10.741   0.547  24.569  1.00  0.00     0.029 A 
ATOM     22  C   UNL     1       9.828  -0.552  24.837  1.00  0.00     0.049 A 
ATOM     23  H   UNL     1       9.491  -2.218  23.609  1.00  0.00     0.167 HD
ATOM     24  C   UNL     1       9.621  -6.128  22.004  1.00  0.00     0.034 A 
ATOM     25  C   UNL     1       8.996  -0.746  25.889  1.00  0.00     0.034 A 
ATOM     26  C   UNL     1       8.401  -5.591  21.466  1.00  0.00     0.049 A 
ATOM     27  C   UNL     1       7.987  -1.751  25.491  1.00  0.00     0.074 A 
ATOM     28  C   UNL     1       7.957  -5.167  20.232  1.00  0.00     0.029 A 
ATOM     29  N   UNL     1       7.482  -5.152  22.384  1.00  0.00    -0.354 N 
ATOM     30  N   UNL     1       7.052  -1.540  24.608  1.00  0.00    -0.248 NA
ATOM     31  C   UNL     1       8.155  -3.134  25.907  1.00  0.00     0.031 C 
ATOM     32  C   UNL     1       6.992  -4.154  20.506  1.00  0.00     0.029 A 
ATOM     33  C   UNL     1       6.891  -4.021  21.893  1.00  0.00     0.049 A 
ATOM     34  H   UNL     1       7.283  -5.578  23.249  1.00  0.00     0.167 HD
ATOM     35  C   UNL     1       6.825  -2.785  24.046  1.00  0.00     0.074 A 
ATOM     36  C   UNL     1       7.383  -3.735  24.999  1.00  0.00     0.031 C 
ATOM     37  C   UNL     1       6.489  -2.906  22.728  1.00  0.00     0.034 A 
BRANCH  24  38
ATOM     38  C   UNL     1       9.589  -7.351  22.902  1.00  0.00     0.023 A 
ATOM     39  C   UNL     1       8.471  -8.214  22.782  1.00  0.00     0.012 A 
ATOM     40  C   UNL     1      10.422  -7.548  24.026  1.00  0.00     0.148 A 
ATOM     41  C   UNL     1       8.167  -9.174  23.753  1.00  0.00     0.002 A 
ATOM     42  C   UNL     1      10.164  -8.563  24.944  1.00  0.00     0.091 A 
ATOM     43  F   UNL     1      11.396  -6.675  24.299  1.00  0.00    -0.205 F 
ATOM     44  C   UNL     1       9.020  -9.356  24.832  1.00  0.00     0.022 A 
BRANCH  42  45
ATOM     45  S   UNL     1      11.275  -8.893  26.317  1.00  0.00     0.127 S 
ATOM     46  O   UNL     1      10.543  -8.305  27.435  1.00  0.00    -0.237 OA
ATOM     47  O   UNL     1      11.331 -10.355  26.315  1.00  0.00    -0.237 OA
ATOM     48  O   UNL     1      12.532  -8.250  25.956  1.00  0.00    -0.744 OA
ENDBRANCH  42  45
ENDBRANCH  24  38
BRANCH  25  49
ATOM     49  C   UNL     1       9.071  -0.262  27.289  1.00  0.00     0.023 A 
ATOM     50  C   UNL     1       7.908  -0.275  28.090  1.00  0.00     0.012 A 
ATOM     51  C   UNL     1      10.315  -0.074  27.929  1.00  0.00     0.148 A 
ATOM     52  C   UNL     1       7.985  -0.160  29.482  1.00  0.00     0.002 A 
ATOM     53  C   UNL     1      10.386   0.045  29.315  1.00  0.00     0.091 A 
ATOM     54  F   UNL     1      11.432  -0.111  27.192  1.00  0.00    -0.205 F 
ATOM     55  C   UNL     1       9.225  -0.013  30.096  1.00  0.00     0.022 A 
BRANCH  53  56
ATOM     56  S   UNL     1      11.953   0.210  30.180  1.00  0.00     0.127 S 
ATOM     57  O   UNL     1      11.665   1.283  31.132  1.00  0.00    -0.237 OA
ATOM     58  O   UNL     1      12.108  -1.113  30.777  1.00  0.00    -0.237 OA
ATOM     59  O   UNL     1      12.931   0.566  29.159  1.00  0.00    -0.744 OA
ENDBRANCH  53  56
ENDBRANCH  25  49
BRANCH  37  60
ATOM     60  C   UNL     1       5.966  -1.690  22.006  1.00  0.00     0.023 A 
ATOM     61  C   UNL     1       6.742  -0.524  21.844  1.00  0.00     0.012 A 
ATOM     62  C   UNL     1       4.744  -1.796  21.318  1.00  0.00     0.148 A 
ATOM     63  C   UNL     1       6.300   0.521  21.031  1.00  0.00     0.002 A 
ATOM     64  C   UNL     1       4.337  -0.780  20.462  1.00  0.00     0.091 A 
ATOM     65  F   UNL     1       4.017  -2.912  21.482  1.00  0.00    -0.205 F 
ATOM     66  C   UNL     1       5.106   0.386  20.326  1.00  0.00     0.022 A 
BRANCH  64  67
ATOM     67  S   UNL     1       2.899  -0.956  19.403  1.00  0.00     0.127 S 
ATOM     68  O   UNL     1       1.937  -0.059  20.038  1.00  0.00    -0.237 OA
ATOM     69  O   UNL     1       3.405  -0.493  18.109  1.00  0.00    -0.237 OA
ATOM     70  O   UNL     1       2.550  -2.372  19.431  1.00  0.00    -0.744 OA
ENDBRANCH  64  67
ENDBRANCH  37  60
ENDBRANCH  11  12
ENDBRANCH   4   6
ENDBRANCH   1   2
BRANCH   1  71
ATOM     71  C   UNL     1      14.412   0.884  16.086  1.00  0.00     0.042 C 
BRANCH  71  72
ATOM     72  C   UNL     1      15.042   2.248  15.780  1.00  0.00     0.118 C 
BRANCH  72  73
ATOM     73  N   UNL     1      15.716   2.289  14.485  1.00  0.00    -0.351 N 
ATOM     74  C   UNL     1      15.415   2.979  13.328  1.00  0.00     0.272 C 
ATOM     75  H   UNL     1      16.523   1.728  14.428  1.00  0.00     0.163 HD
ATOM     76  O   UNL     1      16.068   2.708  12.317  1.00  0.00    -0.267 OA
BRANCH  74  77
ATOM     77  C   UNL     1      14.324   3.970  13.286  1.00  0.00     0.155 A 
ATOM     78  N   UNL     1      13.997   4.759  14.330  1.00  0.00    -0.167 NA
ATOM     79  C   UNL     1      13.518   4.296  12.155  1.00  0.00     0.026 A 
ATOM     80  N   UNL     1      12.905   5.447  13.929  1.00  0.00    -0.264 N 
ATOM     81  C   UNL     1      12.559   5.161  12.646  1.00  0.00     0.046 A 
ATOM     82  C   UNL     1      13.544   3.794  10.744  1.00  0.00     0.159 C 
ATOM     83  C   UNL     1      11.385   5.646  11.877  1.00  0.00     0.078 C 
ATOM     84  N   UNL     1      12.466   4.467   9.976  1.00  0.00    -0.337 N 
ATOM     85  C   UNL     1      11.188   4.681  10.690  1.00  0.00     0.126 C 
BRANCH  80  86
ATOM     86  C   UNL     1      12.313   6.447  14.809  1.00  0.00     0.180 C 
BRANCH  86  87
ATOM     87  C   UNL     1      11.572   5.824  15.965  1.00  0.00    -0.026 A 
ATOM     88  C   UNL     1      12.285   5.350  17.080  1.00  0.00     0.008 A 
ATOM     89  C   UNL     1      10.173   5.704  15.947  1.00  0.00     0.008 A 
ATOM     90  C   UNL     1      11.614   4.776  18.158  1.00  0.00     0.039 A 
ATOM     91  C   UNL     1       9.505   5.131  17.031  1.00  0.00     0.039 A 
ATOM     92  C   UNL     1      10.230   4.676  18.126  1.00  0.00     0.123 A 
ATOM     93  F   UNL     1       9.584   4.135  19.166  1.00  0.00    -0.207 F 
ENDBRANCH  86  87
ENDBRANCH  80  86
BRANCH  84  94
ATOM     94  C   UNL     1      12.705   4.869   8.673  1.00  0.00     0.232 C 
ATOM     95  O   UNL     1      13.754   4.643   8.066  1.00  0.00    -0.274 OA
BRANCH  94  96
ATOM     96  C   UNL     1      11.612   5.583   7.981  1.00  0.00     0.154 C 
ATOM     97  C   UNL     1      11.362   7.052   8.300  1.00  0.00     0.097 C 
ATOM     98  C   UNL     1      11.874   6.636   6.973  1.00  0.00     0.260 C 
ATOM     99  F   UNL     1      13.131   7.037   6.592  1.00  0.00    -0.206 F 
ATOM    100  F   UNL     1      11.051   6.783   5.878  1.00  0.00    -0.206 F 
ENDBRANCH  94  96
ENDBRANCH  84  94
ENDBRANCH  74  77
ENDBRANCH  72  73
ENDBRANCH  71  72
ENDBRANCH   1  71
TORSDOF 17
