REMARK SMILES CCN(CC)C(=O)COc1cc(C)ccc1C(=O)NCCCNC(=O)c1ccc(-c2c3nc(c(-c4cccc(S(=O)(=O)[O-])c4F)c4ccc([nH]4)c(-c4cccc(S(=O)(=O)[O-])c4F)c4nc(c(-c5cccc(S(=O)(=O)[O-])c5F)c5ccc2[nH]5)C=C4)C=C3)cc1
REMARK SMILES IDX 20 1 19 2 17 3 18 4 16 6 10 7 11 8 12 9 15 10 13 11 14 12
REMARK SMILES IDX 9 13 8 14 6 15 3 16 7 17 2 18 1 19 4 20 5 21 21 22 22 23
REMARK SMILES IDX 23 24 24 25 25 27 26 28 27 29 88 30 28 31 87 32 29 33 30 34
REMARK SMILES IDX 31 35 81 36 32 37 86 38 80 39 82 40 33 41 85 42 79 43 78 44
REMARK SMILES IDX 34 46 66 47 46 48 65 49 47 50 50 51 64 52 83 53 48 54 49 55
REMARK SMILES IDX 63 57 84 58 51 59 35 60 36 61 44 62 37 63 39 64 45 65 38 66
REMARK SMILES IDX 40 67 41 68 42 69 43 70 67 71 68 72 76 73 69 74 71 75 77 76
REMARK SMILES IDX 70 77 72 78 73 79 74 80 75 81 52 82 53 83 61 84 54 85 56 86
REMARK SMILES IDX 62 87 55 88 57 89 58 90 59 91 60 92
REMARK H PARENT 19 5 23 26 82 45 50 56
REMARK Flexibility Score: inf
ROOT
ATOM      1  C   UNL     1       1.839   5.488  -3.345  1.00  0.00     0.118 C 
ENDROOT
BRANCH   1   2
ATOM      2  N   UNL     1       2.858   5.328  -4.357  1.00  0.00    -0.352 N 
ATOM      3  C   UNL     1       3.645   4.265  -4.721  1.00  0.00     0.255 C 
ATOM      4  O   UNL     1       4.504   4.514  -5.575  1.00  0.00    -0.269 OA
ATOM      5  H   UNL     1       3.018   6.141  -4.890  1.00  0.00     0.163 HD
BRANCH   3   6
ATOM      6  C   UNL     1       3.519   2.837  -4.258  1.00  0.00     0.081 A 
ATOM      7  C   UNL     1       3.168   2.314  -2.999  1.00  0.00     0.133 A 
ATOM      8  C   UNL     1       3.135   0.924  -2.794  1.00  0.00     0.050 A 
ATOM      9  C   UNL     1       3.498   0.025  -3.796  1.00  0.00    -0.047 A 
ATOM     10  C   UNL     1       3.912   1.908  -5.248  1.00  0.00     0.018 A 
ATOM     11  C   UNL     1       3.469  -1.449  -3.538  1.00  0.00     0.044 C 
ATOM     12  C   UNL     1       3.911   0.529  -5.024  1.00  0.00     0.004 A 
BRANCH   7  13
ATOM     13  O   UNL     1       2.778   3.117  -1.976  1.00  0.00    -0.483 OA
BRANCH  13  14
ATOM     14  C   UNL     1       3.289   2.866  -0.671  1.00  0.00     0.329 C 
BRANCH  14  15
ATOM     15  C   UNL     1       2.474   1.972   0.270  1.00  0.00     0.260 C 
ATOM     16  N   UNL     1       1.083   2.036   0.280  1.00  0.00    -0.340 N 
ATOM     17  O   UNL     1       3.081   1.176   0.998  1.00  0.00    -0.271 OA
BRANCH  16  18
ATOM     18  C   UNL     1       0.382   0.967   0.984  1.00  0.00     0.116 C 
ATOM     19  C   UNL     1       0.459  -0.329   0.185  1.00  0.00     0.027 C 
ENDBRANCH  16  18
BRANCH  16  20
ATOM     20  C   UNL     1       0.249   3.069  -0.343  1.00  0.00     0.116 C 
ATOM     21  C   UNL     1       0.091   4.297   0.542  1.00  0.00     0.027 C 
ENDBRANCH  16  20
ENDBRANCH  14  15
ENDBRANCH  13  14
ENDBRANCH   7  13
ENDBRANCH   3   6
ENDBRANCH   1   2
BRANCH   1  22
ATOM     22  C   UNL     1       2.493   5.701  -1.996  1.00  0.00     0.042 C 
BRANCH  22  23
ATOM     23  C   UNL     1       2.735   7.111  -1.536  1.00  0.00     0.118 C 
BRANCH  23  24
ATOM     24  N   UNL     1       1.877   7.466  -0.418  1.00  0.00    -0.352 N 
ATOM     25  C   UNL     1       2.066   8.428   0.552  1.00  0.00     0.251 C 
ATOM     26  H   UNL     1       1.044   6.947  -0.343  1.00  0.00     0.163 HD
ATOM     27  O   UNL     1       1.383   8.380   1.574  1.00  0.00    -0.269 OA
BRANCH  25  28
ATOM     28  C   UNL     1       2.949   9.581   0.262  1.00  0.00     0.039 A 
ATOM     29  C   UNL     1       2.381  10.850   0.428  1.00  0.00     0.014 A 
ATOM     30  C   UNL     1       4.113   9.428  -0.481  1.00  0.00     0.014 A 
ATOM     31  C   UNL     1       2.774  11.887  -0.407  1.00  0.00     0.010 A 
ATOM     32  C   UNL     1       4.433  10.407  -1.383  1.00  0.00     0.010 A 
ATOM     33  C   UNL     1       3.696  11.595  -1.399  1.00  0.00    -0.014 A 
BRANCH  33  34
ATOM     34  C   UNL     1       3.974  12.412  -2.559  1.00  0.00     0.031 A 
ATOM     35  C   UNL     1       5.140  13.309  -2.535  1.00  0.00     0.074 A 
ATOM     36  C   UNL     1       3.424  11.983  -3.718  1.00  0.00     0.049 A 
ATOM     37  N   UNL     1       5.399  14.190  -3.434  1.00  0.00    -0.248 NA
ATOM     38  C   UNL     1       6.147  13.230  -1.483  1.00  0.00     0.031 C 
ATOM     39  C   UNL     1       3.925  12.204  -5.067  1.00  0.00     0.029 A 
ATOM     40  N   UNL     1       2.211  11.311  -3.925  1.00  0.00    -0.354 N 
ATOM     41  C   UNL     1       6.726  14.537  -3.279  1.00  0.00     0.074 A 
ATOM     42  C   UNL     1       7.118  13.984  -2.003  1.00  0.00     0.031 C 
ATOM     43  C   UNL     1       2.937  11.950  -5.940  1.00  0.00     0.029 A 
ATOM     44  C   UNL     1       1.725  11.778  -5.157  1.00  0.00     0.049 A 
ATOM     45  H   UNL     1       1.788  10.651  -3.330  1.00  0.00     0.167 HD
ATOM     46  C   UNL     1       7.394  15.088  -4.333  1.00  0.00     0.034 A 
ATOM     47  C   UNL     1       0.610  12.565  -5.259  1.00  0.00     0.034 A 
ATOM     48  C   UNL     1       6.502  15.211  -5.500  1.00  0.00     0.049 A 
ATOM     49  C   UNL     1       0.910  13.953  -5.818  1.00  0.00     0.074 A 
ATOM     50  C   UNL     1       6.333  14.448  -6.646  1.00  0.00     0.029 A 
ATOM     51  N   UNL     1       5.392  16.045  -5.426  1.00  0.00    -0.354 N 
ATOM     52  N   UNL     1       2.108  14.392  -6.098  1.00  0.00    -0.248 NA
ATOM     53  C   UNL     1      -0.109  14.962  -6.097  1.00  0.00     0.031 C 
ATOM     54  C   UNL     1       5.066  14.772  -7.210  1.00  0.00     0.029 A 
ATOM     55  C   UNL     1       4.476  15.752  -6.429  1.00  0.00     0.049 A 
ATOM     56  H   UNL     1       5.271  16.752  -4.751  1.00  0.00     0.167 HD
ATOM     57  C   UNL     1       2.070  15.726  -6.414  1.00  0.00     0.074 A 
ATOM     58  C   UNL     1       0.644  16.003  -6.501  1.00  0.00     0.031 C 
ATOM     59  C   UNL     1       3.211  16.488  -6.503  1.00  0.00     0.034 A 
BRANCH  46  60
ATOM     60  C   UNL     1       8.910  15.201  -4.423  1.00  0.00     0.023 A 
ATOM     61  C   UNL     1       9.487  15.251  -5.712  1.00  0.00     0.012 A 
ATOM     62  C   UNL     1       9.822  15.224  -3.341  1.00  0.00     0.148 A 
ATOM     63  C   UNL     1      10.870  15.211  -5.923  1.00  0.00     0.002 A 
ATOM     64  C   UNL     1      11.202  15.102  -3.549  1.00  0.00     0.091 A 
ATOM     65  F   UNL     1       9.379  15.464  -2.102  1.00  0.00    -0.205 F 
ATOM     66  C   UNL     1      11.729  15.094  -4.842  1.00  0.00     0.022 A 
BRANCH  64  67
ATOM     67  S   UNL     1      12.361  14.843  -2.192  1.00  0.00     0.127 S 
ATOM     68  O   UNL     1      13.207  13.762  -2.705  1.00  0.00    -0.237 OA
ATOM     69  O   UNL     1      13.028  16.138  -2.092  1.00  0.00    -0.237 OA
ATOM     70  O   UNL     1      11.546  14.457  -1.045  1.00  0.00    -0.744 OA
ENDBRANCH  64  67
ENDBRANCH  46  60
BRANCH  47  71
ATOM     71  C   UNL     1      -0.440  12.220  -4.250  1.00  0.00     0.023 A 
ATOM     72  C   UNL     1      -1.012  10.929  -4.367  1.00  0.00     0.012 A 
ATOM     73  C   UNL     1      -0.533  12.891  -3.017  1.00  0.00     0.148 A 
ATOM     74  C   UNL     1      -1.496  10.253  -3.245  1.00  0.00     0.002 A 
ATOM     75  C   UNL     1      -1.028  12.211  -1.902  1.00  0.00     0.091 A 
ATOM     76  F   UNL     1      -0.062  14.141  -2.931  1.00  0.00    -0.205 F 
ATOM     77  C   UNL     1      -1.459  10.878  -2.005  1.00  0.00     0.022 A 
BRANCH  75  78
ATOM     78  S   UNL     1      -1.025  12.949  -0.262  1.00  0.00     0.127 S 
ATOM     79  O   UNL     1      -2.390  13.456  -0.166  1.00  0.00    -0.237 OA
ATOM     80  O   UNL     1      -0.738  11.803   0.599  1.00  0.00    -0.237 OA
ATOM     81  O   UNL     1       0.033  13.948  -0.301  1.00  0.00    -0.744 OA
ENDBRANCH  75  78
ENDBRANCH  47  71
BRANCH  59  82
ATOM     82  C   UNL     1       3.270  18.009  -6.625  1.00  0.00     0.023 A 
ATOM     83  C   UNL     1       2.173  18.843  -6.343  1.00  0.00     0.012 A 
ATOM     84  C   UNL     1       4.501  18.670  -6.897  1.00  0.00     0.148 A 
ATOM     85  C   UNL     1       2.269  20.241  -6.375  1.00  0.00     0.002 A 
ATOM     86  C   UNL     1       4.622  20.054  -6.794  1.00  0.00     0.091 A 
ATOM     87  F   UNL     1       5.572  17.966  -7.291  1.00  0.00    -0.205 F 
ATOM     88  C   UNL     1       3.500  20.847  -6.568  1.00  0.00     0.022 A 
BRANCH  86  89
ATOM     89  S   UNL     1       6.242  20.837  -6.765  1.00  0.00     0.127 S 
ATOM     90  O   UNL     1       6.438  21.185  -8.170  1.00  0.00    -0.237 OA
ATOM     91  O   UNL     1       6.022  21.983  -5.880  1.00  0.00    -0.237 OA
ATOM     92  O   UNL     1       7.135  19.826  -6.216  1.00  0.00    -0.744 OA
ENDBRANCH  86  89
ENDBRANCH  59  82
ENDBRANCH  33  34
ENDBRANCH  25  28
ENDBRANCH  23  24
ENDBRANCH  22  23
ENDBRANCH   1  22
TORSDOF 18
