REMARK SMILES N#C/C(=C/c1cccn1-c1ccc(C(=O)NCCCNC(=O)c2ccc(-c3c4nc(c(-c5cccc(S(=O)(=O)[O-])c5F)c5ccc([nH]5)c(-c5cccc(S(=O)(=O)[O-])c5F)c5nc(c(-c6cccc(S(=O)(=O)[O-])c6F)c6ccc3[nH]6)C=C5)C=C4)cc2)cc1)C(=O)Nc1ccc(O)cc1
REMARK SMILES IDX 17 1 16 2 14 3 15 4 13 6 10 7 11 8 87 9 12 10 86 11 9 12
REMARK SMILES IDX 5 13 6 14 7 15 8 16 4 17 3 18 2 19 1 20 88 21 89 22 90 23
REMARK SMILES IDX 91 25 92 26 97 27 93 28 96 29 94 30 95 31 18 33 19 34 20 35
REMARK SMILES IDX 21 36 22 38 23 39 24 40 85 41 25 42 84 43 26 44 27 45 28 46
REMARK SMILES IDX 78 47 29 48 83 49 77 50 79 51 30 52 82 53 76 54 75 55 31 57
REMARK SMILES IDX 63 58 43 59 62 60 44 61 47 62 61 63 80 64 45 65 46 66 60 68
REMARK SMILES IDX 81 69 48 70 32 71 33 72 41 73 34 74 36 75 42 76 35 77 37 78
REMARK SMILES IDX 38 79 39 80 40 81 64 82 65 83 73 84 66 85 68 86 74 87 67 88
REMARK SMILES IDX 69 89 70 90 71 91 72 92 49 93 50 94 58 95 51 96 53 97 59 98
REMARK SMILES IDX 52 99 54 100 55 101 56 102 57 103
REMARK H PARENT 16 5 90 24 95 32 20 37 79 56 47 67
REMARK Flexibility Score: inf
ROOT
ATOM      1  C   UNL     1       3.677   3.859   6.123  1.00  0.00     0.118 C 
ENDROOT
BRANCH   1   2
ATOM      2  N   UNL     1       4.714   4.869   5.991  1.00  0.00    -0.352 N 
ATOM      3  C   UNL     1       5.606   5.189   5.002  1.00  0.00     0.251 C 
ATOM      4  O   UNL     1       6.364   6.139   5.196  1.00  0.00    -0.269 OA
ATOM      5  H   UNL     1       4.792   5.449   6.783  1.00  0.00     0.163 HD
BRANCH   3   6
ATOM      6  C   UNL     1       5.679   4.496   3.688  1.00  0.00     0.039 A 
ATOM      7  C   UNL     1       5.869   3.351   1.094  1.00  0.00     0.046 A 
ATOM      8  C   UNL     1       6.409   4.614   1.354  1.00  0.00     0.027 A 
ATOM      9  C   UNL     1       5.238   2.679   2.148  1.00  0.00     0.027 A 
ATOM     10  C   UNL     1       6.293   5.185   2.630  1.00  0.00     0.016 A 
ATOM     11  C   UNL     1       5.213   3.212   3.441  1.00  0.00     0.016 A 
BRANCH   7  12
ATOM     12  N   UNL     1       6.062   2.724  -0.188  1.00  0.00    -0.317 N 
ATOM     13  C   UNL     1       5.371   1.649  -0.771  1.00  0.00     0.047 A 
ATOM     14  C   UNL     1       5.979   1.344  -1.978  1.00  0.00     0.028 A 
ATOM     15  C   UNL     1       7.065   2.218  -2.153  1.00  0.00     0.020 A 
ATOM     16  C   UNL     1       7.082   3.061  -1.067  1.00  0.00     0.092 A 
BRANCH  13  17
ATOM     17  C   UNL     1       4.140   1.185  -0.254  1.00  0.00     0.052 C 
ATOM     18  C   UNL     1       3.729  -0.085  -0.013  1.00  0.00     0.119 C 
BRANCH  18  19
ATOM     19  C   UNL     1       2.209  -0.085  -0.013  1.00  0.00     0.105 C 
ATOM     20  N   UNL     1       0.948  -0.085  -0.013  1.00  0.00    -0.192 NA
ENDBRANCH  18  19
BRANCH  18  21
ATOM     21  C   UNL     1       4.486  -1.376  -0.090  1.00  0.00     0.266 C 
ATOM     22  O   UNL     1       3.841  -2.403  -0.333  1.00  0.00    -0.268 OA
ATOM     23  N   UNL     1       5.852  -1.518  -0.033  1.00  0.00    -0.321 N 
ATOM     24  H   UNL     1       6.150  -2.378  -0.407  1.00  0.00     0.170 HD
BRANCH  23  25
ATOM     25  C   UNL     1       6.932  -0.739   0.426  1.00  0.00     0.041 A 
ATOM     26  C   UNL     1       8.098  -0.726  -0.356  1.00  0.00     0.030 A 
ATOM     27  C   UNL     1       6.929  -0.024   1.621  1.00  0.00     0.030 A 
ATOM     28  C   UNL     1       9.156   0.141  -0.054  1.00  0.00     0.048 A 
ATOM     29  C   UNL     1       8.007   0.825   1.945  1.00  0.00     0.048 A 
ATOM     30  C   UNL     1       9.080   0.948   1.070  1.00  0.00     0.115 A 
BRANCH  30  31
ATOM     31  O   UNL     1      10.064   1.871   1.261  1.00  0.00    -0.508 OA
ATOM     32  H   UNL     1      10.775   1.930   0.654  1.00  0.00     0.293 HD
ENDBRANCH  30  31
ENDBRANCH  23  25
ENDBRANCH  18  21
ENDBRANCH  13  17
ENDBRANCH   7  12
ENDBRANCH   3   6
ENDBRANCH   1   2
BRANCH   1  33
ATOM     33  C   UNL     1       4.160   2.697   7.001  1.00  0.00     0.042 C 
BRANCH  33  34
ATOM     34  C   UNL     1       3.919   2.997   8.482  1.00  0.00     0.118 C 
BRANCH  34  35
ATOM     35  N   UNL     1       2.496   2.876   8.786  1.00  0.00    -0.352 N 
ATOM     36  C   UNL     1       1.780   3.116   9.925  1.00  0.00     0.251 C 
ATOM     37  H   UNL     1       1.950   2.564   8.028  1.00  0.00     0.163 HD
ATOM     38  O   UNL     1       0.652   2.610   9.997  1.00  0.00    -0.269 OA
BRANCH  36  39
ATOM     39  C   UNL     1       2.278   3.934  11.050  1.00  0.00     0.039 A 
ATOM     40  C   UNL     1       1.751   3.669  12.326  1.00  0.00     0.014 A 
ATOM     41  C   UNL     1       3.161   5.002  10.877  1.00  0.00     0.014 A 
ATOM     42  C   UNL     1       2.155   4.420  13.424  1.00  0.00     0.010 A 
ATOM     43  C   UNL     1       3.582   5.743  11.971  1.00  0.00     0.010 A 
ATOM     44  C   UNL     1       3.099   5.435  13.244  1.00  0.00    -0.014 A 
BRANCH  44  45
ATOM     45  C   UNL     1       3.755   6.041  14.421  1.00  0.00     0.031 A 
ATOM     46  C   UNL     1       4.876   5.089  14.958  1.00  0.00     0.074 A 
ATOM     47  C   UNL     1       3.283   7.277  14.788  1.00  0.00     0.049 A 
ATOM     48  N   UNL     1       5.314   4.879  16.166  1.00  0.00    -0.248 NA
ATOM     49  C   UNL     1       5.528   4.137  14.007  1.00  0.00     0.031 C 
ATOM     50  C   UNL     1       2.212   8.033  14.084  1.00  0.00     0.029 A 
ATOM     51  N   UNL     1       3.592   8.165  15.797  1.00  0.00    -0.354 N 
ATOM     52  C   UNL     1       6.423   3.986  16.073  1.00  0.00     0.074 A 
ATOM     53  C   UNL     1       6.399   3.451  14.752  1.00  0.00     0.031 C 
ATOM     54  C   UNL     1       1.916   9.186  14.728  1.00  0.00     0.029 A 
ATOM     55  C   UNL     1       2.763   9.316  15.898  1.00  0.00     0.049 A 
ATOM     56  H   UNL     1       4.344   8.010  16.413  1.00  0.00     0.167 HD
ATOM     57  C   UNL     1       7.390   3.877  17.039  1.00  0.00     0.034 A 
ATOM     58  C   UNL     1       2.730  10.265  16.891  1.00  0.00     0.034 A 
ATOM     59  C   UNL     1       7.096   4.806  18.076  1.00  0.00     0.049 A 
ATOM     60  C   UNL     1       3.847   9.907  17.775  1.00  0.00     0.074 A 
ATOM     61  C   UNL     1       6.186   4.817  19.097  1.00  0.00     0.029 A 
ATOM     62  N   UNL     1       7.588   6.072  17.873  1.00  0.00    -0.354 N 
ATOM     63  N   UNL     1       5.103  10.057  17.477  1.00  0.00    -0.248 NA
ATOM     64  C   UNL     1       3.546   9.170  19.007  1.00  0.00     0.031 C 
ATOM     65  C   UNL     1       5.793   6.170  19.143  1.00  0.00     0.029 A 
ATOM     66  C   UNL     1       6.642   6.943  18.340  1.00  0.00     0.049 A 
ATOM     67  H   UNL     1       8.454   6.307  17.468  1.00  0.00     0.167 HD
ATOM     68  C   UNL     1       5.701   9.126  18.288  1.00  0.00     0.074 A 
ATOM     69  C   UNL     1       4.786   8.880  19.382  1.00  0.00     0.031 C 
ATOM     70  C   UNL     1       6.628   8.272  17.785  1.00  0.00     0.034 A 
BRANCH  57  71
ATOM     71  C   UNL     1       8.769   3.247  17.131  1.00  0.00     0.023 A 
ATOM     72  C   UNL     1       9.301   3.161  18.454  1.00  0.00     0.012 A 
ATOM     73  C   UNL     1       9.672   3.066  16.070  1.00  0.00     0.148 A 
ATOM     74  C   UNL     1      10.667   3.086  18.716  1.00  0.00     0.002 A 
ATOM     75  C   UNL     1      11.042   2.927  16.341  1.00  0.00     0.091 A 
ATOM     76  F   UNL     1       9.225   3.104  14.812  1.00  0.00    -0.205 F 
ATOM     77  C   UNL     1      11.541   2.992  17.653  1.00  0.00     0.022 A 
BRANCH  75  78
ATOM     78  S   UNL     1      12.279   2.675  15.062  1.00  0.00     0.127 S 
ATOM     79  O   UNL     1      12.959   3.969  15.037  1.00  0.00    -0.237 OA
ATOM     80  O   UNL     1      13.079   1.585  15.629  1.00  0.00    -0.237 OA
ATOM     81  O   UNL     1      11.540   2.306  13.865  1.00  0.00    -0.744 OA
ENDBRANCH  75  78
ENDBRANCH  57  71
BRANCH  58  82
ATOM     82  C   UNL     1       1.800  11.367  17.366  1.00  0.00     0.023 A 
ATOM     83  C   UNL     1       0.797  11.958  16.587  1.00  0.00     0.012 A 
ATOM     84  C   UNL     1       1.846  11.793  18.732  1.00  0.00     0.148 A 
ATOM     85  C   UNL     1      -0.171  12.813  17.164  1.00  0.00     0.002 A 
ATOM     86  C   UNL     1       0.815  12.512  19.328  1.00  0.00     0.091 A 
ATOM     87  F   UNL     1       2.931  11.539  19.472  1.00  0.00    -0.205 F 
ATOM     88  C   UNL     1      -0.199  13.040  18.540  1.00  0.00     0.022 A 
BRANCH  86  89
ATOM     89  S   UNL     1       0.651  12.624  21.124  1.00  0.00     0.127 S 
ATOM     90  O   UNL     1       0.593  14.068  21.345  1.00  0.00    -0.237 OA
ATOM     91  O   UNL     1      -0.611  11.918  21.346  1.00  0.00    -0.237 OA
ATOM     92  O   UNL     1       1.819  11.956  21.684  1.00  0.00    -0.744 OA
ENDBRANCH  86  89
ENDBRANCH  58  82
BRANCH  70  93
ATOM     93  C   UNL     1       7.340   8.749  16.516  1.00  0.00     0.023 A 
ATOM     94  C   UNL     1       8.108   9.924  16.627  1.00  0.00     0.012 A 
ATOM     95  C   UNL     1       7.227   8.177  15.223  1.00  0.00     0.148 A 
ATOM     96  C   UNL     1       8.726  10.509  15.518  1.00  0.00     0.002 A 
ATOM     97  C   UNL     1       7.833   8.770  14.107  1.00  0.00     0.091 A 
ATOM     98  F   UNL     1       6.527   7.056  15.079  1.00  0.00    -0.205 F 
ATOM     99  C   UNL     1       8.589   9.936  14.259  1.00  0.00     0.022 A 
BRANCH  97 100
ATOM    100  S   UNL     1       7.655   8.161  12.412  1.00  0.00     0.127 S 
ATOM    101  O   UNL     1       7.180   9.350  11.700  1.00  0.00    -0.237 OA
ATOM    102  O   UNL     1       9.022   7.771  12.077  1.00  0.00    -0.237 OA
ATOM    103  O   UNL     1       6.688   7.072  12.459  1.00  0.00    -0.744 OA
ENDBRANCH  97 100
ENDBRANCH  70  93
ENDBRANCH  44  45
ENDBRANCH  36  39
ENDBRANCH  34  35
ENDBRANCH  33  34
ENDBRANCH   1  33
TORSDOF 19
