REMARK SMILES Cc1c(Cl)cccc1S(=O)(=O)N[C@H]1C=C[C@@H](C(=O)NCCCNC(=O)c2ccc(-c3c4nc(c(-c5cccc(S(=O)(=O)[O-])c5F)c5ccc([nH]5)c(-c5cccc(S(=O)(=O)[O-])c5F)c5nc(c(-c6cccc(S(=O)(=O)[O-])c6F)c6ccc3[nH]6)C=C5)C=C4)cc2)C1
REMARK SMILES IDX 21 1 20 2 19 3 17 4 18 5 16 7 13 8 14 9 89 10 15 11 12 12
REMARK SMILES IDX 9 14 10 15 11 16 8 17 1 18 2 19 3 20 4 21 5 22 7 23 6 24
REMARK SMILES IDX 22 25 23 26 24 27 25 29 26 30 27 31 88 32 28 33 87 34 29 35
REMARK SMILES IDX 30 36 31 37 81 38 32 39 86 40 80 41 82 42 33 43 85 44 79 45
REMARK SMILES IDX 78 46 34 48 66 49 46 50 65 51 47 52 50 53 64 54 83 55 48 56
REMARK SMILES IDX 49 57 63 59 84 60 51 61 35 62 36 63 44 64 37 65 39 66 45 67
REMARK SMILES IDX 38 68 40 69 41 70 42 71 43 72 67 73 68 74 76 75 69 76 71 77
REMARK SMILES IDX 77 78 70 79 72 80 73 81 74 82 75 83 52 84 53 85 61 86 54 87
REMARK SMILES IDX 56 88 62 89 55 90 57 91 58 92 59 93 60 94
REMARK H PARENT 19 6 12 13 23 28 82 47 50 58
REMARK Flexibility Score: inf
ROOT
ATOM      1  C   UNL     1       1.462   3.459   2.625  1.00  0.00     0.042 C 
ENDROOT
BRANCH   1   2
ATOM      2  C   UNL     1       2.276   4.066   1.474  1.00  0.00     0.117 C 
BRANCH   2   3
ATOM      3  N   UNL     1       2.858   3.095   0.556  1.00  0.00    -0.356 N 
ATOM      4  C   UNL     1       2.846   2.927  -0.791  1.00  0.00     0.226 C 
ATOM      5  O   UNL     1       3.568   2.014  -1.217  1.00  0.00    -0.274 OA
ATOM      6  H   UNL     1       3.380   2.401   1.019  1.00  0.00     0.163 HD
BRANCH   4   7
ATOM      7  C   UNL     1       1.994   3.708  -1.803  1.00  0.00     0.103 C 
ATOM      8  C   UNL     1      -0.465   3.805  -1.649  1.00  0.00     0.093 C 
ATOM      9  C   UNL     1       0.186   5.131  -1.384  1.00  0.00    -0.011 C 
ATOM     10  C   UNL     1       0.696   2.980  -2.206  1.00  0.00     0.042 C 
ATOM     11  C   UNL     1       1.521   5.079  -1.465  1.00  0.00    -0.016 C 
BRANCH   8  12
ATOM     12  N   UNL     1      -0.932   3.276  -0.369  1.00  0.00    -0.204 NA
ATOM     13  H   UNL     1      -0.161   2.741   0.030  1.00  0.00     0.142 HD
BRANCH  12  14
ATOM     14  S   UNL     1      -2.290   2.285  -0.328  1.00  0.00     0.241 S 
ATOM     15  O   UNL     1      -2.955   2.419  -1.606  1.00  0.00    -0.207 OA
ATOM     16  O   UNL     1      -2.945   2.660   0.906  1.00  0.00    -0.207 OA
BRANCH  14  17
ATOM     17  C   UNL     1      -1.844   0.559  -0.150  1.00  0.00     0.086 A 
ATOM     18  C   UNL     1       0.635   0.783   0.525  1.00  0.00     0.047 C 
ATOM     19  C   UNL     1      -0.584   0.009   0.158  1.00  0.00    -0.012 A 
ATOM     20  C   UNL     1      -0.462  -1.404   0.178  1.00  0.00     0.045 A 
ATOM     21  Cl  UNL     1       1.062  -2.184   0.474  1.00  0.00    -0.084 Cl
ATOM     22  C   UNL     1      -1.556  -2.240  -0.033  1.00  0.00     0.021 A 
ATOM     23  C   UNL     1      -2.943  -0.306  -0.345  1.00  0.00     0.022 A 
ATOM     24  C   UNL     1      -2.805  -1.690  -0.275  1.00  0.00     0.003 A 
ENDBRANCH  14  17
ENDBRANCH  12  14
ENDBRANCH   8  12
ENDBRANCH   4   7
ENDBRANCH   2   3
ENDBRANCH   1   2
BRANCH   1  25
ATOM     25  C   UNL     1       2.173   2.398   3.466  1.00  0.00     0.118 C 
BRANCH  25  26
ATOM     26  N   UNL     1       2.966   2.999   4.522  1.00  0.00    -0.352 N 
ATOM     27  C   UNL     1       2.755   2.994   5.881  1.00  0.00     0.251 C 
ATOM     28  H   UNL     1       3.772   3.479   4.223  1.00  0.00     0.163 HD
ATOM     29  O   UNL     1       3.356   3.814   6.573  1.00  0.00    -0.269 OA
BRANCH  27  30
ATOM     30  C   UNL     1       1.835   2.022   6.528  1.00  0.00     0.039 A 
ATOM     31  C   UNL     1       1.077   2.447   7.625  1.00  0.00     0.014 A 
ATOM     32  C   UNL     1       1.799   0.675   6.152  1.00  0.00     0.014 A 
ATOM     33  C   UNL     1       0.296   1.532   8.342  1.00  0.00     0.010 A 
ATOM     34  C   UNL     1       0.973  -0.226   6.833  1.00  0.00     0.010 A 
ATOM     35  C   UNL     1       0.240   0.183   7.959  1.00  0.00    -0.014 A 
BRANCH  35  36
ATOM     36  C   UNL     1      -0.521  -0.813   8.767  1.00  0.00     0.031 A 
ATOM     37  C   UNL     1       0.206  -1.920   9.493  1.00  0.00     0.074 A 
ATOM     38  C   UNL     1      -1.866  -0.754   8.830  1.00  0.00     0.049 A 
ATOM     39  N   UNL     1      -0.280  -2.883  10.235  1.00  0.00    -0.248 NA
ATOM     40  C   UNL     1       1.671  -1.962   9.348  1.00  0.00     0.031 C 
ATOM     41  C   UNL     1      -2.704   0.221   8.132  1.00  0.00     0.029 A 
ATOM     42  N   UNL     1      -2.768  -1.547   9.499  1.00  0.00    -0.354 N 
ATOM     43  C   UNL     1       0.808  -3.663  10.613  1.00  0.00     0.074 A 
ATOM     44  C   UNL     1       1.977  -3.080   9.991  1.00  0.00     0.031 C 
ATOM     45  C   UNL     1      -3.994  -0.028   8.410  1.00  0.00     0.029 A 
ATOM     46  C   UNL     1      -4.080  -1.190   9.291  1.00  0.00     0.049 A 
ATOM     47  H   UNL     1      -2.499  -2.300  10.074  1.00  0.00     0.167 HD
ATOM     48  C   UNL     1       0.844  -4.748  11.426  1.00  0.00     0.034 A 
ATOM     49  C   UNL     1      -5.223  -1.732   9.759  1.00  0.00     0.034 A 
ATOM     50  C   UNL     1      -0.308  -5.301  12.088  1.00  0.00     0.049 A 
ATOM     51  C   UNL     1      -5.153  -2.899  10.709  1.00  0.00     0.074 A 
ATOM     52  C   UNL     1      -0.362  -6.354  12.985  1.00  0.00     0.029 A 
ATOM     53  N   UNL     1      -1.607  -4.846  11.930  1.00  0.00    -0.354 N 
ATOM     54  N   UNL     1      -4.099  -3.531  11.166  1.00  0.00    -0.248 NA
ATOM     55  C   UNL     1      -6.428  -3.397  11.245  1.00  0.00     0.031 C 
ATOM     56  C   UNL     1      -1.698  -6.543  13.361  1.00  0.00     0.029 A 
ATOM     57  C   UNL     1      -2.470  -5.591  12.715  1.00  0.00     0.049 A 
ATOM     58  H   UNL     1      -1.877  -4.102  11.344  1.00  0.00     0.167 HD
ATOM     59  C   UNL     1      -4.580  -4.466  12.077  1.00  0.00     0.074 A 
ATOM     60  C   UNL     1      -6.019  -4.307  12.118  1.00  0.00     0.031 C 
ATOM     61  C   UNL     1      -3.892  -5.381  12.804  1.00  0.00     0.034 A 
BRANCH  48  62
ATOM     62  C   UNL     1       2.188  -5.377  11.695  1.00  0.00     0.023 A 
ATOM     63  C   UNL     1       3.122  -4.697  12.505  1.00  0.00     0.012 A 
ATOM     64  C   UNL     1       2.508  -6.657  11.200  1.00  0.00     0.148 A 
ATOM     65  C   UNL     1       4.367  -5.261  12.783  1.00  0.00     0.002 A 
ATOM     66  C   UNL     1       3.734  -7.232  11.520  1.00  0.00     0.091 A 
ATOM     67  F   UNL     1       1.617  -7.283  10.419  1.00  0.00    -0.205 F 
ATOM     68  C   UNL     1       4.668  -6.530  12.299  1.00  0.00     0.022 A 
BRANCH  66  69
ATOM     69  S   UNL     1       4.184  -8.897  11.015  1.00  0.00     0.127 S 
ATOM     70  O   UNL     1       5.178  -8.632   9.977  1.00  0.00    -0.237 OA
ATOM     71  O   UNL     1       4.729  -9.459  12.251  1.00  0.00    -0.237 OA
ATOM     72  O   UNL     1       2.951  -9.523  10.558  1.00  0.00    -0.744 OA
ENDBRANCH  66  69
ENDBRANCH  48  62
BRANCH  49  73
ATOM     73  C   UNL     1      -6.536  -1.120   9.405  1.00  0.00     0.023 A 
ATOM     74  C   UNL     1      -7.264  -0.430  10.395  1.00  0.00     0.012 A 
ATOM     75  C   UNL     1      -7.058  -1.203   8.101  1.00  0.00     0.148 A 
ATOM     76  C   UNL     1      -8.504   0.137  10.100  1.00  0.00     0.002 A 
ATOM     77  C   UNL     1      -8.269  -0.589   7.801  1.00  0.00     0.091 A 
ATOM     78  F   UNL     1      -6.356  -1.875   7.177  1.00  0.00    -0.205 F 
ATOM     79  C   UNL     1      -9.002   0.066   8.802  1.00  0.00     0.022 A 
BRANCH  77  80
ATOM     80  S   UNL     1      -8.928  -0.524   6.131  1.00  0.00     0.127 S 
ATOM     81  O   UNL     1     -10.062  -1.441   6.221  1.00  0.00    -0.237 OA
ATOM     82  O   UNL     1      -9.287   0.889   6.003  1.00  0.00    -0.237 OA
ATOM     83  O   UNL     1      -7.839  -0.948   5.262  1.00  0.00    -0.744 OA
ENDBRANCH  77  80
ENDBRANCH  49  73
BRANCH  61  84
ATOM     84  C   UNL     1      -4.671  -6.250  13.758  1.00  0.00     0.023 A 
ATOM     85  C   UNL     1      -5.505  -7.271  13.262  1.00  0.00     0.012 A 
ATOM     86  C   UNL     1      -4.527  -6.093  15.151  1.00  0.00     0.148 A 
ATOM     87  C   UNL     1      -6.212  -8.097  14.136  1.00  0.00     0.002 A 
ATOM     88  C   UNL     1      -5.197  -6.950  16.016  1.00  0.00     0.091 A 
ATOM     89  F   UNL     1      -3.747  -5.101  15.607  1.00  0.00    -0.205 F 
ATOM     90  C   UNL     1      -6.050  -7.944  15.511  1.00  0.00     0.022 A 
BRANCH  88  91
ATOM     91  S   UNL     1      -4.966  -6.881  17.797  1.00  0.00     0.127 S 
ATOM     92  O   UNL     1      -6.174  -6.182  18.229  1.00  0.00    -0.237 OA
ATOM     93  O   UNL     1      -4.918  -8.298  18.163  1.00  0.00    -0.237 OA
ATOM     94  O   UNL     1      -3.713  -6.167  18.005  1.00  0.00    -0.744 OA
ENDBRANCH  88  91
ENDBRANCH  61  84
ENDBRANCH  35  36
ENDBRANCH  27  30
ENDBRANCH  25  26
ENDBRANCH   1  25
TORSDOF 16
