REMARK SMILES Cc1ccc(NC(=O)N2CCCC[C@@H]2C(=O)NCCCNC(=O)c2ccc(-c3c4nc(c(-c5cccc(S(=O)(=O)[O-])c5F)c5ccc([nH]5)c(-c5cccc(S(=O)(=O)[O-])c5F)c5nc(c(-c6cccc(S(=O)(=O)[O-])c6F)c6ccc3[nH]6)C=C5)C=C4)cc2)cc1
REMARK SMILES IDX 19 1 18 2 17 3 15 4 16 5 14 7 9 8 10 9 11 10 13 11 12 12
REMARK SMILES IDX 7 13 6 14 8 16 5 17 1 18 2 19 3 20 88 21 4 22 87 23 20 24
REMARK SMILES IDX 21 25 22 26 23 28 24 29 25 30 86 31 26 32 85 33 27 34 28 35
REMARK SMILES IDX 29 36 79 37 30 38 84 39 78 40 80 41 31 42 83 43 77 44 76 45
REMARK SMILES IDX 32 47 64 48 44 49 63 50 45 51 48 52 62 53 81 54 46 55 47 56
REMARK SMILES IDX 61 58 82 59 49 60 33 61 34 62 42 63 35 64 37 65 43 66 36 67
REMARK SMILES IDX 38 68 39 69 40 70 41 71 65 72 66 73 74 74 67 75 69 76 75 77
REMARK SMILES IDX 68 78 70 79 71 80 72 81 73 82 50 83 51 84 59 85 52 86 54 87
REMARK SMILES IDX 60 88 53 89 55 90 56 91 57 92 58 93
REMARK H PARENT 17 6 6 15 21 27 80 46 48 57
REMARK Flexibility Score: inf
ROOT
ATOM      1  C   UNL     1      -5.240  -3.186   3.252  1.00  0.00     0.042 C 
ENDROOT
BRANCH   1   2
ATOM      2  C   UNL     1      -4.931  -2.102   2.232  1.00  0.00     0.117 C 
BRANCH   2   3
ATOM      3  N   UNL     1      -3.668  -1.440   2.524  1.00  0.00    -0.354 N 
ATOM      4  C   UNL     1      -2.406  -1.704   2.077  1.00  0.00     0.242 C 
ATOM      5  O   UNL     1      -1.467  -1.196   2.700  1.00  0.00    -0.273 OA
ATOM      6  H   UNL     1      -3.736  -0.678   3.144  1.00  0.00     0.163 HD
BRANCH   4   7
ATOM      7  C   UNL     1      -2.122  -2.730   0.948  1.00  0.00     0.176 C 
ATOM      8  N   UNL     1      -3.054  -2.649  -0.211  1.00  0.00    -0.313 N 
ATOM      9  C   UNL     1      -3.280  -3.841  -1.019  1.00  0.00     0.122 C 
ATOM     10  C   UNL     1      -3.329  -5.139  -0.236  1.00  0.00     0.022 C 
ATOM     11  C   UNL     1      -2.051  -4.119   1.613  1.00  0.00     0.035 C 
ATOM     12  C   UNL     1      -2.091  -5.273   0.631  1.00  0.00     0.004 C 
BRANCH   8  13
ATOM     13  C   UNL     1      -3.510  -1.460  -0.771  1.00  0.00     0.322 C 
ATOM     14  N   UNL     1      -2.834  -0.301  -0.553  1.00  0.00    -0.308 N 
ATOM     15  H   UNL     1      -3.392   0.481  -0.339  1.00  0.00     0.171 HD
ATOM     16  O   UNL     1      -4.575  -1.412  -1.391  1.00  0.00    -0.248 OA
BRANCH  14  17
ATOM     17  C   UNL     1      -1.450  -0.062  -0.591  1.00  0.00     0.042 A 
ATOM     18  C   UNL     1       2.773   0.449  -0.035  1.00  0.00     0.044 C 
ATOM     19  C   UNL     1       1.312   0.343  -0.349  1.00  0.00    -0.051 A 
ATOM     20  C   UNL     1       0.820  -0.786  -1.010  1.00  0.00     0.005 A 
ATOM     21  C   UNL     1       0.410   1.311   0.108  1.00  0.00     0.005 A 
ATOM     22  C   UNL     1      -0.553  -0.966  -1.162  1.00  0.00     0.026 A 
ATOM     23  C   UNL     1      -0.967   1.117  -0.025  1.00  0.00     0.026 A 
ENDBRANCH  14  17
ENDBRANCH   8  13
ENDBRANCH   4   7
ENDBRANCH   2   3
ENDBRANCH   1   2
BRANCH   1  24
ATOM     24  C   UNL     1      -5.671  -2.629   4.589  1.00  0.00     0.118 C 
BRANCH  24  25
ATOM     25  N   UNL     1      -7.110  -2.610   4.755  1.00  0.00    -0.352 N 
ATOM     26  C   UNL     1      -7.839  -2.462   5.920  1.00  0.00     0.251 C 
ATOM     27  H   UNL     1      -7.637  -2.716   3.931  1.00  0.00     0.163 HD
ATOM     28  O   UNL     1      -9.014  -2.819   5.936  1.00  0.00    -0.269 OA
BRANCH  26  29
ATOM     29  C   UNL     1      -7.246  -1.698   7.046  1.00  0.00     0.039 A 
ATOM     30  C   UNL     1      -8.021  -0.647   7.550  1.00  0.00     0.014 A 
ATOM     31  C   UNL     1      -5.882  -1.745   7.309  1.00  0.00     0.014 A 
ATOM     32  C   UNL     1      -7.394   0.493   8.037  1.00  0.00     0.010 A 
ATOM     33  C   UNL     1      -5.252  -0.578   7.657  1.00  0.00     0.010 A 
ATOM     34  C   UNL     1      -6.012   0.558   7.954  1.00  0.00    -0.014 A 
BRANCH  34  35
ATOM     35  C   UNL     1      -5.210   1.720   8.267  1.00  0.00     0.031 A 
ATOM     36  C   UNL     1      -4.666   1.824   9.629  1.00  0.00     0.074 A 
ATOM     37  C   UNL     1      -4.742   2.470   7.246  1.00  0.00     0.049 A 
ATOM     38  N   UNL     1      -4.054   2.854  10.091  1.00  0.00    -0.248 NA
ATOM     39  C   UNL     1      -4.806   0.744  10.599  1.00  0.00     0.031 C 
ATOM     40  C   UNL     1      -3.548   3.303   7.246  1.00  0.00     0.029 A 
ATOM     41  N   UNL     1      -5.379   2.780   6.040  1.00  0.00    -0.354 N 
ATOM     42  C   UNL     1      -3.467   2.480  11.282  1.00  0.00     0.074 A 
ATOM     43  C   UNL     1      -4.052   1.202  11.600  1.00  0.00     0.031 C 
ATOM     44  C   UNL     1      -3.659   4.213   6.267  1.00  0.00     0.029 A 
ATOM     45  C   UNL     1      -5.010   4.105   5.745  1.00  0.00     0.049 A 
ATOM     46  H   UNL     1      -5.963   2.193   5.508  1.00  0.00     0.167 HD
ATOM     47  C   UNL     1      -2.445   3.241  11.763  1.00  0.00     0.034 A 
ATOM     48  C   UNL     1      -5.902   5.137   5.668  1.00  0.00     0.034 A 
ATOM     49  C   UNL     1      -2.277   4.444  10.931  1.00  0.00     0.049 A 
ATOM     50  C   UNL     1      -5.621   6.241   6.675  1.00  0.00     0.074 A 
ATOM     51  C   UNL     1      -1.415   4.770   9.897  1.00  0.00     0.029 A 
ATOM     52  N   UNL     1      -3.288   5.397  10.913  1.00  0.00    -0.354 N 
ATOM     53  N   UNL     1      -4.735   6.160   7.630  1.00  0.00    -0.248 NA
ATOM     54  C   UNL     1      -6.321   7.521   6.693  1.00  0.00     0.031 C 
ATOM     55  C   UNL     1      -1.962   5.888   9.206  1.00  0.00     0.029 A 
ATOM     56  C   UNL     1      -3.135   6.263   9.840  1.00  0.00     0.049 A 
ATOM     57  H   UNL     1      -4.016   5.451  11.573  1.00  0.00     0.167 HD
ATOM     58  C   UNL     1      -4.803   7.263   8.443  1.00  0.00     0.074 A 
ATOM     59  C   UNL     1      -5.761   8.119   7.761  1.00  0.00     0.031 C 
ATOM     60  C   UNL     1      -4.104   7.336   9.623  1.00  0.00     0.034 A 
BRANCH  47  61
ATOM     61  C   UNL     1      -1.413   2.811  12.798  1.00  0.00     0.023 A 
ATOM     62  C   UNL     1      -0.232   3.584  12.876  1.00  0.00     0.012 A 
ATOM     63  C   UNL     1      -1.460   1.684  13.654  1.00  0.00     0.148 A 
ATOM     64  C   UNL     1       0.859   3.225  13.676  1.00  0.00     0.002 A 
ATOM     65  C   UNL     1      -0.358   1.299  14.426  1.00  0.00     0.091 A 
ATOM     66  F   UNL     1      -2.588   0.992  13.792  1.00  0.00    -0.205 F 
ATOM     67  C   UNL     1       0.807   2.066  14.434  1.00  0.00     0.022 A 
BRANCH  65  68
ATOM     68  S   UNL     1      -0.340  -0.212  15.412  1.00  0.00     0.127 S 
ATOM     69  O   UNL     1       0.845  -0.901  14.896  1.00  0.00    -0.237 OA
ATOM     70  O   UNL     1      -0.197   0.302  16.773  1.00  0.00    -0.237 OA
ATOM     71  O   UNL     1      -1.595  -0.901  15.138  1.00  0.00    -0.744 OA
ENDBRANCH  65  68
ENDBRANCH  47  61
BRANCH  48  72
ATOM     72  C   UNL     1      -7.241   4.723   5.157  1.00  0.00     0.023 A 
ATOM     73  C   UNL     1      -7.289   4.291   3.809  1.00  0.00     0.012 A 
ATOM     74  C   UNL     1      -8.266   4.328   6.035  1.00  0.00     0.148 A 
ATOM     75  C   UNL     1      -8.241   3.362   3.388  1.00  0.00     0.002 A 
ATOM     76  C   UNL     1      -9.209   3.393   5.608  1.00  0.00     0.091 A 
ATOM     77  F   UNL     1      -8.237   4.782   7.294  1.00  0.00    -0.205 F 
ATOM     78  C   UNL     1      -9.172   2.881   4.300  1.00  0.00     0.022 A 
BRANCH  76  79
ATOM     79  S   UNL     1     -10.409   2.660   6.729  1.00  0.00     0.127 S 
ATOM     80  O   UNL     1     -11.630   3.368   6.356  1.00  0.00    -0.237 OA
ATOM     81  O   UNL     1     -10.372   1.252   6.339  1.00  0.00    -0.237 OA
ATOM     82  O   UNL     1      -9.896   2.927   8.064  1.00  0.00    -0.744 OA
ENDBRANCH  76  79
ENDBRANCH  48  72
BRANCH  60  83
ATOM     83  C   UNL     1      -4.265   8.391  10.717  1.00  0.00     0.023 A 
ATOM     84  C   UNL     1      -5.348   9.287  10.765  1.00  0.00     0.012 A 
ATOM     85  C   UNL     1      -3.382   8.423  11.834  1.00  0.00     0.148 A 
ATOM     86  C   UNL     1      -5.533  10.182  11.829  1.00  0.00     0.002 A 
ATOM     87  C   UNL     1      -3.641   9.222  12.945  1.00  0.00     0.091 A 
ATOM     88  F   UNL     1      -2.255   7.698  11.825  1.00  0.00    -0.205 F 
ATOM     89  C   UNL     1      -4.699  10.128  12.935  1.00  0.00     0.022 A 
BRANCH  87  90
ATOM     90  S   UNL     1      -2.733   8.991  14.483  1.00  0.00     0.127 S 
ATOM     91  O   UNL     1      -1.676   9.992  14.366  1.00  0.00    -0.237 OA
ATOM     92  O   UNL     1      -3.749   9.293  15.494  1.00  0.00    -0.237 OA
ATOM     93  O   UNL     1      -2.311   7.598  14.463  1.00  0.00    -0.744 OA
ENDBRANCH  87  90
ENDBRANCH  60  83
ENDBRANCH  34  35
ENDBRANCH  26  29
ENDBRANCH  24  25
ENDBRANCH   1  24
TORSDOF 15
