REMARK SMILES Cc1n[nH]c(C(F)(F)Cl)c1C(=O)NCCCNC(=O)c1ccc(-c2c3nc(c(-c4cccc(S(=O)(=O)[O-])c4F)c4ccc([nH]4)c(-c4cccc(S(=O)(=O)[O-])c4F)c4nc(c(-c5cccc(S(=O)(=O)[O-])c5F)c5ccc2[nH]5)C=C4)C=C3)cc1
REMARK SMILES IDX 16 1 15 2 14 3 13 4 11 5 12 6 10 8 1 9 2 10 3 11 4 12 5 13
REMARK SMILES IDX 6 15 7 16 8 17 9 18 17 19 18 20 19 22 20 23 21 24 82 25
REMARK SMILES IDX 22 26 81 27 23 28 24 29 25 30 75 31 26 32 80 33 74 34 76 35
REMARK SMILES IDX 27 36 79 37 73 38 72 39 28 41 60 42 40 43 59 44 41 45 44 46
REMARK SMILES IDX 58 47 77 48 42 49 43 50 57 52 78 53 45 54 29 55 30 56 38 57
REMARK SMILES IDX 31 58 33 59 39 60 32 61 34 62 35 63 36 64 37 65 61 66 62 67
REMARK SMILES IDX 70 68 63 69 65 70 71 71 64 72 66 73 67 74 68 75 69 76 46 77
REMARK SMILES IDX 47 78 55 79 48 80 50 81 56 82 49 83 51 84 52 85 53 86 54 87
REMARK H PARENT 13 7 4 14 17 21 76 40 44 51
REMARK Flexibility Score: inf
ROOT
ATOM      1  C   UNL     1       4.356   3.545  -1.052  1.00  0.00     0.118 C 
ENDROOT
BRANCH   1   2
ATOM      2  C   UNL     1       3.680   2.232  -0.667  1.00  0.00     0.042 C 
BRANCH   2   3
ATOM      3  C   UNL     1       2.736   2.341   0.536  1.00  0.00     0.118 C 
BRANCH   3   4
ATOM      4  N   UNL     1       1.478   2.929   0.125  1.00  0.00    -0.352 N 
ATOM      5  C   UNL     1       0.282   2.421  -0.284  1.00  0.00     0.255 C 
ATOM      6  O   UNL     1      -0.472   3.254  -0.814  1.00  0.00    -0.269 OA
ATOM      7  H   UNL     1       1.490   3.913   0.147  1.00  0.00     0.163 HD
BRANCH   5   8
ATOM      8  C   UNL     1      -0.177   1.047  -0.086  1.00  0.00     0.091 A 
ATOM      9  C   UNL     1       1.865  -0.694  -0.294  1.00  0.00     0.069 C 
ATOM     10  C   UNL     1       0.469  -0.242  -0.077  1.00  0.00     0.072 A 
ATOM     11  N   UNL     1      -0.404  -1.238   0.121  1.00  0.00    -0.180 NA
ATOM     12  N   UNL     1      -1.587  -0.648   0.120  1.00  0.00    -0.274 N 
ATOM     13  C   UNL     1      -1.534   0.711   0.053  1.00  0.00     0.133 A 
ATOM     14  H   UNL     1      -2.434  -1.148   0.163  1.00  0.00     0.190 HD
BRANCH  13  15
ATOM     15  C   UNL     1      -2.860   1.383   0.073  1.00  0.00     0.365 C 
ATOM     16  F   UNL     1      -3.462   1.248  -1.143  1.00  0.00    -0.181 F 
ATOM     17  F   UNL     1      -3.668   0.671   0.924  1.00  0.00    -0.181 F 
ATOM     18  Cl  UNL     1      -2.949   3.056   0.602  1.00  0.00    -0.040 Cl
ENDBRANCH  13  15
ENDBRANCH   5   8
ENDBRANCH   3   4
ENDBRANCH   2   3
ENDBRANCH   1   2
BRANCH   1  19
ATOM     19  N   UNL     1       5.327   3.963  -0.052  1.00  0.00    -0.352 N 
ATOM     20  C   UNL     1       6.681   4.149  -0.169  1.00  0.00     0.251 C 
ATOM     21  H   UNL     1       4.957   4.139   0.843  1.00  0.00     0.163 HD
ATOM     22  O   UNL     1       7.363   4.245   0.850  1.00  0.00    -0.269 OA
BRANCH  20  23
ATOM     23  C   UNL     1       7.322   4.238  -1.500  1.00  0.00     0.039 A 
ATOM     24  C   UNL     1       8.578   3.651  -1.687  1.00  0.00     0.014 A 
ATOM     25  C   UNL     1       6.717   4.939  -2.547  1.00  0.00     0.014 A 
ATOM     26  C   UNL     1       9.203   3.729  -2.934  1.00  0.00     0.010 A 
ATOM     27  C   UNL     1       7.305   4.948  -3.809  1.00  0.00     0.010 A 
ATOM     28  C   UNL     1       8.560   4.357  -4.013  1.00  0.00    -0.014 A 
BRANCH  28  29
ATOM     29  C   UNL     1       9.180   4.402  -5.362  1.00  0.00     0.031 A 
ATOM     30  C   UNL     1       9.528   5.724  -5.993  1.00  0.00     0.074 A 
ATOM     31  C   UNL     1       9.348   3.257  -6.052  1.00  0.00     0.049 A 
ATOM     32  N   UNL     1      10.014   5.967  -7.182  1.00  0.00    -0.248 NA
ATOM     33  C   UNL     1       9.272   6.935  -5.194  1.00  0.00     0.031 C 
ATOM     34  C   UNL     1       8.980   1.921  -5.576  1.00  0.00     0.029 A 
ATOM     35  N   UNL     1       9.846   3.033  -7.311  1.00  0.00    -0.354 N 
ATOM     36  C   UNL     1      10.083   7.351  -7.290  1.00  0.00     0.074 A 
ATOM     37  C   UNL     1       9.560   7.898  -6.058  1.00  0.00     0.031 C 
ATOM     38  C   UNL     1       9.272   1.019  -6.525  1.00  0.00     0.029 A 
ATOM     39  C   UNL     1       9.814   1.711  -7.689  1.00  0.00     0.049 A 
ATOM     40  H   UNL     1      10.193   3.751  -7.889  1.00  0.00     0.167 HD
ATOM     41  C   UNL     1      10.562   8.100  -8.312  1.00  0.00     0.034 A 
ATOM     42  C   UNL     1      10.174   1.124  -8.848  1.00  0.00     0.034 A 
ATOM     43  C   UNL     1      11.122   7.548  -9.517  1.00  0.00     0.049 A 
ATOM     44  C   UNL     1      10.738   1.976  -9.951  1.00  0.00     0.074 A 
ATOM     45  C   UNL     1      11.718   8.216 -10.572  1.00  0.00     0.029 A 
ATOM     46  N   UNL     1      11.146   6.199  -9.831  1.00  0.00    -0.354 N 
ATOM     47  N   UNL     1      10.938   3.272  -9.973  1.00  0.00    -0.248 NA
ATOM     48  C   UNL     1      11.159   1.283 -11.177  1.00  0.00     0.031 C 
ATOM     49  C   UNL     1      12.077   7.271 -11.538  1.00  0.00     0.029 A 
ATOM     50  C   UNL     1      11.736   6.012 -11.069  1.00  0.00     0.049 A 
ATOM     51  H   UNL     1      10.796   5.479  -9.258  1.00  0.00     0.167 HD
ATOM     52  C   UNL     1      11.543   3.544 -11.195  1.00  0.00     0.074 A 
ATOM     53  C   UNL     1      11.694   2.274 -11.876  1.00  0.00     0.031 C 
ATOM     54  C   UNL     1      11.927   4.737 -11.711  1.00  0.00     0.034 A 
BRANCH  41  55
ATOM     55  C   UNL     1      10.548   9.599  -8.155  1.00  0.00     0.023 A 
ATOM     56  C   UNL     1      11.428  10.214  -7.241  1.00  0.00     0.012 A 
ATOM     57  C   UNL     1       9.713  10.403  -8.955  1.00  0.00     0.148 A 
ATOM     58  C   UNL     1      11.453  11.601  -7.099  1.00  0.00     0.002 A 
ATOM     59  C   UNL     1       9.777  11.788  -8.843  1.00  0.00     0.091 A 
ATOM     60  F   UNL     1       8.869   9.802  -9.805  1.00  0.00    -0.205 F 
ATOM     61  C   UNL     1      10.636  12.387  -7.907  1.00  0.00     0.022 A 
BRANCH  59  62
ATOM     62  S   UNL     1       8.827  12.893  -9.894  1.00  0.00     0.127 S 
ATOM     63  O   UNL     1       7.880  13.466  -8.938  1.00  0.00    -0.237 OA
ATOM     64  O   UNL     1       9.853  13.822 -10.367  1.00  0.00    -0.237 OA
ATOM     65  O   UNL     1       8.239  12.057 -10.930  1.00  0.00    -0.744 OA
ENDBRANCH  59  62
ENDBRANCH  41  55
BRANCH  42  66
ATOM     66  C   UNL     1      10.075  -0.356  -8.997  1.00  0.00     0.023 A 
ATOM     67  C   UNL     1      11.254  -1.124  -9.061  1.00  0.00     0.012 A 
ATOM     68  C   UNL     1       8.828  -1.008  -9.049  1.00  0.00     0.148 A 
ATOM     69  C   UNL     1      11.195  -2.509  -9.211  1.00  0.00     0.002 A 
ATOM     70  C   UNL     1       8.775  -2.394  -9.142  1.00  0.00     0.091 A 
ATOM     71  F   UNL     1       7.717  -0.260  -8.994  1.00  0.00    -0.205 F 
ATOM     72  C   UNL     1       9.957  -3.145  -9.242  1.00  0.00     0.022 A 
BRANCH  70  73
ATOM     73  S   UNL     1       7.231  -3.308  -9.056  1.00  0.00     0.127 S 
ATOM     74  O   UNL     1       7.106  -3.813 -10.421  1.00  0.00    -0.237 OA
ATOM     75  O   UNL     1       7.539  -4.324  -8.049  1.00  0.00    -0.237 OA
ATOM     76  O   UNL     1       6.224  -2.341  -8.644  1.00  0.00    -0.744 OA
ENDBRANCH  70  73
ENDBRANCH  42  66
BRANCH  54  77
ATOM     77  C   UNL     1      12.591   4.731 -13.063  1.00  0.00     0.023 A 
ATOM     78  C   UNL     1      11.831   4.472 -14.220  1.00  0.00     0.012 A 
ATOM     79  C   UNL     1      13.956   5.060 -13.189  1.00  0.00     0.148 A 
ATOM     80  C   UNL     1      12.427   4.507 -15.480  1.00  0.00     0.002 A 
ATOM     81  C   UNL     1      14.530   5.145 -14.451  1.00  0.00     0.091 A 
ATOM     82  F   UNL     1      14.665   5.286 -12.074  1.00  0.00    -0.205 F 
ATOM     83  C   UNL     1      13.771   4.856 -15.597  1.00  0.00     0.022 A 
BRANCH  81  84
ATOM     84  S   UNL     1      16.224   5.684 -14.704  1.00  0.00     0.127 S 
ATOM     85  O   UNL     1      16.874   4.440 -15.113  1.00  0.00    -0.237 OA
ATOM     86  O   UNL     1      16.078   6.675 -15.771  1.00  0.00    -0.237 OA
ATOM     87  O   UNL     1      16.668   6.229 -13.428  1.00  0.00    -0.744 OA
ENDBRANCH  81  84
ENDBRANCH  54  77
ENDBRANCH  28  29
ENDBRANCH  20  23
ENDBRANCH   1  19
TORSDOF 14
