REMARK SMILES CO[C@@H]1C[NH2+][C@@H](O[C@@H]2C[C@@H](C(=O)NCCCNC(=O)c3ccc(-c4c5nc(c(-c6cccc(S(=O)(=O)[O-])c6F)c6ccc([nH]6)c(-c6cccc(S(=O)(=O)[O-])c6F)c6nc(c(-c7cccc(S(=O)(=O)[O-])c7F)c7ccc4[nH]7)C=C6)C=C5)cc3)N(C(=O)OC(C)(C)C)C2)c2cc(Cl)ccc21
REMARK SMILES IDX 15 1 14 2 13 3 11 4 12 5 10 7 8 8 9 9 91 10 83 11 7 12 6 13
REMARK SMILES IDX 3 14 4 15 98 16 5 17 92 18 97 19 93 22 96 23 94 24 95 25
REMARK SMILES IDX 2 26 1 27 84 28 85 29 86 30 87 31 88 32 89 33 90 34 16 35
REMARK SMILES IDX 17 36 18 37 19 39 20 40 21 41 82 42 22 43 81 44 23 45 24 46
REMARK SMILES IDX 25 47 75 48 26 49 80 50 74 51 76 52 27 53 79 54 73 55 72 56
REMARK SMILES IDX 28 58 60 59 40 60 59 61 41 62 44 63 58 64 77 65 42 66 43 67
REMARK SMILES IDX 57 69 78 70 45 71 29 72 30 73 38 74 31 75 33 76 39 77 32 78
REMARK SMILES IDX 34 79 35 80 36 81 37 82 61 83 62 84 70 85 63 86 65 87 71 88
REMARK SMILES IDX 64 89 66 90 67 91 68 92 69 93 46 94 47 95 55 96 48 97 50 98
REMARK SMILES IDX 56 99 49 100 51 101 52 102 53 103 54 104
REMARK H PARENT 13 6 5 20 5 21 17 38 76 57 44 68
REMARK Flexibility Score: inf
ROOT
ATOM      1  C   UNL     1       3.484   7.014  -2.700  1.00  0.00     0.042 C 
ENDROOT
BRANCH   1   2
ATOM      2  C   UNL     1       2.246   6.463  -2.005  1.00  0.00     0.117 C 
BRANCH   2   3
ATOM      3  N   UNL     1       1.573   5.505  -2.864  1.00  0.00    -0.354 N 
ATOM      4  C   UNL     1       2.082   4.322  -3.340  1.00  0.00     0.243 C 
ATOM      5  O   UNL     1       1.858   4.072  -4.524  1.00  0.00    -0.273 OA
ATOM      6  H   UNL     1       0.653   5.729  -3.134  1.00  0.00     0.163 HD
BRANCH   4   7
ATOM      7  C   UNL     1       2.669   3.295  -2.341  1.00  0.00     0.180 C 
ATOM      8  C   UNL     1       4.445   2.584  -0.863  1.00  0.00     0.147 C 
ATOM      9  C   UNL     1       3.761   3.820  -1.407  1.00  0.00     0.069 C 
ATOM     10  C   UNL     1       4.399   1.625  -2.054  1.00  0.00     0.156 C 
ATOM     11  N   UNL     1       3.250   2.045  -2.853  1.00  0.00    -0.293 N 
BRANCH   8  12
ATOM     12  O   UNL     1       4.047   2.161   0.437  1.00  0.00    -0.320 OA
BRANCH  12  13
ATOM     13  C   UNL     1       2.760   1.840   0.956  1.00  0.00     0.354 C 
ATOM     14  C   UNL     1       0.323   0.999  -0.527  1.00  0.00     0.203 C 
ATOM     15  C   UNL     1       1.657   0.215  -0.455  1.00  0.00     0.300 C 
ATOM     16  C   UNL     1       0.426   2.395   0.072  1.00  0.00    -0.002 A 
ATOM     17  N   UNL     1       2.440   0.432   0.759  1.00  0.00    -0.315 N 
ATOM     18  C   UNL     1       1.585   2.792   0.779  1.00  0.00     0.046 A 
ATOM     19  C   UNL     1      -0.591   3.336  -0.182  1.00  0.00     0.009 A 
ATOM     20  H   UNL     1       3.309  -0.098   0.689  1.00  0.00     0.349 HD
ATOM     21  H   UNL     1       1.882   0.121   1.554  1.00  0.00     0.349 HD
ATOM     22  C   UNL     1       1.633   4.091   1.323  1.00  0.00     0.033 A 
ATOM     23  C   UNL     1      -0.493   4.639   0.303  1.00  0.00     0.021 A 
ATOM     24  C   UNL     1       0.603   5.002   1.078  1.00  0.00     0.041 A 
ATOM     25  Cl  UNL     1       0.711   6.604   1.699  1.00  0.00    -0.084 Cl
BRANCH  14  26
ATOM     26  O   UNL     1      -0.846   0.328  -0.045  1.00  0.00    -0.371 OA
ATOM     27  C   UNL     1      -0.634  -0.677   0.930  1.00  0.00     0.196 C 
ENDBRANCH  14  26
ENDBRANCH  12  13
ENDBRANCH   8  12
BRANCH  11  28
ATOM     28  C   UNL     1       2.611   1.117  -3.651  1.00  0.00     0.411 C 
ATOM     29  O   UNL     1       3.104   0.023  -3.915  1.00  0.00    -0.224 OA
BRANCH  28  30
ATOM     30  O   UNL     1       1.365   1.499  -4.013  1.00  0.00    -0.444 OA
BRANCH  30  31
ATOM     31  C   UNL     1       0.563   0.704  -4.926  1.00  0.00     0.106 C 
ATOM     32  C   UNL     1       1.305   0.405  -6.235  1.00  0.00     0.056 C 
ATOM     33  C   UNL     1       0.071  -0.580  -4.249  1.00  0.00     0.056 C 
ATOM     34  C   UNL     1      -0.655   1.581  -5.255  1.00  0.00     0.056 C 
ENDBRANCH  30  31
ENDBRANCH  28  30
ENDBRANCH  11  28
ENDBRANCH   4   7
ENDBRANCH   2   3
ENDBRANCH   1   2
BRANCH   1  35
ATOM     35  C   UNL     1       3.121   7.781  -3.960  1.00  0.00     0.118 C 
BRANCH  35  36
ATOM     36  N   UNL     1       2.412   9.014  -3.647  1.00  0.00    -0.352 N 
ATOM     37  C   UNL     1       2.813  10.310  -3.861  1.00  0.00     0.251 C 
ATOM     38  H   UNL     1       1.529   8.904  -3.225  1.00  0.00     0.163 HD
ATOM     39  O   UNL     1       2.238  11.233  -3.295  1.00  0.00    -0.269 OA
BRANCH  37  40
ATOM     40  C   UNL     1       3.955  10.556  -4.762  1.00  0.00     0.039 A 
ATOM     41  C   UNL     1       4.068   9.823  -5.944  1.00  0.00     0.014 A 
ATOM     42  C   UNL     1       4.940  11.477  -4.403  1.00  0.00     0.014 A 
ATOM     43  C   UNL     1       5.255   9.855  -6.655  1.00  0.00     0.010 A 
ATOM     44  C   UNL     1       6.079  11.606  -5.201  1.00  0.00     0.010 A 
ATOM     45  C   UNL     1       6.269  10.761  -6.306  1.00  0.00    -0.014 A 
BRANCH  45  46
ATOM     46  C   UNL     1       7.492  10.814  -7.145  1.00  0.00     0.031 A 
ATOM     47  C   UNL     1       8.849  10.520  -6.568  1.00  0.00     0.074 A 
ATOM     48  C   UNL     1       7.354  11.073  -8.462  1.00  0.00     0.049 A 
ATOM     49  N   UNL     1      10.002  10.470  -7.185  1.00  0.00    -0.248 NA
ATOM     50  C   UNL     1       8.937  10.251  -5.122  1.00  0.00     0.031 C 
ATOM     51  C   UNL     1       6.087  11.394  -9.127  1.00  0.00     0.029 A 
ATOM     52  N   UNL     1       8.271  11.083  -9.480  1.00  0.00    -0.354 N 
ATOM     53  C   UNL     1      10.950  10.209  -6.204  1.00  0.00     0.074 A 
ATOM     54  C   UNL     1      10.245  10.114  -4.946  1.00  0.00     0.031 C 
ATOM     55  C   UNL     1       6.295  11.506 -10.446  1.00  0.00     0.029 A 
ATOM     56  C   UNL     1       7.718  11.340 -10.713  1.00  0.00     0.049 A 
ATOM     57  H   UNL     1       9.232  10.921  -9.343  1.00  0.00     0.167 HD
ATOM     58  C   UNL     1      12.285  10.046  -6.347  1.00  0.00     0.034 A 
ATOM     59  C   UNL     1       8.288  11.449 -11.928  1.00  0.00     0.034 A 
ATOM     60  C   UNL     1      12.972  10.090  -7.608  1.00  0.00     0.049 A 
ATOM     61  C   UNL     1       9.768  11.258 -12.055  1.00  0.00     0.074 A 
ATOM     62  C   UNL     1      14.318   9.882  -7.854  1.00  0.00     0.029 A 
ATOM     63  N   UNL     1      12.375  10.359  -8.828  1.00  0.00    -0.354 N 
ATOM     64  N   UNL     1      10.633  10.940 -11.123  1.00  0.00    -0.248 NA
ATOM     65  C   UNL     1      10.354  11.429 -13.391  1.00  0.00     0.031 C 
ATOM     66  C   UNL     1      14.539  10.046  -9.222  1.00  0.00     0.029 A 
ATOM     67  C   UNL     1      13.326  10.330  -9.830  1.00  0.00     0.049 A 
ATOM     68  H   UNL     1      11.417  10.542  -8.962  1.00  0.00     0.167 HD
ATOM     69  C   UNL     1      11.862  10.854 -11.761  1.00  0.00     0.074 A 
ATOM     70  C   UNL     1      11.630  11.144 -13.162  1.00  0.00     0.031 C 
ATOM     71  C   UNL     1      13.072  10.572 -11.226  1.00  0.00     0.034 A 
BRANCH  58  72
ATOM     72  C   UNL     1      13.109   9.757  -5.123  1.00  0.00     0.023 A 
ATOM     73  C   UNL     1      13.124   8.453  -4.592  1.00  0.00     0.012 A 
ATOM     74  C   UNL     1      13.968  10.737  -4.588  1.00  0.00     0.148 A 
ATOM     75  C   UNL     1      13.982   8.127  -3.542  1.00  0.00     0.002 A 
ATOM     76  C   UNL     1      14.841  10.398  -3.562  1.00  0.00     0.091 A 
ATOM     77  F   UNL     1      13.929  11.972  -5.108  1.00  0.00    -0.205 F 
ATOM     78  C   UNL     1      14.848   9.095  -3.037  1.00  0.00     0.022 A 
BRANCH  76  79
ATOM     79  S   UNL     1      16.033  11.552  -2.873  1.00  0.00     0.127 S 
ATOM     80  O   UNL     1      15.567  11.665  -1.491  1.00  0.00    -0.237 OA
ATOM     81  O   UNL     1      17.292  10.825  -3.036  1.00  0.00    -0.237 OA
ATOM     82  O   UNL     1      15.920  12.771  -3.663  1.00  0.00    -0.744 OA
ENDBRANCH  76  79
ENDBRANCH  58  72
BRANCH  59  83
ATOM     83  C   UNL     1       7.427  11.723 -13.108  1.00  0.00     0.023 A 
ATOM     84  C   UNL     1       7.147  10.686 -14.017  1.00  0.00     0.012 A 
ATOM     85  C   UNL     1       6.809  12.978 -13.276  1.00  0.00     0.148 A 
ATOM     86  C   UNL     1       6.265  10.896 -15.078  1.00  0.00     0.002 A 
ATOM     87  C   UNL     1       5.900  13.167 -14.309  1.00  0.00     0.091 A 
ATOM     88  F   UNL     1       7.091  13.944 -12.391  1.00  0.00    -0.205 F 
ATOM     89  C   UNL     1       5.633  12.130 -15.216  1.00  0.00     0.022 A 
BRANCH  87  90
ATOM     90  S   UNL     1       4.960  14.684 -14.505  1.00  0.00     0.127 S 
ATOM     91  O   UNL     1       5.450  15.172 -15.792  1.00  0.00    -0.237 OA
ATOM     92  O   UNL     1       3.585  14.184 -14.518  1.00  0.00    -0.237 OA
ATOM     93  O   UNL     1       5.294  15.512 -13.354  1.00  0.00    -0.744 OA
ENDBRANCH  87  90
ENDBRANCH  59  83
BRANCH  71  94
ATOM     94  C   UNL     1      14.263  10.527 -12.138  1.00  0.00     0.023 A 
ATOM     95  C   UNL     1      14.896  11.729 -12.507  1.00  0.00     0.012 A 
ATOM     96  C   UNL     1      14.854   9.293 -12.470  1.00  0.00     0.148 A 
ATOM     97  C   UNL     1      16.112  11.701 -13.187  1.00  0.00     0.002 A 
ATOM     98  C   UNL     1      16.082   9.273 -13.117  1.00  0.00     0.091 A 
ATOM     99  F   UNL     1      14.224   8.167 -12.103  1.00  0.00    -0.205 F 
ATOM    100  C   UNL     1      16.711  10.477 -13.477  1.00  0.00     0.022 A 
BRANCH  98 101
ATOM    101  S   UNL     1      16.970   7.752 -13.463  1.00  0.00     0.127 S 
ATOM    102  O   UNL     1      17.044   7.777 -14.923  1.00  0.00    -0.237 OA
ATOM    103  O   UNL     1      18.244   7.979 -12.782  1.00  0.00    -0.237 OA
ATOM    104  O   UNL     1      16.162   6.674 -12.909  1.00  0.00    -0.744 OA
ENDBRANCH  98 101
ENDBRANCH  71  94
ENDBRANCH  45  46
ENDBRANCH  37  40
ENDBRANCH  35  36
ENDBRANCH   1  35
TORSDOF 19
