REMARK SMILES CN1C(=O)C[C@@H](C(=O)NCCCNC(=O)c2ccc(-c3c4nc(c(-c5cccc(S(=O)(=O)[O-])c5F)c5ccc([nH]5)c(-c5cccc(S(=O)(=O)[O-])c5F)c5nc(c(-c6cccc(S(=O)(=O)[O-])c6F)c6ccc3[nH]6)C=C5)C=C4)cc2)C12CCN(C(=O)c1cccc3ccccc13)CC2
REMARK SMILES IDX 12 1 11 2 10 3 9 4 7 5 8 6 6 8 1 9 2 10 3 11 79 12 4 13 5 14
REMARK SMILES IDX 80 15 96 16 81 17 95 18 82 19 83 20 84 21 85 22 86 23 94 24
REMARK SMILES IDX 87 25 89 26 93 27 88 28 90 29 92 30 91 31 13 32 14 33 15 35
REMARK SMILES IDX 16 36 17 37 78 38 18 39 77 40 19 41 20 42 21 43 71 44 22 45
REMARK SMILES IDX 76 46 70 47 72 48 23 49 75 50 69 51 68 52 24 54 56 55 36 56
REMARK SMILES IDX 55 57 37 58 40 59 54 60 73 61 38 62 39 63 53 65 74 66 41 67
REMARK SMILES IDX 25 68 26 69 34 70 27 71 29 72 35 73 28 74 30 75 31 76 32 77
REMARK SMILES IDX 33 78 57 79 58 80 66 81 59 82 61 83 67 84 60 85 62 86 63 87
REMARK SMILES IDX 64 88 65 89 42 90 43 91 51 92 44 93 46 94 52 95 45 96 47 97
REMARK SMILES IDX 48 98 49 99 50 100
REMARK H PARENT 9 7 13 34 72 53 40 64
REMARK Flexibility Score: inf
ROOT
ATOM      1  C   UNL     1       3.911  -1.861  -3.958  1.00  0.00     0.118 C 
ENDROOT
BRANCH   1   2
ATOM      2  C   UNL     1       3.262  -0.877  -2.992  1.00  0.00     0.042 C 
BRANCH   2   3
ATOM      3  C   UNL     1       2.544   0.284  -3.680  1.00  0.00     0.117 C 
BRANCH   3   4
ATOM      4  N   UNL     1       1.460  -0.107  -4.573  1.00  0.00    -0.356 N 
ATOM      5  C   UNL     1       0.111   0.026  -4.533  1.00  0.00     0.226 C 
ATOM      6  O   UNL     1      -0.499  -0.332  -5.548  1.00  0.00    -0.275 OA
ATOM      7  H   UNL     1       1.776  -0.569  -5.382  1.00  0.00     0.163 HD
BRANCH   5   8
ATOM      8  C   UNL     1      -0.698   0.526  -3.336  1.00  0.00     0.113 C 
ATOM      9  C   UNL     1       0.889   0.050   0.029  1.00  0.00     0.147 C 
ATOM     10  N   UNL     1       0.303   0.479  -1.228  1.00  0.00    -0.339 N 
ATOM     11  C   UNL     1       0.392   1.805  -1.636  1.00  0.00     0.223 C 
ATOM     12  C   UNL     1      -0.630  -0.318  -2.040  1.00  0.00     0.058 C 
ATOM     13  O   UNL     1       0.984   2.705  -1.069  1.00  0.00    -0.275 OA
ATOM     14  C   UNL     1      -0.345   1.956  -2.938  1.00  0.00     0.116 C 
ATOM     15  C   UNL     1      -0.190  -1.778  -2.293  1.00  0.00     0.051 C 
ATOM     16  C   UNL     1      -1.999  -0.342  -1.294  1.00  0.00     0.051 C 
ATOM     17  C   UNL     1      -1.266  -2.605  -3.002  1.00  0.00     0.122 C 
ATOM     18  C   UNL     1      -3.018  -1.306  -1.902  1.00  0.00     0.122 C 
ATOM     19  N   UNL     1      -2.434  -2.622  -2.150  1.00  0.00    -0.338 N 
ATOM     20  C   UNL     1      -2.946  -3.738  -1.495  1.00  0.00     0.254 C 
ATOM     21  O   UNL     1      -3.809  -3.635  -0.621  1.00  0.00    -0.269 OA
BRANCH  20  22
ATOM     22  C   UNL     1      -2.616  -5.126  -1.925  1.00  0.00     0.047 A 
ATOM     23  C   UNL     1      -3.708  -5.790  -2.513  1.00  0.00     0.014 A 
ATOM     24  C   UNL     1      -1.432  -5.845  -1.585  1.00  0.00    -0.006 A 
ATOM     25  C   UNL     1      -3.683  -7.166  -2.703  1.00  0.00     0.001 A 
ATOM     26  C   UNL     1      -1.450  -7.257  -1.746  1.00  0.00    -0.018 A 
ATOM     27  C   UNL     1      -0.229  -5.281  -1.098  1.00  0.00     0.009 A 
ATOM     28  C   UNL     1      -2.578  -7.896  -2.280  1.00  0.00     0.009 A 
ATOM     29  C   UNL     1      -0.341  -8.033  -1.368  1.00  0.00     0.009 A 
ATOM     30  C   UNL     1       0.907  -6.055  -0.834  1.00  0.00     0.001 A 
ATOM     31  C   UNL     1       0.840  -7.436  -0.938  1.00  0.00     0.001 A 
ENDBRANCH  20  22
ENDBRANCH   5   8
ENDBRANCH   3   4
ENDBRANCH   2   3
ENDBRANCH   1   2
BRANCH   1  32
ATOM     32  N   UNL     1       5.027  -1.244  -4.657  1.00  0.00    -0.352 N 
ATOM     33  C   UNL     1       6.375  -1.456  -4.509  1.00  0.00     0.251 C 
ATOM     34  H   UNL     1       4.779  -0.576  -5.337  1.00  0.00     0.163 HD
ATOM     35  O   UNL     1       7.160  -0.602  -4.914  1.00  0.00    -0.269 OA
BRANCH  33  36
ATOM     36  C   UNL     1       6.883  -2.696  -3.881  1.00  0.00     0.039 A 
ATOM     37  C   UNL     1       8.043  -2.631  -3.104  1.00  0.00     0.014 A 
ATOM     38  C   UNL     1       6.268  -3.932  -4.106  1.00  0.00     0.014 A 
ATOM     39  C   UNL     1       8.561  -3.794  -2.532  1.00  0.00     0.010 A 
ATOM     40  C   UNL     1       6.734  -5.075  -3.460  1.00  0.00     0.010 A 
ATOM     41  C   UNL     1       7.898  -5.024  -2.682  1.00  0.00    -0.014 A 
BRANCH  41  42
ATOM     42  C   UNL     1       8.419  -6.251  -2.023  1.00  0.00     0.031 A 
ATOM     43  C   UNL     1       8.850  -7.444  -2.838  1.00  0.00     0.074 A 
ATOM     44  C   UNL     1       8.471  -6.302  -0.677  1.00  0.00     0.049 A 
ATOM     45  N   UNL     1       9.347  -8.583  -2.428  1.00  0.00    -0.248 NA
ATOM     46  C   UNL     1       8.680  -7.361  -4.298  1.00  0.00     0.031 C 
ATOM     47  C   UNL     1       7.997  -5.250   0.227  1.00  0.00     0.029 A 
ATOM     48  N   UNL     1       8.932  -7.279   0.168  1.00  0.00    -0.354 N 
ATOM     49  C   UNL     1       9.531  -9.355  -3.570  1.00  0.00     0.074 A 
ATOM     50  C   UNL     1       9.047  -8.574  -4.687  1.00  0.00     0.031 C 
ATOM     51  C   UNL     1       8.210  -5.630   1.496  1.00  0.00     0.029 A 
ATOM     52  C   UNL     1       8.803  -6.963   1.501  1.00  0.00     0.049 A 
ATOM     53  H   UNL     1       9.319  -8.127  -0.149  1.00  0.00     0.167 HD
ATOM     54  C   UNL     1      10.085 -10.585  -3.686  1.00  0.00     0.034 A 
ATOM     55  C   UNL     1       9.123  -7.667   2.603  1.00  0.00     0.034 A 
ATOM     56  C   UNL     1      10.594 -11.348  -2.576  1.00  0.00     0.049 A 
ATOM     57  C   UNL     1       9.774  -9.013   2.442  1.00  0.00     0.074 A 
ATOM     58  C   UNL     1      11.234 -12.574  -2.596  1.00  0.00     0.029 A 
ATOM     59  N   UNL     1      10.515 -10.961  -1.247  1.00  0.00    -0.354 N 
ATOM     60  N   UNL     1      10.079  -9.657   1.341  1.00  0.00    -0.248 NA
ATOM     61  C   UNL     1      10.164  -9.712   3.675  1.00  0.00     0.031 C 
ATOM     62  C   UNL     1      11.518 -12.942  -1.277  1.00  0.00     0.029 A 
ATOM     63  C   UNL     1      11.089 -11.927  -0.438  1.00  0.00     0.049 A 
ATOM     64  H   UNL     1      10.111 -10.123  -0.926  1.00  0.00     0.167 HD
ATOM     65  C   UNL     1      10.722 -10.820   1.747  1.00  0.00     0.074 A 
ATOM     66  C   UNL     1      10.797 -10.771   3.193  1.00  0.00     0.031 C 
ATOM     67  C   UNL     1      11.191 -11.847   0.996  1.00  0.00     0.034 A 
BRANCH  54  68
ATOM     68  C   UNL     1      10.230 -11.166  -5.070  1.00  0.00     0.023 A 
ATOM     69  C   UNL     1      11.177 -10.614  -5.958  1.00  0.00     0.012 A 
ATOM     70  C   UNL     1       9.497 -12.302  -5.465  1.00  0.00     0.148 A 
ATOM     71  C   UNL     1      11.372 -11.163  -7.224  1.00  0.00     0.002 A 
ATOM     72  C   UNL     1       9.730 -12.873  -6.711  1.00  0.00     0.091 A 
ATOM     73  F   UNL     1       8.590 -12.804  -4.614  1.00  0.00    -0.205 F 
ATOM     74  C   UNL     1      10.658 -12.299  -7.595  1.00  0.00     0.022 A 
BRANCH  72  75
ATOM     75  S   UNL     1       8.923 -14.383  -7.258  1.00  0.00     0.127 S 
ATOM     76  O   UNL     1       8.113 -13.896  -8.374  1.00  0.00    -0.237 OA
ATOM     77  O   UNL     1      10.062 -15.213  -7.648  1.00  0.00    -0.237 OA
ATOM     78  O   UNL     1       8.169 -14.875  -6.114  1.00  0.00    -0.744 OA
ENDBRANCH  72  75
ENDBRANCH  54  68
BRANCH  55  79
ATOM     79  C   UNL     1       8.871  -7.098   3.958  1.00  0.00     0.023 A 
ATOM     80  C   UNL     1       9.955  -6.753   4.789  1.00  0.00     0.012 A 
ATOM     81  C   UNL     1       7.559  -6.896   4.425  1.00  0.00     0.148 A 
ATOM     82  C   UNL     1       9.736  -6.264   6.077  1.00  0.00     0.002 A 
ATOM     83  C   UNL     1       7.348  -6.348   5.684  1.00  0.00     0.091 A 
ATOM     84  F   UNL     1       6.539  -7.240   3.625  1.00  0.00    -0.205 F 
ATOM     85  C   UNL     1       8.434  -6.053   6.521  1.00  0.00     0.022 A 
BRANCH  83  86
ATOM     86  S   UNL     1       5.708  -5.911   6.272  1.00  0.00     0.127 S 
ATOM     87  O   UNL     1       5.459  -6.953   7.264  1.00  0.00    -0.237 OA
ATOM     88  O   UNL     1       5.930  -4.573   6.822  1.00  0.00    -0.237 OA
ATOM     89  O   UNL     1       4.853  -5.936   5.093  1.00  0.00    -0.744 OA
ENDBRANCH  83  86
ENDBRANCH  55  79
BRANCH  67  90
ATOM     90  C   UNL     1      11.854 -12.987   1.725  1.00  0.00     0.023 A 
ATOM     91  C   UNL     1      11.085 -13.849   2.532  1.00  0.00     0.012 A 
ATOM     92  C   UNL     1      13.236 -13.221   1.588  1.00  0.00     0.148 A 
ATOM     93  C   UNL     1      11.688 -14.891   3.235  1.00  0.00     0.002 A 
ATOM     94  C   UNL     1      13.822 -14.296   2.246  1.00  0.00     0.091 A 
ATOM     95  F   UNL     1      13.957 -12.382   0.829  1.00  0.00    -0.205 F 
ATOM     96  C   UNL     1      13.054 -15.120   3.084  1.00  0.00     0.022 A 
BRANCH  94  97
ATOM     97  S   UNL     1      15.553 -14.725   2.035  1.00  0.00     0.127 S 
ATOM     98  O   UNL     1      16.123 -14.302   3.312  1.00  0.00    -0.237 OA
ATOM     99  O   UNL     1      15.491 -16.175   1.844  1.00  0.00    -0.237 OA
ATOM    100  O   UNL     1      16.009 -13.983   0.868  1.00  0.00    -0.744 OA
ENDBRANCH  94  97
ENDBRANCH  67  90
ENDBRANCH  41  42
ENDBRANCH  33  36
ENDBRANCH   1  32
TORSDOF 14
