REMARK SMILES Cc1cc(C(=O)N[C@H]2C=C[C@@H](C(=O)NCCCNC(=O)c3ccc(-c4c5nc(c(-c6cccc(S(=O)(=O)[O-])c6F)c6ccc([nH]6)c(-c6cccc(S(=O)(=O)[O-])c6F)c6nc(c(-c7cccc(S(=O)(=O)[O-])c7F)c7ccc4[nH]7)C=C6)C=C5)cc3)C2)no1
REMARK SMILES IDX 16 1 15 2 14 3 12 4 13 5 11 7 8 8 9 9 84 10 10 11 7 12 5 13
REMARK SMILES IDX 6 14 4 16 1 17 2 18 3 19 86 20 85 21 17 22 18 23 19 24 20 26
REMARK SMILES IDX 21 27 22 28 83 29 23 30 82 31 24 32 25 33 26 34 76 35 27 36
REMARK SMILES IDX 81 37 75 38 77 39 28 40 80 41 74 42 73 43 29 45 61 46 41 47
REMARK SMILES IDX 60 48 42 49 45 50 59 51 78 52 43 53 44 54 58 56 79 57 46 58
REMARK SMILES IDX 30 59 31 60 39 61 32 62 34 63 40 64 33 65 35 66 36 67 37 68
REMARK SMILES IDX 38 69 62 70 63 71 71 72 64 73 66 74 72 75 65 76 67 77 68 78
REMARK SMILES IDX 69 79 70 80 47 81 48 82 56 83 49 84 51 85 57 86 50 87 52 88
REMARK SMILES IDX 53 89 54 90 55 91
REMARK H PARENT 14 6 7 15 18 25 77 44 45 55
REMARK Flexibility Score: inf
ROOT
ATOM      1  C   UNL     1      -3.592  -4.959   3.167  1.00  0.00     0.042 C 
ENDROOT
BRANCH   1   2
ATOM      2  C   UNL     1      -2.121  -4.782   3.524  1.00  0.00     0.117 C 
BRANCH   2   3
ATOM      3  N   UNL     1      -1.365  -6.018   3.399  1.00  0.00    -0.356 N 
ATOM      4  C   UNL     1      -0.371  -6.386   2.545  1.00  0.00     0.227 C 
ATOM      5  O   UNL     1       0.139  -7.498   2.717  1.00  0.00    -0.274 OA
ATOM      6  H   UNL     1      -1.617  -6.713   4.048  1.00  0.00     0.163 HD
BRANCH   4   7
ATOM      7  C   UNL     1       0.143  -5.481   1.424  1.00  0.00     0.103 C 
ATOM      8  C   UNL     1      -0.682  -3.581   0.093  1.00  0.00     0.106 C 
ATOM      9  C   UNL     1       0.184  -3.147   1.234  1.00  0.00    -0.006 C 
ATOM     10  C   UNL     1      -0.898  -5.081   0.373  1.00  0.00     0.047 C 
ATOM     11  C   UNL     1       0.662  -4.178   1.937  1.00  0.00    -0.016 C 
BRANCH   8  12
ATOM     12  N   UNL     1      -1.931  -2.850   0.050  1.00  0.00    -0.344 N 
ATOM     13  C   UNL     1      -2.183  -1.507  -0.138  1.00  0.00     0.273 C 
ATOM     14  O   UNL     1      -3.358  -1.147  -0.193  1.00  0.00    -0.267 OA
ATOM     15  H   UNL     1      -2.734  -3.404   0.177  1.00  0.00     0.164 HD
BRANCH  13  16
ATOM     16  C   UNL     1      -1.068  -0.563  -0.196  1.00  0.00     0.171 A 
ATOM     17  C   UNL     1       2.286   0.858  -0.658  1.00  0.00     0.091 C 
ATOM     18  C   UNL     1       0.898   0.413  -0.455  1.00  0.00     0.134 A 
ATOM     19  C   UNL     1       0.150  -0.637  -0.924  1.00  0.00     0.082 A 
ATOM     20  O   UNL     1       0.146   1.146   0.405  1.00  0.00    -0.361 OA
ATOM     21  N   UNL     1      -1.088   0.550   0.558  1.00  0.00    -0.074 NA
ENDBRANCH  13  16
ENDBRANCH   8  12
ENDBRANCH   4   7
ENDBRANCH   2   3
ENDBRANCH   1   2
BRANCH   1  22
ATOM     22  C   UNL     1      -4.363  -5.851   4.132  1.00  0.00     0.118 C 
BRANCH  22  23
ATOM     23  N   UNL     1      -4.515  -5.254   5.451  1.00  0.00    -0.352 N 
ATOM     24  C   UNL     1      -5.654  -5.087   6.202  1.00  0.00     0.251 C 
ATOM     25  H   UNL     1      -3.685  -4.923   5.864  1.00  0.00     0.163 HD
ATOM     26  O   UNL     1      -5.612  -4.422   7.233  1.00  0.00    -0.269 OA
BRANCH  24  27
ATOM     27  C   UNL     1      -6.931  -5.690   5.759  1.00  0.00     0.039 A 
ATOM     28  C   UNL     1      -8.096  -4.918   5.805  1.00  0.00     0.014 A 
ATOM     29  C   UNL     1      -6.982  -7.013   5.310  1.00  0.00     0.014 A 
ATOM     30  C   UNL     1      -9.302  -5.454   5.347  1.00  0.00     0.010 A 
ATOM     31  C   UNL     1      -8.171  -7.524   4.797  1.00  0.00     0.010 A 
ATOM     32  C   UNL     1      -9.343  -6.753   4.817  1.00  0.00    -0.014 A 
BRANCH  32  33
ATOM     33  C   UNL     1     -10.598  -7.337   4.284  1.00  0.00     0.031 A 
ATOM     34  C   UNL     1     -11.220  -8.525   4.964  1.00  0.00     0.074 A 
ATOM     35  C   UNL     1     -11.119  -6.867   3.133  1.00  0.00     0.049 A 
ATOM     36  N   UNL     1     -12.248  -9.242   4.592  1.00  0.00    -0.248 NA
ATOM     37  C   UNL     1     -10.584  -8.986   6.210  1.00  0.00     0.031 C 
ATOM     38  C   UNL     1     -10.565  -5.769   2.339  1.00  0.00     0.029 A 
ATOM     39  N   UNL     1     -12.216  -7.275   2.417  1.00  0.00    -0.354 N 
ATOM     40  C   UNL     1     -12.350 -10.267   5.524  1.00  0.00     0.074 A 
ATOM     41  C   UNL     1     -11.273 -10.087   6.474  1.00  0.00     0.031 C 
ATOM     42  C   UNL     1     -11.325  -5.591   1.246  1.00  0.00     0.029 A 
ATOM     43  C   UNL     1     -12.407  -6.571   1.252  1.00  0.00     0.049 A 
ATOM     44  H   UNL     1     -12.809  -8.004   2.709  1.00  0.00     0.167 HD
ATOM     45  C   UNL     1     -13.274 -11.253   5.601  1.00  0.00     0.034 A 
ATOM     46  C   UNL     1     -13.351  -6.698   0.298  1.00  0.00     0.034 A 
ATOM     47  C   UNL     1     -14.394 -11.380   4.711  1.00  0.00     0.049 A 
ATOM     48  C   UNL     1     -14.423  -7.739   0.462  1.00  0.00     0.074 A 
ATOM     49  C   UNL     1     -15.438 -12.286   4.765  1.00  0.00     0.029 A 
ATOM     50  N   UNL     1     -14.624 -10.567   3.613  1.00  0.00    -0.354 N 
ATOM     51  N   UNL     1     -14.586  -8.608   1.430  1.00  0.00    -0.248 NA
ATOM     52  C   UNL     1     -15.461  -7.798  -0.579  1.00  0.00     0.031 C 
ATOM     53  C   UNL     1     -16.311 -12.009   3.706  1.00  0.00     0.029 A 
ATOM     54  C   UNL     1     -15.800 -10.940   2.987  1.00  0.00     0.049 A 
ATOM     55  H   UNL     1     -14.038  -9.831   3.322  1.00  0.00     0.167 HD
ATOM     56  C   UNL     1     -15.755  -9.297   1.131  1.00  0.00     0.074 A 
ATOM     57  C   UNL     1     -16.271  -8.733  -0.099  1.00  0.00     0.031 C 
ATOM     58  C   UNL     1     -16.336 -10.320   1.803  1.00  0.00     0.034 A 
BRANCH  45  59
ATOM     59  C   UNL     1     -13.157 -12.224   6.742  1.00  0.00     0.023 A 
ATOM     60  C   UNL     1     -13.592 -11.829   8.023  1.00  0.00     0.012 A 
ATOM     61  C   UNL     1     -12.661 -13.526   6.549  1.00  0.00     0.148 A 
ATOM     62  C   UNL     1     -13.516 -12.710   9.100  1.00  0.00     0.002 A 
ATOM     63  C   UNL     1     -12.615 -14.409   7.624  1.00  0.00     0.091 A 
ATOM     64  F   UNL     1     -12.219 -13.875   5.332  1.00  0.00    -0.205 F 
ATOM     65  C   UNL     1     -13.037 -14.002   8.899  1.00  0.00     0.022 A 
BRANCH  63  66
ATOM     66  S   UNL     1     -12.062 -16.107   7.424  1.00  0.00     0.127 S 
ATOM     67  O   UNL     1     -10.644 -16.000   7.762  1.00  0.00    -0.237 OA
ATOM     68  O   UNL     1     -12.869 -16.826   8.411  1.00  0.00    -0.237 OA
ATOM     69  O   UNL     1     -12.366 -16.449   6.041  1.00  0.00    -0.744 OA
ENDBRANCH  63  66
ENDBRANCH  45  59
BRANCH  46  70
ATOM     70  C   UNL     1     -13.377  -5.742  -0.842  1.00  0.00     0.023 A 
ATOM     71  C   UNL     1     -14.347  -4.721  -0.851  1.00  0.00     0.012 A 
ATOM     72  C   UNL     1     -12.430  -5.797  -1.880  1.00  0.00     0.148 A 
ATOM     73  C   UNL     1     -14.382  -3.781  -1.881  1.00  0.00     0.002 A 
ATOM     74  C   UNL     1     -12.444  -4.832  -2.883  1.00  0.00     0.091 A 
ATOM     75  F   UNL     1     -11.525  -6.787  -1.871  1.00  0.00    -0.205 F 
ATOM     76  C   UNL     1     -13.425  -3.829  -2.891  1.00  0.00     0.022 A 
BRANCH  74  77
ATOM     77  S   UNL     1     -11.159  -4.779  -4.138  1.00  0.00     0.127 S 
ATOM     78  O   UNL     1     -11.727  -5.615  -5.191  1.00  0.00    -0.237 OA
ATOM     79  O   UNL     1     -11.082  -3.353  -4.459  1.00  0.00    -0.237 OA
ATOM     80  O   UNL     1      -9.972  -5.298  -3.469  1.00  0.00    -0.744 OA
ENDBRANCH  74  77
ENDBRANCH  46  70
BRANCH  58  81
ATOM     81  C   UNL     1     -17.605 -10.893   1.240  1.00  0.00     0.023 A 
ATOM     82  C   UNL     1     -17.529 -11.806   0.170  1.00  0.00     0.012 A 
ATOM     83  C   UNL     1     -18.854 -10.607   1.821  1.00  0.00     0.148 A 
ATOM     84  C   UNL     1     -18.682 -12.416  -0.321  1.00  0.00     0.002 A 
ATOM     85  C   UNL     1     -19.996 -11.243   1.345  1.00  0.00     0.091 A 
ATOM     86  F   UNL     1     -18.910  -9.715   2.822  1.00  0.00    -0.205 F 
ATOM     87  C   UNL     1     -19.913 -12.145   0.273  1.00  0.00     0.022 A 
BRANCH  85  88
ATOM     88  S   UNL     1     -21.597 -10.992   2.122  1.00  0.00     0.127 S 
ATOM     89  O   UNL     1     -22.149  -9.896   1.329  1.00  0.00    -0.237 OA
ATOM     90  O   UNL     1     -22.260 -12.282   1.921  1.00  0.00    -0.237 OA
ATOM     91  O   UNL     1     -21.302 -10.687   3.516  1.00  0.00    -0.744 OA
ENDBRANCH  85  88
ENDBRANCH  58  81
ENDBRANCH  32  33
ENDBRANCH  24  27
ENDBRANCH  22  23
ENDBRANCH   1  22
TORSDOF 15
