REMARK SMILES O=C(NCCCNC(=O)c1ccc(-c2c3nc(c(-c4cccc(S(=O)(=O)[O-])c4F)c4ccc([nH]4)c(-c4cccc(S(=O)(=O)[O-])c4F)c4nc(c(-c5cccc(S(=O)(=O)[O-])c5F)c5ccc2[nH]5)C=C4)C=C3)cc1)C1=NN(c2ccc([N+](=O)[O-])cc2)[C@H](c2ccccc2)C1
REMARK SMILES IDX 5 1 4 2 3 3 1 4 2 5 73 7 74 8 92 9 75 10 85 11 76 12 77 13
REMARK SMILES IDX 84 14 78 15 83 16 79 17 80 18 81 19 82 20 86 21 87 22 91 23
REMARK SMILES IDX 88 24 90 25 89 26 6 27 7 28 8 29 9 31 10 32 11 33 72 34
REMARK SMILES IDX 12 35 71 36 13 37 14 38 15 39 65 40 16 41 70 42 64 43 66 44
REMARK SMILES IDX 17 45 69 46 63 47 62 48 18 50 50 51 30 52 49 53 31 54 34 55
REMARK SMILES IDX 48 56 67 57 32 58 33 59 47 61 68 62 35 63 19 64 20 65 28 66
REMARK SMILES IDX 21 67 23 68 29 69 22 70 24 71 25 72 26 73 27 74 51 75 52 76
REMARK SMILES IDX 60 77 53 78 55 79 61 80 54 81 56 82 57 83 58 84 59 85 36 86
REMARK SMILES IDX 37 87 45 88 38 89 40 90 46 91 39 92 41 93 42 94 43 95 44 96
REMARK H PARENT 3 6 7 30 66 49 34 60
REMARK Flexibility Score: inf
ROOT
ATOM      1  C   UNL     1       4.963  -0.439   2.063  1.00  0.00     0.042 C 
ENDROOT
BRANCH   1   2
ATOM      2  C   UNL     1       4.455  -0.964   0.728  1.00  0.00     0.118 C 
BRANCH   2   3
ATOM      3  N   UNL     1       3.017  -0.786   0.552  1.00  0.00    -0.351 N 
ATOM      4  O   UNL     1       1.137   0.050  -0.435  1.00  0.00    -0.268 OA
ATOM      5  C   UNL     1       2.360  -0.002  -0.367  1.00  0.00     0.267 C 
ATOM      6  H   UNL     1       2.443  -1.293   1.171  1.00  0.00     0.163 HD
BRANCH   5   7
ATOM      7  C   UNL     1       3.165   0.867  -1.291  1.00  0.00     0.128 C 
ATOM      8  N   UNL     1       4.228   0.447  -1.894  1.00  0.00    -0.171 NA
ATOM      9  C   UNL     1       2.742   2.265  -1.581  1.00  0.00     0.096 C 
ATOM     10  N   UNL     1       4.816   1.543  -2.429  1.00  0.00    -0.257 N 
ATOM     11  C   UNL     1       3.992   2.765  -2.334  1.00  0.00     0.144 C 
BRANCH  10  12
ATOM     12  C   UNL     1       5.964   1.341  -3.171  1.00  0.00     0.061 A 
ATOM     13  C   UNL     1       5.956   0.464  -4.267  1.00  0.00     0.035 A 
ATOM     14  C   UNL     1       7.191   1.899  -2.785  1.00  0.00     0.035 A 
ATOM     15  C   UNL     1       7.120   0.190  -4.991  1.00  0.00     0.088 A 
ATOM     16  C   UNL     1       8.366   1.641  -3.497  1.00  0.00     0.088 A 
ATOM     17  C   UNL     1       8.322   0.791  -4.606  1.00  0.00     0.269 A 
BRANCH  17  18
ATOM     18  N   UNL     1       9.546   0.521  -5.367  1.00  0.00     0.062 N 
ATOM     19  O   UNL     1       9.498  -0.348  -6.250  1.00  0.00    -0.258 OA
ATOM     20  O   UNL     1      10.554   1.190  -5.098  1.00  0.00    -0.258 OA
ENDBRANCH  17  18
ENDBRANCH  10  12
BRANCH  11  21
ATOM     21  C   UNL     1       4.711   3.970  -1.742  1.00  0.00    -0.023 A 
ATOM     22  C   UNL     1       4.524   4.435  -0.430  1.00  0.00     0.006 A 
ATOM     23  C   UNL     1       5.607   4.686  -2.560  1.00  0.00     0.006 A 
ATOM     24  C   UNL     1       5.200   5.567   0.039  1.00  0.00     0.000 A 
ATOM     25  C   UNL     1       6.316   5.789  -2.079  1.00  0.00     0.000 A 
ATOM     26  C   UNL     1       6.105   6.235  -0.779  1.00  0.00     0.000 A 
ENDBRANCH  11  21
ENDBRANCH   5   7
ENDBRANCH   2   3
ENDBRANCH   1   2
BRANCH   1  27
ATOM     27  C   UNL     1       4.495  -1.237   3.271  1.00  0.00     0.118 C 
BRANCH  27  28
ATOM     28  N   UNL     1       4.918  -2.629   3.226  1.00  0.00    -0.352 N 
ATOM     29  C   UNL     1       5.642  -3.377   4.120  1.00  0.00     0.251 C 
ATOM     30  H   UNL     1       4.636  -3.117   2.419  1.00  0.00     0.163 HD
ATOM     31  O   UNL     1       6.016  -4.499   3.784  1.00  0.00    -0.269 OA
BRANCH  29  32
ATOM     32  C   UNL     1       5.984  -2.858   5.464  1.00  0.00     0.039 A 
ATOM     33  C   UNL     1       7.219  -3.209   6.020  1.00  0.00     0.014 A 
ATOM     34  C   UNL     1       5.089  -2.083   6.205  1.00  0.00     0.014 A 
ATOM     35  C   UNL     1       7.567  -2.752   7.294  1.00  0.00     0.010 A 
ATOM     36  C   UNL     1       5.473  -1.554   7.436  1.00  0.00     0.010 A 
ATOM     37  C   UNL     1       6.706  -1.903   8.005  1.00  0.00    -0.014 A 
BRANCH  37  38
ATOM     38  C   UNL     1       7.071  -1.391   9.351  1.00  0.00     0.031 A 
ATOM     39  C   UNL     1       6.238  -1.748  10.555  1.00  0.00     0.074 A 
ATOM     40  C   UNL     1       8.112  -0.546   9.483  1.00  0.00     0.049 A 
ATOM     41  N   UNL     1       6.395  -1.384  11.803  1.00  0.00    -0.248 NA
ATOM     42  C   UNL     1       5.057  -2.597  10.326  1.00  0.00     0.031 C 
ATOM     43  C   UNL     1       8.939  -0.044   8.383  1.00  0.00     0.029 A 
ATOM     44  N   UNL     1       8.639   0.059  10.597  1.00  0.00    -0.354 N 
ATOM     45  C   UNL     1       5.316  -1.922  12.495  1.00  0.00     0.074 A 
ATOM     46  C   UNL     1       4.491  -2.607  11.524  1.00  0.00     0.031 C 
ATOM     47  C   UNL     1       9.872   0.785   8.878  1.00  0.00     0.029 A 
ATOM     48  C   UNL     1       9.701   0.889  10.324  1.00  0.00     0.049 A 
ATOM     49  H   UNL     1       8.290  -0.087  11.505  1.00  0.00     0.167 HD
ATOM     50  C   UNL     1       5.052  -1.883  13.823  1.00  0.00     0.034 A 
ATOM     51  C   UNL     1      10.457   1.643  11.146  1.00  0.00     0.034 A 
ATOM     52  C   UNL     1       5.907  -1.257  14.795  1.00  0.00     0.049 A 
ATOM     53  C   UNL     1      10.198   1.597  12.627  1.00  0.00     0.074 A 
ATOM     54  C   UNL     1       5.784  -1.254  16.174  1.00  0.00     0.029 A 
ATOM     55  N   UNL     1       7.042  -0.523  14.493  1.00  0.00    -0.354 N 
ATOM     56  N   UNL     1       9.277   0.933  13.283  1.00  0.00    -0.248 NA
ATOM     57  C   UNL     1      11.110   2.365  13.486  1.00  0.00     0.031 C 
ATOM     58  C   UNL     1       6.840  -0.504  16.704  1.00  0.00     0.029 A 
ATOM     59  C   UNL     1       7.630  -0.058  15.657  1.00  0.00     0.049 A 
ATOM     60  H   UNL     1       7.381  -0.356  13.584  1.00  0.00     0.167 HD
ATOM     61  C   UNL     1       9.519   1.174  14.630  1.00  0.00     0.074 A 
ATOM     62  C   UNL     1      10.688   2.026  14.697  1.00  0.00     0.031 C 
ATOM     63  C   UNL     1       8.825   0.744  15.713  1.00  0.00     0.034 A 
BRANCH  50  64
ATOM     64  C   UNL     1       3.817  -2.595  14.311  1.00  0.00     0.023 A 
ATOM     65  C   UNL     1       3.783  -4.005  14.313  1.00  0.00     0.012 A 
ATOM     66  C   UNL     1       2.713  -1.878  14.813  1.00  0.00     0.148 A 
ATOM     67  C   UNL     1       2.658  -4.689  14.770  1.00  0.00     0.002 A 
ATOM     68  C   UNL     1       1.612  -2.568  15.309  1.00  0.00     0.091 A 
ATOM     69  F   UNL     1       2.752  -0.538  14.783  1.00  0.00    -0.205 F 
ATOM     70  C   UNL     1       1.578  -3.972  15.277  1.00  0.00     0.022 A 
BRANCH  68  71
ATOM     71  S   UNL     1       0.206  -1.736  16.055  1.00  0.00     0.127 S 
ATOM     72  O   UNL     1      -0.809  -1.879  15.013  1.00  0.00    -0.237 OA
ATOM     73  O   UNL     1      -0.032  -2.542  17.253  1.00  0.00    -0.237 OA
ATOM     74  O   UNL     1       0.645  -0.373  16.322  1.00  0.00    -0.744 OA
ENDBRANCH  68  71
ENDBRANCH  50  64
BRANCH  51  75
ATOM     75  C   UNL     1      11.590   2.434  10.588  1.00  0.00     0.023 A 
ATOM     76  C   UNL     1      12.912   2.017  10.839  1.00  0.00     0.012 A 
ATOM     77  C   UNL     1      11.367   3.565   9.780  1.00  0.00     0.148 A 
ATOM     78  C   UNL     1      13.993   2.730  10.319  1.00  0.00     0.002 A 
ATOM     79  C   UNL     1      12.447   4.239   9.221  1.00  0.00     0.091 A 
ATOM     80  F   UNL     1      10.102   3.951   9.562  1.00  0.00    -0.205 F 
ATOM     81  C   UNL     1      13.761   3.833   9.502  1.00  0.00     0.022 A 
BRANCH  79  82
ATOM     82  S   UNL     1      12.238   5.586   8.051  1.00  0.00     0.127 S 
ATOM     83  O   UNL     1      12.633   6.742   8.851  1.00  0.00    -0.237 OA
ATOM     84  O   UNL     1      13.179   5.218   6.992  1.00  0.00    -0.237 OA
ATOM     85  O   UNL     1      10.838   5.540   7.648  1.00  0.00    -0.744 OA
ENDBRANCH  79  82
ENDBRANCH  51  75
BRANCH  63  86
ATOM     86  C   UNL     1       9.326   1.159  17.072  1.00  0.00     0.023 A 
ATOM     87  C   UNL     1       9.166   2.493  17.498  1.00  0.00     0.012 A 
ATOM     88  C   UNL     1       9.894   0.217  17.951  1.00  0.00     0.148 A 
ATOM     89  C   UNL     1       9.597   2.890  18.763  1.00  0.00     0.002 A 
ATOM     90  C   UNL     1      10.278   0.609  19.228  1.00  0.00     0.091 A 
ATOM     91  F   UNL     1      10.059  -1.043  17.521  1.00  0.00    -0.205 F 
ATOM     92  C   UNL     1      10.142   1.946  19.631  1.00  0.00     0.022 A 
BRANCH  90  93
ATOM     93  S   UNL     1      10.899  -0.564  20.439  1.00  0.00     0.127 S 
ATOM     94  O   UNL     1      12.339  -0.319  20.382  1.00  0.00    -0.237 OA
ATOM     95  O   UNL     1      10.253  -0.115  21.673  1.00  0.00    -0.237 OA
ATOM     96  O   UNL     1      10.462  -1.876  19.978  1.00  0.00    -0.744 OA
ENDBRANCH  90  93
ENDBRANCH  63  86
ENDBRANCH  37  38
ENDBRANCH  29  32
ENDBRANCH  27  28
ENDBRANCH   1  27
TORSDOF 16
