REMARK SMILES C[C@H]1[NH2+]CC[C@H]1C(=O)N1CCCc2cc(C(=O)NCCCNC(=O)c3ccc(-c4c5nc(c(-c6cccc(S(=O)(=O)[O-])c6F)c6ccc([nH]6)c(-c6cccc(S(=O)(=O)[O-])c6F)c6nc(c(-c7cccc(S(=O)(=O)[O-])c7F)c7ccc4[nH]7)C=C6)C=C5)cc3)ccc21
REMARK SMILES IDX 20 1 19 2 18 3 16 4 17 5 15 7 9 8 10 9 90 10 11 11 13 12
REMARK SMILES IDX 89 13 12 14 14 15 88 16 7 17 8 18 6 19 1 20 2 21 3 22 4 23
REMARK SMILES IDX 5 26 21 27 22 28 23 29 24 31 25 32 26 33 87 34 27 35 86 36
REMARK SMILES IDX 28 37 29 38 30 39 80 40 31 41 85 42 79 43 81 44 32 45 84 46
REMARK SMILES IDX 78 47 77 48 33 50 65 51 45 52 64 53 46 54 49 55 63 56 82 57
REMARK SMILES IDX 47 58 48 59 62 61 83 62 50 63 34 64 35 65 43 66 36 67 38 68
REMARK SMILES IDX 44 69 37 70 39 71 40 72 41 73 42 74 66 75 67 76 75 77 68 78
REMARK SMILES IDX 70 79 76 80 69 81 71 82 72 83 73 84 74 85 51 86 52 87 60 88
REMARK SMILES IDX 53 89 55 90 61 91 54 92 56 93 57 94 58 95 59 96
REMARK H PARENT 18 6 3 24 3 25 22 30 81 49 49 60
REMARK Flexibility Score: inf
ROOT
ATOM      1  C   UNL     1      -3.382   6.906   3.773  1.00  0.00     0.042 C 
ENDROOT
BRANCH   1   2
ATOM      2  C   UNL     1      -2.103   7.597   3.300  1.00  0.00     0.118 C 
BRANCH   2   3
ATOM      3  N   UNL     1      -1.074   7.539   4.318  1.00  0.00    -0.352 N 
ATOM      4  C   UNL     1      -0.021   6.689   4.529  1.00  0.00     0.251 C 
ATOM      5  O   UNL     1       0.708   6.935   5.493  1.00  0.00    -0.269 OA
ATOM      6  H   UNL     1      -1.145   8.254   4.992  1.00  0.00     0.163 HD
BRANCH   4   7
ATOM      7  C   UNL     1       0.320   5.540   3.640  1.00  0.00     0.040 A 
ATOM      8  N   UNL     1       1.665   2.351   1.116  1.00  0.00    -0.312 N 
ATOM      9  C   UNL     1       3.042   1.896   1.284  1.00  0.00     0.126 C 
ATOM     10  C   UNL     1       1.213   3.410   1.972  1.00  0.00     0.047 A 
ATOM     11  C   UNL     1       4.007   2.986   1.709  1.00  0.00     0.027 C 
ATOM     12  C   UNL     1       2.091   4.019   2.888  1.00  0.00    -0.023 A 
ATOM     13  C   UNL     1      -0.105   3.872   1.920  1.00  0.00     0.027 A 
ATOM     14  C   UNL     1       3.526   3.588   3.014  1.00  0.00     0.039 C 
ATOM     15  C   UNL     1       1.640   5.073   3.704  1.00  0.00     0.019 A 
ATOM     16  C   UNL     1      -0.555   4.890   2.774  1.00  0.00     0.016 A 
BRANCH   8  17
ATOM     17  C   UNL     1       1.104   2.183  -0.142  1.00  0.00     0.236 C 
ATOM     18  O   UNL     1       1.452   2.900  -1.086  1.00  0.00    -0.274 OA
BRANCH  17  19
ATOM     19  C   UNL     1       0.144   1.017  -0.383  1.00  0.00     0.142 C 
ATOM     20  C   UNL     1       1.652  -0.930   0.512  1.00  0.00     0.076 C 
ATOM     21  C   UNL     1       0.726  -0.385  -0.572  1.00  0.00     0.192 C 
ATOM     22  N   UNL     1      -0.496  -1.209  -0.618  1.00  0.00    -0.343 N 
ATOM     23  C   UNL     1      -1.476  -0.610   0.295  1.00  0.00     0.261 C 
ATOM     24  H   UNL     1      -0.283  -2.162  -0.321  1.00  0.00     0.346 HD
ATOM     25  H   UNL     1      -0.868  -1.244  -1.567  1.00  0.00     0.346 HD
ATOM     26  C   UNL     1      -0.973   0.792   0.620  1.00  0.00     0.081 C 
ENDBRANCH  17  19
ENDBRANCH   8  17
ENDBRANCH   4   7
ENDBRANCH   2   3
ENDBRANCH   1   2
BRANCH   1  27
ATOM     27  C   UNL     1      -4.156   7.723   4.804  1.00  0.00     0.118 C 
BRANCH  27  28
ATOM     28  N   UNL     1      -4.714   8.934   4.218  1.00  0.00    -0.352 N 
ATOM     29  C   UNL     1      -6.010   9.379   4.190  1.00  0.00     0.251 C 
ATOM     30  H   UNL     1      -4.061   9.523   3.775  1.00  0.00     0.163 HD
ATOM     31  O   UNL     1      -6.308  10.303   3.434  1.00  0.00    -0.269 OA
BRANCH  29  32
ATOM     32  C   UNL     1      -7.041   8.768   5.056  1.00  0.00     0.039 A 
ATOM     33  C   UNL     1      -8.336   8.614   4.551  1.00  0.00     0.014 A 
ATOM     34  C   UNL     1      -6.758   8.412   6.378  1.00  0.00     0.014 A 
ATOM     35  C   UNL     1      -9.339   8.083   5.364  1.00  0.00     0.010 A 
ATOM     36  C   UNL     1      -7.741   7.816   7.162  1.00  0.00     0.010 A 
ATOM     37  C   UNL     1      -9.047   7.669   6.673  1.00  0.00    -0.014 A 
BRANCH  37  38
ATOM     38  C   UNL     1     -10.101   7.106   7.553  1.00  0.00     0.031 A 
ATOM     39  C   UNL     1     -10.501   7.830   8.810  1.00  0.00     0.074 A 
ATOM     40  C   UNL     1     -10.640   5.907   7.261  1.00  0.00     0.049 A 
ATOM     41  N   UNL     1     -11.361   7.474   9.729  1.00  0.00    -0.248 NA
ATOM     42  C   UNL     1      -9.824   9.108   9.087  1.00  0.00     0.031 C 
ATOM     43  C   UNL     1     -10.267   5.070   6.119  1.00  0.00     0.029 A 
ATOM     44  N   UNL     1     -11.592   5.171   7.917  1.00  0.00    -0.354 N 
ATOM     45  C   UNL     1     -11.304   8.462  10.706  1.00  0.00     0.074 A 
ATOM     46  C   UNL     1     -10.294   9.409  10.288  1.00  0.00     0.031 C 
ATOM     47  C   UNL     1     -10.977   3.932   6.159  1.00  0.00     0.029 A 
ATOM     48  C   UNL     1     -11.841   3.950   7.336  1.00  0.00     0.049 A 
ATOM     49  H   UNL     1     -12.055   5.487   8.727  1.00  0.00     0.167 HD
ATOM     50  C   UNL     1     -12.048   8.590  11.830  1.00  0.00     0.034 A 
ATOM     51  C   UNL     1     -12.667   2.955   7.712  1.00  0.00     0.034 A 
ATOM     52  C   UNL     1     -13.082   7.667  12.216  1.00  0.00     0.049 A 
ATOM     53  C   UNL     1     -13.536   3.150   8.924  1.00  0.00     0.074 A 
ATOM     54  C   UNL     1     -13.948   7.742  13.292  1.00  0.00     0.029 A 
ATOM     55  N   UNL     1     -13.389   6.497  11.536  1.00  0.00    -0.354 N 
ATOM     56  N   UNL     1     -13.579   4.166   9.752  1.00  0.00    -0.248 NA
ATOM     57  C   UNL     1     -14.503   2.086   9.228  1.00  0.00     0.031 C 
ATOM     58  C   UNL     1     -14.773   6.611  13.268  1.00  0.00     0.029 A 
ATOM     59  C   UNL     1     -14.433   5.842  12.166  1.00  0.00     0.049 A 
ATOM     60  H   UNL     1     -12.931   6.180  10.724  1.00  0.00     0.167 HD
ATOM     61  C   UNL     1     -14.595   3.880  10.656  1.00  0.00     0.074 A 
ATOM     62  C   UNL     1     -15.158   2.605  10.258  1.00  0.00     0.031 C 
ATOM     63  C   UNL     1     -15.015   4.599  11.726  1.00  0.00     0.034 A 
BRANCH  50  64
ATOM     64  C   UNL     1     -11.811   9.809  12.685  1.00  0.00     0.023 A 
ATOM     65  C   UNL     1     -12.205  11.076  12.206  1.00  0.00     0.012 A 
ATOM     66  C   UNL     1     -11.231   9.707  13.964  1.00  0.00     0.148 A 
ATOM     67  C   UNL     1     -11.986  12.226  12.963  1.00  0.00     0.002 A 
ATOM     68  C   UNL     1     -11.057  10.853  14.733  1.00  0.00     0.091 A 
ATOM     69  F   UNL     1     -10.841   8.500  14.398  1.00  0.00    -0.205 F 
ATOM     70  C   UNL     1     -11.420  12.113  14.229  1.00  0.00     0.022 A 
BRANCH  68  71
ATOM     71  S   UNL     1     -10.409  10.802  16.409  1.00  0.00     0.127 S 
ATOM     72  O   UNL     1      -9.053  11.314  16.217  1.00  0.00    -0.237 OA
ATOM     73  O   UNL     1     -11.309  11.714  17.117  1.00  0.00    -0.237 OA
ATOM     74  O   UNL     1     -10.505   9.412  16.830  1.00  0.00    -0.744 OA
ENDBRANCH  68  71
ENDBRANCH  50  64
BRANCH  51  75
ATOM     75  C   UNL     1     -12.760   1.724   6.878  1.00  0.00     0.023 A 
ATOM     76  C   UNL     1     -13.909   1.503   6.095  1.00  0.00     0.012 A 
ATOM     77  C   UNL     1     -11.692   0.809   6.806  1.00  0.00     0.148 A 
ATOM     78  C   UNL     1     -14.005   0.379   5.274  1.00  0.00     0.002 A 
ATOM     79  C   UNL     1     -11.771  -0.280   5.944  1.00  0.00     0.091 A 
ATOM     80  F   UNL     1     -10.611   1.034   7.565  1.00  0.00    -0.205 F 
ATOM     81  C   UNL     1     -12.932  -0.505   5.190  1.00  0.00     0.022 A 
BRANCH  79  82
ATOM     82  S   UNL     1     -10.383  -1.387   5.667  1.00  0.00     0.127 S 
ATOM     83  O   UNL     1     -10.844  -2.612   6.320  1.00  0.00    -0.237 OA
ATOM     84  O   UNL     1     -10.336  -1.452   4.204  1.00  0.00    -0.237 OA
ATOM     85  O   UNL     1      -9.233  -0.739   6.274  1.00  0.00    -0.744 OA
ENDBRANCH  79  82
ENDBRANCH  51  75
BRANCH  63  86
ATOM     86  C   UNL     1     -16.157   4.042  12.534  1.00  0.00     0.023 A 
ATOM     87  C   UNL     1     -15.943   2.933  13.376  1.00  0.00     0.012 A 
ATOM     88  C   UNL     1     -17.422   4.663  12.515  1.00  0.00     0.148 A 
ATOM     89  C   UNL     1     -16.979   2.431  14.163  1.00  0.00     0.002 A 
ATOM     90  C   UNL     1     -18.436   4.185  13.336  1.00  0.00     0.091 A 
ATOM     91  F   UNL     1     -17.612   5.704  11.691  1.00  0.00    -0.205 F 
ATOM     92  C   UNL     1     -18.220   3.063  14.152  1.00  0.00     0.022 A 
BRANCH  90  93
ATOM     93  S   UNL     1     -20.035   4.995  13.455  1.00  0.00     0.127 S 
ATOM     94  O   UNL     1     -20.886   4.091  12.683  1.00  0.00    -0.237 OA
ATOM     95  O   UNL     1     -20.285   4.985  14.897  1.00  0.00    -0.237 OA
ATOM     96  O   UNL     1     -19.851   6.324  12.886  1.00  0.00    -0.744 OA
ENDBRANCH  90  93
ENDBRANCH  63  86
ENDBRANCH  37  38
ENDBRANCH  29  32
ENDBRANCH  27  28
ENDBRANCH   1  27
TORSDOF 15
