REMARK SMILES O=C(NCCCNC(=O)c1ccc(-c2c3nc(c(-c4cccc(S(=O)(=O)[O-])c4F)c4ccc([nH]4)c(-c4cccc(S(=O)(=O)[O-])c4F)c4nc(c(-c5cccc(S(=O)(=O)[O-])c5F)c5ccc2[nH]5)C=C4)C=C3)cc1)C1=Cc2c(Cl)cc(Cl)cc2O[C@@H]1C(F)(F)F
REMARK SMILES IDX 6 1 5 2 4 3 3 4 1 5 2 6 73 8 74 9 84 10 75 11 83 12 76 13
REMARK SMILES IDX 82 14 77 15 78 16 81 17 79 18 80 19 85 20 86 21 87 22 88 23
REMARK SMILES IDX 7 24 8 25 9 27 10 28 11 29 72 30 12 31 71 32 13 33 14 34
REMARK SMILES IDX 15 35 65 36 16 37 70 38 64 39 66 40 17 41 69 42 63 43 62 44
REMARK SMILES IDX 18 46 50 47 30 48 49 49 31 50 34 51 48 52 67 53 32 54 33 55
REMARK SMILES IDX 47 57 68 58 35 59 19 60 20 61 28 62 21 63 23 64 29 65 22 66
REMARK SMILES IDX 24 67 25 68 26 69 27 70 51 71 52 72 60 73 53 74 55 75 61 76
REMARK SMILES IDX 54 77 56 78 57 79 58 80 59 81 36 82 37 83 45 84 38 85 40 86
REMARK SMILES IDX 46 87 39 88 41 89 42 90 43 91 44 92
REMARK H PARENT 3 7 7 26 66 45 34 56
REMARK Flexibility Score: inf
ROOT
ATOM      1  C   UNL     1       3.931  -3.114   2.789  1.00  0.00     0.118 C 
ENDROOT
BRANCH   1   2
ATOM      2  C   UNL     1       4.063  -1.683   2.279  1.00  0.00     0.042 C 
BRANCH   2   3
ATOM      3  C   UNL     1       3.263  -1.445   1.003  1.00  0.00     0.118 C 
BRANCH   3   4
ATOM      4  N   UNL     1       2.256  -0.389   1.129  1.00  0.00    -0.352 N 
ATOM      5  O   UNL     1       1.075   1.433   0.454  1.00  0.00    -0.270 OA
ATOM      6  C   UNL     1       2.101   0.770   0.406  1.00  0.00     0.251 C 
ATOM      7  H   UNL     1       1.588  -0.530   1.839  1.00  0.00     0.163 HD
BRANCH   6   8
ATOM      8  C   UNL     1       3.211   1.142  -0.491  1.00  0.00     0.067 C 
ATOM      9  C   UNL     1       4.363   1.466   0.107  1.00  0.00     0.027 C 
ATOM     10  C   UNL     1       3.106   0.721  -1.919  1.00  0.00     0.314 C 
ATOM     11  C   UNL     1       5.554   0.828  -0.479  1.00  0.00     0.036 A 
ATOM     12  O   UNL     1       4.223  -0.104  -2.333  1.00  0.00    -0.475 OA
ATOM     13  C   UNL     1       6.742   0.729   0.268  1.00  0.00     0.053 A 
ATOM     14  C   UNL     1       5.370  -0.038  -1.578  1.00  0.00     0.130 A 
ATOM     15  Cl  UNL     1       7.077   1.768   1.610  1.00  0.00    -0.083 Cl
ATOM     16  C   UNL     1       7.649  -0.302   0.015  1.00  0.00     0.042 A 
ATOM     17  C   UNL     1       6.295  -1.047  -1.845  1.00  0.00     0.067 A 
ATOM     18  C   UNL     1       7.401  -1.203  -1.016  1.00  0.00     0.046 A 
ATOM     19  Cl  UNL     1       8.426  -2.568  -1.220  1.00  0.00    -0.084 Cl
BRANCH  10  20
ATOM     20  C   UNL     1       2.941   1.924  -2.860  1.00  0.00     0.429 C 
ATOM     21  F   UNL     1       2.675   1.512  -4.126  1.00  0.00    -0.167 F 
ATOM     22  F   UNL     1       1.915   2.725  -2.492  1.00  0.00    -0.167 F 
ATOM     23  F   UNL     1       4.054   2.691  -2.918  1.00  0.00    -0.167 F 
ENDBRANCH  10  20
ENDBRANCH   6   8
ENDBRANCH   3   4
ENDBRANCH   2   3
ENDBRANCH   1   2
BRANCH   1  24
ATOM     24  N   UNL     1       4.531  -4.115   1.908  1.00  0.00    -0.352 N 
ATOM     25  C   UNL     1       5.407  -5.140   2.195  1.00  0.00     0.251 C 
ATOM     26  H   UNL     1       4.268  -4.045   0.962  1.00  0.00     0.163 HD
ATOM     27  O   UNL     1       5.844  -5.835   1.279  1.00  0.00    -0.269 OA
BRANCH  25  28
ATOM     28  C   UNL     1       5.850  -5.384   3.586  1.00  0.00     0.039 A 
ATOM     29  C   UNL     1       7.195  -5.676   3.838  1.00  0.00     0.014 A 
ATOM     30  C   UNL     1       4.951  -5.294   4.647  1.00  0.00     0.014 A 
ATOM     31  C   UNL     1       7.649  -5.778   5.158  1.00  0.00     0.010 A 
ATOM     32  C   UNL     1       5.426  -5.272   5.952  1.00  0.00     0.010 A 
ATOM     33  C   UNL     1       6.778  -5.523   6.228  1.00  0.00    -0.014 A 
BRANCH  33  34
ATOM     34  C   UNL     1       7.231  -5.517   7.646  1.00  0.00     0.031 A 
ATOM     35  C   UNL     1       6.550  -6.413   8.650  1.00  0.00     0.074 A 
ATOM     36  C   UNL     1       8.146  -4.617   8.060  1.00  0.00     0.049 A 
ATOM     37  N   UNL     1       6.668  -6.438   9.952  1.00  0.00    -0.248 NA
ATOM     38  C   UNL     1       5.563  -7.373   8.125  1.00  0.00     0.031 C 
ATOM     39  C   UNL     1       8.809  -3.624   7.210  1.00  0.00     0.029 A 
ATOM     40  N   UNL     1       8.652  -4.365   9.312  1.00  0.00    -0.354 N 
ATOM     41  C   UNL     1       5.725  -7.356  10.401  1.00  0.00     0.074 A 
ATOM     42  C   UNL     1       5.015  -7.836   9.238  1.00  0.00     0.031 C 
ATOM     43  C   UNL     1       9.637  -2.881   7.961  1.00  0.00     0.029 A 
ATOM     44  C   UNL     1       9.542  -3.317   9.350  1.00  0.00     0.049 A 
ATOM     45  H   UNL     1       8.400  -4.887  10.109  1.00  0.00     0.167 HD
ATOM     46  C   UNL     1       5.495  -7.792  11.662  1.00  0.00     0.034 A 
ATOM     47  C   UNL     1      10.203  -2.765  10.387  1.00  0.00     0.034 A 
ATOM     48  C   UNL     1       6.272  -7.387  12.800  1.00  0.00     0.049 A 
ATOM     49  C   UNL     1      10.009  -3.342  11.764  1.00  0.00     0.074 A 
ATOM     50  C   UNL     1       6.208  -7.860  14.098  1.00  0.00     0.029 A 
ATOM     51  N   UNL     1       7.266  -6.421  12.773  1.00  0.00    -0.354 N 
ATOM     52  N   UNL     1       9.225  -4.323  12.143  1.00  0.00    -0.248 NA
ATOM     53  C   UNL     1      10.816  -2.765  12.849  1.00  0.00     0.031 C 
ATOM     54  C   UNL     1       7.163  -7.175  14.858  1.00  0.00     0.029 A 
ATOM     55  C   UNL     1       7.828  -6.285  14.029  1.00  0.00     0.049 A 
ATOM     56  H   UNL     1       7.532  -5.907  11.976  1.00  0.00     0.167 HD
ATOM     57  C   UNL     1       9.469  -4.503  13.500  1.00  0.00     0.074 A 
ATOM     58  C   UNL     1      10.490  -3.545  13.871  1.00  0.00     0.031 C 
ATOM     59  C   UNL     1       8.888  -5.371  14.365  1.00  0.00     0.034 A 
BRANCH  46  60
ATOM     60  C   UNL     1       4.408  -8.817  11.862  1.00  0.00     0.023 A 
ATOM     61  C   UNL     1       4.596 -10.131  11.385  1.00  0.00     0.012 A 
ATOM     62  C   UNL     1       3.224  -8.497  12.554  1.00  0.00     0.148 A 
ATOM     63  C   UNL     1       3.606 -11.098  11.552  1.00  0.00     0.002 A 
ATOM     64  C   UNL     1       2.261  -9.480  12.760  1.00  0.00     0.091 A 
ATOM     65  F   UNL     1       3.051  -7.239  12.983  1.00  0.00    -0.205 F 
ATOM     66  C   UNL     1       2.444 -10.775  12.248  1.00  0.00     0.022 A 
BRANCH  64  67
ATOM     67  S   UNL     1       0.767  -9.188  13.714  1.00  0.00     0.127 S 
ATOM     68  O   UNL     1      -0.252  -9.163  12.666  1.00  0.00    -0.237 OA
ATOM     69  O   UNL     1       0.720 -10.366  14.581  1.00  0.00    -0.237 OA
ATOM     70  O   UNL     1       0.979  -7.929  14.414  1.00  0.00    -0.744 OA
ENDBRANCH  64  67
ENDBRANCH  46  60
BRANCH  47  71
ATOM     71  C   UNL     1      11.176  -1.660  10.149  1.00  0.00     0.023 A 
ATOM     72  C   UNL     1      12.555  -1.923  10.273  1.00  0.00     0.012 A 
ATOM     73  C   UNL     1      10.755  -0.371   9.769  1.00  0.00     0.148 A 
ATOM     74  C   UNL     1      13.495  -0.916  10.053  1.00  0.00     0.002 A 
ATOM     75  C   UNL     1      11.700   0.614   9.499  1.00  0.00     0.091 A 
ATOM     76  F   UNL     1       9.440  -0.136   9.667  1.00  0.00    -0.205 F 
ATOM     77  C   UNL     1      13.069   0.348   9.656  1.00  0.00     0.022 A 
BRANCH  75  78
ATOM     78  S   UNL     1      11.249   2.230   8.856  1.00  0.00     0.127 S 
ATOM     79  O   UNL     1      11.477   3.088  10.015  1.00  0.00    -0.237 OA
ATOM     80  O   UNL     1      12.209   2.400   7.764  1.00  0.00    -0.237 OA
ATOM     81  O   UNL     1       9.865   2.103   8.421  1.00  0.00    -0.744 OA
ENDBRANCH  75  78
ENDBRANCH  47  71
BRANCH  59  82
ATOM     82  C   UNL     1       9.363  -5.358  15.793  1.00  0.00     0.023 A 
ATOM     83  C   UNL     1       8.984  -4.303  16.645  1.00  0.00     0.012 A 
ATOM     84  C   UNL     1      10.107  -6.436  16.311  1.00  0.00     0.148 A 
ATOM     85  C   UNL     1       9.362  -4.307  17.986  1.00  0.00     0.002 A 
ATOM     86  C   UNL     1      10.440  -6.457  17.660  1.00  0.00     0.091 A 
ATOM     87  F   UNL     1      10.474  -7.421  15.477  1.00  0.00    -0.205 F 
ATOM     88  C   UNL     1      10.077  -5.388  18.497  1.00  0.00     0.022 A 
BRANCH  86  89
ATOM     89  S   UNL     1      11.273  -7.854  18.420  1.00  0.00     0.127 S 
ATOM     90  O   UNL     1      12.626  -7.331  18.602  1.00  0.00    -0.237 OA
ATOM     91  O   UNL     1      10.516  -8.033  19.660  1.00  0.00    -0.237 OA
ATOM     92  O   UNL     1      11.148  -8.956  17.476  1.00  0.00    -0.744 OA
ENDBRANCH  86  89
ENDBRANCH  59  82
ENDBRANCH  33  34
ENDBRANCH  25  28
ENDBRANCH   1  24
TORSDOF 14
