REMARK SMILES O=C(NCCCNC(=O)[C@@H]1[NH2+]CCc2[nH]c(-c3ccc(N4CC[NH2+]CC4)cc3)nc21)c1ccc(-c2c3nc(c(-c4cccc(S(=O)(=O)[O-])c4F)c4ccc([nH]4)c(-c4cccc(S(=O)(=O)[O-])c4F)c4nc(c(-c5cccc(S(=O)(=O)[O-])c5F)c5ccc2[nH]5)C=C4)C=C3)cc1
REMARK SMILES IDX 4 1 3 2 1 3 2 4 31 6 32 7 93 8 33 9 92 10 34 11 35 12 36 13
REMARK SMILES IDX 86 14 37 15 91 16 85 17 87 18 38 19 90 20 84 21 83 22 39 24
REMARK SMILES IDX 71 25 51 26 70 27 52 28 55 29 69 30 88 31 53 32 54 33 68 35
REMARK SMILES IDX 89 36 56 37 40 38 41 39 49 40 42 41 44 42 50 43 43 44 45 45
REMARK SMILES IDX 46 46 47 47 48 48 72 49 73 50 81 51 74 52 76 53 82 54 75 55
REMARK SMILES IDX 77 56 78 57 79 58 80 59 57 60 58 61 66 62 59 63 61 64 67 65
REMARK SMILES IDX 60 66 62 67 63 68 64 69 65 70 5 71 6 72 7 73 8 74 9 76 10 77
REMARK SMILES IDX 11 78 30 79 12 80 14 83 29 84 13 85 15 86 16 87 17 89 18 90
REMARK SMILES IDX 28 91 19 92 27 93 20 94 21 95 22 96 26 97 23 98 25 99 24 100
REMARK H PARENT 3 5 87 23 55 34 7 75 11 81 11 82 15 88 24 101 24 102
REMARK Flexibility Score: inf
ROOT
ATOM      1  C   UNL     1       4.664   0.931   0.412  1.00  0.00     0.118 C 
ENDROOT
BRANCH   1   2
ATOM      2  N   UNL     1       3.280   0.620   0.712  1.00  0.00    -0.352 N 
ATOM      3  O   UNL     1       1.210  -0.122   0.704  1.00  0.00    -0.269 OA
ATOM      4  C   UNL     1       2.250   0.010   0.052  1.00  0.00     0.251 C 
ATOM      5  H   UNL     1       3.018   0.923   1.611  1.00  0.00     0.163 HD
BRANCH   4   6
ATOM      6  C   UNL     1       2.275  -0.455  -1.363  1.00  0.00     0.039 A 
ATOM      7  C   UNL     1       3.409  -0.558  -2.170  1.00  0.00     0.014 A 
ATOM      8  C   UNL     1       1.030  -0.824  -1.912  1.00  0.00     0.014 A 
ATOM      9  C   UNL     1       3.297  -0.969  -3.499  1.00  0.00     0.010 A 
ATOM     10  C   UNL     1       0.914  -1.246  -3.234  1.00  0.00     0.010 A 
ATOM     11  C   UNL     1       2.049  -1.295  -4.038  1.00  0.00    -0.014 A 
BRANCH  11  12
ATOM     12  C   UNL     1       2.001  -1.794  -5.412  1.00  0.00     0.031 A 
ATOM     13  C   UNL     1       2.693  -3.095  -5.654  1.00  0.00     0.074 A 
ATOM     14  C   UNL     1       1.270  -1.232  -6.396  1.00  0.00     0.049 A 
ATOM     15  N   UNL     1       3.687  -3.341  -6.448  1.00  0.00    -0.248 NA
ATOM     16  C   UNL     1       2.262  -4.252  -4.856  1.00  0.00     0.031 C 
ATOM     17  C   UNL     1       0.271  -0.167  -6.279  1.00  0.00     0.029 A 
ATOM     18  N   UNL     1       1.179  -1.601  -7.707  1.00  0.00    -0.354 N 
ATOM     19  C   UNL     1       3.887  -4.722  -6.392  1.00  0.00     0.074 A 
ATOM     20  C   UNL     1       3.071  -5.209  -5.309  1.00  0.00     0.031 C 
ATOM     21  C   UNL     1      -0.486  -0.146  -7.400  1.00  0.00     0.029 A 
ATOM     22  C   UNL     1       0.065  -1.088  -8.358  1.00  0.00     0.049 A 
ATOM     23  H   UNL     1       1.843  -2.178  -8.150  1.00  0.00     0.167 HD
ATOM     24  C   UNL     1       4.574  -5.404  -7.351  1.00  0.00     0.034 A 
ATOM     25  C   UNL     1      -0.411  -1.466  -9.569  1.00  0.00     0.034 A 
ATOM     26  C   UNL     1       5.359  -4.535  -8.181  1.00  0.00     0.049 A 
ATOM     27  C   UNL     1       0.683  -2.147 -10.295  1.00  0.00     0.074 A 
ATOM     28  C   UNL     1       6.397  -3.650  -7.974  1.00  0.00     0.029 A 
ATOM     29  N   UNL     1       4.883  -4.264  -9.440  1.00  0.00    -0.354 N 
ATOM     30  N   UNL     1       1.753  -1.546 -10.730  1.00  0.00    -0.248 NA
ATOM     31  C   UNL     1       0.758  -3.596 -10.231  1.00  0.00     0.031 C 
ATOM     32  C   UNL     1       6.165  -2.591  -8.900  1.00  0.00     0.029 A 
ATOM     33  C   UNL     1       5.021  -2.916  -9.633  1.00  0.00     0.049 A 
ATOM     34  H   UNL     1       4.513  -4.914 -10.080  1.00  0.00     0.167 HD
ATOM     35  C   UNL     1       2.764  -2.483 -10.575  1.00  0.00     0.074 A 
ATOM     36  C   UNL     1       2.074  -3.756 -10.388  1.00  0.00     0.031 C 
ATOM     37  C   UNL     1       4.052  -2.098 -10.328  1.00  0.00     0.034 A 
BRANCH  24  38
ATOM     38  C   UNL     1       4.328  -6.843  -7.739  1.00  0.00     0.023 A 
ATOM     39  C   UNL     1       5.281  -7.478  -8.568  1.00  0.00     0.012 A 
ATOM     40  C   UNL     1       3.097  -7.511  -7.551  1.00  0.00     0.148 A 
ATOM     41  C   UNL     1       5.011  -8.697  -9.201  1.00  0.00     0.002 A 
ATOM     42  C   UNL     1       2.865  -8.761  -8.117  1.00  0.00     0.091 A 
ATOM     43  F   UNL     1       2.090  -6.886  -6.932  1.00  0.00    -0.205 F 
ATOM     44  C   UNL     1       3.807  -9.345  -8.966  1.00  0.00     0.022 A 
BRANCH  42  45
ATOM     45  S   UNL     1       1.349  -9.667  -7.784  1.00  0.00     0.127 S 
ATOM     46  O   UNL     1       0.596  -9.438  -9.020  1.00  0.00    -0.237 OA
ATOM     47  O   UNL     1       1.848 -11.036  -7.616  1.00  0.00    -0.237 OA
ATOM     48  O   UNL     1       0.808  -9.079  -6.576  1.00  0.00    -0.744 OA
ENDBRANCH  42  45
ENDBRANCH  24  38
BRANCH  25  49
ATOM     49  C   UNL     1      -1.804  -1.496 -10.067  1.00  0.00     0.023 A 
ATOM     50  C   UNL     1      -2.053  -1.471 -11.453  1.00  0.00     0.012 A 
ATOM     51  C   UNL     1      -2.868  -1.831  -9.201  1.00  0.00     0.148 A 
ATOM     52  C   UNL     1      -3.315  -1.799 -11.963  1.00  0.00     0.002 A 
ATOM     53  C   UNL     1      -4.121  -2.151  -9.712  1.00  0.00     0.091 A 
ATOM     54  F   UNL     1      -2.623  -1.927  -7.887  1.00  0.00    -0.205 F 
ATOM     55  C   UNL     1      -4.346  -2.147 -11.094  1.00  0.00     0.022 A 
BRANCH  53  56
ATOM     56  S   UNL     1      -5.492  -2.638  -8.655  1.00  0.00     0.127 S 
ATOM     57  O   UNL     1      -6.577  -1.796  -9.161  1.00  0.00    -0.237 OA
ATOM     58  O   UNL     1      -5.624  -4.058  -8.967  1.00  0.00    -0.237 OA
ATOM     59  O   UNL     1      -5.076  -2.323  -7.294  1.00  0.00    -0.744 OA
ENDBRANCH  53  56
ENDBRANCH  25  49
BRANCH  37  60
ATOM     60  C   UNL     1       4.407  -0.640 -10.493  1.00  0.00     0.023 A 
ATOM     61  C   UNL     1       3.794   0.368  -9.719  1.00  0.00     0.012 A 
ATOM     62  C   UNL     1       5.502  -0.299 -11.305  1.00  0.00     0.148 A 
ATOM     63  C   UNL     1       4.245   1.689  -9.774  1.00  0.00     0.002 A 
ATOM     64  C   UNL     1       5.980   1.006 -11.319  1.00  0.00     0.091 A 
ATOM     65  F   UNL     1       6.081  -1.268 -12.031  1.00  0.00    -0.205 F 
ATOM     66  C   UNL     1       5.347   2.006 -10.563  1.00  0.00     0.022 A 
BRANCH  64  67
ATOM     67  S   UNL     1       7.478   1.450 -12.202  1.00  0.00     0.127 S 
ATOM     68  O   UNL     1       6.949   2.140 -13.376  1.00  0.00    -0.237 OA
ATOM     69  O   UNL     1       8.166   2.315 -11.242  1.00  0.00    -0.237 OA
ATOM     70  O   UNL     1       8.170   0.194 -12.469  1.00  0.00    -0.744 OA
ENDBRANCH  64  67
ENDBRANCH  37  60
ENDBRANCH  11  12
ENDBRANCH   4   6
ENDBRANCH   1   2
BRANCH   1  71
ATOM     71  C   UNL     1       4.857   2.227  -0.378  1.00  0.00     0.042 C 
BRANCH  71  72
ATOM     72  C   UNL     1       4.310   3.471   0.328  1.00  0.00     0.118 C 
BRANCH  72  73
ATOM     73  N   UNL     1       4.954   3.695   1.615  1.00  0.00    -0.350 N 
ATOM     74  C   UNL     1       5.805   4.692   2.006  1.00  0.00     0.284 C 
ATOM     75  H   UNL     1       4.745   3.029   2.309  1.00  0.00     0.163 HD
ATOM     76  O   UNL     1       6.248   4.644   3.162  1.00  0.00    -0.268 OA
BRANCH  74  77
ATOM     77  C   UNL     1       6.245   5.796   1.012  1.00  0.00     0.324 C 
ATOM     78  N   UNL     1       7.693   6.111   1.239  1.00  0.00    -0.331 N 
ATOM     79  C   UNL     1       5.354   6.980   1.150  1.00  0.00     0.129 A 
ATOM     80  C   UNL     1       8.102   7.453   1.687  1.00  0.00     0.267 C 
ATOM     81  H   UNL     1       8.172   5.939   0.355  1.00  0.00     0.347 HD
ATOM     82  H   UNL     1       7.937   5.519   2.033  1.00  0.00     0.347 HD
ATOM     83  C   UNL     1       5.768   8.255   1.428  1.00  0.00     0.051 A 
ATOM     84  N   UNL     1       3.990   6.955   0.985  1.00  0.00    -0.226 NA
ATOM     85  C   UNL     1       7.153   8.676   1.668  1.00  0.00     0.117 C 
ATOM     86  N   UNL     1       4.647   9.029   1.411  1.00  0.00    -0.341 N 
ATOM     87  C   UNL     1       3.580   8.203   1.134  1.00  0.00     0.138 A 
ATOM     88  H   UNL     1       4.607  10.000   1.567  1.00  0.00     0.168 HD
BRANCH  87  89
ATOM     89  C   UNL     1       2.207   8.680   1.056  1.00  0.00     0.017 A 
ATOM     90  C   UNL     1       1.229   8.133   1.890  1.00  0.00     0.014 A 
ATOM     91  C   UNL     1       1.839   9.671   0.143  1.00  0.00     0.014 A 
ATOM     92  C   UNL     1      -0.092   8.592   1.827  1.00  0.00     0.026 A 
ATOM     93  C   UNL     1       0.509  10.100   0.064  1.00  0.00     0.026 A 
ATOM     94  C   UNL     1      -0.477   9.575   0.908  1.00  0.00     0.037 A 
BRANCH  94  95
ATOM     95  N   UNL     1      -1.780  10.012   0.843  1.00  0.00    -0.360 N 
ATOM     96  C   UNL     1      -2.460  10.527   2.031  1.00  0.00     0.178 C 
ATOM     97  C   UNL     1      -2.510  10.094  -0.425  1.00  0.00     0.178 C 
ATOM     98  C   UNL     1      -3.000  11.948   1.738  1.00  0.00     0.282 C 
ATOM     99  C   UNL     1      -3.079  11.516  -0.628  1.00  0.00     0.282 C 
ATOM    100  N   UNL     1      -3.853  12.027   0.530  1.00  0.00    -0.343 N 
ATOM    101  H   UNL     1      -4.124  12.996   0.362  1.00  0.00     0.346 HD
ATOM    102  H   UNL     1      -4.695  11.466   0.660  1.00  0.00     0.346 HD
ENDBRANCH  94  95
ENDBRANCH  87  89
ENDBRANCH  74  77
ENDBRANCH  72  73
ENDBRANCH  71  72
ENDBRANCH   1  71
TORSDOF 15
