REMARK SMILES Cc1ccc(-c2cc(C(=O)NCCCNC(=O)c3ccc(-c4c5nc(c(-c6cccc(S(=O)(=O)[O-])c6F)c6ccc([nH]6)c(-c6cccc(S(=O)(=O)[O-])c6F)c6nc(c(-c7cccc(S(=O)(=O)[O-])c7F)c7ccc4[nH]7)C=C6)C=C5)cc3)c3cc(C)ccc3n2)c(C)c1
REMARK SMILES IDX 14 1 13 2 12 3 11 4 9 5 10 6 8 8 6 9 7 10 88 11 87 12 81 13
REMARK SMILES IDX 86 14 82 15 85 16 83 17 84 18 5 19 1 20 2 21 3 22 91 23 4 24
REMARK SMILES IDX 89 25 90 26 15 27 16 28 17 30 18 31 19 32 80 33 20 34 79 35
REMARK SMILES IDX 21 36 22 37 23 38 73 39 24 40 78 41 72 42 74 43 25 44 77 45
REMARK SMILES IDX 71 46 70 47 26 49 58 50 38 51 57 52 39 53 42 54 56 55 75 56
REMARK SMILES IDX 40 57 41 58 55 60 76 61 43 62 27 63 28 64 36 65 29 66 31 67
REMARK SMILES IDX 37 68 30 69 32 70 33 71 34 72 35 73 59 74 60 75 68 76 61 77
REMARK SMILES IDX 63 78 69 79 62 80 64 81 65 82 66 83 67 84 44 85 45 86 53 87
REMARK SMILES IDX 46 88 48 89 54 90 47 91 49 92 50 93 51 94 52 95
REMARK H PARENT 11 7 15 29 74 48 42 59
REMARK Flexibility Score: inf
ROOT
ATOM      1  C   UNL     1      -6.973  -7.647   1.865  1.00  0.00     0.118 C 
ENDROOT
BRANCH   1   2
ATOM      2  C   UNL     1      -6.228  -7.021   0.695  1.00  0.00     0.042 C 
BRANCH   2   3
ATOM      3  C   UNL     1      -6.061  -5.516   0.773  1.00  0.00     0.118 C 
BRANCH   3   4
ATOM      4  N   UNL     1      -5.365  -4.998   1.944  1.00  0.00    -0.352 N 
ATOM      5  C   UNL     1      -4.645  -3.834   2.120  1.00  0.00     0.252 C 
ATOM      6  O   UNL     1      -4.223  -3.577   3.249  1.00  0.00    -0.269 OA
ATOM      7  H   UNL     1      -5.416  -5.575   2.740  1.00  0.00     0.163 HD
BRANCH   5   8
ATOM      8  C   UNL     1      -4.268  -2.930   0.996  1.00  0.00     0.051 A 
ATOM      9  C   UNL     1      -2.490  -1.732  -0.065  1.00  0.00     0.072 A 
ATOM     10  C   UNL     1      -2.945  -2.475   1.010  1.00  0.00     0.043 A 
ATOM     11  N   UNL     1      -3.237  -1.547  -1.177  1.00  0.00    -0.248 NA
ATOM     12  C   UNL     1      -4.509  -1.974  -1.187  1.00  0.00     0.072 A 
ATOM     13  C   UNL     1      -5.120  -2.553  -0.064  1.00  0.00     0.013 A 
ATOM     14  C   UNL     1      -5.249  -1.851  -2.355  1.00  0.00     0.029 A 
ATOM     15  C   UNL     1      -6.519  -2.743  -0.087  1.00  0.00     0.014 A 
ATOM     16  C   UNL     1      -6.583  -2.261  -2.429  1.00  0.00     0.005 A 
ATOM     17  C   UNL     1      -7.240  -2.688  -1.281  1.00  0.00    -0.050 A 
ATOM     18  C   UNL     1      -8.632  -3.246  -1.339  1.00  0.00     0.044 C 
BRANCH   9  19
ATOM     19  C   UNL     1      -1.205  -1.018  -0.038  1.00  0.00     0.003 A 
ATOM     20  C   UNL     1       2.606   1.050   0.011  1.00  0.00     0.044 C 
ATOM     21  C   UNL     1       1.296   0.320   0.004  1.00  0.00    -0.051 A 
ATOM     22  C   UNL     1       1.240  -1.074  -0.033  1.00  0.00     0.004 A 
ATOM     23  C   UNL     1       0.100   1.045   0.023  1.00  0.00     0.007 A 
ATOM     24  C   UNL     1       0.005  -1.733  -0.054  1.00  0.00     0.011 A 
ATOM     25  C   UNL     1      -1.148   0.396   0.016  1.00  0.00    -0.041 A 
ATOM     26  C   UNL     1      -2.384   1.260   0.019  1.00  0.00     0.045 C 
ENDBRANCH   9  19
ENDBRANCH   5   8
ENDBRANCH   3   4
ENDBRANCH   2   3
ENDBRANCH   1   2
BRANCH   1  27
ATOM     27  N   UNL     1      -8.325  -7.135   2.082  1.00  0.00    -0.352 N 
ATOM     28  C   UNL     1      -9.577  -7.621   1.781  1.00  0.00     0.251 C 
ATOM     29  H   UNL     1      -8.344  -6.262   2.537  1.00  0.00     0.163 HD
ATOM     30  O   UNL     1     -10.555  -6.915   2.030  1.00  0.00    -0.269 OA
BRANCH  28  31
ATOM     31  C   UNL     1      -9.778  -8.936   1.126  1.00  0.00     0.039 A 
ATOM     32  C   UNL     1     -10.824  -9.083   0.205  1.00  0.00     0.014 A 
ATOM     33  C   UNL     1      -8.968 -10.031   1.405  1.00  0.00     0.014 A 
ATOM     34  C   UNL     1     -10.973 -10.281  -0.505  1.00  0.00     0.010 A 
ATOM     35  C   UNL     1      -9.027 -11.166   0.604  1.00  0.00     0.010 A 
ATOM     36  C   UNL     1     -10.033 -11.312  -0.360  1.00  0.00    -0.014 A 
BRANCH  36  37
ATOM     37  C   UNL     1     -10.060 -12.545  -1.195  1.00  0.00     0.031 A 
ATOM     38  C   UNL     1     -10.084 -13.905  -0.543  1.00  0.00     0.074 A 
ATOM     39  C   UNL     1      -9.924 -12.449  -2.534  1.00  0.00     0.049 A 
ATOM     40  N   UNL     1      -9.947 -15.086  -1.087  1.00  0.00    -0.248 NA
ATOM     41  C   UNL     1     -10.229 -13.939   0.923  1.00  0.00     0.031 C 
ATOM     42  C   UNL     1      -9.786 -11.200  -3.287  1.00  0.00     0.029 A 
ATOM     43  N   UNL     1      -9.838 -13.424  -3.498  1.00  0.00    -0.354 N 
ATOM     44  C   UNL     1      -9.932 -15.992  -0.033  1.00  0.00     0.074 A 
ATOM     45  C   UNL     1     -10.025 -15.220   1.187  1.00  0.00     0.031 C 
ATOM     46  C   UNL     1      -9.639 -11.483  -4.591  1.00  0.00     0.029 A 
ATOM     47  C   UNL     1      -9.633 -12.931  -4.766  1.00  0.00     0.049 A 
ATOM     48  H   UNL     1      -9.915 -14.386  -3.300  1.00  0.00     0.167 HD
ATOM     49  C   UNL     1      -9.887 -17.346  -0.070  1.00  0.00     0.034 A 
ATOM     50  C   UNL     1      -9.449 -13.569  -5.939  1.00  0.00     0.034 A 
ATOM     51  C   UNL     1      -9.873 -18.114  -1.284  1.00  0.00     0.049 A 
ATOM     52  C   UNL     1      -9.485 -15.072  -5.966  1.00  0.00     0.074 A 
ATOM     53  C   UNL     1      -9.936 -19.488  -1.435  1.00  0.00     0.029 A 
ATOM     54  N   UNL     1      -9.797 -17.575  -2.559  1.00  0.00    -0.354 N 
ATOM     55  N   UNL     1      -9.631 -15.911  -4.970  1.00  0.00    -0.248 NA
ATOM     56  C   UNL     1      -9.369 -15.717  -7.282  1.00  0.00     0.031 C 
ATOM     57  C   UNL     1      -9.889 -19.780  -2.803  1.00  0.00     0.029 A 
ATOM     58  C   UNL     1      -9.813 -18.587  -3.503  1.00  0.00     0.049 A 
ATOM     59  H   UNL     1      -9.741 -16.613  -2.763  1.00  0.00     0.167 HD
ATOM     60  C   UNL     1      -9.652 -17.179  -5.538  1.00  0.00     0.074 A 
ATOM     61  C   UNL     1      -9.531 -16.996  -6.970  1.00  0.00     0.031 C 
ATOM     62  C   UNL     1      -9.745 -18.387  -4.928  1.00  0.00     0.034 A 
BRANCH  49  63
ATOM     63  C   UNL     1      -9.928 -18.080   1.247  1.00  0.00     0.023 A 
ATOM     64  C   UNL     1     -11.118 -18.074   2.005  1.00  0.00     0.012 A 
ATOM     65  C   UNL     1      -8.814 -18.799   1.720  1.00  0.00     0.148 A 
ATOM     66  C   UNL     1     -11.184 -18.729   3.234  1.00  0.00     0.002 A 
ATOM     67  C   UNL     1      -8.902 -19.490   2.925  1.00  0.00     0.091 A 
ATOM     68  F   UNL     1      -7.684 -18.779   1.000  1.00  0.00    -0.205 F 
ATOM     69  C   UNL     1     -10.080 -19.444   3.689  1.00  0.00     0.022 A 
BRANCH  67  70
ATOM     70  S   UNL     1      -7.563 -20.506   3.558  1.00  0.00     0.127 S 
ATOM     71  O   UNL     1      -7.051 -19.675   4.646  1.00  0.00    -0.237 OA
ATOM     72  O   UNL     1      -8.268 -21.713   3.992  1.00  0.00    -0.237 OA
ATOM     73  O   UNL     1      -6.653 -20.708   2.438  1.00  0.00    -0.744 OA
ENDBRANCH  67  70
ENDBRANCH  49  63
BRANCH  50  74
ATOM     74  C   UNL     1      -9.289 -12.779  -7.193  1.00  0.00     0.023 A 
ATOM     75  C   UNL     1     -10.340 -12.754  -8.130  1.00  0.00     0.012 A 
ATOM     76  C   UNL     1      -8.131 -12.016  -7.441  1.00  0.00     0.148 A 
ATOM     77  C   UNL     1     -10.232 -12.006  -9.303  1.00  0.00     0.002 A 
ATOM     78  C   UNL     1      -8.053 -11.229  -8.584  1.00  0.00     0.091 A 
ATOM     79  F   UNL     1      -7.138 -12.060  -6.542  1.00  0.00    -0.205 F 
ATOM     80  C   UNL     1      -9.094 -11.235  -9.525  1.00  0.00     0.022 A 
BRANCH  78  81
ATOM     81  S   UNL     1      -6.689 -10.098  -8.884  1.00  0.00     0.127 S 
ATOM     82  O   UNL     1      -5.991 -10.755  -9.986  1.00  0.00    -0.237 OA
ATOM     83  O   UNL     1      -7.391  -8.866  -9.246  1.00  0.00    -0.237 OA
ATOM     84  O   UNL     1      -5.959 -10.023  -7.626  1.00  0.00    -0.744 OA
ENDBRANCH  78  81
ENDBRANCH  50  74
BRANCH  62  85
ATOM     85  C   UNL     1      -9.745 -19.612  -5.804  1.00  0.00     0.023 A 
ATOM     86  C   UNL     1      -8.547 -20.031  -6.416  1.00  0.00     0.012 A 
ATOM     87  C   UNL     1     -10.910 -20.389  -5.955  1.00  0.00     0.148 A 
ATOM     88  C   UNL     1      -8.515 -21.190  -7.190  1.00  0.00     0.002 A 
ATOM     89  C   UNL     1     -10.859 -21.568  -6.689  1.00  0.00     0.091 A 
ATOM     90  F   UNL     1     -12.044 -19.962  -5.381  1.00  0.00    -0.205 F 
ATOM     91  C   UNL     1      -9.667 -21.965  -7.316  1.00  0.00     0.022 A 
BRANCH  89  92
ATOM     92  S   UNL     1     -12.268 -22.675  -6.827  1.00  0.00     0.127 S 
ATOM     93  O   UNL     1     -12.699 -22.439  -8.204  1.00  0.00    -0.237 OA
ATOM     94  O   UNL     1     -11.658 -23.985  -6.595  1.00  0.00    -0.237 OA
ATOM     95  O   UNL     1     -13.207 -22.257  -5.796  1.00  0.00    -0.744 OA
ENDBRANCH  89  92
ENDBRANCH  62  85
ENDBRANCH  36  37
ENDBRANCH  28  31
ENDBRANCH   1  27
TORSDOF 14
