REMARK SMILES CC(C)C[N@H+](CC[NH+](C)C)[C@@H]1CCC[C@]([NH3+])(C(=O)NCCCNC(=O)c2ccc(-c3c4nc(c(-c5cccc(S(=O)(=O)[O-])c5F)c5ccc([nH]5)c(-c5cccc(S(=O)(=O)[O-])c5F)c5nc(c(-c6cccc(S(=O)(=O)[O-])c6F)c6ccc3[nH]6)C=C5)C=C4)cc2)C1
REMARK SMILES IDX 20 1 19 2 17 3 18 4 15 6 11 7 12 8 89 9 13 10 14 11 5 12
REMARK SMILES IDX 4 14 2 15 1 16 3 17 6 18 7 19 8 20 9 21 10 22 16 24 21 28
REMARK SMILES IDX 22 29 23 30 24 31 25 33 26 34 27 35 88 36 28 37 87 38 29 39
REMARK SMILES IDX 30 40 31 41 81 42 32 43 86 44 80 45 82 46 33 47 85 48 79 49
REMARK SMILES IDX 78 50 34 52 66 53 46 54 65 55 47 56 50 57 64 58 83 59 48 60
REMARK SMILES IDX 49 61 63 63 84 64 51 65 35 66 36 67 44 68 37 69 39 70 45 71
REMARK SMILES IDX 38 72 40 73 41 74 42 75 43 76 67 77 68 78 76 79 69 80 71 81
REMARK SMILES IDX 77 82 70 83 72 84 73 85 74 86 75 87 52 88 53 89 61 90 54 91
REMARK SMILES IDX 56 92 62 93 55 94 57 95 58 96 59 97 60 98
REMARK H PARENT 19 5 5 13 8 23 16 25 16 26 16 27 23 32 82 51 50 62
REMARK Flexibility Score: inf
ROOT
ATOM      1  C   UNL     1       0.930  -2.465  -7.746  1.00  0.00     0.118 C 
ENDROOT
BRANCH   1   2
ATOM      2  N   UNL     1       1.395  -2.558  -6.380  1.00  0.00    -0.351 N 
ATOM      3  C   UNL     1       0.796  -2.429  -5.171  1.00  0.00     0.281 C 
ATOM      4  O   UNL     1       1.589  -2.610  -4.242  1.00  0.00    -0.268 OA
ATOM      5  H   UNL     1       2.357  -2.759  -6.314  1.00  0.00     0.163 HD
BRANCH   3   6
ATOM      6  C   UNL     1      -0.757  -2.265  -4.961  1.00  0.00     0.179 C 
ATOM      7  C   UNL     1      -0.829  -1.784  -2.347  1.00  0.00     0.191 C 
ATOM      8  C   UNL     1      -1.386  -3.231  -2.235  1.00  0.00     0.065 C 
ATOM      9  C   UNL     1      -1.196  -1.337  -3.797  1.00  0.00     0.144 C 
ATOM     10  C   UNL     1      -0.956  -4.199  -3.336  1.00  0.00     0.013 C 
ATOM     11  C   UNL     1      -1.316  -3.678  -4.729  1.00  0.00     0.079 C 
BRANCH   7  12
ATOM     12  N   UNL     1       0.571  -1.496  -2.008  1.00  0.00    -0.327 N 
ATOM     13  H   UNL     1       0.847  -2.283  -2.596  1.00  0.00     0.348 HD
BRANCH  12  14
ATOM     14  C   UNL     1       1.241  -1.856  -0.750  1.00  0.00     0.265 C 
BRANCH  14  15
ATOM     15  C   UNL     1       0.670  -2.860   0.265  1.00  0.00     0.038 C 
ATOM     16  C   UNL     1       1.089  -4.294  -0.067  1.00  0.00     0.013 C 
ATOM     17  C   UNL     1       1.168  -2.516   1.676  1.00  0.00     0.013 C 
ENDBRANCH  14  15
ENDBRANCH  12  14
BRANCH  12  18
ATOM     18  C   UNL     1       1.073  -0.156  -2.428  1.00  0.00     0.324 C 
BRANCH  18  19
ATOM     19  C   UNL     1       0.292   1.131  -2.012  1.00  0.00     0.323 C 
BRANCH  19  20
ATOM     20  N   UNL     1       0.423   1.554  -0.602  1.00  0.00    -0.335 N 
ATOM     21  C   UNL     1       0.266   3.011  -0.499  1.00  0.00     0.332 C 
ATOM     22  C   UNL     1      -0.585   0.922   0.252  1.00  0.00     0.332 C 
ATOM     23  H   UNL     1       1.349   1.267  -0.285  1.00  0.00     0.347 HD
ENDBRANCH  19  20
ENDBRANCH  18  19
ENDBRANCH  12  18
ENDBRANCH   7  12
BRANCH   6  24
ATOM     24  N   UNL     1      -1.403  -1.691  -6.171  1.00  0.00    -0.345 N 
ATOM     25  H   UNL     1      -2.405  -1.596  -6.009  1.00  0.00     0.345 HD
ATOM     26  H   UNL     1      -1.244  -2.310  -6.967  1.00  0.00     0.345 HD
ATOM     27  H   UNL     1      -1.001  -0.774  -6.368  1.00  0.00     0.345 HD
ENDBRANCH   6  24
ENDBRANCH   3   6
ENDBRANCH   1   2
BRANCH   1  28
ATOM     28  C   UNL     1       1.312  -1.123  -8.361  1.00  0.00     0.042 C 
BRANCH  28  29
ATOM     29  C   UNL     1       2.820  -0.863  -8.361  1.00  0.00     0.118 C 
BRANCH  29  30
ATOM     30  N   UNL     1       3.567  -1.924  -9.030  1.00  0.00    -0.352 N 
ATOM     31  C   UNL     1       4.284  -1.888 -10.197  1.00  0.00     0.251 C 
ATOM     32  H   UNL     1       3.553  -2.797  -8.575  1.00  0.00     0.163 HD
ATOM     33  O   UNL     1       4.630  -2.937 -10.739  1.00  0.00    -0.269 OA
BRANCH  31  34
ATOM     34  C   UNL     1       4.638  -0.589 -10.798  1.00  0.00     0.039 A 
ATOM     35  C   UNL     1       4.495  -0.408 -12.175  1.00  0.00     0.014 A 
ATOM     36  C   UNL     1       5.125   0.446  -9.995  1.00  0.00     0.014 A 
ATOM     37  C   UNL     1       4.784   0.836 -12.739  1.00  0.00     0.010 A 
ATOM     38  C   UNL     1       5.331   1.705 -10.544  1.00  0.00     0.010 A 
ATOM     39  C   UNL     1       5.174   1.911 -11.923  1.00  0.00    -0.014 A 
BRANCH  39  40
ATOM     40  C   UNL     1       5.439   3.260 -12.484  1.00  0.00     0.031 A 
ATOM     41  C   UNL     1       6.809   3.869 -12.347  1.00  0.00     0.074 A 
ATOM     42  C   UNL     1       4.430   3.966 -13.032  1.00  0.00     0.049 A 
ATOM     43  N   UNL     1       7.212   5.071 -12.665  1.00  0.00    -0.248 NA
ATOM     44  C   UNL     1       7.859   3.026 -11.747  1.00  0.00     0.031 C 
ATOM     45  C   UNL     1       3.044   3.508 -13.161  1.00  0.00     0.029 A 
ATOM     46  N   UNL     1       4.407   5.235 -13.554  1.00  0.00    -0.354 N 
ATOM     47  C   UNL     1       8.546   5.138 -12.280  1.00  0.00     0.074 A 
ATOM     48  C   UNL     1       8.875   3.873 -11.665  1.00  0.00     0.031 C 
ATOM     49  C   UNL     1       2.308   4.481 -13.723  1.00  0.00     0.029 A 
ATOM     50  C   UNL     1       3.156   5.644 -13.959  1.00  0.00     0.049 A 
ATOM     51  H   UNL     1       5.209   5.800 -13.633  1.00  0.00     0.167 HD
ATOM     52  C   UNL     1       9.430   6.149 -12.456  1.00  0.00     0.034 A 
ATOM     53  C   UNL     1       2.740   6.828 -14.447  1.00  0.00     0.034 A 
ATOM     54  C   UNL     1       9.109   7.390 -13.105  1.00  0.00     0.049 A 
ATOM     55  C   UNL     1       3.750   7.929 -14.643  1.00  0.00     0.074 A 
ATOM     56  C   UNL     1       9.945   8.457 -13.380  1.00  0.00     0.029 A 
ATOM     57  N   UNL     1       7.854   7.729 -13.585  1.00  0.00    -0.354 N 
ATOM     58  N   UNL     1       5.036   7.925 -14.389  1.00  0.00    -0.248 NA
ATOM     59  C   UNL     1       3.259   9.185 -15.229  1.00  0.00     0.031 C 
ATOM     60  C   UNL     1       9.191   9.450 -14.012  1.00  0.00     0.029 A 
ATOM     61  C   UNL     1       7.893   8.987 -14.159  1.00  0.00     0.049 A 
ATOM     62  H   UNL     1       7.053   7.160 -13.526  1.00  0.00     0.167 HD
ATOM     63  C   UNL     1       5.515   9.153 -14.831  1.00  0.00     0.074 A 
ATOM     64  C   UNL     1       4.385   9.869 -15.383  1.00  0.00     0.031 C 
ATOM     65  C   UNL     1       6.774   9.651 -14.773  1.00  0.00     0.034 A 
BRANCH  52  66
ATOM     66  C   UNL     1      10.849   5.933 -12.002  1.00  0.00     0.023 A 
ATOM     67  C   UNL     1      11.676   5.045 -12.721  1.00  0.00     0.012 A 
ATOM     68  C   UNL     1      11.391   6.665 -10.928  1.00  0.00     0.148 A 
ATOM     69  C   UNL     1      13.011   4.869 -12.362  1.00  0.00     0.002 A 
ATOM     70  C   UNL     1      12.735   6.520 -10.606  1.00  0.00     0.091 A 
ATOM     71  F   UNL     1      10.585   7.493 -10.249  1.00  0.00    -0.205 F 
ATOM     72  C   UNL     1      13.543   5.614 -11.314  1.00  0.00     0.022 A 
BRANCH  70  73
ATOM     73  S   UNL     1      13.542   7.491  -9.328  1.00  0.00     0.127 S 
ATOM     74  O   UNL     1      13.902   6.458  -8.356  1.00  0.00    -0.237 OA
ATOM     75  O   UNL     1      14.674   8.068 -10.053  1.00  0.00    -0.237 OA
ATOM     76  O   UNL     1      12.553   8.455  -8.868  1.00  0.00    -0.744 OA
ENDBRANCH  70  73
ENDBRANCH  52  66
BRANCH  53  77
ATOM     77  C   UNL     1       1.312   7.035 -14.829  1.00  0.00     0.023 A 
ATOM     78  C   UNL     1       0.978   7.228 -16.185  1.00  0.00     0.012 A 
ATOM     79  C   UNL     1       0.290   7.066 -13.862  1.00  0.00     0.148 A 
ATOM     80  C   UNL     1      -0.337   7.505 -16.562  1.00  0.00     0.002 A 
ATOM     81  C   UNL     1      -1.027   7.284 -14.251  1.00  0.00     0.091 A 
ATOM     82  F   UNL     1       0.625   6.891 -12.575  1.00  0.00    -0.205 F 
ATOM     83  C   UNL     1      -1.339   7.527 -15.597  1.00  0.00     0.022 A 
BRANCH  81  84
ATOM     84  S   UNL     1      -2.394   7.200 -13.089  1.00  0.00     0.127 S 
ATOM     85  O   UNL     1      -2.733   8.610 -12.922  1.00  0.00    -0.237 OA
ATOM     86  O   UNL     1      -3.379   6.413 -13.833  1.00  0.00    -0.237 OA
ATOM     87  O   UNL     1      -1.862   6.528 -11.911  1.00  0.00    -0.744 OA
ENDBRANCH  81  84
ENDBRANCH  53  77
BRANCH  65  88
ATOM     88  C   UNL     1       7.023  11.003 -15.386  1.00  0.00     0.023 A 
ATOM     89  C   UNL     1       6.543  12.166 -14.755  1.00  0.00     0.012 A 
ATOM     90  C   UNL     1       7.809  11.119 -16.550  1.00  0.00     0.148 A 
ATOM     91  C   UNL     1       6.814  13.424 -15.291  1.00  0.00     0.002 A 
ATOM     92  C   UNL     1       8.120  12.377 -17.048  1.00  0.00     0.091 A 
ATOM     93  F   UNL     1       8.242   9.997 -17.144  1.00  0.00    -0.205 F 
ATOM     94  C   UNL     1       7.612  13.530 -16.428  1.00  0.00     0.022 A 
BRANCH  92  95
ATOM     95  S   UNL     1       9.222  12.616 -18.446  1.00  0.00     0.127 S 
ATOM     96  O   UNL     1       8.298  13.088 -19.476  1.00  0.00    -0.237 OA
ATOM     97  O   UNL     1      10.144  13.633 -17.941  1.00  0.00    -0.237 OA
ATOM     98  O   UNL     1       9.833  11.319 -18.704  1.00  0.00    -0.744 OA
ENDBRANCH  92  95
ENDBRANCH  65  88
ENDBRANCH  39  40
ENDBRANCH  31  34
ENDBRANCH  29  30
ENDBRANCH  28  29
ENDBRANCH   1  28
TORSDOF 20
