REMARK SMILES C[C@@H](C(=O)NCCCNC(=O)c1ccc(-c2c3nc(c(-c4cccc(S(=O)(=O)[O-])c4F)c4ccc([nH]4)c(-c4cccc(S(=O)(=O)[O-])c4F)c4nc(c(-c5cccc(S(=O)(=O)[O-])c5F)c5ccc2[nH]5)C=C4)C=C3)cc1)c1ccc(C[C@H]2CCCC2=O)c(-c2ccccc2)c1
REMARK SMILES IDX 7 1 6 2 5 3 3 4 4 5 2 7 1 8 75 9 76 10 93 11 77 12 86 13
REMARK SMILES IDX 78 14 87 15 88 16 92 17 89 18 91 19 90 20 79 21 80 22 81 23
REMARK SMILES IDX 84 24 82 25 83 26 85 27 8 28 9 29 10 30 11 32 12 33 13 34
REMARK SMILES IDX 74 35 14 36 73 37 15 38 16 39 17 40 67 41 18 42 72 43 66 44
REMARK SMILES IDX 68 45 19 46 71 47 65 48 64 49 20 51 52 52 32 53 51 54 33 55
REMARK SMILES IDX 36 56 50 57 69 58 34 59 35 60 49 62 70 63 37 64 21 65 22 66
REMARK SMILES IDX 30 67 23 68 25 69 31 70 24 71 26 72 27 73 28 74 29 75 53 76
REMARK SMILES IDX 54 77 62 78 55 79 57 80 63 81 56 82 58 83 59 84 60 85 61 86
REMARK SMILES IDX 38 87 39 88 47 89 40 90 42 91 48 92 41 93 43 94 44 95 45 96
REMARK SMILES IDX 46 97
REMARK H PARENT 5 6 9 31 68 50 36 61
REMARK Flexibility Score: inf
ROOT
ATOM      1  C   UNL     1       4.356   0.105   1.356  1.00  0.00     0.042 C 
ENDROOT
BRANCH   1   2
ATOM      2  C   UNL     1       3.494  -1.090   1.751  1.00  0.00     0.117 C 
BRANCH   2   3
ATOM      3  N   UNL     1       2.410  -0.697   2.629  1.00  0.00    -0.356 N 
ATOM      4  C   UNL     1       1.086  -0.503   2.365  1.00  0.00     0.227 C 
ATOM      5  O   UNL     1       0.393  -0.102   3.302  1.00  0.00    -0.274 OA
ATOM      6  H   UNL     1       2.671  -0.546   3.566  1.00  0.00     0.163 HD
BRANCH   4   7
ATOM      7  C   UNL     1       0.516  -0.835   0.973  1.00  0.00     0.105 C 
ATOM      8  C   UNL     1       1.025   0.123  -0.112  1.00  0.00     0.023 C 
BRANCH   7   9
ATOM      9  C   UNL     1      -1.011  -0.862   0.998  1.00  0.00    -0.035 A 
ATOM     10  C   UNL     1      -1.753   0.318   0.917  1.00  0.00     0.005 A 
ATOM     11  C   UNL     1      -1.702  -2.076   1.153  1.00  0.00     0.013 A 
ATOM     12  C   UNL     1      -3.141   0.286   0.981  1.00  0.00     0.004 A 
ATOM     13  C   UNL     1      -3.111  -2.132   1.249  1.00  0.00    -0.015 A 
ATOM     14  C   UNL     1      -3.838  -0.918   1.186  1.00  0.00    -0.039 A 
BRANCH  13  15
ATOM     15  C   UNL     1      -3.754  -3.450   1.427  1.00  0.00    -0.018 A 
ATOM     16  C   UNL     1      -4.670  -3.949   0.485  1.00  0.00     0.009 A 
ATOM     17  C   UNL     1      -3.468  -4.245   2.550  1.00  0.00     0.009 A 
ATOM     18  C   UNL     1      -5.329  -5.164   0.692  1.00  0.00     0.001 A 
ATOM     19  C   UNL     1      -4.112  -5.469   2.749  1.00  0.00     0.001 A 
ATOM     20  C   UNL     1      -5.053  -5.920   1.827  1.00  0.00     0.000 A 
ENDBRANCH  13  15
BRANCH  14  21
ATOM     21  C   UNL     1      -5.342  -0.820   1.369  1.00  0.00     0.047 C 
BRANCH  21  22
ATOM     22  C   UNL     1      -5.848  -0.267   2.708  1.00  0.00     0.060 C 
ATOM     23  C   UNL     1      -5.335  -0.949   3.977  1.00  0.00     0.012 C 
ATOM     24  C   UNL     1      -5.452   1.172   2.941  1.00  0.00     0.136 C 
ATOM     25  C   UNL     1      -4.182  -0.094   4.490  1.00  0.00     0.009 C 
ATOM     26  C   UNL     1      -4.535   1.341   4.122  1.00  0.00     0.076 C 
ATOM     27  O   UNL     1      -5.856   2.103   2.254  1.00  0.00    -0.299 OA
ENDBRANCH  21  22
ENDBRANCH  14  21
ENDBRANCH   7   9
ENDBRANCH   4   7
ENDBRANCH   2   3
ENDBRANCH   1   2
BRANCH   1  28
ATOM     28  C   UNL     1       5.105   0.739   2.525  1.00  0.00     0.118 C 
BRANCH  28  29
ATOM     29  N   UNL     1       6.077  -0.167   3.122  1.00  0.00    -0.352 N 
ATOM     30  C   UNL     1       7.434  -0.026   3.261  1.00  0.00     0.251 C 
ATOM     31  H   UNL     1       5.704  -1.005   3.479  1.00  0.00     0.163 HD
ATOM     32  O   UNL     1       8.111  -0.994   3.611  1.00  0.00    -0.269 OA
BRANCH  30  33
ATOM     33  C   UNL     1       8.083   1.272   2.983  1.00  0.00     0.039 A 
ATOM     34  C   UNL     1       9.291   1.291   2.279  1.00  0.00     0.014 A 
ATOM     35  C   UNL     1       7.514   2.466   3.431  1.00  0.00     0.014 A 
ATOM     36  C   UNL     1       9.897   2.513   1.977  1.00  0.00     0.010 A 
ATOM     37  C   UNL     1       8.073   3.683   3.056  1.00  0.00     0.010 A 
ATOM     38  C   UNL     1       9.278   3.721   2.338  1.00  0.00    -0.014 A 
BRANCH  38  39
ATOM     39  C   UNL     1       9.873   5.036   1.990  1.00  0.00     0.031 A 
ATOM     40  C   UNL     1      10.273   5.993   3.081  1.00  0.00     0.074 A 
ATOM     41  C   UNL     1       9.961   5.411   0.699  1.00  0.00     0.049 A 
ATOM     42  N   UNL     1      10.713   7.221   2.983  1.00  0.00    -0.248 NA
ATOM     43  C   UNL     1      10.129   5.518   4.467  1.00  0.00     0.031 C 
ATOM     44  C   UNL     1       9.543   4.602  -0.448  1.00  0.00     0.029 A 
ATOM     45  N   UNL     1      10.399   6.584   0.136  1.00  0.00    -0.354 N 
ATOM     46  C   UNL     1      10.855   7.678   4.287  1.00  0.00     0.074 A 
ATOM     47  C   UNL     1      10.421   6.608   5.159  1.00  0.00     0.031 C 
ATOM     48  C   UNL     1       9.742   5.302  -1.575  1.00  0.00     0.029 A 
ATOM     49  C   UNL     1      10.263   6.622  -1.233  1.00  0.00     0.049 A 
ATOM     50  H   UNL     1      10.774   7.327   0.661  1.00  0.00     0.167 HD
ATOM     51  C   UNL     1      11.328   8.870   4.724  1.00  0.00     0.034 A 
ATOM     52  C   UNL     1      10.513   7.613  -2.111  1.00  0.00     0.034 A 
ATOM     53  C   UNL     1      11.790   9.917   3.854  1.00  0.00     0.049 A 
ATOM     54  C   UNL     1      11.063   8.919  -1.606  1.00  0.00     0.074 A 
ATOM     55  C   UNL     1      12.367  11.127   4.195  1.00  0.00     0.029 A 
ATOM     56  N   UNL     1      11.716   9.886   2.470  1.00  0.00    -0.354 N 
ATOM     57  N   UNL     1      11.328   9.280  -0.374  1.00  0.00    -0.248 NA
ATOM     58  C   UNL     1      11.382   9.940  -2.614  1.00  0.00     0.031 C 
ATOM     59  C   UNL     1      12.609  11.843   3.018  1.00  0.00     0.029 A 
ATOM     60  C   UNL     1      12.224  11.060   1.941  1.00  0.00     0.049 A 
ATOM     61  H   UNL     1      11.355   9.138   1.940  1.00  0.00     0.167 HD
ATOM     62  C   UNL     1      11.882  10.553  -0.461  1.00  0.00     0.074 A 
ATOM     63  C   UNL     1      11.927  10.893  -1.868  1.00  0.00     0.031 C 
ATOM     64  C   UNL     1      12.309  11.367   0.536  1.00  0.00     0.034 A 
BRANCH  51  65
ATOM     65  C   UNL     1      11.398   9.089   6.214  1.00  0.00     0.023 A 
ATOM     66  C   UNL     1      12.323   8.357   6.988  1.00  0.00     0.012 A 
ATOM     67  C   UNL     1      10.577  10.044   6.845  1.00  0.00     0.148 A 
ATOM     68  C   UNL     1      12.394   8.534   8.369  1.00  0.00     0.002 A 
ATOM     69  C   UNL     1      10.690  10.253   8.214  1.00  0.00     0.091 A 
ATOM     70  F   UNL     1       9.690  10.718   6.099  1.00  0.00    -0.205 F 
ATOM     71  C   UNL     1      11.586   9.488   8.980  1.00  0.00     0.022 A 
BRANCH  69  72
ATOM     72  S   UNL     1       9.755  11.518   9.081  1.00  0.00     0.127 S 
ATOM     73  O   UNL     1       8.810  10.710   9.851  1.00  0.00    -0.237 OA
ATOM     74  O   UNL     1      10.791  12.171   9.882  1.00  0.00    -0.237 OA
ATOM     75  O   UNL     1       9.165  12.359   8.050  1.00  0.00    -0.744 OA
ENDBRANCH  69  72
ENDBRANCH  51  65
BRANCH  52  76
ATOM     76  C   UNL     1      10.294   7.383  -3.567  1.00  0.00     0.023 A 
ATOM     77  C   UNL     1      11.404   7.278  -4.428  1.00  0.00     0.012 A 
ATOM     78  C   UNL     1       8.997   7.229  -4.096  1.00  0.00     0.148 A 
ATOM     79  C   UNL     1      11.227   7.054  -5.793  1.00  0.00     0.002 A 
ATOM     80  C   UNL     1       8.830   6.949  -5.447  1.00  0.00     0.091 A 
ATOM     81  F   UNL     1       7.955   7.337  -3.260  1.00  0.00    -0.205 F 
ATOM     82  C   UNL     1       9.942   6.880  -6.301  1.00  0.00     0.022 A 
BRANCH  80  83
ATOM     83  S   UNL     1       7.227   6.578  -6.166  1.00  0.00     0.127 S 
ATOM     84  O   UNL     1       7.029   7.716  -7.060  1.00  0.00    -0.237 OA
ATOM     85  O   UNL     1       7.488   5.304  -6.837  1.00  0.00    -0.237 OA
ATOM     86  O   UNL     1       6.301   6.489  -5.045  1.00  0.00    -0.744 OA
ENDBRANCH  80  83
ENDBRANCH  52  76
BRANCH  64  87
ATOM     87  C   UNL     1      12.916  12.691   0.150  1.00  0.00     0.023 A 
ATOM     88  C   UNL     1      12.101  13.728  -0.345  1.00  0.00     0.012 A 
ATOM     89  C   UNL     1      14.289  12.931   0.360  1.00  0.00     0.148 A 
ATOM     90  C   UNL     1      12.648  14.973  -0.655  1.00  0.00     0.002 A 
ATOM     91  C   UNL     1      14.817  14.190   0.100  1.00  0.00     0.091 A 
ATOM     92  F   UNL     1      15.051  11.926   0.815  1.00  0.00    -0.205 F 
ATOM     93  C   UNL     1      14.002  15.207  -0.420  1.00  0.00     0.022 A 
BRANCH  91  94
ATOM     94  S   UNL     1      16.524  14.613   0.467  1.00  0.00     0.127 S 
ATOM     95  O   UNL     1      17.093  14.744  -0.873  1.00  0.00    -0.237 OA
ATOM     96  O   UNL     1      16.379  15.874   1.195  1.00  0.00    -0.237 OA
ATOM     97  O   UNL     1      17.051  13.513   1.262  1.00  0.00    -0.744 OA
ENDBRANCH  91  94
ENDBRANCH  64  87
ENDBRANCH  38  39
ENDBRANCH  30  33
ENDBRANCH  28  29
ENDBRANCH   1  28
TORSDOF 17
