REMARK SMILES O=C(NCCCNC(=O)c1cc(O)ccc1NC(=O)c1ccc(Br)nc1)c1ccc(-c2c3nc(c(-c4cccc(S(=O)(=O)[O-])c4F)c4ccc([nH]4)c(-c4cccc(S(=O)(=O)[O-])c4F)c4nc(c(-c5cccc(S(=O)(=O)[O-])c5F)c5ccc2[nH]5)C=C4)C=C3)cc1
REMARK SMILES IDX 4 1 3 2 1 3 2 4 27 6 28 7 89 8 29 9 88 10 30 11 31 12 32 13
REMARK SMILES IDX 82 14 33 15 87 16 81 17 83 18 34 19 86 20 80 21 79 22 35 24
REMARK SMILES IDX 67 25 47 26 66 27 48 28 51 29 65 30 84 31 49 32 50 33 64 35
REMARK SMILES IDX 85 36 52 37 36 38 37 39 45 40 38 41 40 42 46 43 39 44 41 45
REMARK SMILES IDX 42 46 43 47 44 48 68 49 69 50 77 51 70 52 72 53 78 54 71 55
REMARK SMILES IDX 73 56 74 57 75 58 76 59 53 60 54 61 62 62 55 63 57 64 63 65
REMARK SMILES IDX 56 66 58 67 59 68 60 69 61 70 5 71 6 72 7 73 8 74 9 76 10 77
REMARK SMILES IDX 11 78 16 79 12 80 15 81 14 82 17 83 18 84 19 86 20 87 21 88
REMARK SMILES IDX 26 89 22 90 25 91 23 92 24 93 13 94
REMARK H PARENT 3 5 83 23 51 34 7 75 17 85 13 95
REMARK Flexibility Score: inf
ROOT
ATOM      1  C   UNL     1       4.506  -1.296  -0.845  1.00  0.00     0.118 C 
ENDROOT
BRANCH   1   2
ATOM      2  N   UNL     1       3.085  -0.970  -0.870  1.00  0.00    -0.352 N 
ATOM      3  O   UNL     1       1.143  -0.039  -0.253  1.00  0.00    -0.269 OA
ATOM      4  C   UNL     1       2.370   0.022  -0.241  1.00  0.00     0.251 C 
ATOM      5  H   UNL     1       2.542  -1.565  -1.436  1.00  0.00     0.163 HD
BRANCH   4   6
ATOM      6  C   UNL     1       3.052   1.134   0.461  1.00  0.00     0.039 A 
ATOM      7  C   UNL     1       4.210   1.715  -0.054  1.00  0.00     0.014 A 
ATOM      8  C   UNL     1       2.498   1.635   1.644  1.00  0.00     0.014 A 
ATOM      9  C   UNL     1       4.912   2.653   0.696  1.00  0.00     0.010 A 
ATOM     10  C   UNL     1       3.151   2.655   2.347  1.00  0.00     0.010 A 
ATOM     11  C   UNL     1       4.392   3.137   1.907  1.00  0.00    -0.014 A 
BRANCH  11  12
ATOM     12  C   UNL     1       5.155   4.163   2.668  1.00  0.00     0.031 A 
ATOM     13  C   UNL     1       5.680   3.878   4.050  1.00  0.00     0.074 A 
ATOM     14  C   UNL     1       5.403   5.355   2.089  1.00  0.00     0.049 A 
ATOM     15  N   UNL     1       6.431   4.630   4.814  1.00  0.00    -0.248 NA
ATOM     16  C   UNL     1       5.309   2.593   4.663  1.00  0.00     0.031 C 
ATOM     17  C   UNL     1       4.908   5.772   0.775  1.00  0.00     0.029 A 
ATOM     18  N   UNL     1       6.143   6.427   2.519  1.00  0.00    -0.354 N 
ATOM     19  C   UNL     1       6.582   3.937   6.009  1.00  0.00     0.074 A 
ATOM     20  C   UNL     1       5.838   2.703   5.874  1.00  0.00     0.031 C 
ATOM     21  C   UNL     1       5.395   6.987   0.485  1.00  0.00     0.029 A 
ATOM     22  C   UNL     1       6.202   7.455   1.606  1.00  0.00     0.049 A 
ATOM     23  H   UNL     1       6.590   6.458   3.396  1.00  0.00     0.167 HD
ATOM     24  C   UNL     1       7.293   4.283   7.109  1.00  0.00     0.034 A 
ATOM     25  C   UNL     1       6.840   8.641   1.659  1.00  0.00     0.034 A 
ATOM     26  C   UNL     1       8.083   5.480   7.219  1.00  0.00     0.049 A 
ATOM     27  C   UNL     1       7.670   8.969   2.867  1.00  0.00     0.074 A 
ATOM     28  C   UNL     1       8.899   5.879   8.264  1.00  0.00     0.029 A 
ATOM     29  N   UNL     1       8.160   6.470   6.252  1.00  0.00    -0.354 N 
ATOM     30  N   UNL     1       7.912   8.235   3.925  1.00  0.00    -0.248 NA
ATOM     31  C   UNL     1       8.341  10.277   2.875  1.00  0.00     0.031 C 
ATOM     32  C   UNL     1       9.463   7.116   7.931  1.00  0.00     0.029 A 
ATOM     33  C   UNL     1       9.006   7.481   6.675  1.00  0.00     0.049 A 
ATOM     34  H   UNL     1       7.684   6.455   5.391  1.00  0.00     0.167 HD
ATOM     35  C   UNL     1       8.786   8.976   4.711  1.00  0.00     0.074 A 
ATOM     36  C   UNL     1       9.049  10.208   3.994  1.00  0.00     0.031 C 
ATOM     37  C   UNL     1       9.307   8.673   5.925  1.00  0.00     0.034 A 
BRANCH  24  38
ATOM     38  C   UNL     1       7.289   3.329   8.275  1.00  0.00     0.023 A 
ATOM     39  C   UNL     1       8.050   2.144   8.206  1.00  0.00     0.012 A 
ATOM     40  C   UNL     1       6.587   3.631   9.459  1.00  0.00     0.148 A 
ATOM     41  C   UNL     1       8.091   1.263   9.286  1.00  0.00     0.002 A 
ATOM     42  C   UNL     1       6.663   2.764  10.545  1.00  0.00     0.091 A 
ATOM     43  F   UNL     1       5.847   4.748   9.499  1.00  0.00    -0.205 F 
ATOM     44  C   UNL     1       7.407   1.577  10.457  1.00  0.00     0.022 A 
BRANCH  42  45
ATOM     45  S   UNL     1       5.871   3.128  12.116  1.00  0.00     0.127 S 
ATOM     46  O   UNL     1       4.671   2.296  12.042  1.00  0.00    -0.237 OA
ATOM     47  O   UNL     1       6.869   2.672  13.085  1.00  0.00    -0.237 OA
ATOM     48  O   UNL     1       5.644   4.567  12.119  1.00  0.00    -0.744 OA
ENDBRANCH  42  45
ENDBRANCH  24  38
BRANCH  25  49
ATOM     49  C   UNL     1       6.782   9.561   0.489  1.00  0.00     0.023 A 
ATOM     50  C   UNL     1       7.936   9.748  -0.296  1.00  0.00     0.012 A 
ATOM     51  C   UNL     1       5.586  10.203   0.117  1.00  0.00     0.148 A 
ATOM     52  C   UNL     1       7.905  10.574  -1.420  1.00  0.00     0.002 A 
ATOM     53  C   UNL     1       5.547  10.978  -1.036  1.00  0.00     0.091 A 
ATOM     54  F   UNL     1       4.503  10.027   0.887  1.00  0.00    -0.205 F 
ATOM     55  C   UNL     1       6.708  11.177  -1.798  1.00  0.00     0.022 A 
BRANCH  53  56
ATOM     56  S   UNL     1       4.014  11.669  -1.669  1.00  0.00     0.127 S 
ATOM     57  O   UNL     1       4.145  13.076  -1.300  1.00  0.00    -0.237 OA
ATOM     58  O   UNL     1       4.122  11.394  -3.103  1.00  0.00    -0.237 OA
ATOM     59  O   UNL     1       2.952  10.930  -1.000  1.00  0.00    -0.744 OA
ENDBRANCH  53  56
ENDBRANCH  25  49
BRANCH  37  60
ATOM     60  C   UNL     1      10.241   9.675   6.549  1.00  0.00     0.023 A 
ATOM     61  C   UNL     1       9.719  10.860   7.103  1.00  0.00     0.012 A 
ATOM     62  C   UNL     1      11.621   9.414   6.645  1.00  0.00     0.148 A 
ATOM     63  C   UNL     1      10.562  11.786   7.717  1.00  0.00     0.002 A 
ATOM     64  C   UNL     1      12.449  10.321   7.296  1.00  0.00     0.091 A 
ATOM     65  F   UNL     1      12.104   8.293   6.090  1.00  0.00    -0.205 F 
ATOM     66  C   UNL     1      11.924  11.511   7.824  1.00  0.00     0.022 A 
BRANCH  64  67
ATOM     67  S   UNL     1      14.197   9.993   7.552  1.00  0.00     0.127 S 
ATOM     68  O   UNL     1      14.807  10.752   6.462  1.00  0.00    -0.237 OA
ATOM     69  O   UNL     1      14.433  10.546   8.886  1.00  0.00    -0.237 OA
ATOM     70  O   UNL     1      14.338   8.545   7.473  1.00  0.00    -0.744 OA
ENDBRANCH  64  67
ENDBRANCH  37  60
ENDBRANCH  11  12
ENDBRANCH   4   6
ENDBRANCH   1   2
BRANCH   1  71
ATOM     71  C   UNL     1       4.803  -2.564  -0.056  1.00  0.00     0.042 C 
BRANCH  71  72
ATOM     72  C   UNL     1       4.186  -3.819  -0.658  1.00  0.00     0.118 C 
BRANCH  72  73
ATOM     73  N   UNL     1       4.806  -4.205  -1.924  1.00  0.00    -0.352 N 
ATOM     74  C   UNL     1       5.703  -5.214  -2.189  1.00  0.00     0.253 C 
ATOM     75  H   UNL     1       4.542  -3.663  -2.702  1.00  0.00     0.163 HD
ATOM     76  O   UNL     1       6.265  -5.281  -3.279  1.00  0.00    -0.269 OA
BRANCH  74  77
ATOM     77  C   UNL     1       6.032  -6.193  -1.131  1.00  0.00     0.067 A 
ATOM     78  C   UNL     1       4.970  -6.870  -0.511  1.00  0.00     0.062 A 
ATOM     79  C   UNL     1       7.367  -6.409  -0.734  1.00  0.00     0.054 A 
ATOM     80  C   UNL     1       5.219  -7.622   0.624  1.00  0.00     0.116 A 
ATOM     81  C   UNL     1       7.567  -7.093   0.468  1.00  0.00     0.031 A 
ATOM     82  C   UNL     1       6.502  -7.703   1.140  1.00  0.00     0.048 A 
BRANCH  79  83
ATOM     83  N   UNL     1       8.423  -5.932  -1.550  1.00  0.00    -0.321 N 
ATOM     84  C   UNL     1       9.777  -6.187  -1.579  1.00  0.00     0.257 C 
ATOM     85  H   UNL     1       8.130  -5.288  -2.233  1.00  0.00     0.170 HD
ATOM     86  O   UNL     1      10.520  -5.539  -2.314  1.00  0.00    -0.269 OA
BRANCH  84  87
ATOM     87  C   UNL     1      10.383  -7.268  -0.792  1.00  0.00     0.058 A 
ATOM     88  C   UNL     1       9.940  -8.589  -0.862  1.00  0.00     0.018 A 
ATOM     89  C   UNL     1      11.436  -6.965   0.059  1.00  0.00     0.126 A 
ATOM     90  C   UNL     1      10.499  -9.534  -0.003  1.00  0.00     0.037 A 
ATOM     91  N   UNL     1      11.999  -7.869   0.897  1.00  0.00    -0.249 NA
ATOM     92  C   UNL     1      11.508  -9.127   0.862  1.00  0.00     0.106 A 
ATOM     93  Br  UNL     1      12.221 -10.384   2.089  1.00  0.00    -0.029 Br
ENDBRANCH  84  87
ENDBRANCH  79  83
BRANCH  80  94
ATOM     94  O   UNL     1       4.218  -8.256   1.293  1.00  0.00    -0.508 OA
ATOM     95  H   UNL     1       3.340  -8.219   0.968  1.00  0.00     0.293 HD
ENDBRANCH  80  94
ENDBRANCH  74  77
ENDBRANCH  72  73
ENDBRANCH  71  72
ENDBRANCH   1  71
TORSDOF 16
