REMARK SMILES Cc1ccc(NS(=O)(=O)N2CCCC[C@@H]2C(=O)NCCCNC(=O)c2ccc(-c3c4nc(c(-c5cccc(S(=O)(=O)[O-])c5F)c5ccc([nH]5)c(-c5cccc(S(=O)(=O)[O-])c5F)c5nc(c(-c6cccc(S(=O)(=O)[O-])c6F)c6ccc3[nH]6)C=C5)C=C4)cc2)c(C)n1
REMARK SMILES IDX 20 1 19 2 18 3 16 4 17 5 15 7 10 8 11 9 12 10 14 11 13 12
REMARK SMILES IDX 7 13 8 14 9 15 6 16 5 18 1 19 2 20 3 21 90 22 4 23 88 24
REMARK SMILES IDX 89 25 21 26 22 27 23 28 24 30 25 31 26 32 87 33 27 34 86 35
REMARK SMILES IDX 28 36 29 37 30 38 80 39 31 40 85 41 79 42 81 43 32 44 84 45
REMARK SMILES IDX 78 46 77 47 33 49 65 50 45 51 64 52 46 53 49 54 63 55 82 56
REMARK SMILES IDX 47 57 48 58 62 60 83 61 50 62 34 63 35 64 43 65 36 66 38 67
REMARK SMILES IDX 44 68 37 69 39 70 40 71 41 72 42 73 66 74 67 75 75 76 68 77
REMARK SMILES IDX 70 78 76 79 69 80 71 81 72 82 73 83 74 84 51 85 52 86 60 87
REMARK SMILES IDX 53 88 55 89 61 90 54 91 56 92 57 93 58 94 59 95
REMARK H PARENT 18 6 6 17 22 29 81 48 49 59
REMARK Flexibility Score: inf
ROOT
ATOM      1  C   UNL     1      -1.326   1.797  -1.310  1.00  0.00     0.042 C 
ENDROOT
BRANCH   1   2
ATOM      2  C   UNL     1       0.124   1.439  -0.966  1.00  0.00     0.117 C 
BRANCH   2   3
ATOM      3  N   UNL     1       0.825   0.750  -2.042  1.00  0.00    -0.355 N 
ATOM      4  C   UNL     1       2.126   0.599  -2.394  1.00  0.00     0.238 C 
ATOM      5  O   UNL     1       2.319  -0.272  -3.256  1.00  0.00    -0.273 OA
ATOM      6  H   UNL     1       0.211   0.288  -2.657  1.00  0.00     0.163 HD
BRANCH   4   7
ATOM      7  C   UNL     1       3.317   1.394  -1.840  1.00  0.00     0.163 C 
ATOM      8  N   UNL     1       3.912   0.940  -0.525  1.00  0.00    -0.172 NA
ATOM      9  C   UNL     1       5.145   1.724  -0.193  1.00  0.00     0.105 C 
ATOM     10  C   UNL     1       4.824   3.208  -0.106  1.00  0.00     0.017 C 
ATOM     11  C   UNL     1       3.067   2.911  -1.845  1.00  0.00     0.030 C 
ATOM     12  C   UNL     1       4.301   3.711  -1.441  1.00  0.00     0.004 C 
BRANCH   8  13
ATOM     13  S   UNL     1       4.210  -0.734  -0.394  1.00  0.00     0.302 S 
ATOM     14  O   UNL     1       4.977  -1.003   0.800  1.00  0.00    -0.189 OA
ATOM     15  O   UNL     1       4.706  -1.208  -1.664  1.00  0.00    -0.189 OA
BRANCH  13  16
ATOM     16  N   UNL     1       2.701  -1.359  -0.176  1.00  0.00    -0.269 N 
ATOM     17  H   UNL     1       2.372  -1.949  -0.891  1.00  0.00     0.181 HD
BRANCH  16  18
ATOM     18  C   UNL     1       1.805  -1.150   0.930  1.00  0.00     0.071 A 
ATOM     19  C   UNL     1      -1.697   0.095   2.997  1.00  0.00     0.067 C 
ATOM     20  C   UNL     1      -0.457  -0.510   2.418  1.00  0.00     0.038 A 
ATOM     21  C   UNL     1      -0.509  -1.598   1.570  1.00  0.00     0.026 A 
ATOM     22  N   UNL     1       0.688   0.165   2.628  1.00  0.00    -0.256 NA
ATOM     23  C   UNL     1       0.622  -1.902   0.815  1.00  0.00     0.030 A 
ATOM     24  C   UNL     1       1.813  -0.161   1.925  1.00  0.00     0.062 A 
ATOM     25  C   UNL     1       2.954   0.702   2.342  1.00  0.00     0.069 C 
ENDBRANCH  16  18
ENDBRANCH  13  16
ENDBRANCH   8  13
ENDBRANCH   4   7
ENDBRANCH   2   3
ENDBRANCH   1   2
BRANCH   1  26
ATOM     26  C   UNL     1      -2.201   0.646  -1.810  1.00  0.00     0.118 C 
BRANCH  26  27
ATOM     27  N   UNL     1      -2.601  -0.314  -0.792  1.00  0.00    -0.352 N 
ATOM     28  C   UNL     1      -3.676  -0.353   0.064  1.00  0.00     0.251 C 
ATOM     29  H   UNL     1      -1.987  -1.079  -0.700  1.00  0.00     0.163 HD
ATOM     30  O   UNL     1      -3.760  -1.270   0.881  1.00  0.00    -0.269 OA
BRANCH  28  31
ATOM     31  C   UNL     1      -4.716   0.696   0.055  1.00  0.00     0.039 A 
ATOM     32  C   UNL     1      -5.214   1.180   1.274  1.00  0.00     0.014 A 
ATOM     33  C   UNL     1      -5.267   1.149  -1.140  1.00  0.00     0.014 A 
ATOM     34  C   UNL     1      -6.219   2.154   1.290  1.00  0.00     0.010 A 
ATOM     35  C   UNL     1      -6.197   2.179  -1.128  1.00  0.00     0.010 A 
ATOM     36  C   UNL     1      -6.702   2.675   0.084  1.00  0.00    -0.014 A 
BRANCH  36  37
ATOM     37  C   UNL     1      -7.791   3.680   0.003  1.00  0.00     0.031 A 
ATOM     38  C   UNL     1      -9.053   3.309  -0.730  1.00  0.00     0.074 A 
ATOM     39  C   UNL     1      -7.571   4.949   0.397  1.00  0.00     0.049 A 
ATOM     40  N   UNL     1      -9.984   4.079  -1.224  1.00  0.00    -0.248 NA
ATOM     41  C   UNL     1      -9.254   1.873  -1.001  1.00  0.00     0.031 C 
ATOM     42  C   UNL     1      -6.360   5.434   1.059  1.00  0.00     0.029 A 
ATOM     43  N   UNL     1      -8.335   6.077   0.227  1.00  0.00    -0.354 N 
ATOM     44  C   UNL     1     -10.826   3.238  -1.942  1.00  0.00     0.074 A 
ATOM     45  C   UNL     1     -10.295   1.898  -1.821  1.00  0.00     0.031 C 
ATOM     46  C   UNL     1      -6.443   6.767   1.203  1.00  0.00     0.029 A 
ATOM     47  C   UNL     1      -7.692   7.233   0.610  1.00  0.00     0.049 A 
ATOM     48  H   UNL     1      -9.251   6.061  -0.132  1.00  0.00     0.167 HD
ATOM     49  C   UNL     1     -11.947   3.555  -2.631  1.00  0.00     0.034 A 
ATOM     50  C   UNL     1      -8.056   8.523   0.465  1.00  0.00     0.034 A 
ATOM     51  C   UNL     1     -12.515   4.875  -2.653  1.00  0.00     0.049 A 
ATOM     52  C   UNL     1      -9.375   8.833  -0.192  1.00  0.00     0.074 A 
ATOM     53  C   UNL     1     -13.717   5.287  -3.197  1.00  0.00     0.029 A 
ATOM     54  N   UNL     1     -11.923   5.995  -2.089  1.00  0.00    -0.354 N 
ATOM     55  N   UNL     1     -10.235   8.010  -0.744  1.00  0.00    -0.248 NA
ATOM     56  C   UNL     1      -9.793  10.242  -0.216  1.00  0.00     0.031 C 
ATOM     57  C   UNL     1     -13.851   6.660  -2.965  1.00  0.00     0.029 A 
ATOM     58  C   UNL     1     -12.737   7.098  -2.266  1.00  0.00     0.049 A 
ATOM     59  H   UNL     1     -11.052   6.003  -1.631  1.00  0.00     0.167 HD
ATOM     60  C   UNL     1     -11.307   8.795  -1.153  1.00  0.00     0.074 A 
ATOM     61  C   UNL     1     -10.999  10.156  -0.763  1.00  0.00     0.031 C 
ATOM     62  C   UNL     1     -12.435   8.430  -1.810  1.00  0.00     0.034 A 
BRANCH  49  63
ATOM     63  C   UNL     1     -12.666   2.454  -3.367  1.00  0.00     0.023 A 
ATOM     64  C   UNL     1     -13.363   1.467  -2.642  1.00  0.00     0.012 A 
ATOM     65  C   UNL     1     -12.702   2.429  -4.776  1.00  0.00     0.148 A 
ATOM     66  C   UNL     1     -14.054   0.453  -3.303  1.00  0.00     0.002 A 
ATOM     67  C   UNL     1     -13.431   1.441  -5.429  1.00  0.00     0.091 A 
ATOM     68  F   UNL     1     -12.017   3.363  -5.451  1.00  0.00    -0.205 F 
ATOM     69  C   UNL     1     -14.097   0.446  -4.695  1.00  0.00     0.022 A 
BRANCH  67  70
ATOM     70  S   UNL     1     -13.616   1.387  -7.216  1.00  0.00     0.127 S 
ATOM     71  O   UNL     1     -12.833   0.201  -7.558  1.00  0.00    -0.237 OA
ATOM     72  O   UNL     1     -15.062   1.228  -7.370  1.00  0.00    -0.237 OA
ATOM     73  O   UNL     1     -13.087   2.649  -7.713  1.00  0.00    -0.744 OA
ENDBRANCH  67  70
ENDBRANCH  49  63
BRANCH  50  74
ATOM     74  C   UNL     1      -7.186   9.607   1.004  1.00  0.00     0.023 A 
ATOM     75  C   UNL     1      -7.600  10.311   2.151  1.00  0.00     0.012 A 
ATOM     76  C   UNL     1      -5.940   9.916   0.423  1.00  0.00     0.148 A 
ATOM     77  C   UNL     1      -6.806  11.322   2.693  1.00  0.00     0.002 A 
ATOM     78  C   UNL     1      -5.128  10.887   1.001  1.00  0.00     0.091 A 
ATOM     79  F   UNL     1      -5.566   9.248  -0.677  1.00  0.00    -0.205 F 
ATOM     80  C   UNL     1      -5.566  11.603   2.126  1.00  0.00     0.022 A 
BRANCH  78  81
ATOM     81  S   UNL     1      -3.459  11.206   0.416  1.00  0.00     0.127 S 
ATOM     82  O   UNL     1      -3.639  12.430  -0.358  1.00  0.00    -0.237 OA
ATOM     83  O   UNL     1      -2.719  11.373   1.668  1.00  0.00    -0.237 OA
ATOM     84  O   UNL     1      -3.084  10.018  -0.340  1.00  0.00    -0.744 OA
ENDBRANCH  78  81
ENDBRANCH  50  74
BRANCH  62  85
ATOM     85  C   UNL     1     -13.440   9.506  -2.120  1.00  0.00     0.023 A 
ATOM     86  C   UNL     1     -13.185  10.415  -3.164  1.00  0.00     0.012 A 
ATOM     87  C   UNL     1     -14.671   9.555  -1.439  1.00  0.00     0.148 A 
ATOM     88  C   UNL     1     -14.134  11.376  -3.511  1.00  0.00     0.002 A 
ATOM     89  C   UNL     1     -15.630  10.487  -1.819  1.00  0.00     0.091 A 
ATOM     90  F   UNL     1     -14.884   8.692  -0.434  1.00  0.00    -0.205 F 
ATOM     91  C   UNL     1     -15.359  11.403  -2.848  1.00  0.00     0.022 A 
BRANCH  89  92
ATOM     92  S   UNL     1     -17.268  10.527  -1.084  1.00  0.00     0.127 S 
ATOM     93  O   UNL     1     -17.168  11.684  -0.196  1.00  0.00    -0.237 OA
ATOM     94  O   UNL     1     -18.130  10.726  -2.249  1.00  0.00    -0.237 OA
ATOM     95  O   UNL     1     -17.439   9.240  -0.423  1.00  0.00    -0.744 OA
ENDBRANCH  89  92
ENDBRANCH  62  85
ENDBRANCH  36  37
ENDBRANCH  28  31
ENDBRANCH  26  27
ENDBRANCH   1  26
TORSDOF 16
