REMARK SMILES N#C/C(=C/c1cccc(OCC(=O)NCCCNC(=O)c2ccc(-c3c4nc(c(-c5cccc(S(=O)(=O)[O-])c5F)c5ccc([nH]5)c(-c5cccc(S(=O)(=O)[O-])c5F)c5nc(c(-c6cccc(S(=O)(=O)[O-])c6F)c6ccc3[nH]6)C=C5)C=C4)cc2)c1)c1nc2ccccc2[nH]1
REMARK SMILES IDX 15 1 14 2 12 3 13 4 11 6 10 7 9 8 5 9 6 10 84 11 7 12 8 13
REMARK SMILES IDX 4 14 3 15 2 16 1 17 85 18 86 19 93 20 87 21 92 22 88 24
REMARK SMILES IDX 91 25 89 26 90 27 16 28 17 29 18 30 19 31 20 33 21 34 22 35
REMARK SMILES IDX 83 36 23 37 82 38 24 39 25 40 26 41 76 42 27 43 81 44 75 45
REMARK SMILES IDX 77 46 28 47 80 48 74 49 73 50 29 52 61 53 41 54 60 55 42 56
REMARK SMILES IDX 45 57 59 58 78 59 43 60 44 61 58 63 79 64 46 65 30 66 31 67
REMARK SMILES IDX 39 68 32 69 34 70 40 71 33 72 35 73 36 74 37 75 38 76 62 77
REMARK SMILES IDX 63 78 71 79 64 80 66 81 72 82 65 83 67 84 68 85 69 86 70 87
REMARK SMILES IDX 47 88 48 89 56 90 49 91 51 92 57 93 50 94 52 95 53 96 54 97
REMARK SMILES IDX 55 98
REMARK H PARENT 14 5 93 23 18 32 77 51 45 62
REMARK Flexibility Score: inf
ROOT
ATOM      1  C   UNL     1      10.182  -1.082  -2.889  1.00  0.00     0.117 C 
ENDROOT
BRANCH   1   2
ATOM      2  N   UNL     1       8.745  -1.027  -3.079  1.00  0.00    -0.353 N 
ATOM      3  C   UNL     1       7.956   0.092  -3.139  1.00  0.00     0.257 C 
ATOM      4  O   UNL     1       6.810   0.016  -3.590  1.00  0.00    -0.271 OA
ATOM      5  H   UNL     1       8.284  -1.891  -3.177  1.00  0.00     0.163 HD
BRANCH   3   6
ATOM      6  C   UNL     1       8.524   1.444  -2.690  1.00  0.00     0.329 C 
BRANCH   6   7
ATOM      7  O   UNL     1       9.053   1.497  -1.375  1.00  0.00    -0.484 OA
BRANCH   7   8
ATOM      8  C   UNL     1       8.181   1.359  -0.329  1.00  0.00     0.120 A 
ATOM      9  C   UNL     1       6.007   1.095   0.734  1.00  0.00    -0.021 A 
ATOM     10  C   UNL     1       6.631   0.996   1.981  1.00  0.00     0.008 A 
ATOM     11  C   UNL     1       6.788   1.303  -0.415  1.00  0.00     0.054 A 
ATOM     12  C   UNL     1       8.020   1.080   2.075  1.00  0.00     0.004 A 
ATOM     13  C   UNL     1       8.789   1.259   0.924  1.00  0.00     0.046 A 
BRANCH   9  14
ATOM     14  C   UNL     1       4.542   0.970   0.640  1.00  0.00     0.031 C 
ATOM     15  C   UNL     1       3.877   0.004  -0.027  1.00  0.00     0.095 C 
BRANCH  15  16
ATOM     16  C   UNL     1       2.357   0.004  -0.027  1.00  0.00     0.103 C 
ATOM     17  N   UNL     1       1.096   0.004  -0.027  1.00  0.00    -0.192 NA
ENDBRANCH  15  16
BRANCH  15  18
ATOM     18  C   UNL     1       4.551  -1.078  -0.661  1.00  0.00     0.149 A 
ATOM     19  N   UNL     1       5.467  -1.904  -0.195  1.00  0.00    -0.228 NA
ATOM     20  N   UNL     1       4.277  -1.362  -1.981  1.00  0.00    -0.337 N 
ATOM     21  C   UNL     1       5.830  -2.700  -1.249  1.00  0.00     0.089 A 
ATOM     22  C   UNL     1       5.108  -2.376  -2.389  1.00  0.00     0.066 A 
ATOM     23  H   UNL     1       3.600  -0.914  -2.538  1.00  0.00     0.168 HD
ATOM     24  C   UNL     1       6.790  -3.716  -1.314  1.00  0.00     0.030 A 
ATOM     25  C   UNL     1       5.307  -2.996  -3.625  1.00  0.00     0.028 A 
ATOM     26  C   UNL     1       7.028  -4.342  -2.545  1.00  0.00     0.002 A 
ATOM     27  C   UNL     1       6.300  -3.982  -3.681  1.00  0.00     0.002 A 
ENDBRANCH  15  18
ENDBRANCH   9  14
ENDBRANCH   7   8
ENDBRANCH   6   7
ENDBRANCH   3   6
ENDBRANCH   1   2
BRANCH   1  28
ATOM     28  C   UNL     1      10.651  -1.699  -1.574  1.00  0.00     0.042 C 
BRANCH  28  29
ATOM     29  C   UNL     1      10.492  -3.210  -1.384  1.00  0.00     0.118 C 
BRANCH  29  30
ATOM     30  N   UNL     1      10.779  -4.039  -2.543  1.00  0.00    -0.352 N 
ATOM     31  C   UNL     1      11.116  -5.372  -2.592  1.00  0.00     0.251 C 
ATOM     32  H   UNL     1      10.725  -3.584  -3.414  1.00  0.00     0.163 HD
ATOM     33  O   UNL     1      11.328  -5.898  -3.684  1.00  0.00    -0.269 OA
BRANCH  31  34
ATOM     34  C   UNL     1      11.264  -6.169  -1.352  1.00  0.00     0.039 A 
ATOM     35  C   UNL     1      12.416  -6.948  -1.202  1.00  0.00     0.014 A 
ATOM     36  C   UNL     1      10.286  -6.179  -0.354  1.00  0.00     0.014 A 
ATOM     37  C   UNL     1      12.619  -7.676  -0.025  1.00  0.00     0.010 A 
ATOM     38  C   UNL     1      10.511  -6.872   0.840  1.00  0.00     0.010 A 
ATOM     39  C   UNL     1      11.685  -7.617   1.024  1.00  0.00    -0.014 A 
BRANCH  39  40
ATOM     40  C   UNL     1      11.983  -8.263   2.330  1.00  0.00     0.031 A 
ATOM     41  C   UNL     1      11.178  -9.428   2.839  1.00  0.00     0.074 A 
ATOM     42  C   UNL     1      12.967  -7.752   3.098  1.00  0.00     0.049 A 
ATOM     43  N   UNL     1      11.357 -10.139   3.923  1.00  0.00    -0.248 NA
ATOM     44  C   UNL     1      10.012  -9.836   2.041  1.00  0.00     0.031 C 
ATOM     45  C   UNL     1      13.757  -6.561   2.772  1.00  0.00     0.029 A 
ATOM     46  N   UNL     1      13.464  -8.155   4.313  1.00  0.00    -0.354 N 
ATOM     47  C   UNL     1      10.321 -11.064   3.952  1.00  0.00     0.074 A 
ATOM     48  C   UNL     1       9.497 -10.803   2.790  1.00  0.00     0.031 C 
ATOM     49  C   UNL     1      14.646  -6.340   3.752  1.00  0.00     0.029 A 
ATOM     50  C   UNL     1      14.484  -7.361   4.783  1.00  0.00     0.049 A 
ATOM     51  H   UNL     1      13.122  -8.938   4.801  1.00  0.00     0.167 HD
ATOM     52  C   UNL     1      10.090 -12.058   4.846  1.00  0.00     0.034 A 
ATOM     53  C   UNL     1      15.219  -7.449   5.909  1.00  0.00     0.034 A 
ATOM     54  C   UNL     1      10.925 -12.333   5.987  1.00  0.00     0.049 A 
ATOM     55  C   UNL     1      14.989  -8.604   6.845  1.00  0.00     0.074 A 
ATOM     56  C   UNL     1      10.821 -13.368   6.902  1.00  0.00     0.029 A 
ATOM     57  N   UNL     1      12.011 -11.566   6.380  1.00  0.00    -0.354 N 
ATOM     58  N   UNL     1      14.123  -9.583   6.752  1.00  0.00    -0.248 NA
ATOM     59  C   UNL     1      15.873  -8.695   8.016  1.00  0.00     0.031 C 
ATOM     60  C   UNL     1      11.834 -13.216   7.856  1.00  0.00     0.029 A 
ATOM     61  C   UNL     1      12.584 -12.100   7.523  1.00  0.00     0.049 A 
ATOM     62  H   UNL     1      12.329 -10.759   5.914  1.00  0.00     0.167 HD
ATOM     63  C   UNL     1      14.379 -10.423   7.830  1.00  0.00     0.074 A 
ATOM     64  C   UNL     1      15.501  -9.852   8.546  1.00  0.00     0.031 C 
ATOM     65  C   UNL     1      13.732 -11.556   8.202  1.00  0.00     0.034 A 
BRANCH  52  66
ATOM     66  C   UNL     1       8.915 -12.969   4.592  1.00  0.00     0.023 A 
ATOM     67  C   UNL     1       8.977 -13.896   3.530  1.00  0.00     0.012 A 
ATOM     68  C   UNL     1       7.785 -12.962   5.434  1.00  0.00     0.148 A 
ATOM     69  C   UNL     1       7.922 -14.774   3.288  1.00  0.00     0.002 A 
ATOM     70  C   UNL     1       6.755 -13.870   5.212  1.00  0.00     0.091 A 
ATOM     71  F   UNL     1       7.734 -12.065   6.429  1.00  0.00    -0.205 F 
ATOM     72  C   UNL     1       6.817 -14.768   4.133  1.00  0.00     0.022 A 
BRANCH  70  73
ATOM     73  S   UNL     1       5.324 -13.998   6.291  1.00  0.00     0.127 S 
ATOM     74  O   UNL     1       4.270 -13.429   5.452  1.00  0.00    -0.237 OA
ATOM     75  O   UNL     1       5.222 -15.443   6.500  1.00  0.00    -0.237 OA
ATOM     76  O   UNL     1       5.654 -13.235   7.486  1.00  0.00    -0.744 OA
ENDBRANCH  70  73
ENDBRANCH  52  66
BRANCH  53  77
ATOM     77  C   UNL     1      16.309  -6.465   6.162  1.00  0.00     0.023 A 
ATOM     78  C   UNL     1      17.652  -6.882   6.068  1.00  0.00     0.012 A 
ATOM     79  C   UNL     1      16.028  -5.119   6.462  1.00  0.00     0.148 A 
ATOM     80  C   UNL     1      18.694  -5.985   6.303  1.00  0.00     0.002 A 
ATOM     81  C   UNL     1      17.071  -4.217   6.639  1.00  0.00     0.091 A 
ATOM     82  F   UNL     1      14.744  -4.744   6.559  1.00  0.00    -0.205 F 
ATOM     83  C   UNL     1      18.404  -4.651   6.578  1.00  0.00     0.022 A 
BRANCH  81  84
ATOM     84  S   UNL     1      16.790  -2.456   6.858  1.00  0.00     0.127 S 
ATOM     85  O   UNL     1      17.107  -2.276   8.273  1.00  0.00    -0.237 OA
ATOM     86  O   UNL     1      17.762  -1.876   5.930  1.00  0.00    -0.237 OA
ATOM     87  O   UNL     1      15.400  -2.233   6.484  1.00  0.00    -0.744 OA
ENDBRANCH  81  84
ENDBRANCH  53  77
BRANCH  65  88
ATOM     88  C   UNL     1      14.239 -12.274   9.427  1.00  0.00     0.023 A 
ATOM     89  C   UNL     1      14.043 -11.709  10.703  1.00  0.00     0.012 A 
ATOM     90  C   UNL     1      14.872 -13.528   9.319  1.00  0.00     0.148 A 
ATOM     91  C   UNL     1      14.508 -12.358  11.847  1.00  0.00     0.002 A 
ATOM     92  C   UNL     1      15.290 -14.192  10.467  1.00  0.00     0.091 A 
ATOM     93  F   UNL     1      15.073 -14.043   8.097  1.00  0.00    -0.205 F 
ATOM     94  C   UNL     1      15.121 -13.603  11.730  1.00  0.00     0.022 A 
BRANCH  92  95
ATOM     95  S   UNL     1      16.003 -15.840  10.408  1.00  0.00     0.127 S 
ATOM     96  O   UNL     1      17.431 -15.553  10.532  1.00  0.00    -0.237 OA
ATOM     97  O   UNL     1      15.407 -16.484  11.580  1.00  0.00    -0.237 OA
ATOM     98  O   UNL     1      15.580 -16.407   9.135  1.00  0.00    -0.744 OA
ENDBRANCH  92  95
ENDBRANCH  65  88
ENDBRANCH  39  40
ENDBRANCH  31  34
ENDBRANCH  29  30
ENDBRANCH  28  29
ENDBRANCH   1  28
TORSDOF 18
