REMARK SMILES CCOC(=O)c1sc(NC(=O)CCC(=O)NCCCNC(=O)c2ccc(-c3c4nc(c(-c5cccc(S(=O)(=O)[O-])c5F)c5ccc([nH]5)c(-c5cccc(S(=O)(=O)[O-])c5F)c5nc(c(-c6cccc(S(=O)(=O)[O-])c6F)c6ccc3[nH]6)C=C5)C=C4)cc2)c(C#N)c1C
REMARK SMILES IDX 14 1 15 2 16 3 13 5 12 6 10 7 9 8 11 10 8 11 6 12 7 13 89 14
REMARK SMILES IDX 86 15 90 16 4 17 5 18 3 19 2 20 1 21 87 22 88 23 17 24 18 25
REMARK SMILES IDX 19 26 20 27 21 28 22 30 23 31 24 32 85 33 25 34 84 35 26 36
REMARK SMILES IDX 27 37 28 38 78 39 29 40 83 41 77 42 79 43 30 44 82 45 76 46
REMARK SMILES IDX 75 47 31 49 63 50 43 51 62 52 44 53 47 54 61 55 80 56 45 57
REMARK SMILES IDX 46 58 60 60 81 61 48 62 32 63 33 64 41 65 34 66 36 67 42 68
REMARK SMILES IDX 35 69 37 70 38 71 39 72 40 73 64 74 65 75 73 76 66 77 68 78
REMARK SMILES IDX 74 79 67 80 69 81 70 82 71 83 72 84 49 85 50 86 58 87 51 88
REMARK SMILES IDX 53 89 59 90 52 91 54 92 55 93 56 94 57 95
REMARK H PARENT 16 4 9 9 20 29 79 48 47 59
REMARK Flexibility Score: inf
ROOT
ATOM      1  C   UNL     1       6.172   4.268  -2.970  1.00  0.00     0.220 C 
ATOM      2  O   UNL     1       5.521   4.073  -1.942  1.00  0.00    -0.275 OA
ATOM      3  N   UNL     1       6.052   5.484  -3.581  1.00  0.00    -0.356 N 
ATOM      4  H   UNL     1       5.225   5.972  -3.365  1.00  0.00     0.163 HD
ENDROOT
BRANCH   1   5
ATOM      5  C   UNL     1       7.038   3.169  -3.548  1.00  0.00     0.110 C 
BRANCH   5   6
ATOM      6  C   UNL     1       6.408   2.312  -4.646  1.00  0.00     0.110 C 
BRANCH   6   7
ATOM      7  C   UNL     1       5.578   3.057  -5.673  1.00  0.00     0.225 C 
ATOM      8  N   UNL     1       4.363   3.623  -5.395  1.00  0.00    -0.317 N 
ATOM      9  H   UNL     1       4.038   4.258  -6.073  1.00  0.00     0.170 HD
ATOM     10  O   UNL     1       6.072   3.266  -6.789  1.00  0.00    -0.275 OA
BRANCH   8  11
ATOM     11  C   UNL     1       3.521   3.444  -4.312  1.00  0.00     0.114 A 
ATOM     12  C   UNL     1       2.360   2.503  -2.374  1.00  0.00     0.118 A 
ATOM     13  S   UNL     1       3.374   1.906  -3.607  1.00  0.00    -0.109 S 
ATOM     14  C   UNL     1       1.833   3.739  -2.694  1.00  0.00    -0.006 A 
ATOM     15  C   UNL     1       2.692   4.344  -3.663  1.00  0.00     0.091 A 
ATOM     16  C   UNL     1       0.778   4.519  -1.967  1.00  0.00     0.048 C 
BRANCH  12  17
ATOM     17  C   UNL     1       2.205   1.739  -1.168  1.00  0.00     0.348 C 
ATOM     18  O   UNL     1       3.112   1.183  -0.559  1.00  0.00    -0.245 OA
BRANCH  17  19
ATOM     19  O   UNL     1       0.917   1.812  -0.781  1.00  0.00    -0.462 OA
BRANCH  19  20
ATOM     20  C   UNL     1       0.538   1.119   0.404  1.00  0.00     0.230 C 
ATOM     21  C   UNL     1       0.715  -0.377   0.244  1.00  0.00     0.049 C 
ENDBRANCH  19  20
ENDBRANCH  17  19
ENDBRANCH  12  17
BRANCH  15  22
ATOM     22  C   UNL     1       2.819   5.757  -3.625  1.00  0.00     0.103 C 
ATOM     23  N   UNL     1       2.969   6.897  -3.384  1.00  0.00    -0.192 NA
ENDBRANCH  15  22
ENDBRANCH   8  11
ENDBRANCH   6   7
ENDBRANCH   5   6
ENDBRANCH   1   5
BRANCH   3  24
ATOM     24  C   UNL     1       6.943   6.177  -4.497  1.00  0.00     0.117 C 
BRANCH  24  25
ATOM     25  C   UNL     1       6.405   6.551  -5.889  1.00  0.00     0.042 C 
BRANCH  25  26
ATOM     26  C   UNL     1       4.988   7.100  -6.022  1.00  0.00     0.118 C 
BRANCH  26  27
ATOM     27  N   UNL     1       4.792   8.526  -5.861  1.00  0.00    -0.352 N 
ATOM     28  C   UNL     1       3.665   9.315  -6.067  1.00  0.00     0.251 C 
ATOM     29  H   UNL     1       5.588   9.019  -5.556  1.00  0.00     0.163 HD
ATOM     30  O   UNL     1       3.841  10.536  -6.091  1.00  0.00    -0.269 OA
BRANCH  28  31
ATOM     31  C   UNL     1       2.257   8.786  -6.140  1.00  0.00     0.039 A 
ATOM     32  C   UNL     1       1.184   9.693  -6.070  1.00  0.00     0.014 A 
ATOM     33  C   UNL     1       1.940   7.434  -6.127  1.00  0.00     0.014 A 
ATOM     34  C   UNL     1      -0.124   9.248  -5.805  1.00  0.00     0.010 A 
ATOM     35  C   UNL     1       0.683   6.996  -5.721  1.00  0.00     0.010 A 
ATOM     36  C   UNL     1      -0.359   7.897  -5.529  1.00  0.00    -0.014 A 
BRANCH  36  37
ATOM     37  C   UNL     1      -1.717   7.325  -5.520  1.00  0.00     0.031 A 
ATOM     38  C   UNL     1      -2.129   7.083  -6.933  1.00  0.00     0.074 A 
ATOM     39  C   UNL     1      -2.438   6.876  -4.462  1.00  0.00     0.049 A 
ATOM     40  N   UNL     1      -2.817   7.891  -7.676  1.00  0.00    -0.248 NA
ATOM     41  C   UNL     1      -1.464   6.012  -7.705  1.00  0.00     0.031 C 
ATOM     42  C   UNL     1      -2.016   6.801  -3.059  1.00  0.00     0.029 A 
ATOM     43  N   UNL     1      -3.683   6.289  -4.416  1.00  0.00    -0.354 N 
ATOM     44  C   UNL     1      -2.950   7.209  -8.883  1.00  0.00     0.074 A 
ATOM     45  C   UNL     1      -1.833   6.318  -8.952  1.00  0.00     0.031 C 
ATOM     46  C   UNL     1      -2.868   6.007  -2.363  1.00  0.00     0.029 A 
ATOM     47  C   UNL     1      -3.977   5.616  -3.219  1.00  0.00     0.049 A 
ATOM     48  H   UNL     1      -4.319   6.338  -5.166  1.00  0.00     0.167 HD
ATOM     49  C   UNL     1      -4.189   7.065  -9.432  1.00  0.00     0.034 A 
ATOM     50  C   UNL     1      -5.035   4.793  -2.959  1.00  0.00     0.034 A 
ATOM     51  C   UNL     1      -5.112   7.976  -8.796  1.00  0.00     0.049 A 
ATOM     52  C   UNL     1      -6.097   5.144  -3.919  1.00  0.00     0.074 A 
ATOM     53  C   UNL     1      -5.266   9.340  -8.671  1.00  0.00     0.029 A 
ATOM     54  N   UNL     1      -5.774   7.391  -7.752  1.00  0.00    -0.354 N 
ATOM     55  N   UNL     1      -6.754   6.265  -3.861  1.00  0.00    -0.248 NA
ATOM     56  C   UNL     1      -6.219   4.399  -5.164  1.00  0.00     0.031 C 
ATOM     57  C   UNL     1      -5.935   9.549  -7.427  1.00  0.00     0.029 A 
ATOM     58  C   UNL     1      -6.250   8.312  -6.869  1.00  0.00     0.049 A 
ATOM     59  H   UNL     1      -5.893   6.419  -7.651  1.00  0.00     0.167 HD
ATOM     60  C   UNL     1      -6.901   6.605  -5.190  1.00  0.00     0.074 A 
ATOM     61  C   UNL     1      -6.756   5.354  -5.927  1.00  0.00     0.031 C 
ATOM     62  C   UNL     1      -6.746   7.903  -5.577  1.00  0.00     0.034 A 
BRANCH  49  63
ATOM     63  C   UNL     1      -4.727   5.775 -10.061  1.00  0.00     0.023 A 
ATOM     64  C   UNL     1      -6.038   5.833 -10.588  1.00  0.00     0.012 A 
ATOM     65  C   UNL     1      -4.179   4.478  -9.902  1.00  0.00     0.148 A 
ATOM     66  C   UNL     1      -6.772   4.676 -10.885  1.00  0.00     0.002 A 
ATOM     67  C   UNL     1      -4.882   3.333 -10.262  1.00  0.00     0.091 A 
ATOM     68  F   UNL     1      -3.017   4.301  -9.279  1.00  0.00    -0.205 F 
ATOM     69  C   UNL     1      -6.192   3.424 -10.727  1.00  0.00     0.022 A 
BRANCH  67  70
ATOM     70  S   UNL     1      -4.162   1.691 -10.089  1.00  0.00     0.127 S 
ATOM     71  O   UNL     1      -5.019   1.105  -9.063  1.00  0.00    -0.237 OA
ATOM     72  O   UNL     1      -4.343   1.152 -11.437  1.00  0.00    -0.237 OA
ATOM     73  O   UNL     1      -2.771   1.900  -9.708  1.00  0.00    -0.744 OA
ENDBRANCH  67  70
ENDBRANCH  49  63
BRANCH  50  74
ATOM     74  C   UNL     1      -5.249   3.616  -2.064  1.00  0.00     0.023 A 
ATOM     75  C   UNL     1      -6.564   3.158  -1.788  1.00  0.00     0.012 A 
ATOM     76  C   UNL     1      -4.186   2.737  -1.793  1.00  0.00     0.148 A 
ATOM     77  C   UNL     1      -6.809   1.853  -1.334  1.00  0.00     0.002 A 
ATOM     78  C   UNL     1      -4.436   1.431  -1.364  1.00  0.00     0.091 A 
ATOM     79  F   UNL     1      -2.937   3.159  -2.029  1.00  0.00    -0.205 F 
ATOM     80  C   UNL     1      -5.745   0.980  -1.147  1.00  0.00     0.022 A 
BRANCH  78  81
ATOM     81  S   UNL     1      -3.123   0.215  -1.202  1.00  0.00     0.127 S 
ATOM     82  O   UNL     1      -3.172  -0.096   0.226  1.00  0.00    -0.237 OA
ATOM     83  O   UNL     1      -3.581  -0.859  -2.080  1.00  0.00    -0.237 OA
ATOM     84  O   UNL     1      -1.910   0.890  -1.639  1.00  0.00    -0.744 OA
ENDBRANCH  78  81
ENDBRANCH  50  74
BRANCH  62  85
ATOM     85  C   UNL     1      -7.008   8.965  -4.553  1.00  0.00     0.023 A 
ATOM     86  C   UNL     1      -6.243   9.144  -3.383  1.00  0.00     0.012 A 
ATOM     87  C   UNL     1      -8.056   9.856  -4.829  1.00  0.00     0.148 A 
ATOM     88  C   UNL     1      -6.545  10.180  -2.494  1.00  0.00     0.002 A 
ATOM     89  C   UNL     1      -8.322  10.908  -3.971  1.00  0.00     0.091 A 
ATOM     90  F   UNL     1      -8.781   9.654  -5.940  1.00  0.00    -0.205 F 
ATOM     91  C   UNL     1      -7.577  11.069  -2.794  1.00  0.00     0.022 A 
BRANCH  89  92
ATOM     92  S   UNL     1      -9.575  12.124  -4.369  1.00  0.00     0.127 S 
ATOM     93  O   UNL     1     -10.672  11.730  -3.488  1.00  0.00    -0.237 OA
ATOM     94  O   UNL     1      -8.918  13.381  -4.008  1.00  0.00    -0.237 OA
ATOM     95  O   UNL     1      -9.833  11.980  -5.797  1.00  0.00    -0.744 OA
ENDBRANCH  89  92
ENDBRANCH  62  85
ENDBRANCH  36  37
ENDBRANCH  28  31
ENDBRANCH  26  27
ENDBRANCH  25  26
ENDBRANCH  24  25
ENDBRANCH   3  24
TORSDOF 20
