REMARK SMILES O=C(NCCCNC(=O)c1cc(Br)cn(Cc2cccc(F)c2)c1=O)c1ccc(-c2c3nc(c(-c4cccc(S(=O)(=O)[O-])c4F)c4ccc([nH]4)c(-c4cccc(S(=O)(=O)[O-])c4F)c4nc(c(-c5cccc(S(=O)(=O)[O-])c5F)c5ccc2[nH]5)C=C4)C=C3)cc1
REMARK SMILES IDX 4 1 3 2 1 3 2 4 26 6 27 7 88 8 28 9 87 10 29 11 30 12 31 13
REMARK SMILES IDX 81 14 32 15 86 16 80 17 82 18 33 19 85 20 79 21 78 22 34 24
REMARK SMILES IDX 66 25 46 26 65 27 47 28 50 29 64 30 83 31 48 32 49 33 63 35
REMARK SMILES IDX 84 36 51 37 35 38 36 39 44 40 37 41 39 42 45 43 38 44 40 45
REMARK SMILES IDX 41 46 42 47 43 48 67 49 68 50 76 51 69 52 71 53 77 54 70 55
REMARK SMILES IDX 72 56 73 57 74 58 75 59 52 60 53 61 61 62 54 63 56 64 62 65
REMARK SMILES IDX 55 66 57 67 58 68 59 69 60 70 5 71 6 72 7 73 8 74 9 76 10 77
REMARK SMILES IDX 11 78 24 79 12 80 15 81 25 82 13 83 14 84 16 85 17 86 18 87
REMARK SMILES IDX 23 88 19 89 21 90 20 91 22 92
REMARK H PARENT 3 5 82 23 50 34 7 75
REMARK Flexibility Score: inf
ROOT
ATOM      1  C   UNL     1       4.538  -1.006   0.782  1.00  0.00     0.118 C 
ENDROOT
BRANCH   1   2
ATOM      2  N   UNL     1       3.096  -0.922   0.609  1.00  0.00    -0.352 N 
ATOM      3  O   UNL     1       1.099   0.004   0.207  1.00  0.00    -0.269 OA
ATOM      4  C   UNL     1       2.315   0.045   0.031  1.00  0.00     0.251 C 
ATOM      5  H   UNL     1       2.596  -1.690   0.968  1.00  0.00     0.163 HD
BRANCH   4   6
ATOM      6  C   UNL     1       2.898   1.122  -0.802  1.00  0.00     0.039 A 
ATOM      7  C   UNL     1       2.290   2.384  -0.782  1.00  0.00     0.014 A 
ATOM      8  C   UNL     1       3.957   0.880  -1.680  1.00  0.00     0.014 A 
ATOM      9  C   UNL     1       2.748   3.399  -1.627  1.00  0.00     0.010 A 
ATOM     10  C   UNL     1       4.460   1.911  -2.471  1.00  0.00     0.010 A 
ATOM     11  C   UNL     1       3.838   3.168  -2.478  1.00  0.00    -0.014 A 
BRANCH  11  12
ATOM     12  C   UNL     1       4.287   4.184  -3.461  1.00  0.00     0.031 A 
ATOM     13  C   UNL     1       4.132   3.905  -4.931  1.00  0.00     0.074 A 
ATOM     14  C   UNL     1       4.878   5.321  -3.051  1.00  0.00     0.049 A 
ATOM     15  N   UNL     1       4.595   4.575  -5.953  1.00  0.00    -0.248 NA
ATOM     16  C   UNL     1       3.373   2.697  -5.297  1.00  0.00     0.031 C 
ATOM     17  C   UNL     1       5.101   5.706  -1.658  1.00  0.00     0.029 A 
ATOM     18  N   UNL     1       5.418   6.354  -3.776  1.00  0.00    -0.354 N 
ATOM     19  C   UNL     1       4.224   3.850  -7.078  1.00  0.00     0.074 A 
ATOM     20  C   UNL     1       3.515   2.677  -6.614  1.00  0.00     0.031 C 
ATOM     21  C   UNL     1       5.723   6.896  -1.628  1.00  0.00     0.029 A 
ATOM     22  C   UNL     1       5.975   7.339  -2.997  1.00  0.00     0.049 A 
ATOM     23  H   UNL     1       5.406   6.386  -4.760  1.00  0.00     0.167 HD
ATOM     24  C   UNL     1       4.425   4.145  -8.383  1.00  0.00     0.034 A 
ATOM     25  C   UNL     1       6.625   8.466  -3.347  1.00  0.00     0.034 A 
ATOM     26  C   UNL     1       5.069   5.340  -8.852  1.00  0.00     0.049 A 
ATOM     27  C   UNL     1       6.825   8.785  -4.802  1.00  0.00     0.074 A 
ATOM     28  C   UNL     1       5.288   5.745 -10.157  1.00  0.00     0.029 A 
ATOM     29  N   UNL     1       5.579   6.334  -8.032  1.00  0.00    -0.354 N 
ATOM     30  N   UNL     1       6.430   8.110  -5.854  1.00  0.00    -0.248 NA
ATOM     31  C   UNL     1       7.546  10.027  -5.119  1.00  0.00     0.031 C 
ATOM     32  C   UNL     1       5.923   6.992 -10.124  1.00  0.00     0.029 A 
ATOM     33  C   UNL     1       6.103   7.359  -8.800  1.00  0.00     0.049 A 
ATOM     34  H   UNL     1       5.571   6.313  -7.048  1.00  0.00     0.167 HD
ATOM     35  C   UNL     1       6.849   8.843  -6.958  1.00  0.00     0.074 A 
ATOM     36  C   UNL     1       7.506  10.030  -6.446  1.00  0.00     0.031 C 
ATOM     37  C   UNL     1       6.721   8.549  -8.275  1.00  0.00     0.034 A 
BRANCH  24  38
ATOM     38  C   UNL     1       3.871   3.183  -9.396  1.00  0.00     0.023 A 
ATOM     39  C   UNL     1       2.489   3.204  -9.672  1.00  0.00     0.012 A 
ATOM     40  C   UNL     1       4.703   2.276 -10.079  1.00  0.00     0.148 A 
ATOM     41  C   UNL     1       1.938   2.320 -10.597  1.00  0.00     0.002 A 
ATOM     42  C   UNL     1       4.149   1.416 -11.021  1.00  0.00     0.091 A 
ATOM     43  F   UNL     1       6.009   2.253  -9.777  1.00  0.00    -0.205 F 
ATOM     44  C   UNL     1       2.768   1.432 -11.276  1.00  0.00     0.022 A 
BRANCH  42  45
ATOM     45  S   UNL     1       5.142   0.266 -11.979  1.00  0.00     0.127 S 
ATOM     46  O   UNL     1       4.809  -1.010 -11.346  1.00  0.00    -0.237 OA
ATOM     47  O   UNL     1       4.601   0.437 -13.328  1.00  0.00    -0.237 OA
ATOM     48  O   UNL     1       6.522   0.703 -11.822  1.00  0.00    -0.744 OA
ENDBRANCH  42  45
ENDBRANCH  24  38
BRANCH  25  49
ATOM     49  C   UNL     1       7.071   9.401  -2.281  1.00  0.00     0.023 A 
ATOM     50  C   UNL     1       6.314  10.562  -2.037  1.00  0.00     0.012 A 
ATOM     51  C   UNL     1       8.171   9.105  -1.454  1.00  0.00     0.148 A 
ATOM     52  C   UNL     1       6.645  11.416  -0.985  1.00  0.00     0.002 A 
ATOM     53  C   UNL     1       8.473   9.940  -0.385  1.00  0.00     0.091 A 
ATOM     54  F   UNL     1       8.867   7.987  -1.703  1.00  0.00    -0.205 F 
ATOM     55  C   UNL     1       7.717  11.101  -0.155  1.00  0.00     0.022 A 
BRANCH  53  56
ATOM     56  S   UNL     1       9.769   9.571   0.803  1.00  0.00     0.127 S 
ATOM     57  O   UNL     1      10.578  10.788   0.755  1.00  0.00    -0.237 OA
ATOM     58  O   UNL     1       8.998   9.392   2.033  1.00  0.00    -0.237 OA
ATOM     59  O   UNL     1      10.431   8.371   0.311  1.00  0.00    -0.744 OA
ENDBRANCH  53  56
ENDBRANCH  25  49
BRANCH  37  60
ATOM     60  C   UNL     1       7.316   9.509  -9.266  1.00  0.00     0.023 A 
ATOM     61  C   UNL     1       8.701   9.460  -9.517  1.00  0.00     0.012 A 
ATOM     62  C   UNL     1       6.505  10.382 -10.015  1.00  0.00     0.148 A 
ATOM     63  C   UNL     1       9.273  10.275 -10.493  1.00  0.00     0.002 A 
ATOM     64  C   UNL     1       7.077  11.171 -11.007  1.00  0.00     0.091 A 
ATOM     65  F   UNL     1       5.192  10.425  -9.745  1.00  0.00    -0.205 F 
ATOM     66  C   UNL     1       8.461  11.121 -11.245  1.00  0.00     0.022 A 
BRANCH  64  67
ATOM     67  S   UNL     1       6.097  12.237 -12.071  1.00  0.00     0.127 S 
ATOM     68  O   UNL     1       6.383  13.558 -11.513  1.00  0.00    -0.237 OA
ATOM     69  O   UNL     1       6.684  11.991 -13.389  1.00  0.00    -0.237 OA
ATOM     70  O   UNL     1       4.721  11.781 -11.931  1.00  0.00    -0.744 OA
ENDBRANCH  64  67
ENDBRANCH  37  60
ENDBRANCH  11  12
ENDBRANCH   4   6
ENDBRANCH   1   2
BRANCH   1  71
ATOM     71  C   UNL     1       4.947  -0.975   2.249  1.00  0.00     0.042 C 
BRANCH  71  72
ATOM     72  C   UNL     1       4.361  -2.099   3.094  1.00  0.00     0.118 C 
BRANCH  72  73
ATOM     73  N   UNL     1       4.836  -3.416   2.696  1.00  0.00    -0.352 N 
ATOM     74  C   UNL     1       5.596  -4.316   3.393  1.00  0.00     0.256 C 
ATOM     75  H   UNL     1       4.570  -3.703   1.792  1.00  0.00     0.163 HD
ATOM     76  O   UNL     1       5.944  -5.364   2.867  1.00  0.00    -0.269 OA
BRANCH  74  77
ATOM     77  C   UNL     1       6.075  -3.943   4.741  1.00  0.00     0.106 A 
ATOM     78  C   UNL     1       7.407  -3.889   4.914  1.00  0.00     0.036 A 
ATOM     79  C   UNL     1       5.157  -3.586   5.861  1.00  0.00     0.263 A 
ATOM     80  C   UNL     1       7.968  -3.409   6.152  1.00  0.00     0.035 A 
ATOM     81  N   UNL     1       5.768  -3.013   6.980  1.00  0.00    -0.309 N 
ATOM     82  O   UNL     1       3.941  -3.748   5.760  1.00  0.00    -0.268 OA
ATOM     83  Br  UNL     1       9.822  -3.369   6.326  1.00  0.00    -0.049 Br
ATOM     84  C   UNL     1       7.149  -2.954   7.110  1.00  0.00     0.105 A 
BRANCH  81  85
ATOM     85  C   UNL     1       4.917  -2.476   8.039  1.00  0.00     0.161 C 
BRANCH  85  86
ATOM     86  C   UNL     1       4.721  -3.444   9.181  1.00  0.00    -0.025 A 
ATOM     87  C   UNL     1       5.667  -3.531  10.216  1.00  0.00     0.006 A 
ATOM     88  C   UNL     1       3.601  -4.286   9.214  1.00  0.00     0.044 A 
ATOM     89  C   UNL     1       5.498  -4.441  11.262  1.00  0.00     0.003 A 
ATOM     90  C   UNL     1       3.436  -5.179  10.269  1.00  0.00     0.123 A 
ATOM     91  C   UNL     1       4.376  -5.265  11.290  1.00  0.00     0.039 A 
ATOM     92  F   UNL     1       2.354  -5.968  10.304  1.00  0.00    -0.207 F 
ENDBRANCH  85  86
ENDBRANCH  81  85
ENDBRANCH  74  77
ENDBRANCH  72  73
ENDBRANCH  71  72
ENDBRANCH   1  71
TORSDOF 15
