REMARK SMILES CC[C@](C)(C(=O)NCCCNC(=O)c1ccc(-c2c3nc(c(-c4cccc(S(=O)(=O)[O-])c4F)c4ccc([nH]4)c(-c4cccc(S(=O)(=O)[O-])c4F)c4nc(c(-c5cccc(S(=O)(=O)[O-])c5F)c5ccc2[nH]5)C=C4)C=C3)cc1)[C@@H]1CCC[C@@H]1O
REMARK SMILES IDX 9 1 8 2 7 3 5 4 6 5 3 7 4 8 2 9 1 10 77 11 78 12 81 13 79 14
REMARK SMILES IDX 80 15 82 16 10 18 11 19 12 20 13 22 14 23 15 24 76 25 16 26
REMARK SMILES IDX 75 27 17 28 18 29 19 30 69 31 20 32 74 33 68 34 70 35 21 36
REMARK SMILES IDX 73 37 67 38 66 39 22 41 54 42 34 43 53 44 35 45 38 46 52 47
REMARK SMILES IDX 71 48 36 49 37 50 51 52 72 53 39 54 23 55 24 56 32 57 25 58
REMARK SMILES IDX 27 59 33 60 26 61 28 62 29 63 30 64 31 65 55 66 56 67 64 68
REMARK SMILES IDX 57 69 59 70 65 71 58 72 60 73 61 74 62 75 63 76 40 77 41 78
REMARK SMILES IDX 49 79 42 80 44 81 50 82 43 83 45 84 46 85 47 86 48 87
REMARK H PARENT 7 6 82 17 11 21 70 40 38 51
REMARK Flexibility Score: inf
ROOT
ATOM      1  C   UNL     1       4.390   2.851  -7.172  1.00  0.00     0.042 C 
ENDROOT
BRANCH   1   2
ATOM      2  C   UNL     1       3.075   3.011  -6.420  1.00  0.00     0.117 C 
BRANCH   2   3
ATOM      3  N   UNL     1       2.531   1.760  -5.913  1.00  0.00    -0.356 N 
ATOM      4  C   UNL     1       2.347   1.285  -4.648  1.00  0.00     0.226 C 
ATOM      5  O   UNL     1       1.670   0.252  -4.551  1.00  0.00    -0.274 OA
ATOM      6  H   UNL     1       2.240   1.138  -6.618  1.00  0.00     0.163 HD
BRANCH   4   7
ATOM      7  C   UNL     1       2.912   1.996  -3.388  1.00  0.00     0.051 C 
ATOM      8  C   UNL     1       4.412   2.301  -3.602  1.00  0.00     0.022 C 
BRANCH   7   9
ATOM      9  C   UNL     1       2.113   3.337  -3.214  1.00  0.00     0.013 C 
ATOM     10  C   UNL     1       0.816   3.281  -2.411  1.00  0.00     0.005 C 
ENDBRANCH   7   9
BRANCH   7  11
ATOM     11  C   UNL     1       2.737   1.054  -2.126  1.00  0.00     0.033 C 
ATOM     12  C   UNL     1       3.197   1.691  -0.795  1.00  0.00     0.007 C 
ATOM     13  C   UNL     1       3.439  -0.322  -2.097  1.00  0.00     0.118 C 
ATOM     14  C   UNL     1       4.454   0.954  -0.329  1.00  0.00     0.003 C 
ATOM     15  C   UNL     1       4.756  -0.101  -1.377  1.00  0.00     0.032 C 
BRANCH  13  16
ATOM     16  O   UNL     1       3.668  -0.923  -3.351  1.00  0.00    -0.393 OA
ATOM     17  H   UNL     1       4.258  -0.360  -3.876  1.00  0.00     0.210 HD
ENDBRANCH  13  16
ENDBRANCH   7  11
ENDBRANCH   4   7
ENDBRANCH   2   3
ENDBRANCH   1   2
BRANCH   1  18
ATOM     18  C   UNL     1       4.295   2.037  -8.457  1.00  0.00     0.118 C 
BRANCH  18  19
ATOM     19  N   UNL     1       3.322   2.577  -9.398  1.00  0.00    -0.352 N 
ATOM     20  C   UNL     1       3.468   3.046 -10.678  1.00  0.00     0.251 C 
ATOM     21  H   UNL     1       2.400   2.611  -9.054  1.00  0.00     0.163 HD
ATOM     22  O   UNL     1       2.521   3.631 -11.203  1.00  0.00    -0.269 OA
BRANCH  20  23
ATOM     23  C   UNL     1       4.732   2.872 -11.429  1.00  0.00     0.039 A 
ATOM     24  C   UNL     1       5.138   3.892 -12.295  1.00  0.00     0.014 A 
ATOM     25  C   UNL     1       5.491   1.702 -11.337  1.00  0.00     0.014 A 
ATOM     26  C   UNL     1       6.323   3.760 -13.023  1.00  0.00     0.010 A 
ATOM     27  C   UNL     1       6.716   1.608 -11.997  1.00  0.00     0.010 A 
ATOM     28  C   UNL     1       7.141   2.629 -12.857  1.00  0.00    -0.014 A 
BRANCH  28  29
ATOM     29  C   UNL     1       8.442   2.525 -13.567  1.00  0.00     0.031 A 
ATOM     30  C   UNL     1       8.695   1.427 -14.566  1.00  0.00     0.074 A 
ATOM     31  C   UNL     1       9.425   3.397 -13.268  1.00  0.00     0.049 A 
ATOM     32  N   UNL     1       9.757   1.211 -15.300  1.00  0.00    -0.248 NA
ATOM     33  C   UNL     1       7.632   0.425 -14.749  1.00  0.00     0.031 C 
ATOM     34  C   UNL     1       9.343   4.444 -12.246  1.00  0.00     0.029 A 
ATOM     35  N   UNL     1      10.690   3.537 -13.783  1.00  0.00    -0.354 N 
ATOM     36  C   UNL     1       9.504   0.042 -16.007  1.00  0.00     0.074 A 
ATOM     37  C   UNL     1       8.203  -0.430 -15.585  1.00  0.00     0.031 C 
ATOM     38  C   UNL     1      10.496   5.129 -12.223  1.00  0.00     0.029 A 
ATOM     39  C   UNL     1      11.408   4.561 -13.211  1.00  0.00     0.049 A 
ATOM     40  H   UNL     1      11.049   2.959 -14.494  1.00  0.00     0.167 HD
ATOM     41  C   UNL     1      10.265  -0.566 -16.949  1.00  0.00     0.034 A 
ATOM     42  C   UNL     1      12.656   5.002 -13.460  1.00  0.00     0.034 A 
ATOM     43  C   UNL     1      11.540  -0.071 -17.397  1.00  0.00     0.049 A 
ATOM     44  C   UNL     1      13.454   4.351 -14.556  1.00  0.00     0.074 A 
ATOM     45  C   UNL     1      12.347  -0.561 -18.409  1.00  0.00     0.029 A 
ATOM     46  N   UNL     1      12.199   1.022 -16.856  1.00  0.00    -0.354 N 
ATOM     47  N   UNL     1      13.120   3.355 -15.341  1.00  0.00    -0.248 NA
ATOM     48  C   UNL     1      14.784   4.912 -14.831  1.00  0.00     0.031 C 
ATOM     49  C   UNL     1      13.504   0.225 -18.467  1.00  0.00     0.029 A 
ATOM     50  C   UNL     1      13.406   1.219 -17.507  1.00  0.00     0.049 A 
ATOM     51  H   UNL     1      11.859   1.578 -16.118  1.00  0.00     0.167 HD
ATOM     52  C   UNL     1      14.184   3.189 -16.220  1.00  0.00     0.074 A 
ATOM     53  C   UNL     1      15.158   4.209 -15.891  1.00  0.00     0.031 C 
ATOM     54  C   UNL     1      14.349   2.264 -17.198  1.00  0.00     0.034 A 
BRANCH  41  55
ATOM     55  C   UNL     1       9.710  -1.804 -17.607  1.00  0.00     0.023 A 
ATOM     56  C   UNL     1       8.626  -1.685 -18.501  1.00  0.00     0.012 A 
ATOM     57  C   UNL     1      10.291  -3.069 -17.393  1.00  0.00     0.148 A 
ATOM     58  C   UNL     1       8.106  -2.808 -19.144  1.00  0.00     0.002 A 
ATOM     59  C   UNL     1       9.796  -4.178 -18.072  1.00  0.00     0.091 A 
ATOM     60  F   UNL     1      11.307  -3.168 -16.524  1.00  0.00    -0.205 F 
ATOM     61  C   UNL     1       8.697  -4.051 -18.937  1.00  0.00     0.022 A 
BRANCH  59  62
ATOM     62  S   UNL     1      10.537  -5.809 -17.937  1.00  0.00     0.127 S 
ATOM     63  O   UNL     1       9.524  -6.530 -17.167  1.00  0.00    -0.237 OA
ATOM     64  O   UNL     1      10.640  -6.217 -19.338  1.00  0.00    -0.237 OA
ATOM     65  O   UNL     1      11.813  -5.616 -17.265  1.00  0.00    -0.744 OA
ENDBRANCH  59  62
ENDBRANCH  41  55
BRANCH  42  66
ATOM     66  C   UNL     1      13.193   6.174 -12.713  1.00  0.00     0.023 A 
ATOM     67  C   UNL     1      13.369   7.400 -13.384  1.00  0.00     0.012 A 
ATOM     68  C   UNL     1      13.493   6.094 -11.340  1.00  0.00     0.148 A 
ATOM     69  C   UNL     1      13.867   8.516 -12.709  1.00  0.00     0.002 A 
ATOM     70  C   UNL     1      13.934   7.224 -10.661  1.00  0.00     0.091 A 
ATOM     71  F   UNL     1      13.330   4.915 -10.722  1.00  0.00    -0.205 F 
ATOM     72  C   UNL     1      14.139   8.431 -11.347  1.00  0.00     0.022 A 
BRANCH  70  73
ATOM     73  S   UNL     1      14.173   7.239  -8.880  1.00  0.00     0.127 S 
ATOM     74  O   UNL     1      15.631   7.283  -8.775  1.00  0.00    -0.237 OA
ATOM     75  O   UNL     1      13.492   8.477  -8.494  1.00  0.00    -0.237 OA
ATOM     76  O   UNL     1      13.536   6.029  -8.388  1.00  0.00    -0.744 OA
ENDBRANCH  70  73
ENDBRANCH  42  66
BRANCH  54  77
ATOM     77  C   UNL     1      15.625   2.322 -17.997  1.00  0.00     0.023 A 
ATOM     78  C   UNL     1      16.844   1.948 -17.396  1.00  0.00     0.012 A 
ATOM     79  C   UNL     1      15.613   2.701 -19.354  1.00  0.00     0.148 A 
ATOM     80  C   UNL     1      18.035   1.994 -18.118  1.00  0.00     0.002 A 
ATOM     81  C   UNL     1      16.797   2.696 -20.081  1.00  0.00     0.091 A 
ATOM     82  F   UNL     1      14.448   3.073 -19.905  1.00  0.00    -0.205 F 
ATOM     83  C   UNL     1      18.011   2.357 -19.462  1.00  0.00     0.022 A 
BRANCH  81  84
ATOM     84  S   UNL     1      16.842   3.059 -21.840  1.00  0.00     0.127 S 
ATOM     85  O   UNL     1      17.372   4.421 -21.851  1.00  0.00    -0.237 OA
ATOM     86  O   UNL     1      17.764   2.042 -22.347  1.00  0.00    -0.237 OA
ATOM     87  O   UNL     1      15.470   2.913 -22.310  1.00  0.00    -0.744 OA
ENDBRANCH  81  84
ENDBRANCH  54  77
ENDBRANCH  28  29
ENDBRANCH  20  23
ENDBRANCH  18  19
ENDBRANCH   1  18
TORSDOF 16
