REMARK SMILES Cc1cc(NC(=O)/C=C/c2ccco2)cc(C(=O)NCCCNC(=O)c2ccc(-c3c4nc(c(-c5cccc(S(=O)(=O)[O-])c5F)c5ccc([nH]5)c(-c5cccc(S(=O)(=O)[O-])c5F)c5nc(c(-c6cccc(S(=O)(=O)[O-])c6F)c6ccc3[nH]6)C=C5)C=C4)cc2)c1O
REMARK SMILES IDX 21 1 20 2 19 3 17 4 18 5 16 7 1 8 2 9 3 10 89 11 4 12 15 13
REMARK SMILES IDX 90 14 5 16 6 17 7 19 8 20 9 21 10 22 11 23 14 24 12 25 13 26
REMARK SMILES IDX 22 27 23 28 24 29 25 31 26 32 27 33 88 34 28 35 87 36 29 37
REMARK SMILES IDX 30 38 31 39 81 40 32 41 86 42 80 43 82 44 33 45 85 46 79 47
REMARK SMILES IDX 78 48 34 50 66 51 46 52 65 53 47 54 50 55 64 56 83 57 48 58
REMARK SMILES IDX 49 59 63 61 84 62 51 63 35 64 36 65 44 66 37 67 39 68 45 69
REMARK SMILES IDX 38 70 40 71 41 72 42 73 43 74 67 75 68 76 76 77 69 78 71 79
REMARK SMILES IDX 77 80 70 81 72 82 73 83 74 84 75 85 52 86 53 87 61 88 54 89
REMARK SMILES IDX 56 90 62 91 55 92 57 93 58 94 59 95 60 96
REMARK H PARENT 19 6 90 15 5 18 23 30 82 49 50 60
REMARK Flexibility Score: inf
ROOT
ATOM      1  C   UNL     1       3.153   3.867  -2.383  1.00  0.00     0.042 C 
ENDROOT
BRANCH   1   2
ATOM      2  C   UNL     1       2.484   3.098  -1.259  1.00  0.00     0.118 C 
BRANCH   2   3
ATOM      3  N   UNL     1       1.151   3.514  -0.865  1.00  0.00    -0.352 N 
ATOM      4  C   UNL     1       0.170   2.783  -0.210  1.00  0.00     0.255 C 
ATOM      5  O   UNL     1      -0.808   3.387   0.228  1.00  0.00    -0.269 OA
ATOM      6  H   UNL     1       0.910   4.441  -1.094  1.00  0.00     0.163 HD
BRANCH   4   7
ATOM      7  C   UNL     1       0.285   1.296  -0.041  1.00  0.00     0.083 A 
ATOM      8  C   UNL     1      -1.812  -1.887  -0.399  1.00  0.00     0.048 C 
ATOM      9  C   UNL     1      -0.659  -0.945  -0.201  1.00  0.00    -0.006 A 
ATOM     10  C   UNL     1       0.619  -1.481   0.042  1.00  0.00     0.033 A 
ATOM     11  C   UNL     1      -0.810   0.452  -0.265  1.00  0.00     0.131 A 
ATOM     12  C   UNL     1       1.713  -0.659   0.318  1.00  0.00     0.042 A 
ATOM     13  C   UNL     1       1.504   0.719   0.344  1.00  0.00     0.044 A 
BRANCH  11  14
ATOM     14  O   UNL     1      -2.021   0.995  -0.594  1.00  0.00    -0.507 OA
ATOM     15  H   UNL     1      -2.759   0.438  -0.746  1.00  0.00     0.293 HD
ENDBRANCH  11  14
BRANCH  12  16
ATOM     16  N   UNL     1       2.976  -1.284   0.440  1.00  0.00    -0.322 N 
ATOM     17  C   UNL     1       4.191  -0.833   0.888  1.00  0.00     0.248 C 
ATOM     18  H   UNL     1       2.984  -2.224   0.149  1.00  0.00     0.170 HD
ATOM     19  O   UNL     1       5.227  -1.448   0.660  1.00  0.00    -0.270 OA
BRANCH  17  20
ATOM     20  C   UNL     1       4.186   0.339   1.771  1.00  0.00     0.075 C 
ATOM     21  C   UNL     1       4.727   1.496   1.368  1.00  0.00     0.053 C 
BRANCH  21  22
ATOM     22  C   UNL     1       4.330   2.681   2.047  1.00  0.00     0.126 A 
ATOM     23  C   UNL     1       4.903   3.942   2.048  1.00  0.00     0.050 A 
ATOM     24  O   UNL     1       3.140   2.773   2.743  1.00  0.00    -0.465 OA
ATOM     25  C   UNL     1       4.010   4.827   2.704  1.00  0.00     0.042 A 
ATOM     26  C   UNL     1       2.947   4.062   3.104  1.00  0.00     0.195 A 
ENDBRANCH  21  22
ENDBRANCH  17  20
ENDBRANCH  12  16
ENDBRANCH   4   7
ENDBRANCH   2   3
ENDBRANCH   1   2
BRANCH   1  27
ATOM     27  C   UNL     1       3.471   5.335  -2.130  1.00  0.00     0.118 C 
BRANCH  27  28
ATOM     28  N   UNL     1       4.248   5.621  -0.926  1.00  0.00    -0.352 N 
ATOM     29  C   UNL     1       5.471   6.236  -0.749  1.00  0.00     0.251 C 
ATOM     30  H   UNL     1       3.822   5.321  -0.090  1.00  0.00     0.163 HD
ATOM     31  O   UNL     1       5.918   6.404   0.385  1.00  0.00    -0.269 OA
BRANCH  29  32
ATOM     32  C   UNL     1       6.287   6.667  -1.900  1.00  0.00     0.039 A 
ATOM     33  C   UNL     1       7.663   6.401  -1.905  1.00  0.00     0.014 A 
ATOM     34  C   UNL     1       5.703   7.331  -2.973  1.00  0.00     0.014 A 
ATOM     35  C   UNL     1       8.426   6.698  -3.038  1.00  0.00     0.010 A 
ATOM     36  C   UNL     1       6.433   7.521  -4.135  1.00  0.00     0.010 A 
ATOM     37  C   UNL     1       7.799   7.202  -4.185  1.00  0.00    -0.014 A 
BRANCH  37  38
ATOM     38  C   UNL     1       8.503   7.404  -5.476  1.00  0.00     0.031 A 
ATOM     39  C   UNL     1       8.476   8.766  -6.114  1.00  0.00     0.074 A 
ATOM     40  C   UNL     1       8.964   6.333  -6.153  1.00  0.00     0.049 A 
ATOM     41  N   UNL     1       8.739   9.110  -7.346  1.00  0.00    -0.248 NA
ATOM     42  C   UNL     1       8.022   9.881  -5.263  1.00  0.00     0.031 C 
ATOM     43  C   UNL     1       8.957   4.951  -5.665  1.00  0.00     0.029 A 
ATOM     44  N   UNL     1       9.471   6.229  -7.424  1.00  0.00    -0.354 N 
ATOM     45  C   UNL     1       8.402  10.455  -7.441  1.00  0.00     0.074 A 
ATOM     46  C   UNL     1       7.897  10.860  -6.147  1.00  0.00     0.031 C 
ATOM     47  C   UNL     1       9.421   4.139  -6.627  1.00  0.00     0.029 A 
ATOM     48  C   UNL     1       9.719   4.932  -7.813  1.00  0.00     0.049 A 
ATOM     49  H   UNL     1       9.641   7.008  -8.003  1.00  0.00     0.167 HD
ATOM     50  C   UNL     1       8.522  11.282  -8.506  1.00  0.00     0.034 A 
ATOM     51  C   UNL     1      10.122   4.438  -9.000  1.00  0.00     0.034 A 
ATOM     52  C   UNL     1       9.112  10.880  -9.753  1.00  0.00     0.049 A 
ATOM     53  C   UNL     1      10.376   5.401 -10.127  1.00  0.00     0.074 A 
ATOM     54  C   UNL     1       9.401  11.654 -10.862  1.00  0.00     0.029 A 
ATOM     55  N   UNL     1       9.523   9.587 -10.047  1.00  0.00    -0.354 N 
ATOM     56  N   UNL     1      10.181   6.698 -10.160  1.00  0.00    -0.248 NA
ATOM     57  C   UNL     1      10.939   4.846 -11.365  1.00  0.00     0.031 C 
ATOM     58  C   UNL     1       9.988  10.828 -11.826  1.00  0.00     0.029 A 
ATOM     59  C   UNL     1      10.075   9.542 -11.313  1.00  0.00     0.049 A 
ATOM     60  H   UNL     1       9.434   8.815  -9.443  1.00  0.00     0.167 HD
ATOM     61  C   UNL     1      10.628   7.120 -11.405  1.00  0.00     0.074 A 
ATOM     62  C   UNL     1      11.122   5.942 -12.091  1.00  0.00     0.031 C 
ATOM     63  C   UNL     1      10.616   8.364 -11.943  1.00  0.00     0.034 A 
BRANCH  50  64
ATOM     64  C   UNL     1       8.073  12.712  -8.343  1.00  0.00     0.023 A 
ATOM     65  C   UNL     1       8.806  13.581  -7.508  1.00  0.00     0.012 A 
ATOM     66  C   UNL     1       6.951  13.210  -9.036  1.00  0.00     0.148 A 
ATOM     67  C   UNL     1       8.406  14.904  -7.327  1.00  0.00     0.002 A 
ATOM     68  C   UNL     1       6.585  14.544  -8.887  1.00  0.00     0.091 A 
ATOM     69  F   UNL     1       6.252  12.369  -9.812  1.00  0.00    -0.205 F 
ATOM     70  C   UNL     1       7.302  15.387  -8.022  1.00  0.00     0.022 A 
BRANCH  68  71
ATOM     71  S   UNL     1       5.225  15.287  -9.797  1.00  0.00     0.127 S 
ATOM     72  O   UNL     1       4.231  15.476  -8.741  1.00  0.00    -0.237 OA
ATOM     73  O   UNL     1       5.827  16.525 -10.294  1.00  0.00    -0.237 OA
ATOM     74  O   UNL     1       4.864  14.329 -10.832  1.00  0.00    -0.744 OA
ENDBRANCH  68  71
ENDBRANCH  50  64
BRANCH  51  75
ATOM     75  C   UNL     1      10.395   2.979  -9.143  1.00  0.00     0.023 A 
ATOM     76  C   UNL     1      11.732   2.542  -9.221  1.00  0.00     0.012 A 
ATOM     77  C   UNL     1       9.362   2.021  -9.136  1.00  0.00     0.148 A 
ATOM     78  C   UNL     1      12.036   1.183  -9.315  1.00  0.00     0.002 A 
ATOM     79  C   UNL     1       9.674   0.665  -9.179  1.00  0.00     0.091 A 
ATOM     80  F   UNL     1       8.095   2.453  -9.071  1.00  0.00    -0.205 F 
ATOM     81  C   UNL     1      11.009   0.245  -9.283  1.00  0.00     0.022 A 
BRANCH  79  82
ATOM     82  S   UNL     1       8.423  -0.614  -9.005  1.00  0.00     0.127 S 
ATOM     83  O   UNL     1       8.298  -1.101 -10.376  1.00  0.00    -0.237 OA
ATOM     84  O   UNL     1       9.064  -1.547  -8.077  1.00  0.00    -0.237 OA
ATOM     85  O   UNL     1       7.252   0.060  -8.459  1.00  0.00    -0.744 OA
ENDBRANCH  79  82
ENDBRANCH  51  75
BRANCH  63  86
ATOM     86  C   UNL     1      11.187   8.530 -13.323  1.00  0.00     0.023 A 
ATOM     87  C   UNL     1      10.441   8.107 -14.440  1.00  0.00     0.012 A 
ATOM     88  C   UNL     1      12.414   9.195 -13.515  1.00  0.00     0.148 A 
ATOM     89  C   UNL     1      10.919   8.325 -15.731  1.00  0.00     0.002 A 
ATOM     90  C   UNL     1      12.862   9.448 -14.805  1.00  0.00     0.091 A 
ATOM     91  F   UNL     1      13.115   9.569 -12.435  1.00  0.00    -0.205 F 
ATOM     92  C   UNL     1      12.121   9.007 -15.913  1.00  0.00     0.022 A 
BRANCH  90  93
ATOM     93  S   UNL     1      14.347  10.404 -15.132  1.00  0.00     0.127 S 
ATOM     94  O   UNL     1      15.284   9.363 -15.553  1.00  0.00    -0.237 OA
ATOM     95  O   UNL     1      13.911  11.302 -16.202  1.00  0.00    -0.237 OA
ATOM     96  O   UNL     1      14.675  11.074 -13.881  1.00  0.00    -0.744 OA
ENDBRANCH  90  93
ENDBRANCH  63  86
ENDBRANCH  37  38
ENDBRANCH  29  32
ENDBRANCH  27  28
ENDBRANCH   1  27
TORSDOF 17
