REMARK SMILES O=C(NCCCNC(=O)[C@H](CCO)NC(=O)c1cccc(C(F)(F)F)c1F)c1ccc(-c2c3nc(c(-c4cccc(S(=O)(=O)[O-])c4F)c4ccc([nH]4)c(-c4cccc(S(=O)(=O)[O-])c4F)c4nc(c(-c5cccc(S(=O)(=O)[O-])c5F)c5ccc2[nH]5)C=C4)C=C3)cc1
REMARK SMILES IDX 5 1 4 2 3 3 1 4 2 5 28 7 29 8 90 9 30 10 89 11 31 12 32 13
REMARK SMILES IDX 33 14 83 15 34 16 88 17 82 18 84 19 35 20 87 21 81 22 80 23
REMARK SMILES IDX 36 25 68 26 48 27 67 28 49 29 52 30 66 31 85 32 50 33 51 34
REMARK SMILES IDX 65 36 86 37 53 38 37 39 38 40 46 41 39 42 41 43 47 44 40 45
REMARK SMILES IDX 42 46 43 47 44 48 45 49 69 50 70 51 78 52 71 53 73 54 79 55
REMARK SMILES IDX 72 56 74 57 75 58 76 59 77 60 54 61 55 62 63 63 56 64 58 65
REMARK SMILES IDX 64 66 57 67 59 68 60 69 61 70 62 71 6 72 7 73 8 74 9 76
REMARK SMILES IDX 10 77 14 78 15 79 16 81 17 82 18 83 26 84 19 85 21 86 27 87
REMARK SMILES IDX 20 88 22 89 23 90 24 91 25 92 11 93 12 94 13 95
REMARK H PARENT 3 6 84 24 52 35 7 75 14 80 13 96
REMARK Flexibility Score: inf
ROOT
ATOM      1  C   UNL     1       7.795  -0.680   2.479  1.00  0.00     0.042 C 
ENDROOT
BRANCH   1   2
ATOM      2  C   UNL     1       8.375   0.074   1.292  1.00  0.00     0.118 C 
BRANCH   2   3
ATOM      3  N   UNL     1       9.730  -0.366   1.002  1.00  0.00    -0.352 N 
ATOM      4  O   UNL     1      11.309  -1.617   0.012  1.00  0.00    -0.269 OA
ATOM      5  C   UNL     1      10.203  -1.090  -0.069  1.00  0.00     0.251 C 
ATOM      6  H   UNL     1      10.408  -0.109   1.668  1.00  0.00     0.163 HD
BRANCH   5   7
ATOM      7  C   UNL     1       9.386  -1.241  -1.297  1.00  0.00     0.039 A 
ATOM      8  C   UNL     1       8.599  -0.187  -1.766  1.00  0.00     0.014 A 
ATOM      9  C   UNL     1       9.450  -2.434  -2.025  1.00  0.00     0.014 A 
ATOM     10  C   UNL     1       7.775  -0.368  -2.870  1.00  0.00     0.010 A 
ATOM     11  C   UNL     1       8.706  -2.574  -3.201  1.00  0.00     0.010 A 
ATOM     12  C   UNL     1       7.852  -1.546  -3.627  1.00  0.00    -0.014 A 
BRANCH  12  13
ATOM     13  C   UNL     1       7.131  -1.623  -4.924  1.00  0.00     0.031 A 
ATOM     14  C   UNL     1       6.070  -2.657  -5.172  1.00  0.00     0.074 A 
ATOM     15  C   UNL     1       7.457  -0.734  -5.886  1.00  0.00     0.049 A 
ATOM     16  N   UNL     1       5.378  -2.873  -6.260  1.00  0.00    -0.248 NA
ATOM     17  C   UNL     1       5.742  -3.569  -4.064  1.00  0.00     0.031 C 
ATOM     18  C   UNL     1       8.488   0.303  -5.760  1.00  0.00     0.029 A 
ATOM     19  N   UNL     1       6.965  -0.551  -7.152  1.00  0.00    -0.354 N 
ATOM     20  C   UNL     1       4.556  -3.959  -5.985  1.00  0.00     0.074 A 
ATOM     21  C   UNL     1       4.840  -4.367  -4.626  1.00  0.00     0.031 C 
ATOM     22  C   UNL     1       8.523   1.034  -6.881  1.00  0.00     0.029 A 
ATOM     23  C   UNL     1       7.578   0.474  -7.837  1.00  0.00     0.049 A 
ATOM     24  H   UNL     1       6.242  -1.099  -7.535  1.00  0.00     0.167 HD
ATOM     25  C   UNL     1       3.640  -4.547  -6.790  1.00  0.00     0.034 A 
ATOM     26  C   UNL     1       7.421   0.901  -9.104  1.00  0.00     0.034 A 
ATOM     27  C   UNL     1       3.351  -4.114  -8.132  1.00  0.00     0.049 A 
ATOM     28  C   UNL     1       6.413   0.210  -9.975  1.00  0.00     0.074 A 
ATOM     29  C   UNL     1       2.422  -4.632  -9.018  1.00  0.00     0.029 A 
ATOM     30  N   UNL     1       3.980  -3.064  -8.784  1.00  0.00    -0.354 N 
ATOM     31  N   UNL     1       5.593  -0.766  -9.668  1.00  0.00    -0.248 NA
ATOM     32  C   UNL     1       6.292   0.688 -11.358  1.00  0.00     0.031 C 
ATOM     33  C   UNL     1       2.507  -3.912 -10.213  1.00  0.00     0.029 A 
ATOM     34  C   UNL     1       3.463  -2.921 -10.060  1.00  0.00     0.049 A 
ATOM     35  H   UNL     1       4.690  -2.503  -8.396  1.00  0.00     0.167 HD
ATOM     36  C   UNL     1       4.837  -0.998 -10.809  1.00  0.00     0.074 A 
ATOM     37  C   UNL     1       5.279  -0.042 -11.804  1.00  0.00     0.031 C 
ATOM     38  C   UNL     1       3.876  -1.929 -11.019  1.00  0.00     0.034 A 
BRANCH  25  39
ATOM     39  C   UNL     1       2.836  -5.700  -6.243  1.00  0.00     0.023 A 
ATOM     40  C   UNL     1       1.804  -5.446  -5.319  1.00  0.00     0.012 A 
ATOM     41  C   UNL     1       3.010  -7.006  -6.744  1.00  0.00     0.148 A 
ATOM     42  C   UNL     1       0.963  -6.474  -4.893  1.00  0.00     0.002 A 
ATOM     43  C   UNL     1       2.141  -8.017  -6.348  1.00  0.00     0.091 A 
ATOM     44  F   UNL     1       4.006  -7.229  -7.613  1.00  0.00    -0.205 F 
ATOM     45  C   UNL     1       1.122  -7.754  -5.417  1.00  0.00     0.022 A 
BRANCH  43  46
ATOM     46  S   UNL     1       2.205  -9.680  -7.025  1.00  0.00     0.127 S 
ATOM     47  O   UNL     1       2.537 -10.469  -5.838  1.00  0.00    -0.237 OA
ATOM     48  O   UNL     1       0.839  -9.862  -7.515  1.00  0.00    -0.237 OA
ATOM     49  O   UNL     1       3.231  -9.658  -8.057  1.00  0.00    -0.744 OA
ENDBRANCH  43  46
ENDBRANCH  25  39
BRANCH  26  50
ATOM     50  C   UNL     1       8.211   2.062  -9.604  1.00  0.00     0.023 A 
ATOM     51  C   UNL     1       7.550   3.266  -9.914  1.00  0.00     0.012 A 
ATOM     52  C   UNL     1       9.613   1.997  -9.736  1.00  0.00     0.148 A 
ATOM     53  C   UNL     1       8.265   4.373 -10.373  1.00  0.00     0.002 A 
ATOM     54  C   UNL     1      10.325   3.122 -10.131  1.00  0.00     0.091 A 
ATOM     55  F   UNL     1      10.225   0.839  -9.450  1.00  0.00    -0.205 F 
ATOM     56  C   UNL     1       9.652   4.306 -10.469  1.00  0.00     0.022 A 
BRANCH  54  57
ATOM     57  S   UNL     1      12.121   3.170 -10.139  1.00  0.00     0.127 S 
ATOM     58  O   UNL     1      12.413   3.195 -11.570  1.00  0.00    -0.237 OA
ATOM     59  O   UNL     1      12.393   4.422  -9.432  1.00  0.00    -0.237 OA
ATOM     60  O   UNL     1      12.549   1.975  -9.425  1.00  0.00    -0.744 OA
ENDBRANCH  54  57
ENDBRANCH  26  50
BRANCH  38  61
ATOM     61  C   UNL     1       3.200  -1.944 -12.365  1.00  0.00     0.023 A 
ATOM     62  C   UNL     1       3.901  -2.404 -13.496  1.00  0.00     0.012 A 
ATOM     63  C   UNL     1       1.843  -1.585 -12.488  1.00  0.00     0.148 A 
ATOM     64  C   UNL     1       3.270  -2.480 -14.737  1.00  0.00     0.002 A 
ATOM     65  C   UNL     1       1.206  -1.716 -13.715  1.00  0.00     0.091 A 
ATOM     66  F   UNL     1       1.201  -1.132 -11.402  1.00  0.00    -0.205 F 
ATOM     67  C   UNL     1       1.921  -2.150 -14.843  1.00  0.00     0.022 A 
BRANCH  65  68
ATOM     68  S   UNL     1      -0.553  -1.419 -13.924  1.00  0.00     0.127 S 
ATOM     69  O   UNL     1      -0.554  -0.191 -14.718  1.00  0.00    -0.237 OA
ATOM     70  O   UNL     1      -0.984  -2.615 -14.648  1.00  0.00    -0.237 OA
ATOM     71  O   UNL     1      -1.102  -1.292 -12.581  1.00  0.00    -0.744 OA
ENDBRANCH  65  68
ENDBRANCH  38  61
ENDBRANCH  12  13
ENDBRANCH   5   7
ENDBRANCH   2   3
ENDBRANCH   1   2
BRANCH   1  72
ATOM     72  C   UNL     1       8.260  -0.123   3.823  1.00  0.00     0.117 C 
BRANCH  72  73
ATOM     73  N   UNL     1       7.432   1.004   4.191  1.00  0.00    -0.354 N 
ATOM     74  C   UNL     1       6.288   1.061   4.924  1.00  0.00     0.242 C 
ATOM     75  H   UNL     1       7.749   1.874   3.857  1.00  0.00     0.163 HD
ATOM     76  O   UNL     1       5.596   2.075   4.769  1.00  0.00    -0.273 OA
BRANCH  74  77
ATOM     77  C   UNL     1       5.877  -0.048   5.931  1.00  0.00     0.173 C 
BRANCH  77  78
ATOM     78  N   UNL     1       4.953   0.677   6.841  1.00  0.00    -0.340 N 
ATOM     79  C   UNL     1       4.839   0.710   8.197  1.00  0.00     0.254 C 
ATOM     80  H   UNL     1       4.297   1.243   6.374  1.00  0.00     0.164 HD
ATOM     81  O   UNL     1       3.866   1.238   8.735  1.00  0.00    -0.269 OA
BRANCH  79  82
ATOM     82  C   UNL     1       5.866   0.099   9.044  1.00  0.00     0.076 A 
ATOM     83  C   UNL     1       5.473  -0.787  10.050  1.00  0.00     0.017 A 
ATOM     84  C   UNL     1       7.206   0.462   8.908  1.00  0.00     0.148 A 
ATOM     85  C   UNL     1       6.437  -1.351  10.883  1.00  0.00     0.002 A 
ATOM     86  C   UNL     1       8.183  -0.115   9.713  1.00  0.00     0.092 A 
ATOM     87  F   UNL     1       7.560   1.373   7.990  1.00  0.00    -0.205 F 
ATOM     88  C   UNL     1       7.785  -1.025  10.709  1.00  0.00     0.016 A 
BRANCH  86  89
ATOM     89  C   UNL     1       9.632   0.219   9.520  1.00  0.00     0.419 C 
ATOM     90  F   UNL     1      10.162   0.868  10.594  1.00  0.00    -0.166 F 
ATOM     91  F   UNL     1      10.389  -0.904   9.358  1.00  0.00    -0.166 F 
ATOM     92  F   UNL     1       9.906   0.997   8.439  1.00  0.00    -0.166 F 
ENDBRANCH  86  89
ENDBRANCH  79  82
ENDBRANCH  77  78
BRANCH  77  93
ATOM     93  C   UNL     1       5.084  -1.232   5.361  1.00  0.00     0.063 C 
BRANCH  93  94
ATOM     94  C   UNL     1       5.870  -2.426   4.842  1.00  0.00     0.158 C 
BRANCH  94  95
ATOM     95  O   UNL     1       6.758  -2.924   5.830  1.00  0.00    -0.396 OA
ATOM     96  H   UNL     1       7.392  -2.231   6.074  1.00  0.00     0.210 HD
ENDBRANCH  94  95
ENDBRANCH  93  94
ENDBRANCH  77  93
ENDBRANCH  74  77
ENDBRANCH  72  73
ENDBRANCH   1  72
TORSDOF 19
