REMARK SMILES CC(C)(C)c1cc(Nc2ccccc2C(=O)NCCCNC(=O)c2ccc(-c3c4nc(c(-c5cccc(S(=O)(=O)[O-])c5F)c5ccc([nH]5)c(-c5cccc(S(=O)(=O)[O-])c5F)c5nc(c(-c6cccc(S(=O)(=O)[O-])c6F)c6ccc3[nH]6)C=C5)C=C4)cc2)cc2c1OCC2(C)C
REMARK SMILES IDX 19 1 18 2 17 3 15 4 16 5 14 7 9 8 10 9 11 10 13 11 12 12
REMARK SMILES IDX 8 13 7 15 5 16 6 17 89 18 88 19 90 20 87 21 92 22 91 23
REMARK SMILES IDX 93 24 94 25 2 26 1 27 3 28 4 29 20 30 21 31 22 32 23 34
REMARK SMILES IDX 24 35 25 36 86 37 26 38 85 39 27 40 28 41 29 42 79 43 30 44
REMARK SMILES IDX 84 45 78 46 80 47 31 48 83 49 77 50 76 51 32 53 64 54 44 55
REMARK SMILES IDX 63 56 45 57 48 58 62 59 81 60 46 61 47 62 61 64 82 65 49 66
REMARK SMILES IDX 33 67 34 68 42 69 35 70 37 71 43 72 36 73 38 74 39 75 40 76
REMARK SMILES IDX 41 77 65 78 66 79 74 80 67 81 69 82 75 83 68 84 70 85 71 86
REMARK SMILES IDX 72 87 73 88 50 89 51 90 59 91 52 92 54 93 60 94 53 95 55 96
REMARK SMILES IDX 56 97 57 98 58 99
REMARK H PARENT 17 6 8 14 21 33 80 52 48 63
REMARK Flexibility Score: inf
ROOT
ATOM      1  C   UNL     1      -2.371   4.248   0.924  1.00  0.00     0.042 C 
ENDROOT
BRANCH   1   2
ATOM      2  C   UNL     1      -1.661   5.223  -0.013  1.00  0.00     0.118 C 
BRANCH   2   3
ATOM      3  N   UNL     1      -2.271   6.526  -0.158  1.00  0.00    -0.352 N 
ATOM      4  C   UNL     1      -1.740   7.766  -0.394  1.00  0.00     0.253 C 
ATOM      5  O   UNL     1      -2.560   8.688  -0.492  1.00  0.00    -0.269 OA
ATOM      6  H   UNL     1      -3.251   6.520  -0.070  1.00  0.00     0.163 HD
BRANCH   4   7
ATOM      7  C   UNL     1      -0.290   8.120  -0.490  1.00  0.00     0.063 A 
ATOM      8  C   UNL     1       0.746   7.442  -1.165  1.00  0.00     0.051 A 
ATOM      9  C   UNL     1       2.012   8.072  -1.261  1.00  0.00     0.027 A 
ATOM     10  C   UNL     1       2.282   9.302  -0.665  1.00  0.00     0.002 A 
ATOM     11  C   UNL     1       0.010   9.370   0.109  1.00  0.00     0.016 A 
ATOM     12  C   UNL     1       1.280   9.946   0.039  1.00  0.00     0.001 A 
BRANCH   8  13
ATOM     13  N   UNL     1       0.669   6.121  -1.659  1.00  0.00    -0.355 N 
ATOM     14  H   UNL     1       0.109   5.968  -2.454  1.00  0.00     0.167 HD
BRANCH  13  15
ATOM     15  C   UNL     1       1.334   4.996  -1.100  1.00  0.00     0.039 A 
ATOM     16  C   UNL     1       1.477   2.523  -0.869  1.00  0.00     0.002 A 
ATOM     17  C   UNL     1       1.001   3.692  -1.526  1.00  0.00     0.034 A 
ATOM     18  C   UNL     1       2.374   2.737   0.176  1.00  0.00     0.127 A 
ATOM     19  C   UNL     1       2.766   4.008   0.564  1.00  0.00     0.006 A 
ATOM     20  O   UNL     1       2.945   1.762   0.946  1.00  0.00    -0.492 OA
ATOM     21  C   UNL     1       2.254   5.134  -0.055  1.00  0.00     0.034 A 
ATOM     22  C   UNL     1       3.724   3.949   1.706  1.00  0.00     0.028 C 
ATOM     23  C   UNL     1       3.862   2.422   1.843  1.00  0.00     0.240 C 
ATOM     24  C   UNL     1       5.061   4.606   1.350  1.00  0.00     0.020 C 
ATOM     25  C   UNL     1       3.143   4.579   2.977  1.00  0.00     0.020 C 
BRANCH  16  26
ATOM     26  C   UNL     1       0.966   1.140  -1.307  1.00  0.00    -0.009 C 
ATOM     27  C   UNL     1       1.445  -0.052  -0.449  1.00  0.00     0.016 C 
ATOM     28  C   UNL     1       1.409   0.862  -2.757  1.00  0.00     0.016 C 
ATOM     29  C   UNL     1      -0.575   1.115  -1.240  1.00  0.00     0.016 C 
ENDBRANCH  16  26
ENDBRANCH  13  15
ENDBRANCH   8  13
ENDBRANCH   4   7
ENDBRANCH   2   3
ENDBRANCH   1   2
BRANCH   1  30
ATOM     30  C   UNL     1      -3.840   3.987   0.614  1.00  0.00     0.118 C 
BRANCH  30  31
ATOM     31  N   UNL     1      -4.090   3.198  -0.583  1.00  0.00    -0.352 N 
ATOM     32  C   UNL     1      -4.167   1.855  -0.869  1.00  0.00     0.251 C 
ATOM     33  H   UNL     1      -4.241   3.760  -1.377  1.00  0.00     0.163 HD
ATOM     34  O   UNL     1      -4.449   1.560  -2.033  1.00  0.00    -0.269 OA
BRANCH  32  35
ATOM     35  C   UNL     1      -3.864   0.757   0.096  1.00  0.00     0.039 A 
ATOM     36  C   UNL     1      -3.904   0.892   1.477  1.00  0.00     0.014 A 
ATOM     37  C   UNL     1      -3.508  -0.501  -0.429  1.00  0.00     0.014 A 
ATOM     38  C   UNL     1      -3.441  -0.130   2.306  1.00  0.00     0.010 A 
ATOM     39  C   UNL     1      -3.121  -1.562   0.407  1.00  0.00     0.010 A 
ATOM     40  C   UNL     1      -3.042  -1.371   1.787  1.00  0.00    -0.014 A 
BRANCH  40  41
ATOM     41  C   UNL     1      -2.617  -2.429   2.745  1.00  0.00     0.031 A 
ATOM     42  C   UNL     1      -1.206  -2.948   2.784  1.00  0.00     0.074 A 
ATOM     43  C   UNL     1      -3.503  -2.840   3.676  1.00  0.00     0.049 A 
ATOM     44  N   UNL     1      -0.627  -3.670   3.710  1.00  0.00    -0.248 NA
ATOM     45  C   UNL     1      -0.330  -2.622   1.650  1.00  0.00     0.031 C 
ATOM     46  C   UNL     1      -4.915  -2.451   3.713  1.00  0.00     0.029 A 
ATOM     47  N   UNL     1      -3.345  -3.623   4.792  1.00  0.00    -0.354 N 
ATOM     48  C   UNL     1       0.672  -3.892   3.267  1.00  0.00     0.074 A 
ATOM     49  C   UNL     1       0.797  -3.240   1.983  1.00  0.00     0.031 C 
ATOM     50  C   UNL     1      -5.470  -2.922   4.838  1.00  0.00     0.029 A 
ATOM     51  C   UNL     1      -4.471  -3.686   5.579  1.00  0.00     0.049 A 
ATOM     52  H   UNL     1      -2.507  -4.094   5.007  1.00  0.00     0.167 HD
ATOM     53  C   UNL     1       1.673  -4.559   3.887  1.00  0.00     0.034 A 
ATOM     54  C   UNL     1      -4.681  -4.272   6.774  1.00  0.00     0.034 A 
ATOM     55  C   UNL     1       1.556  -5.183   5.177  1.00  0.00     0.049 A 
ATOM     56  C   UNL     1      -3.552  -4.994   7.446  1.00  0.00     0.074 A 
ATOM     57  C   UNL     1       2.538  -5.831   5.907  1.00  0.00     0.029 A 
ATOM     58  N   UNL     1       0.391  -5.249   5.923  1.00  0.00    -0.354 N 
ATOM     59  N   UNL     1      -2.299  -5.077   7.074  1.00  0.00    -0.248 NA
ATOM     60  C   UNL     1      -3.857  -5.695   8.701  1.00  0.00     0.031 C 
ATOM     61  C   UNL     1       1.962  -6.303   7.089  1.00  0.00     0.029 A 
ATOM     62  C   UNL     1       0.623  -5.944   7.096  1.00  0.00     0.049 A 
ATOM     63  H   UNL     1      -0.474  -4.860   5.657  1.00  0.00     0.167 HD
ATOM     64  C   UNL     1      -1.664  -5.839   8.046  1.00  0.00     0.074 A 
ATOM     65  C   UNL     1      -2.665  -6.173   9.038  1.00  0.00     0.031 C 
ATOM     66  C   UNL     1      -0.371  -6.240   8.094  1.00  0.00     0.034 A 
BRANCH  53  67
ATOM     67  C   UNL     1       3.019  -4.610   3.219  1.00  0.00     0.023 A 
ATOM     68  C   UNL     1       3.888  -3.509   3.351  1.00  0.00     0.012 A 
ATOM     69  C   UNL     1       3.473  -5.782   2.583  1.00  0.00     0.148 A 
ATOM     70  C   UNL     1       5.191  -3.572   2.860  1.00  0.00     0.002 A 
ATOM     71  C   UNL     1       4.782  -5.846   2.116  1.00  0.00     0.091 A 
ATOM     72  F   UNL     1       2.624  -6.812   2.463  1.00  0.00    -0.205 F 
ATOM     73  C   UNL     1       5.640  -4.742   2.253  1.00  0.00     0.022 A 
BRANCH  71  74
ATOM     74  S   UNL     1       5.479  -7.321   1.364  1.00  0.00     0.127 S 
ATOM     75  O   UNL     1       5.725  -6.866  -0.004  1.00  0.00    -0.237 OA
ATOM     76  O   UNL     1       6.687  -7.531   2.163  1.00  0.00    -0.237 OA
ATOM     77  O   UNL     1       4.468  -8.360   1.498  1.00  0.00    -0.744 OA
ENDBRANCH  71  74
ENDBRANCH  53  67
BRANCH  54  78
ATOM     78  C   UNL     1      -6.014  -4.128   7.420  1.00  0.00     0.023 A 
ATOM     79  C   UNL     1      -6.164  -3.249   8.508  1.00  0.00     0.012 A 
ATOM     80  C   UNL     1      -7.150  -4.761   6.880  1.00  0.00     0.148 A 
ATOM     81  C   UNL     1      -7.428  -2.995   9.043  1.00  0.00     0.002 A 
ATOM     82  C   UNL     1      -8.410  -4.464   7.383  1.00  0.00     0.091 A 
ATOM     83  F   UNL     1      -6.976  -5.603   5.852  1.00  0.00    -0.205 F 
ATOM     84  C   UNL     1      -8.551  -3.589   8.470  1.00  0.00     0.022 A 
BRANCH  82  85
ATOM     85  S   UNL     1      -9.918  -5.068   6.616  1.00  0.00     0.127 S 
ATOM     86  O   UNL     1     -10.417  -5.994   7.628  1.00  0.00    -0.237 OA
ATOM     87  O   UNL     1     -10.694  -3.837   6.468  1.00  0.00    -0.237 OA
ATOM     88  O   UNL     1      -9.505  -5.672   5.356  1.00  0.00    -0.744 OA
ENDBRANCH  82  85
ENDBRANCH  54  78
BRANCH  66  89
ATOM     89  C   UNL     1       0.061  -7.107   9.241  1.00  0.00     0.023 A 
ATOM     90  C   UNL     1      -0.191  -8.491   9.180  1.00  0.00     0.012 A 
ATOM     91  C   UNL     1       0.847  -6.585  10.285  1.00  0.00     0.148 A 
ATOM     92  C   UNL     1       0.338  -9.347  10.144  1.00  0.00     0.002 A 
ATOM     93  C   UNL     1       1.396  -7.447  11.226  1.00  0.00     0.091 A 
ATOM     94  F   UNL     1       1.069  -5.263  10.315  1.00  0.00    -0.205 F 
ATOM     95  C   UNL     1       1.141  -8.828  11.158  1.00  0.00     0.022 A 
BRANCH  93  96
ATOM     96  S   UNL     1       2.502  -6.890  12.526  1.00  0.00     0.127 S 
ATOM     97  O   UNL     1       1.763  -7.269  13.730  1.00  0.00    -0.237 OA
ATOM     98  O   UNL     1       3.702  -7.686  12.270  1.00  0.00    -0.237 OA
ATOM     99  O   UNL     1       2.665  -5.455  12.334  1.00  0.00    -0.744 OA
ENDBRANCH  93  96
ENDBRANCH  66  89
ENDBRANCH  40  41
ENDBRANCH  32  35
ENDBRANCH  30  31
ENDBRANCH   1  30
TORSDOF 16
