REMARK SMILES CC(C)COc1cccc(N2C[C@@H](C(=O)NCCCNC(=O)c3ccc(-c4c5nc(c(-c6cccc(S(=O)(=O)[O-])c6F)c6ccc([nH]6)c(-c6cccc(S(=O)(=O)[O-])c6F)c6nc(c(-c7cccc(S(=O)(=O)[O-])c7F)c7ccc4[nH]7)C=C6)C=C5)cc3)CC2=O)c1
REMARK SMILES IDX 17 1 16 2 14 3 15 4 13 6 11 7 12 8 87 9 86 10 88 11 10 12
REMARK SMILES IDX 6 13 7 14 89 15 8 16 9 17 5 18 4 19 2 20 1 21 3 22 18 23
REMARK SMILES IDX 19 24 20 25 21 26 22 28 23 29 24 30 85 31 25 32 84 33 26 34
REMARK SMILES IDX 27 35 28 36 78 37 29 38 83 39 77 40 79 41 30 42 82 43 76 44
REMARK SMILES IDX 75 45 31 47 63 48 43 49 62 50 44 51 47 52 61 53 80 54 45 55
REMARK SMILES IDX 46 56 60 58 81 59 48 60 32 61 33 62 41 63 34 64 36 65 42 66
REMARK SMILES IDX 35 67 37 68 38 69 39 70 40 71 64 72 65 73 73 74 66 75 68 76
REMARK SMILES IDX 74 77 67 78 69 79 70 80 71 81 72 82 49 83 50 84 58 85 51 86
REMARK SMILES IDX 53 87 59 88 52 89 54 90 55 91 56 92 57 93
REMARK H PARENT 16 5 20 27 79 46 47 57
REMARK Flexibility Score: inf
ROOT
ATOM      1  C   UNL     1       4.191   2.502  -0.544  1.00  0.00     0.117 C 
ENDROOT
BRANCH   1   2
ATOM      2  N   UNL     1       4.774   3.187  -1.686  1.00  0.00    -0.356 N 
ATOM      3  C   UNL     1       4.681   2.975  -3.024  1.00  0.00     0.225 C 
ATOM      4  O   UNL     1       5.228   3.805  -3.758  1.00  0.00    -0.275 OA
ATOM      5  H   UNL     1       5.345   3.950  -1.443  1.00  0.00     0.163 HD
BRANCH   3   6
ATOM      6  C   UNL     1       3.931   1.816  -3.649  1.00  0.00     0.107 C 
ATOM      7  N   UNL     1       1.992   0.527  -3.320  1.00  0.00    -0.311 N 
ATOM      8  C   UNL     1       2.428   1.897  -3.461  1.00  0.00     0.139 C 
ATOM      9  C   UNL     1       3.062  -0.347  -3.128  1.00  0.00     0.227 C 
ATOM     10  C   UNL     1       4.345   0.435  -3.174  1.00  0.00     0.116 C 
ATOM     11  O   UNL     1       3.026  -1.556  -2.941  1.00  0.00    -0.274 OA
BRANCH   7  12
ATOM     12  C   UNL     1       0.630   0.212  -3.080  1.00  0.00     0.047 A 
ATOM     13  C   UNL     1      -0.986  -0.796  -1.601  1.00  0.00     0.121 A 
ATOM     14  C   UNL     1      -2.024  -0.097  -2.204  1.00  0.00     0.046 A 
ATOM     15  C   UNL     1       0.304  -0.746  -2.120  1.00  0.00     0.072 A 
ATOM     16  C   UNL     1      -1.734   0.760  -3.264  1.00  0.00     0.006 A 
ATOM     17  C   UNL     1      -0.406   0.955  -3.662  1.00  0.00     0.026 A 
BRANCH  13  18
ATOM     18  O   UNL     1      -1.202  -1.511  -0.455  1.00  0.00    -0.493 OA
BRANCH  18  19
ATOM     19  C   UNL     1      -0.965  -0.708   0.727  1.00  0.00     0.232 C 
BRANCH  19  20
ATOM     20  C   UNL     1       0.524  -0.649   1.144  1.00  0.00     0.020 C 
ATOM     21  C   UNL     1       1.203   0.659   0.714  1.00  0.00     0.011 C 
ATOM     22  C   UNL     1       0.681  -0.752   2.664  1.00  0.00     0.011 C 
ENDBRANCH  19  20
ENDBRANCH  18  19
ENDBRANCH  13  18
ENDBRANCH   7  12
ENDBRANCH   3   6
ENDBRANCH   1   2
BRANCH   1  23
ATOM     23  C   UNL     1       5.229   1.821   0.345  1.00  0.00     0.042 C 
BRANCH  23  24
ATOM     24  C   UNL     1       6.234   2.757   1.012  1.00  0.00     0.118 C 
BRANCH  24  25
ATOM     25  N   UNL     1       5.616   3.701   1.932  1.00  0.00    -0.352 N 
ATOM     26  C   UNL     1       5.787   3.881   3.284  1.00  0.00     0.251 C 
ATOM     27  H   UNL     1       4.967   4.314   1.516  1.00  0.00     0.163 HD
ATOM     28  O   UNL     1       5.026   4.641   3.880  1.00  0.00    -0.269 OA
BRANCH  26  29
ATOM     29  C   UNL     1       6.848   3.167   4.034  1.00  0.00     0.039 A 
ATOM     30  C   UNL     1       6.556   2.696   5.319  1.00  0.00     0.014 A 
ATOM     31  C   UNL     1       8.131   2.988   3.512  1.00  0.00     0.014 A 
ATOM     32  C   UNL     1       7.523   1.991   6.043  1.00  0.00     0.010 A 
ATOM     33  C   UNL     1       9.066   2.212   4.199  1.00  0.00     0.010 A 
ATOM     34  C   UNL     1       8.775   1.705   5.473  1.00  0.00    -0.014 A 
BRANCH  34  35
ATOM     35  C   UNL     1       9.762   0.850   6.189  1.00  0.00     0.031 A 
ATOM     36  C   UNL     1      11.116   1.383   6.578  1.00  0.00     0.074 A 
ATOM     37  C   UNL     1       9.458  -0.441   6.434  1.00  0.00     0.049 A 
ATOM     38  N   UNL     1      12.092   0.773   7.202  1.00  0.00    -0.248 NA
ATOM     39  C   UNL     1      11.425   2.771   6.200  1.00  0.00     0.031 C 
ATOM     40  C   UNL     1       8.216  -1.107   6.034  1.00  0.00     0.029 A 
ATOM     41  N   UNL     1      10.175  -1.430   7.061  1.00  0.00    -0.354 N 
ATOM     42  C   UNL     1      13.137   1.688   7.266  1.00  0.00     0.074 A 
ATOM     43  C   UNL     1      12.688   2.884   6.585  1.00  0.00     0.031 C 
ATOM     44  C   UNL     1       8.251  -2.386   6.439  1.00  0.00     0.029 A 
ATOM     45  C   UNL     1       9.528  -2.644   7.096  1.00  0.00     0.049 A 
ATOM     46  H   UNL     1      11.068  -1.285   7.450  1.00  0.00     0.167 HD
ATOM     47  C   UNL     1      14.349   1.558   7.860  1.00  0.00     0.034 A 
ATOM     48  C   UNL     1       9.918  -3.834   7.592  1.00  0.00     0.034 A 
ATOM     49  C   UNL     1      14.785   0.378   8.559  1.00  0.00     0.049 A 
ATOM     50  C   UNL     1      11.256  -3.942   8.270  1.00  0.00     0.074 A 
ATOM     51  C   UNL     1      15.959   0.181   9.264  1.00  0.00     0.029 A 
ATOM     52  N   UNL     1      14.076  -0.811   8.628  1.00  0.00    -0.354 N 
ATOM     53  N   UNL     1      12.162  -3.015   8.463  1.00  0.00    -0.248 NA
ATOM     54  C   UNL     1      11.610  -5.254   8.831  1.00  0.00     0.031 C 
ATOM     55  C   UNL     1      15.976  -1.139   9.728  1.00  0.00     0.029 A 
ATOM     56  C   UNL     1      14.794  -1.752   9.349  1.00  0.00     0.049 A 
ATOM     57  H   UNL     1      13.191  -0.965   8.224  1.00  0.00     0.167 HD
ATOM     58  C   UNL     1      13.177  -3.620   9.195  1.00  0.00     0.074 A 
ATOM     59  C   UNL     1      12.758  -4.986   9.437  1.00  0.00     0.031 C 
ATOM     60  C   UNL     1      14.355  -3.098   9.617  1.00  0.00     0.034 A 
BRANCH  47  61
ATOM     61  C   UNL     1      15.281   2.744   7.817  1.00  0.00     0.023 A 
ATOM     62  C   UNL     1      14.978   3.899   8.568  1.00  0.00     0.012 A 
ATOM     63  C   UNL     1      16.486   2.693   7.088  1.00  0.00     0.148 A 
ATOM     64  C   UNL     1      15.837   4.997   8.563  1.00  0.00     0.002 A 
ATOM     65  C   UNL     1      17.361   3.773   7.128  1.00  0.00     0.091 A 
ATOM     66  F   UNL     1      16.752   1.595   6.367  1.00  0.00    -0.205 F 
ATOM     67  C   UNL     1      17.032   4.930   7.853  1.00  0.00     0.022 A 
BRANCH  65  68
ATOM     68  S   UNL     1      18.963   3.756   6.315  1.00  0.00     0.127 S 
ATOM     69  O   UNL     1      18.763   4.737   5.249  1.00  0.00    -0.237 OA
ATOM     70  O   UNL     1      19.856   4.197   7.388  1.00  0.00    -0.237 OA
ATOM     71  O   UNL     1      19.176   2.386   5.870  1.00  0.00    -0.744 OA
ENDBRANCH  65  68
ENDBRANCH  47  61
BRANCH  48  72
ATOM     72  C   UNL     1       9.005  -5.011   7.514  1.00  0.00     0.023 A 
ATOM     73  C   UNL     1       8.433  -5.527   8.694  1.00  0.00     0.012 A 
ATOM     74  C   UNL     1       8.690  -5.609   6.280  1.00  0.00     0.148 A 
ATOM     75  C   UNL     1       7.593  -6.639   8.649  1.00  0.00     0.002 A 
ATOM     76  C   UNL     1       7.805  -6.679   6.235  1.00  0.00     0.091 A 
ATOM     77  F   UNL     1       9.253  -5.109   5.170  1.00  0.00    -0.205 F 
ATOM     78  C   UNL     1       7.271  -7.209   7.420  1.00  0.00     0.022 A 
BRANCH  76  79
ATOM     79  S   UNL     1       7.229  -7.389   4.690  1.00  0.00     0.127 S 
ATOM     80  O   UNL     1       7.853  -8.709   4.717  1.00  0.00    -0.237 OA
ATOM     81  O   UNL     1       5.779  -7.387   4.882  1.00  0.00    -0.237 OA
ATOM     82  O   UNL     1       7.698  -6.489   3.645  1.00  0.00    -0.744 OA
ENDBRANCH  76  79
ENDBRANCH  48  72
BRANCH  60  83
ATOM     83  C   UNL     1      15.267  -3.996  10.413  1.00  0.00     0.023 A 
ATOM     84  C   UNL     1      15.914  -5.080   9.786  1.00  0.00     0.012 A 
ATOM     85  C   UNL     1      15.515  -3.742  11.777  1.00  0.00     0.148 A 
ATOM     86  C   UNL     1      16.753  -5.924  10.513  1.00  0.00     0.002 A 
ATOM     87  C   UNL     1      16.395  -4.554  12.482  1.00  0.00     0.091 A 
ATOM     88  F   UNL     1      14.879  -2.717  12.363  1.00  0.00    -0.205 F 
ATOM     89  C   UNL     1      17.002  -5.655  11.856  1.00  0.00     0.022 A 
BRANCH  87  90
ATOM     90  S   UNL     1      16.852  -4.227  14.188  1.00  0.00     0.127 S 
ATOM     91  O   UNL     1      16.155  -5.301  14.894  1.00  0.00    -0.237 OA
ATOM     92  O   UNL     1      18.308  -4.366  14.151  1.00  0.00    -0.237 OA
ATOM     93  O   UNL     1      16.381  -2.879  14.478  1.00  0.00    -0.744 OA
ENDBRANCH  87  90
ENDBRANCH  60  83
ENDBRANCH  34  35
ENDBRANCH  26  29
ENDBRANCH  24  25
ENDBRANCH  23  24
ENDBRANCH   1  23
TORSDOF 17
