REMARK SMILES [NH3+][C@]1(C(=O)NCCCNC(=O)c2ccc(-c3c4nc(c(-c5cccc(S(=O)(=O)[O-])c5F)c5ccc([nH]5)c(-c5cccc(S(=O)(=O)[O-])c5F)c5nc(c(-c6cccc(S(=O)(=O)[O-])c6F)c6ccc3[nH]6)C=C5)C=C4)cc2)CCC[C@@H](OC2CCC2)C1
REMARK SMILES IDX 7 1 6 2 5 3 3 4 4 5 2 7 75 8 84 9 76 10 78 11 77 12 1 13
REMARK SMILES IDX 79 17 80 18 81 19 83 20 82 21 8 22 9 23 10 24 11 26 12 27
REMARK SMILES IDX 13 28 74 29 14 30 73 31 15 32 16 33 17 34 67 35 18 36 72 37
REMARK SMILES IDX 66 38 68 39 19 40 71 41 65 42 64 43 20 45 52 46 32 47 51 48
REMARK SMILES IDX 33 49 36 50 50 51 69 52 34 53 35 54 49 56 70 57 37 58 21 59
REMARK SMILES IDX 22 60 30 61 23 62 25 63 31 64 24 65 26 66 27 67 28 68 29 69
REMARK SMILES IDX 53 70 54 71 62 72 55 73 57 74 63 75 56 76 58 77 59 78 60 79
REMARK SMILES IDX 61 80 38 81 39 82 47 83 40 84 42 85 48 86 41 87 43 88 44 89
REMARK SMILES IDX 45 90 46 91
REMARK H PARENT 5 6 1 14 1 15 1 16 9 25 68 44 36 55
REMARK Flexibility Score: inf
ROOT
ATOM      1  C   UNL     1      -1.864   3.397  -2.196  1.00  0.00     0.042 C 
ENDROOT
BRANCH   1   2
ATOM      2  C   UNL     1      -2.824   2.447  -1.480  1.00  0.00     0.118 C 
BRANCH   2   3
ATOM      3  N   UNL     1      -2.629   1.041  -1.776  1.00  0.00    -0.351 N 
ATOM      4  C   UNL     1      -2.095  -0.009  -1.093  1.00  0.00     0.281 C 
ATOM      5  O   UNL     1      -2.389  -1.113  -1.576  1.00  0.00    -0.268 OA
ATOM      6  H   UNL     1      -2.955   0.790  -2.671  1.00  0.00     0.163 HD
BRANCH   4   7
ATOM      7  C   UNL     1      -1.300   0.107   0.275  1.00  0.00     0.176 C 
ATOM      8  C   UNL     1      -0.617  -1.264   0.570  1.00  0.00     0.079 C 
ATOM      9  C   UNL     1      -0.300   1.270   0.389  1.00  0.00     0.111 C 
ATOM     10  C   UNL     1       0.830  -1.276   1.068  1.00  0.00     0.010 C 
ATOM     11  C   UNL     1       1.106   0.991  -0.145  1.00  0.00     0.125 C 
ATOM     12  C   UNL     1       1.764  -0.166   0.587  1.00  0.00     0.032 C 
BRANCH   7  13
ATOM     13  N   UNL     1      -2.351   0.307   1.318  1.00  0.00    -0.345 N 
ATOM     14  H   UNL     1      -3.030  -0.451   1.266  1.00  0.00     0.345 HD
ATOM     15  H   UNL     1      -2.822   1.198   1.159  1.00  0.00     0.345 HD
ATOM     16  H   UNL     1      -1.917   0.312   2.241  1.00  0.00     0.345 HD
ENDBRANCH   7  13
BRANCH  11  17
ATOM     17  O   UNL     1       1.038   1.056  -1.553  1.00  0.00    -0.375 OA
BRANCH  17  18
ATOM     18  C   UNL     1       1.483   0.134  -2.559  1.00  0.00     0.118 C 
ATOM     19  C   UNL     1       1.561  -1.390  -2.399  1.00  0.00     0.032 C 
ATOM     20  C   UNL     1       0.359  -0.073  -3.604  1.00  0.00     0.032 C 
ATOM     21  C   UNL     1       0.358  -1.571  -3.322  1.00  0.00     0.005 C 
ENDBRANCH  17  18
ENDBRANCH  11  17
ENDBRANCH   4   7
ENDBRANCH   2   3
ENDBRANCH   1   2
BRANCH   1  22
ATOM     22  C   UNL     1      -1.867   3.353  -3.721  1.00  0.00     0.118 C 
BRANCH  22  23
ATOM     23  N   UNL     1      -3.159   3.654  -4.315  1.00  0.00    -0.352 N 
ATOM     24  C   UNL     1      -3.629   4.766  -4.970  1.00  0.00     0.251 C 
ATOM     25  H   UNL     1      -3.818   2.928  -4.233  1.00  0.00     0.163 HD
ATOM     26  O   UNL     1      -4.827   4.817  -5.248  1.00  0.00    -0.269 OA
BRANCH  24  27
ATOM     27  C   UNL     1      -2.752   5.907  -5.327  1.00  0.00     0.039 A 
ATOM     28  C   UNL     1      -3.273   7.202  -5.211  1.00  0.00     0.014 A 
ATOM     29  C   UNL     1      -1.465   5.735  -5.842  1.00  0.00     0.014 A 
ATOM     30  C   UNL     1      -2.491   8.313  -5.548  1.00  0.00     0.010 A 
ATOM     31  C   UNL     1      -0.659   6.846  -6.106  1.00  0.00     0.010 A 
ATOM     32  C   UNL     1      -1.162   8.149  -5.967  1.00  0.00    -0.014 A 
BRANCH  32  33
ATOM     33  C   UNL     1      -0.290   9.323  -6.252  1.00  0.00     0.031 A 
ATOM     34  C   UNL     1       0.284   9.540  -7.629  1.00  0.00     0.074 A 
ATOM     35  C   UNL     1       0.051  10.160  -5.250  1.00  0.00     0.049 A 
ATOM     36  N   UNL     1       1.119  10.461  -8.040  1.00  0.00    -0.248 NA
ATOM     37  C   UNL     1      -0.116   8.587  -8.677  1.00  0.00     0.031 C 
ATOM     38  C   UNL     1      -0.381  10.030  -3.857  1.00  0.00     0.029 A 
ATOM     39  N   UNL     1       0.866  11.267  -5.240  1.00  0.00    -0.354 N 
ATOM     40  C   UNL     1       1.371  10.180  -9.378  1.00  0.00     0.074 A 
ATOM     41  C   UNL     1       0.623   8.985  -9.703  1.00  0.00     0.031 C 
ATOM     42  C   UNL     1       0.175  11.011  -3.128  1.00  0.00     0.029 A 
ATOM     43  C   UNL     1       1.033  11.818  -3.990  1.00  0.00     0.049 A 
ATOM     44  H   UNL     1       1.290  11.631  -6.051  1.00  0.00     0.167 HD
ATOM     45  C   UNL     1       2.132  10.866 -10.265  1.00  0.00     0.034 A 
ATOM     46  C   UNL     1       1.804  12.844  -3.576  1.00  0.00     0.034 A 
ATOM     47  C   UNL     1       2.850  12.073  -9.952  1.00  0.00     0.049 A 
ATOM     48  C   UNL     1       2.626  13.600  -4.585  1.00  0.00     0.074 A 
ATOM     49  C   UNL     1       3.591  12.878 -10.801  1.00  0.00     0.029 A 
ATOM     50  N   UNL     1       2.927  12.647  -8.693  1.00  0.00    -0.354 N 
ATOM     51  N   UNL     1       2.737  13.400  -5.876  1.00  0.00    -0.248 NA
ATOM     52  C   UNL     1       3.401  14.748  -4.089  1.00  0.00     0.031 C 
ATOM     53  C   UNL     1       4.139  13.921 -10.049  1.00  0.00     0.029 A 
ATOM     54  C   UNL     1       3.708  13.790  -8.740  1.00  0.00     0.049 A 
ATOM     55  H   UNL     1       2.490  12.294  -7.884  1.00  0.00     0.167 HD
ATOM     56  C   UNL     1       3.557  14.418  -6.350  1.00  0.00     0.074 A 
ATOM     57  C   UNL     1       3.900  15.244  -5.212  1.00  0.00     0.031 C 
ATOM     58  C   UNL     1       3.996  14.640  -7.614  1.00  0.00     0.034 A 
BRANCH  45  59
ATOM     59  C   UNL     1       2.195  10.355 -11.683  1.00  0.00     0.023 A 
ATOM     60  C   UNL     1       1.061  10.468 -12.514  1.00  0.00     0.012 A 
ATOM     61  C   UNL     1       3.391   9.835 -12.216  1.00  0.00     0.148 A 
ATOM     62  C   UNL     1       1.105  10.039 -13.840  1.00  0.00     0.002 A 
ATOM     63  C   UNL     1       3.441   9.453 -13.552  1.00  0.00     0.091 A 
ATOM     64  F   UNL     1       4.455   9.723 -11.409  1.00  0.00    -0.205 F 
ATOM     65  C   UNL     1       2.296   9.542 -14.361  1.00  0.00     0.022 A 
BRANCH  63  66
ATOM     66  S   UNL     1       4.948   8.878 -14.343  1.00  0.00     0.127 S 
ATOM     67  O   UNL     1       4.631   7.471 -14.593  1.00  0.00    -0.237 OA
ATOM     68  O   UNL     1       5.000   9.712 -15.545  1.00  0.00    -0.237 OA
ATOM     69  O   UNL     1       6.020   9.114 -13.390  1.00  0.00    -0.744 OA
ENDBRANCH  63  66
ENDBRANCH  45  59
BRANCH  46  70
ATOM     70  C   UNL     1       1.807  13.245  -2.140  1.00  0.00     0.023 A 
ATOM     71  C   UNL     1       1.243  14.479  -1.760  1.00  0.00     0.012 A 
ATOM     72  C   UNL     1       2.358  12.409  -1.149  1.00  0.00     0.148 A 
ATOM     73  C   UNL     1       1.265  14.891  -0.427  1.00  0.00     0.002 A 
ATOM     74  C   UNL     1       2.322  12.799   0.185  1.00  0.00     0.091 A 
ATOM     75  F   UNL     1       2.900  11.244  -1.530  1.00  0.00    -0.205 F 
ATOM     76  C   UNL     1       1.796  14.048   0.546  1.00  0.00     0.022 A 
BRANCH  74  77
ATOM     77  S   UNL     1       2.860  11.717   1.514  1.00  0.00     0.127 S 
ATOM     78  O   UNL     1       4.087  12.380   1.960  1.00  0.00    -0.237 OA
ATOM     79  O   UNL     1       1.737  11.812   2.451  1.00  0.00    -0.237 OA
ATOM     80  O   UNL     1       3.031  10.407   0.914  1.00  0.00    -0.744 OA
ENDBRANCH  74  77
ENDBRANCH  46  70
BRANCH  58  81
ATOM     81  C   UNL     1       4.852  15.857  -7.857  1.00  0.00     0.023 A 
ATOM     82  C   UNL     1       6.179  15.894  -7.387  1.00  0.00     0.012 A 
ATOM     83  C   UNL     1       4.359  16.933  -8.621  1.00  0.00     0.148 A 
ATOM     84  C   UNL     1       6.991  16.999  -7.645  1.00  0.00     0.002 A 
ATOM     85  C   UNL     1       5.190  18.006  -8.919  1.00  0.00     0.091 A 
ATOM     86  F   UNL     1       3.087  16.887  -9.045  1.00  0.00    -0.205 F 
ATOM     87  C   UNL     1       6.502  18.047  -8.420  1.00  0.00     0.022 A 
BRANCH  85  88
ATOM     88  S   UNL     1       4.679  19.354  -9.992  1.00  0.00     0.127 S 
ATOM     89  O   UNL     1       4.562  20.461  -9.043  1.00  0.00    -0.237 OA
ATOM     90  O   UNL     1       5.808  19.458 -10.916  1.00  0.00    -0.237 OA
ATOM     91  O   UNL     1       3.430  18.927 -10.608  1.00  0.00    -0.744 OA
ENDBRANCH  85  88
ENDBRANCH  58  81
ENDBRANCH  32  33
ENDBRANCH  24  27
ENDBRANCH  22  23
ENDBRANCH   1  22
TORSDOF 16
