REMARK SMILES C[NH2+][C@@]1(C(=O)NCCCNC(=O)c2ccc(-c3c4nc(c(-c5cccc(S(=O)(=O)[O-])c5F)c5ccc([nH]5)c(-c5cccc(S(=O)(=O)[O-])c5F)c5nc(c(-c6cccc(S(=O)(=O)[O-])c6F)c6ccc3[nH]6)C=C5)C=C4)cc2)CC[C@@H]([N@@H+](C)C2CCCCCC2)C1
REMARK SMILES IDX 7 1 6 2 4 3 5 4 3 6 76 7 88 8 77 9 78 10 2 11 1 12 79 15
REMARK SMILES IDX 80 16 81 18 82 19 83 20 84 21 87 23 86 24 85 25 8 27 9 28
REMARK SMILES IDX 10 29 11 30 12 32 13 33 14 34 75 35 15 36 74 37 16 38 17 39
REMARK SMILES IDX 18 40 68 41 19 42 73 43 67 44 69 45 20 46 72 47 66 48 65 49
REMARK SMILES IDX 21 51 53 52 33 53 52 54 34 55 37 56 51 57 70 58 35 59 36 60
REMARK SMILES IDX 50 62 71 63 38 64 22 65 23 66 31 67 24 68 26 69 32 70 25 71
REMARK SMILES IDX 27 72 28 73 29 74 30 75 54 76 55 77 63 78 56 79 58 80 64 81
REMARK SMILES IDX 57 82 59 83 60 84 61 85 62 86 39 87 40 88 48 89 41 90 43 91
REMARK SMILES IDX 49 92 42 93 44 94 45 95 46 96 47 97
REMARK H PARENT 6 5 2 13 2 14 79 17 10 31 69 50 37 61
REMARK Flexibility Score: 90.00
ROOT
ATOM      1  C   UNL     1      -3.906   0.844   0.769  1.00  0.00     0.118 C 
ENDROOT
BRANCH   1   2
ATOM      2  N   UNL     1      -2.627   0.653   1.391  1.00  0.00    -0.351 N 
ATOM      3  C   UNL     1      -1.391   0.821   0.851  1.00  0.00     0.281 C 
ATOM      4  O   UNL     1      -0.489   1.039   1.671  1.00  0.00    -0.268 OA
ATOM      5  H   UNL     1      -2.648   0.364   2.332  1.00  0.00     0.163 HD
BRANCH   3   6
ATOM      6  C   UNL     1      -1.128   0.827  -0.709  1.00  0.00     0.181 C 
ATOM      7  C   UNL     1      -1.726   2.116  -1.324  1.00  0.00     0.085 C 
ATOM      8  C   UNL     1      -1.746  -0.347  -1.501  1.00  0.00     0.144 C 
ATOM      9  C   UNL     1      -2.836   1.732  -2.308  1.00  0.00     0.072 C 
ATOM     10  C   UNL     1      -2.802   0.213  -2.477  1.00  0.00     0.191 C 
BRANCH   6  11
ATOM     11  N   UNL     1       0.355   0.872  -0.933  1.00  0.00    -0.336 N 
ATOM     12  C   UNL     1       1.086  -0.279  -0.394  1.00  0.00     0.331 C 
ATOM     13  H   UNL     1       0.525   0.915  -1.938  1.00  0.00     0.346 HD
ATOM     14  H   UNL     1       0.699   1.694  -0.436  1.00  0.00     0.346 HD
ENDBRANCH   6  11
BRANCH  10  15
ATOM     15  N   UNL     1      -2.876  -0.361  -3.834  1.00  0.00    -0.332 N 
ATOM     16  C   UNL     1      -4.264  -0.349  -4.324  1.00  0.00     0.333 C 
ATOM     17  H   UNL     1      -2.514  -1.293  -3.633  1.00  0.00     0.348 HD
BRANCH  15  18
ATOM     18  C   UNL     1      -1.911  -0.008  -4.913  1.00  0.00     0.184 C 
BRANCH  18  19
ATOM     19  C   UNL     1      -1.966   1.424  -5.496  1.00  0.00     0.065 C 
BRANCH  19  20
ATOM     20  C   UNL     1      -0.986   2.433  -4.898  1.00  0.00     0.006 C 
BRANCH  20  21
ATOM     21  C   UNL     1       0.381   2.467  -5.558  1.00  0.00     0.000 CG0
ATOM     22  G   UNL     1       1.230   1.240  -5.251  1.00  0.00     0.000 G0
ENDBRANCH  20  21
ENDBRANCH  19  20
ENDBRANCH  18  19
BRANCH  18  23
ATOM     23  C   UNL     1      -0.488  -0.532  -4.642  1.00  0.00     0.065 C 
BRANCH  23  24
ATOM     24  C   UNL     1       0.583  -0.090  -5.645  1.00  0.00     0.006 C 
BRANCH  24  25
ATOM     25  C   UNL     1       1.230   1.240  -5.251  1.00  0.00     0.000 CG0
ATOM     26  G   UNL     1       0.381   2.467  -5.558  1.00  0.00     0.000 G0
ENDBRANCH  24  25
ENDBRANCH  23  24
ENDBRANCH  18  23
ENDBRANCH  15  18
ENDBRANCH  10  15
ENDBRANCH   3   6
ENDBRANCH   1   2
BRANCH   1  27
ATOM     27  C   UNL     1      -4.760  -0.399   0.730  1.00  0.00     0.042 C 
BRANCH  27  28
ATOM     28  C   UNL     1      -5.594  -0.524   1.983  1.00  0.00     0.118 C 
BRANCH  28  29
ATOM     29  N   UNL     1      -6.519   0.601   2.138  1.00  0.00    -0.352 N 
ATOM     30  C   UNL     1      -7.892   0.611   2.202  1.00  0.00     0.251 C 
ATOM     31  H   UNL     1      -6.092   1.485   2.206  1.00  0.00     0.163 HD
ATOM     32  O   UNL     1      -8.504   1.659   2.107  1.00  0.00    -0.269 OA
BRANCH  30  33
ATOM     33  C   UNL     1      -8.597  -0.672   2.381  1.00  0.00     0.039 A 
ATOM     34  C   UNL     1      -9.779  -0.914   1.680  1.00  0.00     0.014 A 
ATOM     35  C   UNL     1      -8.053  -1.645   3.218  1.00  0.00     0.014 A 
ATOM     36  C   UNL     1     -10.380  -2.168   1.781  1.00  0.00     0.010 A 
ATOM     37  C   UNL     1      -8.561  -2.928   3.191  1.00  0.00     0.010 A 
ATOM     38  C   UNL     1      -9.754  -3.192   2.510  1.00  0.00    -0.014 A 
BRANCH  38  39
ATOM     39  C   UNL     1     -10.344  -4.543   2.639  1.00  0.00     0.031 A 
ATOM     40  C   UNL     1     -10.648  -5.082   4.013  1.00  0.00     0.074 A 
ATOM     41  C   UNL     1     -10.495  -5.312   1.545  1.00  0.00     0.049 A 
ATOM     42  N   UNL     1     -11.056  -6.272   4.359  1.00  0.00    -0.248 NA
ATOM     43  C   UNL     1     -10.406  -4.180   5.157  1.00  0.00     0.031 C 
ATOM     44  C   UNL     1     -10.136  -4.928   0.177  1.00  0.00     0.029 A 
ATOM     45  N   UNL     1     -10.969  -6.592   1.416  1.00  0.00    -0.354 N 
ATOM     46  C   UNL     1     -11.061  -6.279   5.749  1.00  0.00     0.074 A 
ATOM     47  C   UNL     1     -10.560  -4.998   6.186  1.00  0.00     0.031 C 
ATOM     48  C   UNL     1     -10.422  -5.943  -0.654  1.00  0.00     0.029 A 
ATOM     49  C   UNL     1     -10.953  -7.057   0.123  1.00  0.00     0.049 A 
ATOM     50  H   UNL     1     -11.290  -7.127   2.178  1.00  0.00     0.167 HD
ATOM     51  C   UNL     1     -11.488  -7.249   6.589  1.00  0.00     0.034 A 
ATOM     52  C   UNL     1     -11.328  -8.251  -0.374  1.00  0.00     0.034 A 
ATOM     53  C   UNL     1     -12.065  -8.483   6.138  1.00  0.00     0.049 A 
ATOM     54  C   UNL     1     -11.884  -9.280   0.573  1.00  0.00     0.074 A 
ATOM     55  C   UNL     1     -12.643  -9.488   6.890  1.00  0.00     0.029 A 
ATOM     56  N   UNL     1     -12.144  -8.873   4.810  1.00  0.00    -0.354 N 
ATOM     57  N   UNL     1     -12.037  -9.207   1.873  1.00  0.00    -0.248 NA
ATOM     58  C   UNL     1     -12.355 -10.539  -0.018  1.00  0.00     0.031 C 
ATOM     59  C   UNL     1     -13.056 -10.498   6.015  1.00  0.00     0.029 A 
ATOM     60  C   UNL     1     -12.757 -10.108   4.718  1.00  0.00     0.049 A 
ATOM     61  H   UNL     1     -11.812  -8.349   4.046  1.00  0.00     0.167 HD
ATOM     62  C   UNL     1     -12.656 -10.392   2.252  1.00  0.00     0.074 A 
ATOM     63  C   UNL     1     -12.867 -11.155   1.038  1.00  0.00     0.031 C 
ATOM     64  C   UNL     1     -13.006 -10.819   3.490  1.00  0.00     0.034 A 
BRANCH  51  65
ATOM     65  C   UNL     1     -11.409  -6.979   8.069  1.00  0.00     0.023 A 
ATOM     66  C   UNL     1     -12.252  -6.008   8.649  1.00  0.00     0.012 A 
ATOM     67  C   UNL     1     -10.526  -7.705   8.891  1.00  0.00     0.148 A 
ATOM     68  C   UNL     1     -12.188  -5.733  10.014  1.00  0.00     0.002 A 
ATOM     69  C   UNL     1     -10.504  -7.462  10.259  1.00  0.00     0.091 A 
ATOM     70  F   UNL     1      -9.713  -8.605   8.320  1.00  0.00    -0.205 F 
ATOM     71  C   UNL     1     -11.323  -6.467  10.820  1.00  0.00     0.022 A 
BRANCH  69  72
ATOM     72  S   UNL     1      -9.486  -8.410  11.395  1.00  0.00     0.127 S 
ATOM     73  O   UNL     1      -8.474  -7.425  11.776  1.00  0.00    -0.237 OA
ATOM     74  O   UNL     1     -10.439  -8.745  12.454  1.00  0.00    -0.237 OA
ATOM     75  O   UNL     1      -8.995  -9.551  10.636  1.00  0.00    -0.744 OA
ENDBRANCH  69  72
ENDBRANCH  51  65
BRANCH  52  76
ATOM     76  C   UNL     1     -11.275  -8.498  -1.842  1.00  0.00     0.023 A 
ATOM     77  C   UNL     1     -12.480  -8.579  -2.568  1.00  0.00     0.012 A 
ATOM     78  C   UNL     1     -10.052  -8.613  -2.528  1.00  0.00     0.148 A 
ATOM     79  C   UNL     1     -12.468  -8.807  -3.945  1.00  0.00     0.002 A 
ATOM     80  C   UNL     1     -10.046  -8.786  -3.908  1.00  0.00     0.091 A 
ATOM     81  F   UNL     1      -8.916  -8.538  -1.819  1.00  0.00    -0.205 F 
ATOM     82  C   UNL     1     -11.252  -8.901  -4.616  1.00  0.00     0.022 A 
BRANCH  80  83
ATOM     83  S   UNL     1      -8.530  -8.787  -4.873  1.00  0.00     0.127 S 
ATOM     84  O   UNL     1      -8.432 -10.188  -5.274  1.00  0.00    -0.237 OA
ATOM     85  O   UNL     1      -8.860  -7.857  -5.954  1.00  0.00    -0.237 OA
ATOM     86  O   UNL     1      -7.491  -8.310  -3.970  1.00  0.00    -0.744 OA
ENDBRANCH  80  83
ENDBRANCH  52  76
BRANCH  64  87
ATOM     87  C   UNL     1     -13.691 -12.154   3.597  1.00  0.00     0.023 A 
ATOM     88  C   UNL     1     -12.951 -13.337   3.413  1.00  0.00     0.012 A 
ATOM     89  C   UNL     1     -15.048 -12.232   3.968  1.00  0.00     0.148 A 
ATOM     90  C   UNL     1     -13.560 -14.581   3.566  1.00  0.00     0.002 A 
ATOM     91  C   UNL     1     -15.634 -13.474   4.169  1.00  0.00     0.091 A 
ATOM     92  F   UNL     1     -15.737 -11.091   4.121  1.00  0.00    -0.205 F 
ATOM     93  C   UNL     1     -14.896 -14.650   3.956  1.00  0.00     0.022 A 
BRANCH  91  94
ATOM     94  S   UNL     1     -17.316 -13.654   4.772  1.00  0.00     0.127 S 
ATOM     95  O   UNL     1     -18.016 -14.105   3.570  1.00  0.00    -0.237 OA
ATOM     96  O   UNL     1     -17.166 -14.674   5.810  1.00  0.00    -0.237 OA
ATOM     97  O   UNL     1     -17.707 -12.342   5.268  1.00  0.00    -0.744 OA
ENDBRANCH  91  94
ENDBRANCH  64  87
ENDBRANCH  38  39
ENDBRANCH  30  33
ENDBRANCH  28  29
ENDBRANCH  27  28
ENDBRANCH   1  27
TORSDOF 16
