REMARK SMILES CC(C)CN(CC(N)=O)C(=O)N1CC[C@H](C(=O)NCCCNC(=O)c2ccc(-c3c4nc(c(-c5cccc(S(=O)(=O)[O-])c5F)c5ccc([nH]5)c(-c5cccc(S(=O)(=O)[O-])c5F)c5nc(c(-c6cccc(S(=O)(=O)[O-])c6F)c6ccc3[nH]6)C=C5)C=C4)cc2)[C@@H]1C
REMARK SMILES IDX 19 1 18 2 16 3 17 4 15 6 12 7 13 8 88 9 14 10 89 11 10 12
REMARK SMILES IDX 11 13 5 14 4 15 2 16 1 17 3 18 6 19 7 20 8 21 9 22 20 25
REMARK SMILES IDX 21 26 22 27 23 28 24 30 25 31 26 32 87 33 27 34 86 35 28 36
REMARK SMILES IDX 29 37 30 38 80 39 31 40 85 41 79 42 81 43 32 44 84 45 78 46
REMARK SMILES IDX 77 47 33 49 65 50 45 51 64 52 46 53 49 54 63 55 82 56 47 57
REMARK SMILES IDX 48 58 62 60 83 61 50 62 34 63 35 64 43 65 36 66 38 67 44 68
REMARK SMILES IDX 37 69 39 70 40 71 41 72 42 73 66 74 67 75 75 76 68 77 70 78
REMARK SMILES IDX 76 79 69 80 71 81 72 82 73 83 74 84 51 85 52 86 60 87 53 88
REMARK SMILES IDX 55 89 61 90 54 91 56 92 57 93 58 94 59 95
REMARK H PARENT 18 5 8 23 8 24 22 29 81 48 49 59
REMARK Flexibility Score: inf
ROOT
ATOM      1  C   UNL     1      -5.770   4.716   0.063  1.00  0.00     0.117 C 
ENDROOT
BRANCH   1   2
ATOM      2  N   UNL     1      -4.809   5.578   0.735  1.00  0.00    -0.356 N 
ATOM      3  C   UNL     1      -3.465   5.735   0.580  1.00  0.00     0.225 C 
ATOM      4  O   UNL     1      -2.909   6.528   1.342  1.00  0.00    -0.275 OA
ATOM      5  H   UNL     1      -5.204   6.154   1.429  1.00  0.00     0.163 HD
BRANCH   3   6
ATOM      6  C   UNL     1      -2.722   5.047  -0.557  1.00  0.00     0.102 C 
ATOM      7  N   UNL     1      -1.175   3.228  -0.722  1.00  0.00    -0.321 N 
ATOM      8  C   UNL     1      -0.424   4.364  -0.242  1.00  0.00     0.122 C 
ATOM      9  C   UNL     1      -2.596   3.503  -0.539  1.00  0.00     0.096 C 
ATOM     10  C   UNL     1      -1.262   5.543  -0.685  1.00  0.00     0.037 C 
ATOM     11  C   UNL     1      -3.136   2.755   0.678  1.00  0.00     0.032 C 
BRANCH   7  12
ATOM     12  C   UNL     1      -0.650   1.967  -0.535  1.00  0.00     0.320 C 
ATOM     13  O   UNL     1       0.164   1.797   0.371  1.00  0.00    -0.248 OA
BRANCH  12  14
ATOM     14  N   UNL     1      -1.093   0.948  -1.357  1.00  0.00    -0.315 N 
BRANCH  14  15
ATOM     15  C   UNL     1      -0.761  -0.436  -0.983  1.00  0.00     0.125 C 
BRANCH  15  16
ATOM     16  C   UNL     1       0.668  -0.881  -1.383  1.00  0.00     0.002 C 
ATOM     17  C   UNL     1       1.756  -0.349  -0.443  1.00  0.00     0.009 C 
ATOM     18  C   UNL     1       0.752  -2.410  -1.393  1.00  0.00     0.009 C 
ENDBRANCH  15  16
ENDBRANCH  14  15
BRANCH  14  19
ATOM     19  C   UNL     1      -1.852   1.131  -2.598  1.00  0.00     0.221 C 
BRANCH  19  20
ATOM     20  C   UNL     1      -3.374   0.941  -2.456  1.00  0.00     0.237 C 
ATOM     21  N   UNL     1      -4.147   1.736  -3.265  1.00  0.00    -0.368 N 
ATOM     22  O   UNL     1      -3.921   0.140  -1.708  1.00  0.00    -0.273 OA
ATOM     23  H   UNL     1      -3.721   2.384  -3.870  1.00  0.00     0.159 HD
ATOM     24  H   UNL     1      -5.128   1.657  -3.239  1.00  0.00     0.159 HD
ENDBRANCH  19  20
ENDBRANCH  14  19
ENDBRANCH  12  14
ENDBRANCH   7  12
ENDBRANCH   3   6
ENDBRANCH   1   2
BRANCH   1  25
ATOM     25  C   UNL     1      -6.325   3.639   0.997  1.00  0.00     0.042 C 
BRANCH  25  26
ATOM     26  C   UNL     1      -7.124   4.169   2.177  1.00  0.00     0.118 C 
BRANCH  26  27
ATOM     27  N   UNL     1      -8.545   4.210   1.897  1.00  0.00    -0.352 N 
ATOM     28  C   UNL     1      -9.546   3.350   2.285  1.00  0.00     0.251 C 
ATOM     29  H   UNL     1      -8.840   4.970   1.344  1.00  0.00     0.163 HD
ATOM     30  O   UNL     1     -10.642   3.438   1.734  1.00  0.00    -0.269 OA
BRANCH  28  31
ATOM     31  C   UNL     1      -9.327   2.318   3.333  1.00  0.00     0.039 A 
ATOM     32  C   UNL     1      -9.974   1.083   3.207  1.00  0.00     0.014 A 
ATOM     33  C   UNL     1      -8.558   2.568   4.472  1.00  0.00     0.014 A 
ATOM     34  C   UNL     1      -9.823   0.102   4.196  1.00  0.00     0.010 A 
ATOM     35  C   UNL     1      -8.325   1.556   5.403  1.00  0.00     0.010 A 
ATOM     36  C   UNL     1      -8.981   0.321   5.297  1.00  0.00    -0.014 A 
BRANCH  36  37
ATOM     37  C   UNL     1      -8.823  -0.687   6.383  1.00  0.00     0.031 A 
ATOM     38  C   UNL     1      -9.215  -0.329   7.798  1.00  0.00     0.074 A 
ATOM     39  C   UNL     1      -8.268  -1.890   6.127  1.00  0.00     0.049 A 
ATOM     40  N   UNL     1      -9.049  -1.011   8.903  1.00  0.00    -0.248 NA
ATOM     41  C   UNL     1      -9.853   0.984   8.003  1.00  0.00     0.031 C 
ATOM     42  C   UNL     1      -7.796  -2.346   4.818  1.00  0.00     0.029 A 
ATOM     43  N   UNL     1      -7.981  -2.940   6.965  1.00  0.00    -0.354 N 
ATOM     44  C   UNL     1      -9.518  -0.197   9.929  1.00  0.00     0.074 A 
ATOM     45  C   UNL     1      -9.941   1.045   9.323  1.00  0.00     0.031 C 
ATOM     46  C   UNL     1      -7.280  -3.581   4.941  1.00  0.00     0.029 A 
ATOM     47  C   UNL     1      -7.351  -3.993   6.339  1.00  0.00     0.049 A 
ATOM     48  H   UNL     1      -8.205  -2.940   7.924  1.00  0.00     0.167 HD
ATOM     49  C   UNL     1      -9.626  -0.468  11.252  1.00  0.00     0.034 A 
ATOM     50  C   UNL     1      -6.876  -5.152   6.838  1.00  0.00     0.034 A 
ATOM     51  C   UNL     1      -9.268  -1.726  11.847  1.00  0.00     0.049 A 
ATOM     52  C   UNL     1      -7.041  -5.439   8.309  1.00  0.00     0.074 A 
ATOM     53  C   UNL     1      -9.393  -2.119  13.168  1.00  0.00     0.029 A 
ATOM     54  N   UNL     1      -8.731  -2.801  11.158  1.00  0.00    -0.354 N 
ATOM     55  N   UNL     1      -7.599  -4.702   9.238  1.00  0.00    -0.248 NA
ATOM     56  C   UNL     1      -6.545  -6.737   8.794  1.00  0.00     0.031 C 
ATOM     57  C   UNL     1      -8.926  -3.432  13.278  1.00  0.00     0.029 A 
ATOM     58  C   UNL     1      -8.530  -3.862  12.022  1.00  0.00     0.049 A 
ATOM     59  H   UNL     1      -8.523  -2.809  10.195  1.00  0.00     0.167 HD
ATOM     60  C   UNL     1      -7.567  -5.465  10.400  1.00  0.00     0.074 A 
ATOM     61  C   UNL     1      -6.949  -6.728  10.056  1.00  0.00     0.031 C 
ATOM     62  C   UNL     1      -7.996  -5.144  11.645  1.00  0.00     0.034 A 
BRANCH  49  63
ATOM     63  C   UNL     1     -10.230   0.588  12.142  1.00  0.00     0.023 A 
ATOM     64  C   UNL     1     -11.614   0.845  12.064  1.00  0.00     0.012 A 
ATOM     65  C   UNL     1      -9.455   1.262  13.107  1.00  0.00     0.148 A 
ATOM     66  C   UNL     1     -12.213   1.777  12.909  1.00  0.00     0.002 A 
ATOM     67  C   UNL     1     -10.068   2.158  13.976  1.00  0.00     0.091 A 
ATOM     68  F   UNL     1      -8.139   1.013  13.158  1.00  0.00    -0.205 F 
ATOM     69  C   UNL     1     -11.444   2.424  13.871  1.00  0.00     0.022 A 
BRANCH  67  70
ATOM     70  S   UNL     1      -9.187   2.986  15.304  1.00  0.00     0.127 S 
ATOM     71  O   UNL     1      -9.232   4.380  14.864  1.00  0.00    -0.237 OA
ATOM     72  O   UNL     1     -10.027   2.686  16.464  1.00  0.00    -0.237 OA
ATOM     73  O   UNL     1      -7.859   2.391  15.342  1.00  0.00    -0.744 OA
ENDBRANCH  67  70
ENDBRANCH  49  63
BRANCH  50  74
ATOM     74  C   UNL     1      -6.253  -6.167   5.938  1.00  0.00     0.023 A 
ATOM     75  C   UNL     1      -6.919  -7.389   5.716  1.00  0.00     0.012 A 
ATOM     76  C   UNL     1      -5.008  -5.944   5.319  1.00  0.00     0.148 A 
ATOM     77  C   UNL     1      -6.336  -8.388   4.935  1.00  0.00     0.002 A 
ATOM     78  C   UNL     1      -4.458  -6.923   4.498  1.00  0.00     0.091 A 
ATOM     79  F   UNL     1      -4.379  -4.784   5.553  1.00  0.00    -0.205 F 
ATOM     80  C   UNL     1      -5.110  -8.153   4.320  1.00  0.00     0.022 A 
BRANCH  78  81
ATOM     81  S   UNL     1      -2.943  -6.651   3.571  1.00  0.00     0.127 S 
ATOM     82  O   UNL     1      -1.971  -7.407   4.361  1.00  0.00    -0.237 OA
ATOM     83  O   UNL     1      -3.268  -7.242   2.271  1.00  0.00    -0.237 OA
ATOM     84  O   UNL     1      -2.762  -5.210   3.543  1.00  0.00    -0.744 OA
ENDBRANCH  78  81
ENDBRANCH  50  74
BRANCH  62  85
ATOM     85  C   UNL     1      -7.887  -6.190  12.722  1.00  0.00     0.023 A 
ATOM     86  C   UNL     1      -6.630  -6.505  13.273  1.00  0.00     0.012 A 
ATOM     87  C   UNL     1      -9.047  -6.792  13.251  1.00  0.00     0.148 A 
ATOM     88  C   UNL     1      -6.526  -7.424  14.316  1.00  0.00     0.002 A 
ATOM     89  C   UNL     1      -8.940  -7.669  14.322  1.00  0.00     0.091 A 
ATOM     90  F   UNL     1     -10.232  -6.490  12.700  1.00  0.00    -0.205 F 
ATOM     91  C   UNL     1      -7.680  -7.995  14.849  1.00  0.00     0.022 A 
BRANCH  89  92
ATOM     92  S   UNL     1     -10.377  -8.377  15.135  1.00  0.00     0.127 S 
ATOM     93  O   UNL     1     -10.309  -9.771  14.702  1.00  0.00    -0.237 OA
ATOM     94  O   UNL     1     -10.070  -8.162  16.550  1.00  0.00    -0.237 OA
ATOM     95  O   UNL     1     -11.526  -7.626  14.646  1.00  0.00    -0.744 OA
ENDBRANCH  89  92
ENDBRANCH  62  85
ENDBRANCH  36  37
ENDBRANCH  28  31
ENDBRANCH  26  27
ENDBRANCH  25  26
ENDBRANCH   1  25
TORSDOF 19
