REMARK SMILES Cc1nc(Nc2ccc(F)cc2)nc(OCC(=O)NCCCNC(=O)c2ccc(-c3c4nc(c(-c5cccc(S(=O)(=O)[O-])c5F)c5ccc([nH]5)c(-c5cccc(S(=O)(=O)[O-])c5F)c5nc(c(-c6cccc(S(=O)(=O)[O-])c6F)c6ccc3[nH]6)C=C5)C=C4)cc2)c1CCO
REMARK SMILES IDX 20 1 19 2 17 3 18 4 16 6 15 7 14 8 1 9 2 10 3 11 89 12 4 13
REMARK SMILES IDX 13 14 90 15 91 16 92 17 5 19 6 21 7 22 12 23 8 24 11 25 9 26
REMARK SMILES IDX 10 27 21 28 22 29 23 30 24 31 25 33 26 34 27 35 88 36 28 37
REMARK SMILES IDX 87 38 29 39 30 40 31 41 81 42 32 43 86 44 80 45 82 46 33 47
REMARK SMILES IDX 85 48 79 49 78 50 34 52 66 53 46 54 65 55 47 56 50 57 64 58
REMARK SMILES IDX 83 59 48 60 49 61 63 63 84 64 51 65 35 66 36 67 44 68 37 69
REMARK SMILES IDX 39 70 45 71 38 72 40 73 41 74 42 75 43 76 67 77 68 78 76 79
REMARK SMILES IDX 69 80 71 81 77 82 70 83 72 84 73 85 74 86 75 87 52 88 53 89
REMARK SMILES IDX 61 90 54 91 56 92 62 93 55 94 57 95 58 96 59 97 60 98
REMARK H PARENT 19 5 92 18 5 20 23 32 82 51 50 62
REMARK Flexibility Score: inf
ROOT
ATOM      1  C   UNL     1       2.994  -3.417   2.859  1.00  0.00     0.117 C 
ENDROOT
BRANCH   1   2
ATOM      2  N   UNL     1       1.668  -3.974   2.698  1.00  0.00    -0.353 N 
ATOM      3  C   UNL     1       0.936  -4.112   1.563  1.00  0.00     0.258 C 
ATOM      4  O   UNL     1      -0.166  -4.658   1.656  1.00  0.00    -0.271 OA
ATOM      5  H   UNL     1       1.239  -4.297   3.524  1.00  0.00     0.163 HD
BRANCH   3   6
ATOM      6  C   UNL     1       1.525  -3.675   0.215  1.00  0.00     0.331 C 
BRANCH   6   7
ATOM      7  O   UNL     1       1.793  -2.322  -0.078  1.00  0.00    -0.467 OA
BRANCH   7   8
ATOM      8  C   UNL     1       0.869  -1.327  -0.029  1.00  0.00     0.222 A 
ATOM      9  C   UNL     1      -2.677  -0.046  -0.069  1.00  0.00     0.067 C 
ATOM     10  C   UNL     1      -1.187  -0.214  -0.009  1.00  0.00     0.050 A 
ATOM     11  N   UNL     1      -0.550   0.953   0.175  1.00  0.00    -0.218 NA
ATOM     12  C   UNL     1      -0.507  -1.414  -0.214  1.00  0.00     0.038 A 
ATOM     13  C   UNL     1       0.780   0.979   0.164  1.00  0.00     0.230 A 
ATOM     14  N   UNL     1       1.507  -0.139   0.104  1.00  0.00    -0.177 NA
BRANCH  12  15
ATOM     15  C   UNL     1      -1.245  -2.627  -0.713  1.00  0.00     0.071 C 
BRANCH  15  16
ATOM     16  C   UNL     1      -1.067  -2.921  -2.208  1.00  0.00     0.161 C 
BRANCH  16  17
ATOM     17  O   UNL     1       0.286  -3.094  -2.604  1.00  0.00    -0.396 OA
ATOM     18  H   UNL     1       0.778  -2.273  -2.442  1.00  0.00     0.210 HD
ENDBRANCH  16  17
ENDBRANCH  15  16
ENDBRANCH  12  15
BRANCH  13  19
ATOM     19  N   UNL     1       1.426   2.213   0.073  1.00  0.00    -0.324 N 
ATOM     20  H   UNL     1       2.409   2.189   0.014  1.00  0.00     0.170 HD
BRANCH  19  21
ATOM     21  C   UNL     1       0.831   3.484   0.057  1.00  0.00     0.041 A 
ATOM     22  C   UNL     1      -0.135   3.842   1.011  1.00  0.00     0.029 A 
ATOM     23  C   UNL     1       1.085   4.373  -0.997  1.00  0.00     0.029 A 
ATOM     24  C   UNL     1      -0.829   5.051   0.922  1.00  0.00     0.041 A 
ATOM     25  C   UNL     1       0.375   5.575  -1.104  1.00  0.00     0.041 A 
ATOM     26  C   UNL     1      -0.577   5.901  -0.144  1.00  0.00     0.123 A 
ATOM     27  F   UNL     1      -1.274   7.039  -0.263  1.00  0.00    -0.207 F 
ENDBRANCH  19  21
ENDBRANCH  13  19
ENDBRANCH   7   8
ENDBRANCH   6   7
ENDBRANCH   3   6
ENDBRANCH   1   2
BRANCH   1  28
ATOM     28  C   UNL     1       2.961  -2.060   3.543  1.00  0.00     0.042 C 
BRANCH  28  29
ATOM     29  C   UNL     1       2.192  -2.045   4.860  1.00  0.00     0.118 C 
BRANCH  29  30
ATOM     30  N   UNL     1       2.629  -3.084   5.788  1.00  0.00    -0.352 N 
ATOM     31  C   UNL     1       3.241  -2.982   7.009  1.00  0.00     0.251 C 
ATOM     32  H   UNL     1       2.457  -4.006   5.487  1.00  0.00     0.163 HD
ATOM     33  O   UNL     1       3.706  -3.993   7.540  1.00  0.00    -0.269 OA
BRANCH  31  34
ATOM     34  C   UNL     1       3.356  -1.674   7.680  1.00  0.00     0.039 A 
ATOM     35  C   UNL     1       4.555  -1.340   8.314  1.00  0.00     0.014 A 
ATOM     36  C   UNL     1       2.281  -0.781   7.693  1.00  0.00     0.014 A 
ATOM     37  C   UNL     1       4.693  -0.085   8.908  1.00  0.00     0.010 A 
ATOM     38  C   UNL     1       2.455   0.502   8.197  1.00  0.00     0.010 A 
ATOM     39  C   UNL     1       3.656   0.860   8.824  1.00  0.00    -0.014 A 
BRANCH  39  40
ATOM     40  C   UNL     1       3.813   2.223   9.391  1.00  0.00     0.031 A 
ATOM     41  C   UNL     1       2.901   2.695  10.491  1.00  0.00     0.074 A 
ATOM     42  C   UNL     1       4.735   3.056   8.870  1.00  0.00     0.049 A 
ATOM     43  N   UNL     1       2.877   3.854  11.095  1.00  0.00    -0.248 NA
ATOM     44  C   UNL     1       1.865   1.758  10.959  1.00  0.00     0.031 C 
ATOM     45  C   UNL     1       5.620   2.739   7.746  1.00  0.00     0.029 A 
ATOM     46  N   UNL     1       5.074   4.344   9.203  1.00  0.00    -0.354 N 
ATOM     47  C   UNL     1       1.812   3.797  11.986  1.00  0.00     0.074 A 
ATOM     48  C   UNL     1       1.186   2.506  11.817  1.00  0.00     0.031 C 
ATOM     49  C   UNL     1       6.414   3.792   7.500  1.00  0.00     0.029 A 
ATOM     50  C   UNL     1       6.074   4.872   8.421  1.00  0.00     0.049 A 
ATOM     51  H   UNL     1       4.641   4.842   9.934  1.00  0.00     0.167 HD
ATOM     52  C   UNL     1       1.417   4.721  12.890  1.00  0.00     0.034 A 
ATOM     53  C   UNL     1       6.654   6.090   8.441  1.00  0.00     0.034 A 
ATOM     54  C   UNL     1       2.079   5.980  13.090  1.00  0.00     0.049 A 
ATOM     55  C   UNL     1       6.217   7.087   9.480  1.00  0.00     0.074 A 
ATOM     56  C   UNL     1       1.814   6.942  14.047  1.00  0.00     0.029 A 
ATOM     57  N   UNL     1       3.130   6.454  12.321  1.00  0.00    -0.354 N 
ATOM     58  N   UNL     1       5.314   6.952  10.420  1.00  0.00    -0.248 NA
ATOM     59  C   UNL     1       6.896   8.392   9.484  1.00  0.00     0.031 C 
ATOM     60  C   UNL     1       2.683   8.014  13.836  1.00  0.00     0.029 A 
ATOM     61  C   UNL     1       3.514   7.704  12.771  1.00  0.00     0.049 A 
ATOM     62  H   UNL     1       3.542   5.972  11.568  1.00  0.00     0.167 HD
ATOM     63  C   UNL     1       5.334   8.138  11.144  1.00  0.00     0.074 A 
ATOM     64  C   UNL     1       6.353   8.975  10.546  1.00  0.00     0.031 C 
ATOM     65  C   UNL     1       4.567   8.504  12.199  1.00  0.00     0.034 A 
BRANCH  52  66
ATOM     66  C   UNL     1       0.254   4.388  13.787  1.00  0.00     0.023 A 
ATOM     67  C   UNL     1       0.418   3.431  14.809  1.00  0.00     0.012 A 
ATOM     68  C   UNL     1      -0.961   5.096  13.691  1.00  0.00     0.148 A 
ATOM     69  C   UNL     1      -0.613   3.167  15.708  1.00  0.00     0.002 A 
ATOM     70  C   UNL     1      -1.967   4.862  14.621  1.00  0.00     0.091 A 
ATOM     71  F   UNL     1      -1.103   5.989  12.702  1.00  0.00    -0.205 F 
ATOM     72  C   UNL     1      -1.799   3.891  15.623  1.00  0.00     0.022 A 
BRANCH  70  73
ATOM     73  S   UNL     1      -3.497   5.802  14.656  1.00  0.00     0.127 S 
ATOM     74  O   UNL     1      -4.481   4.776  14.312  1.00  0.00    -0.237 OA
ATOM     75  O   UNL     1      -3.547   6.253  16.046  1.00  0.00    -0.237 OA
ATOM     76  O   UNL     1      -3.341   6.865  13.673  1.00  0.00    -0.744 OA
ENDBRANCH  70  73
ENDBRANCH  52  66
BRANCH  53  77
ATOM     77  C   UNL     1       7.761   6.394   7.491  1.00  0.00     0.023 A 
ATOM     78  C   UNL     1       9.076   6.519   7.980  1.00  0.00     0.012 A 
ATOM     79  C   UNL     1       7.533   6.494   6.104  1.00  0.00     0.148 A 
ATOM     80  C   UNL     1      10.140   6.759   7.109  1.00  0.00     0.002 A 
ATOM     81  C   UNL     1       8.604   6.675   5.237  1.00  0.00     0.091 A 
ATOM     82  F   UNL     1       6.273   6.381   5.660  1.00  0.00    -0.205 F 
ATOM     83  C   UNL     1       9.906   6.824   5.738  1.00  0.00     0.022 A 
BRANCH  81  84
ATOM     84  S   UNL     1       8.419   6.626   3.450  1.00  0.00     0.127 S 
ATOM     85  O   UNL     1       8.726   8.006   3.080  1.00  0.00    -0.237 OA
ATOM     86  O   UNL     1       9.437   5.645   3.070  1.00  0.00    -0.237 OA
ATOM     87  O   UNL     1       7.050   6.197   3.205  1.00  0.00    -0.744 OA
ENDBRANCH  81  84
ENDBRANCH  53  77
BRANCH  65  88
ATOM     88  C   UNL     1       4.791   9.862  12.810  1.00  0.00     0.023 A 
ATOM     89  C   UNL     1       4.329  11.011  12.140  1.00  0.00     0.012 A 
ATOM     90  C   UNL     1       5.313   9.980  14.114  1.00  0.00     0.148 A 
ATOM     91  C   UNL     1       4.391  12.260  12.755  1.00  0.00     0.002 A 
ATOM     92  C   UNL     1       5.323  11.220  14.741  1.00  0.00     0.091 A 
ATOM     93  F   UNL     1       5.755   8.873  14.728  1.00  0.00    -0.205 F 
ATOM     94  C   UNL     1       4.871  12.362  14.060  1.00  0.00     0.022 A 
BRANCH  92  95
ATOM     95  S   UNL     1       5.817  11.435  16.455  1.00  0.00     0.127 S 
ATOM     96  O   UNL     1       7.020  12.255  16.317  1.00  0.00    -0.237 OA
ATOM     97  O   UNL     1       4.664  12.135  17.021  1.00  0.00    -0.237 OA
ATOM     98  O   UNL     1       6.039  10.097  16.985  1.00  0.00    -0.744 OA
ENDBRANCH  92  95
ENDBRANCH  65  88
ENDBRANCH  39  40
ENDBRANCH  31  34
ENDBRANCH  29  30
ENDBRANCH  28  29
ENDBRANCH   1  28
TORSDOF 20
