REMARK SMILES O=C(NCCCNC(=O)[C@]1(NC(=O)c2nc(C3CC3)n[nH]2)CCSC1)c1ccc(-c2c3nc(c(-c4cccc(S(=O)(=O)[O-])c4F)c4ccc([nH]4)c(-c4cccc(S(=O)(=O)[O-])c4F)c4nc(c(-c5cccc(S(=O)(=O)[O-])c5F)c5ccc2[nH]5)C=C4)C=C3)cc1
REMARK SMILES IDX 5 1 4 2 3 3 1 4 2 5 26 7 27 8 88 9 28 10 87 11 29 12 30 13
REMARK SMILES IDX 31 14 81 15 32 16 86 17 80 18 82 19 33 20 85 21 79 22 78 23
REMARK SMILES IDX 34 25 66 26 46 27 65 28 47 29 50 30 64 31 83 32 48 33 49 34
REMARK SMILES IDX 63 36 84 37 51 38 35 39 36 40 44 41 37 42 39 43 45 44 38 45
REMARK SMILES IDX 40 46 41 47 42 48 43 49 67 50 68 51 76 52 69 53 71 54 77 55
REMARK SMILES IDX 70 56 72 57 73 58 74 59 75 60 52 61 53 62 61 63 54 64 56 65
REMARK SMILES IDX 62 66 55 67 57 68 58 69 59 70 60 71 6 72 7 73 8 74 9 76
REMARK SMILES IDX 10 77 22 78 25 79 23 80 24 81 11 82 12 83 13 85 14 86 15 87
REMARK SMILES IDX 21 88 16 89 20 90 17 92 18 93 19 94
REMARK H PARENT 3 6 82 24 50 35 7 75 11 84 21 91
REMARK Flexibility Score: inf
ROOT
ATOM      1  C   UNL     1       4.559  -0.605   2.519  1.00  0.00     0.042 C 
ENDROOT
BRANCH   1   2
ATOM      2  C   UNL     1       4.243  -0.493   1.031  1.00  0.00     0.118 C 
BRANCH   2   3
ATOM      3  N   UNL     1       2.847  -0.670   0.680  1.00  0.00    -0.352 N 
ATOM      4  O   UNL     1       0.909  -0.221  -0.365  1.00  0.00    -0.269 OA
ATOM      5  C   UNL     1       2.105  -0.001  -0.265  1.00  0.00     0.251 C 
ATOM      6  H   UNL     1       2.366  -1.363   1.187  1.00  0.00     0.163 HD
BRANCH   5   7
ATOM      7  C   UNL     1       2.767   0.993  -1.135  1.00  0.00     0.039 A 
ATOM      8  C   UNL     1       3.936   0.668  -1.833  1.00  0.00     0.014 A 
ATOM      9  C   UNL     1       2.196   2.261  -1.256  1.00  0.00     0.014 A 
ATOM     10  C   UNL     1       4.587   1.645  -2.581  1.00  0.00     0.010 A 
ATOM     11  C   UNL     1       2.824   3.223  -2.045  1.00  0.00     0.010 A 
ATOM     12  C   UNL     1       4.034   2.929  -2.695  1.00  0.00    -0.014 A 
BRANCH  12  13
ATOM     13  C   UNL     1       4.678   3.956  -3.545  1.00  0.00     0.031 A 
ATOM     14  C   UNL     1       5.270   5.191  -2.933  1.00  0.00     0.074 A 
ATOM     15  C   UNL     1       4.649   3.802  -4.882  1.00  0.00     0.049 A 
ATOM     16  N   UNL     1       5.769   6.245  -3.524  1.00  0.00    -0.248 NA
ATOM     17  C   UNL     1       5.295   5.257  -1.463  1.00  0.00     0.031 C 
ATOM     18  C   UNL     1       4.062   2.657  -5.581  1.00  0.00     0.029 A 
ATOM     19  N   UNL     1       5.081   4.626  -5.889  1.00  0.00    -0.354 N 
ATOM     20  C   UNL     1       6.125   7.119  -2.505  1.00  0.00     0.074 A 
ATOM     21  C   UNL     1       5.787   6.471  -1.255  1.00  0.00     0.031 C 
ATOM     22  C   UNL     1       4.146   2.863  -6.903  1.00  0.00     0.029 A 
ATOM     23  C   UNL     1       4.750   4.169  -7.143  1.00  0.00     0.049 A 
ATOM     24  H   UNL     1       5.578   5.460  -5.730  1.00  0.00     0.167 HD
ATOM     25  C   UNL     1       6.691   8.345  -2.605  1.00  0.00     0.034 A 
ATOM     26  C   UNL     1       4.884   4.751  -8.350  1.00  0.00     0.034 A 
ATOM     27  C   UNL     1       7.051   8.964  -3.853  1.00  0.00     0.049 A 
ATOM     28  C   UNL     1       5.534   6.101  -8.438  1.00  0.00     0.074 A 
ATOM     29  C   UNL     1       7.697  10.170  -4.062  1.00  0.00     0.029 A 
ATOM     30  N   UNL     1       6.785   8.431  -5.106  1.00  0.00    -0.354 N 
ATOM     31  N   UNL     1       5.987   6.858  -7.468  1.00  0.00    -0.248 NA
ATOM     32  C   UNL     1       5.722   6.666  -9.781  1.00  0.00     0.031 C 
ATOM     33  C   UNL     1       7.808  10.372  -5.442  1.00  0.00     0.029 A 
ATOM     34  C   UNL     1       7.246   9.285  -6.093  1.00  0.00     0.049 A 
ATOM     35  H   UNL     1       6.334   7.571  -5.269  1.00  0.00     0.167 HD
ATOM     36  C   UNL     1       6.542   7.974  -8.081  1.00  0.00     0.074 A 
ATOM     37  C   UNL     1       6.377   7.789  -9.509  1.00  0.00     0.031 C 
ATOM     38  C   UNL     1       7.124   9.057  -7.511  1.00  0.00     0.034 A 
BRANCH  25  39
ATOM     39  C   UNL     1       6.989   9.084  -1.328  1.00  0.00     0.023 A 
ATOM     40  C   UNL     1       8.067   8.670  -0.520  1.00  0.00     0.012 A 
ATOM     41  C   UNL     1       6.237  10.213  -0.948  1.00  0.00     0.148 A 
ATOM     42  C   UNL     1       8.370   9.345   0.662  1.00  0.00     0.002 A 
ATOM     43  C   UNL     1       6.569  10.904   0.213  1.00  0.00     0.091 A 
ATOM     44  F   UNL     1       5.197  10.579  -1.712  1.00  0.00    -0.205 F 
ATOM     45  C   UNL     1       7.628  10.466   1.024  1.00  0.00     0.022 A 
BRANCH  43  46
ATOM     46  S   UNL     1       5.705  12.399   0.710  1.00  0.00     0.127 S 
ATOM     47  O   UNL     1       4.755  11.880   1.692  1.00  0.00    -0.237 OA
ATOM     48  O   UNL     1       6.782  13.213   1.276  1.00  0.00    -0.237 OA
ATOM     49  O   UNL     1       5.126  12.939  -0.513  1.00  0.00    -0.744 OA
ENDBRANCH  43  46
ENDBRANCH  25  39
BRANCH  26  50
ATOM     50  C   UNL     1       4.423   4.016  -9.559  1.00  0.00     0.023 A 
ATOM     51  C   UNL     1       5.374   3.446 -10.425  1.00  0.00     0.012 A 
ATOM     52  C   UNL     1       3.051   3.789  -9.793  1.00  0.00     0.148 A 
ATOM     53  C   UNL     1       4.967   2.666 -11.508  1.00  0.00     0.002 A 
ATOM     54  C   UNL     1       2.656   2.966 -10.840  1.00  0.00     0.091 A 
ATOM     55  F   UNL     1       2.164   4.350  -8.959  1.00  0.00    -0.205 F 
ATOM     56  C   UNL     1       3.612   2.413 -11.707  1.00  0.00     0.022 A 
BRANCH  54  57
ATOM     57  S   UNL     1       0.947   2.466 -11.084  1.00  0.00     0.127 S 
ATOM     58  O   UNL     1       0.607   3.163 -12.322  1.00  0.00    -0.237 OA
ATOM     59  O   UNL     1       1.073   1.014 -11.209  1.00  0.00    -0.237 OA
ATOM     60  O   UNL     1       0.233   2.908  -9.894  1.00  0.00    -0.744 OA
ENDBRANCH  54  57
ENDBRANCH  26  50
BRANCH  38  61
ATOM     61  C   UNL     1       7.665  10.123  -8.425  1.00  0.00     0.023 A 
ATOM     62  C   UNL     1       6.779  11.025  -9.045  1.00  0.00     0.012 A 
ATOM     63  C   UNL     1       9.055  10.296  -8.580  1.00  0.00     0.148 A 
ATOM     64  C   UNL     1       7.268  12.076  -9.819  1.00  0.00     0.002 A 
ATOM     65  C   UNL     1       9.536  11.370  -9.318  1.00  0.00     0.091 A 
ATOM     66  F   UNL     1       9.877   9.412  -7.996  1.00  0.00    -0.205 F 
ATOM     67  C   UNL     1       8.645  12.257  -9.944  1.00  0.00     0.022 A 
BRANCH  65  68
ATOM     68  S   UNL     1      11.290  11.734  -9.457  1.00  0.00     0.127 S 
ATOM     69  O   UNL     1      11.558  11.379 -10.849  1.00  0.00    -0.237 OA
ATOM     70  O   UNL     1      11.332  13.169  -9.174  1.00  0.00    -0.237 OA
ATOM     71  O   UNL     1      11.953  10.903  -8.461  1.00  0.00    -0.744 OA
ENDBRANCH  65  68
ENDBRANCH  38  61
ENDBRANCH  12  13
ENDBRANCH   5   7
ENDBRANCH   2   3
ENDBRANCH   1   2
BRANCH   1  72
ATOM     72  C   UNL     1       3.809  -1.657   3.333  1.00  0.00     0.117 C 
BRANCH  72  73
ATOM     73  N   UNL     1       4.297  -3.019   3.214  1.00  0.00    -0.354 N 
ATOM     74  C   UNL     1       5.098  -3.810   3.976  1.00  0.00     0.246 C 
ATOM     75  H   UNL     1       3.976  -3.470   2.400  1.00  0.00     0.163 HD
ATOM     76  O   UNL     1       5.010  -5.026   3.739  1.00  0.00    -0.272 OA
BRANCH  74  77
ATOM     77  C   UNL     1       6.011  -3.337   5.153  1.00  0.00     0.129 C 
ATOM     78  C   UNL     1       5.310  -3.880   6.437  1.00  0.00     0.050 C 
ATOM     79  C   UNL     1       6.235  -1.843   5.426  1.00  0.00     0.108 C 
ATOM     80  C   UNL     1       4.224  -2.908   6.839  1.00  0.00     0.072 C 
ATOM     81  S   UNL     1       5.067  -1.315   6.734  1.00  0.00    -0.159 SA
BRANCH  77  82
ATOM     82  N   UNL     1       7.350  -4.009   5.145  1.00  0.00    -0.334 N 
ATOM     83  C   UNL     1       8.223  -4.464   4.195  1.00  0.00     0.289 C 
ATOM     84  H   UNL     1       7.689  -4.162   6.057  1.00  0.00     0.165 HD
ATOM     85  O   UNL     1       9.346  -4.759   4.618  1.00  0.00    -0.266 OA
BRANCH  83  86
ATOM     86  C   UNL     1       7.834  -4.788   2.850  1.00  0.00     0.214 A 
ATOM     87  N   UNL     1       7.151  -4.097   1.955  1.00  0.00    -0.207 NA
ATOM     88  N   UNL     1       8.202  -5.981   2.297  1.00  0.00    -0.255 N 
ATOM     89  C   UNL     1       7.061  -4.983   0.895  1.00  0.00     0.154 A 
ATOM     90  N   UNL     1       7.698  -6.145   1.072  1.00  0.00    -0.158 NA
ATOM     91  H   UNL     1       8.772  -6.644   2.750  1.00  0.00     0.192 HD
BRANCH  89  92
ATOM     92  C   UNL     1       6.297  -4.731  -0.395  1.00  0.00     0.060 C 
ATOM     93  C   UNL     1       5.113  -3.796  -0.366  1.00  0.00     0.012 C 
ATOM     94  C   UNL     1       6.369  -3.368  -1.045  1.00  0.00     0.012 C 
ENDBRANCH  89  92
ENDBRANCH  83  86
ENDBRANCH  77  82
ENDBRANCH  74  77
ENDBRANCH  72  73
ENDBRANCH   1  72
TORSDOF 16
