REMARK SMILES NC(=O)c1cccc(NC2(CC(=O)NCCCNC(=O)c3ccc(-c4c5nc(c(-c6cccc(S(=O)(=O)[O-])c6F)c6ccc([nH]6)c(-c6cccc(S(=O)(=O)[O-])c6F)c6nc(c(-c7cccc(S(=O)(=O)[O-])c7F)c7ccc4[nH]7)C=C6)C=C5)cc3)CCC2)n1
REMARK SMILES IDX 15 1 14 2 12 3 13 4 11 6 10 7 84 8 86 9 85 10 9 11 8 13 4 14
REMARK SMILES IDX 5 15 87 16 6 17 7 18 2 19 1 20 3 23 16 24 17 25 18 26 19 27
REMARK SMILES IDX 20 29 21 30 22 31 83 32 23 33 82 34 24 35 25 36 26 37 76 38
REMARK SMILES IDX 27 39 81 40 75 41 77 42 28 43 80 44 74 45 73 46 29 48 61 49
REMARK SMILES IDX 41 50 60 51 42 52 45 53 59 54 78 55 43 56 44 57 58 59 79 60
REMARK SMILES IDX 46 61 30 62 31 63 39 64 32 65 34 66 40 67 33 68 35 69 36 70
REMARK SMILES IDX 37 71 38 72 62 73 63 74 71 75 64 76 66 77 72 78 65 79 67 80
REMARK SMILES IDX 68 81 69 82 70 83 47 84 48 85 56 86 49 87 51 88 57 89 50 90
REMARK SMILES IDX 52 91 53 92 54 93 55 94
REMARK H PARENT 14 5 9 12 1 21 1 22 18 28 77 47 45 58
REMARK Flexibility Score: inf
ROOT
ATOM      1  C   UNL     1       0.723   6.419  -5.539  1.00  0.00     0.117 C 
ENDROOT
BRANCH   1   2
ATOM      2  N   UNL     1       1.321   5.585  -6.562  1.00  0.00    -0.356 N 
ATOM      3  C   UNL     1       0.943   4.351  -6.990  1.00  0.00     0.222 C 
ATOM      4  O   UNL     1       1.700   3.730  -7.742  1.00  0.00    -0.275 OA
ATOM      5  H   UNL     1       2.111   5.965  -7.011  1.00  0.00     0.163 HD
BRANCH   3   6
ATOM      6  C   UNL     1      -0.378   3.745  -6.567  1.00  0.00     0.128 C 
BRANCH   6   7
ATOM      7  C   UNL     1      -0.327   2.817  -5.342  1.00  0.00     0.048 C 
ATOM      8  C   UNL     1      -1.630   1.975  -5.167  1.00  0.00     0.029 C 
ATOM      9  C   UNL     1      -0.676   3.485  -3.977  1.00  0.00     0.029 C 
ATOM     10  C   UNL     1      -2.133   3.037  -4.175  1.00  0.00     0.005 C 
BRANCH   7  11
ATOM     11  N   UNL     1       0.858   1.994  -5.364  1.00  0.00    -0.364 N 
ATOM     12  H   UNL     1       1.426   2.105  -6.161  1.00  0.00     0.162 HD
BRANCH  11  13
ATOM     13  C   UNL     1       1.326   1.058  -4.427  1.00  0.00     0.127 A 
ATOM     14  C   UNL     1       1.171   0.013  -2.362  1.00  0.00     0.130 A 
ATOM     15  C   UNL     1       2.341  -0.707  -2.551  1.00  0.00     0.034 A 
ATOM     16  N   UNL     1       0.657   0.865  -3.282  1.00  0.00    -0.226 NA
ATOM     17  C   UNL     1       3.019  -0.525  -3.749  1.00  0.00     0.006 A 
ATOM     18  C   UNL     1       2.515   0.376  -4.688  1.00  0.00     0.047 A 
BRANCH  14  19
ATOM     19  C   UNL     1       0.387  -0.118  -1.097  1.00  0.00     0.267 C 
ATOM     20  N   UNL     1       1.098  -0.076   0.075  1.00  0.00    -0.364 N 
ATOM     21  H   UNL     1       0.631  -0.159   0.938  1.00  0.00     0.160 HD
ATOM     22  H   UNL     1       2.076   0.036   0.054  1.00  0.00     0.160 HD
ATOM     23  O   UNL     1      -0.832  -0.244  -1.102  1.00  0.00    -0.268 OA
ENDBRANCH  14  19
ENDBRANCH  11  13
ENDBRANCH   7  11
ENDBRANCH   6   7
ENDBRANCH   3   6
ENDBRANCH   1   2
BRANCH   1  24
ATOM     24  C   UNL     1       1.406   6.221  -4.187  1.00  0.00     0.042 C 
BRANCH  24  25
ATOM     25  C   UNL     1       2.771   6.887  -4.074  1.00  0.00     0.118 C 
BRANCH  25  26
ATOM     26  N   UNL     1       2.676   8.338  -4.104  1.00  0.00    -0.352 N 
ATOM     27  C   UNL     1       2.941   9.273  -3.135  1.00  0.00     0.251 C 
ATOM     28  H   UNL     1       2.372   8.712  -4.963  1.00  0.00     0.163 HD
ATOM     29  O   UNL     1       2.555  10.427  -3.311  1.00  0.00    -0.269 OA
BRANCH  27  30
ATOM     30  C   UNL     1       3.676   8.923  -1.896  1.00  0.00     0.039 A 
ATOM     31  C   UNL     1       3.339   9.585  -0.710  1.00  0.00     0.014 A 
ATOM     32  C   UNL     1       4.737   8.015  -1.898  1.00  0.00     0.014 A 
ATOM     33  C   UNL     1       4.038   9.310   0.469  1.00  0.00     0.010 A 
ATOM     34  C   UNL     1       5.374   7.676  -0.705  1.00  0.00     0.010 A 
ATOM     35  C   UNL     1       5.049   8.336   0.488  1.00  0.00    -0.014 A 
BRANCH  35  36
ATOM     36  C   UNL     1       5.779   8.010   1.741  1.00  0.00     0.031 A 
ATOM     37  C   UNL     1       7.266   8.233   1.841  1.00  0.00     0.074 A 
ATOM     38  C   UNL     1       5.114   7.447   2.770  1.00  0.00     0.049 A 
ATOM     39  N   UNL     1       8.072   7.978   2.840  1.00  0.00    -0.248 NA
ATOM     40  C   UNL     1       7.942   8.789   0.657  1.00  0.00     0.031 C 
ATOM     41  C   UNL     1       3.691   7.100   2.769  1.00  0.00     0.029 A 
ATOM     42  N   UNL     1       5.553   7.043   4.007  1.00  0.00    -0.354 N 
ATOM     43  C   UNL     1       9.348   8.304   2.394  1.00  0.00     0.074 A 
ATOM     44  C   UNL     1       9.215   8.744   1.022  1.00  0.00     0.031 C 
ATOM     45  C   UNL     1       3.373   6.543   3.948  1.00  0.00     0.029 A 
ATOM     46  C   UNL     1       4.571   6.466   4.778  1.00  0.00     0.049 A 
ATOM     47  H   UNL     1       6.481   7.156   4.313  1.00  0.00     0.167 HD
ATOM     48  C   UNL     1      10.521   8.271   3.071  1.00  0.00     0.034 A 
ATOM     49  C   UNL     1       4.629   5.928   6.013  1.00  0.00     0.034 A 
ATOM     50  C   UNL     1      10.644   7.881   4.450  1.00  0.00     0.049 A 
ATOM     51  C   UNL     1       5.932   5.957   6.763  1.00  0.00     0.074 A 
ATOM     52  C   UNL     1      11.770   7.906   5.254  1.00  0.00     0.029 A 
ATOM     53  N   UNL     1       9.608   7.391   5.230  1.00  0.00    -0.354 N 
ATOM     54  N   UNL     1       7.095   6.423   6.380  1.00  0.00    -0.248 NA
ATOM     55  C   UNL     1       5.921   5.421   8.133  1.00  0.00     0.031 C 
ATOM     56  C   UNL     1      11.421   7.406   6.513  1.00  0.00     0.029 A 
ATOM     57  C   UNL     1      10.070   7.099   6.502  1.00  0.00     0.049 A 
ATOM     58  H   UNL     1       8.680   7.269   4.924  1.00  0.00     0.167 HD
ATOM     59  C   UNL     1       7.945   6.270   7.468  1.00  0.00     0.074 A 
ATOM     60  C   UNL     1       7.156   5.689   8.535  1.00  0.00     0.031 C 
ATOM     61  C   UNL     1       9.264   6.568   7.571  1.00  0.00     0.034 A 
BRANCH  48  62
ATOM     62  C   UNL     1      11.765   8.718   2.347  1.00  0.00     0.023 A 
ATOM     63  C   UNL     1      11.944  10.084   2.046  1.00  0.00     0.012 A 
ATOM     64  C   UNL     1      12.787   7.802   2.026  1.00  0.00     0.148 A 
ATOM     65  C   UNL     1      13.101  10.527   1.407  1.00  0.00     0.002 A 
ATOM     66  C   UNL     1      13.958   8.258   1.430  1.00  0.00     0.091 A 
ATOM     67  F   UNL     1      12.592   6.504   2.301  1.00  0.00    -0.205 F 
ATOM     68  C   UNL     1      14.111   9.616   1.110  1.00  0.00     0.022 A 
BRANCH  66  69
ATOM     69  S   UNL     1      15.351   7.179   1.080  1.00  0.00     0.127 S 
ATOM     70  O   UNL     1      15.320   7.123  -0.381  1.00  0.00    -0.237 OA
ATOM     71  O   UNL     1      16.473   7.936   1.637  1.00  0.00    -0.237 OA
ATOM     72  O   UNL     1      15.068   5.923   1.759  1.00  0.00    -0.744 OA
ENDBRANCH  66  69
ENDBRANCH  48  62
BRANCH  49  73
ATOM     73  C   UNL     1       3.396   5.373   6.638  1.00  0.00     0.023 A 
ATOM     74  C   UNL     1       2.802   6.049   7.722  1.00  0.00     0.012 A 
ATOM     75  C   UNL     1       2.796   4.197   6.150  1.00  0.00     0.148 A 
ATOM     76  C   UNL     1       1.651   5.546   8.329  1.00  0.00     0.002 A 
ATOM     77  C   UNL     1       1.619   3.731   6.723  1.00  0.00     0.091 A 
ATOM     78  F   UNL     1       3.384   3.562   5.126  1.00  0.00    -0.205 F 
ATOM     79  C   UNL     1       1.054   4.394   7.824  1.00  0.00     0.022 A 
BRANCH  77  80
ATOM     80  S   UNL     1       0.716   2.329   6.054  1.00  0.00     0.127 S 
ATOM     81  O   UNL     1       0.956   1.308   7.069  1.00  0.00    -0.237 OA
ATOM     82  O   UNL     1      -0.652   2.846   6.008  1.00  0.00    -0.237 OA
ATOM     83  O   UNL     1       1.303   2.070   4.745  1.00  0.00    -0.744 OA
ENDBRANCH  77  80
ENDBRANCH  49  73
BRANCH  61  84
ATOM     84  C   UNL     1       9.938   6.306   8.892  1.00  0.00     0.023 A 
ATOM     85  C   UNL     1      10.196   4.982   9.299  1.00  0.00     0.012 A 
ATOM     86  C   UNL     1      10.376   7.375   9.699  1.00  0.00     0.148 A 
ATOM     87  C   UNL     1      10.846   4.725  10.505  1.00  0.00     0.002 A 
ATOM     88  C   UNL     1      11.068   7.112  10.875  1.00  0.00     0.091 A 
ATOM     89  F   UNL     1      10.104   8.628   9.305  1.00  0.00    -0.205 F 
ATOM     90  C   UNL     1      11.292   5.788  11.287  1.00  0.00     0.022 A 
BRANCH  88  91
ATOM     91  S   UNL     1      11.764   8.418  11.893  1.00  0.00     0.127 S 
ATOM     92  O   UNL     1      10.857   8.418  13.040  1.00  0.00    -0.237 OA
ATOM     93  O   UNL     1      13.106   7.909  12.177  1.00  0.00    -0.237 OA
ATOM     94  O   UNL     1      11.737   9.622  11.074  1.00  0.00    -0.744 OA
ENDBRANCH  88  91
ENDBRANCH  61  84
ENDBRANCH  35  36
ENDBRANCH  27  30
ENDBRANCH  25  26
ENDBRANCH  24  25
ENDBRANCH   1  24
TORSDOF 17
