REMARK SMILES O=C(/C=C/[C@@]12C=C(O)C(=O)C=C1C(=O)C1=Cc3cc(O)c(O)cc3O[C@@H](c3ccc(O)c(O)c3)[C@@H]12)NCCCNC(=O)c1ccc(-c2c3nc(c(-c4cccc(S(=O)(=O)[O-])c4F)c4ccc([nH]4)c(-c4cccc(S(=O)(=O)[O-])c4F)c4nc(c(-c5cccc(S(=O)(=O)[O-])c5F)c5ccc2[nH]5)C=C4)C=C3)cc1
REMARK SMILES IDX 1 1 2 2 36 3 3 5 4 6 5 7 6 8 12 9 35 10 7 11 11 12 13 13
REMARK SMILES IDX 15 14 9 16 14 17 16 18 10 19 8 20 17 22 18 23 24 24 19 25
REMARK SMILES IDX 23 26 21 27 25 28 26 29 27 31 28 32 34 33 29 34 32 35 30 36
REMARK SMILES IDX 33 37 31 39 20 41 22 43 37 45 38 46 39 47 40 48 41 49 42 51
REMARK SMILES IDX 43 52 44 53 105 54 45 55 104 56 46 57 47 58 48 59 98 60
REMARK SMILES IDX 49 61 103 62 97 63 99 64 50 65 102 66 96 67 95 68 51 70
REMARK SMILES IDX 83 71 63 72 82 73 64 74 67 75 81 76 100 77 65 78 66 79 80 81
REMARK SMILES IDX 101 82 68 83 52 84 53 85 61 86 54 87 56 88 62 89 55 90 57 91
REMARK SMILES IDX 58 92 59 93 60 94 84 95 85 96 93 97 86 98 88 99 94 100
REMARK SMILES IDX 87 101 89 102 90 103 91 104 92 105 69 106 70 107 78 108
REMARK SMILES IDX 71 109 73 110 79 111 72 112 74 113 75 114 76 115 77 116
REMARK H PARENT 36 4 8 21 33 38 31 40 20 42 22 44 40 50 99 69 67 80
REMARK Flexibility Score: 80.00
ROOT
ATOM      1  O   UNL     1       0.980   0.615   0.516  1.00  0.00    -0.270 OA
ATOM      2  C   UNL     1       2.125   0.336   0.191  1.00  0.00     0.243 C 
ATOM      3  N   UNL     1       2.784   0.854  -0.892  1.00  0.00    -0.352 N 
ATOM      4  H   UNL     1       3.712   0.577  -1.069  1.00  0.00     0.163 HD
ENDROOT
BRANCH   2   5
ATOM      5  C   UNL     1       2.845  -0.762   0.876  1.00  0.00     0.068 C 
ATOM      6  C   UNL     1       4.148  -0.775   1.226  1.00  0.00    -0.005 C 
BRANCH   6   7
ATOM      7  C   UNL     1       4.905  -2.033   1.743  1.00  0.00     0.051 C 
ATOM      8  C   UNL     1       3.905  -2.962   2.382  1.00  0.00     0.040 C 
ATOM      9  C   UNL     1       5.536  -2.660   0.520  1.00  0.00     0.018 C 
ATOM     10  C   UNL     1       6.195  -1.712   2.588  1.00  0.00     0.087 CG0
ATOM     11  C   UNL     1       3.461  -4.081   1.794  1.00  0.00     0.160 C 
ATOM     12  C   UNL     1       5.154  -3.781  -0.098  1.00  0.00     0.065 C 
ATOM     13  C   UNL     1       6.775  -1.904   0.221  1.00  0.00     0.186 C 
ATOM     14  C   UNL     1       7.160  -1.255   1.503  1.00  0.00     0.009 C 
ATOM     15  G   UNL     1       6.953  -2.892   3.302  1.00  0.00     0.000 G0
ATOM     16  C   UNL     1       4.024  -4.542   0.484  1.00  0.00     0.220 C 
ATOM     17  O   UNL     1       7.375  -1.883  -0.832  1.00  0.00    -0.289 OA
ATOM     18  C   UNL     1       8.272  -0.545   1.714  1.00  0.00     0.020 C 
ATOM     19  O   UNL     1       3.589  -5.565  -0.034  1.00  0.00    -0.286 OA
BRANCH  11  20
ATOM     20  O   UNL     1       2.478  -4.848   2.386  1.00  0.00    -0.504 OA
ATOM     21  H   UNL     1       2.108  -4.584   3.206  1.00  0.00     0.293 HD
ENDBRANCH  11  20
BRANCH  18  22
ATOM     22  C   UNL     1       8.672  -0.284   3.104  1.00  0.00     0.021 A 
ATOM     23  C   UNL     1       9.124   0.992   3.474  1.00  0.00     0.062 A 
ATOM     24  C   UNL     1       8.662  -1.321   4.065  1.00  0.00     0.131 A 
ATOM     25  C   UNL     1       9.557   1.211   4.781  1.00  0.00     0.158 A 
ATOM     26  C   UNL     1       9.161  -1.102   5.350  1.00  0.00     0.097 A 
ATOM     27  C   UNL     1       9.581   0.168   5.704  1.00  0.00     0.161 A 
BRANCH  24  28
ATOM     28  O   UNL     1       8.289  -2.612   3.799  1.00  0.00    -0.484 OA
BRANCH  28  29
ATOM     29  C   UNL     1       6.953  -2.892   3.302  1.00  0.00     0.213 CG0
ATOM     30  G   UNL     1       6.195  -1.712   2.588  1.00  0.00     0.000 G0
BRANCH  29  31
ATOM     31  C   UNL     1       6.185  -3.568   4.427  1.00  0.00    -0.003 A 
ATOM     32  C   UNL     1       5.559  -4.807   4.194  1.00  0.00     0.011 A 
ATOM     33  C   UNL     1       6.051  -2.981   5.694  1.00  0.00     0.057 A 
ATOM     34  C   UNL     1       4.691  -5.359   5.136  1.00  0.00     0.050 A 
ATOM     35  C   UNL     1       5.253  -3.584   6.665  1.00  0.00     0.157 A 
ATOM     36  C   UNL     1       4.525  -4.729   6.362  1.00  0.00     0.157 A 
BRANCH  35  37
ATOM     37  O   UNL     1       5.154  -3.033   7.909  1.00  0.00    -0.504 OA
ATOM     38  H   UNL     1       4.616  -3.439   8.560  1.00  0.00     0.293 HD
ENDBRANCH  35  37
BRANCH  36  39
ATOM     39  O   UNL     1       3.639  -5.239   7.264  1.00  0.00    -0.504 OA
ATOM     40  H   UNL     1       3.150  -6.011   7.056  1.00  0.00     0.293 HD
ENDBRANCH  36  39
ENDBRANCH  29  31
ENDBRANCH  28  29
ENDBRANCH  24  28
BRANCH  25  41
ATOM     41  O   UNL     1       9.982   2.435   5.216  1.00  0.00    -0.504 OA
ATOM     42  H   UNL     1       9.984   3.166   4.630  1.00  0.00     0.293 HD
ENDBRANCH  25  41
BRANCH  27  43
ATOM     43  O   UNL     1      10.022   0.388   6.977  1.00  0.00    -0.504 OA
ATOM     44  H   UNL     1      10.310   1.243   7.232  1.00  0.00     0.293 HD
ENDBRANCH  27  43
ENDBRANCH  18  22
ENDBRANCH   6   7
ENDBRANCH   2   5
BRANCH   3  45
ATOM     45  C   UNL     1       2.143   1.802  -1.784  1.00  0.00     0.118 C 
BRANCH  45  46
ATOM     46  C   UNL     1       2.362   3.244  -1.354  1.00  0.00     0.042 C 
BRANCH  46  47
ATOM     47  C   UNL     1       3.826   3.661  -1.336  1.00  0.00     0.118 C 
BRANCH  47  48
ATOM     48  N   UNL     1       4.443   3.683  -2.657  1.00  0.00    -0.352 N 
ATOM     49  C   UNL     1       5.207   4.667  -3.247  1.00  0.00     0.251 C 
ATOM     50  H   UNL     1       4.293   2.880  -3.206  1.00  0.00     0.163 HD
ATOM     51  O   UNL     1       5.543   4.554  -4.421  1.00  0.00    -0.269 OA
BRANCH  49  52
ATOM     52  C   UNL     1       5.578   5.870  -2.470  1.00  0.00     0.039 A 
ATOM     53  C   UNL     1       6.024   5.755  -1.153  1.00  0.00     0.014 A 
ATOM     54  C   UNL     1       5.431   7.133  -3.051  1.00  0.00     0.014 A 
ATOM     55  C   UNL     1       6.126   6.892  -0.361  1.00  0.00     0.010 A 
ATOM     56  C   UNL     1       5.634   8.281  -2.277  1.00  0.00     0.010 A 
ATOM     57  C   UNL     1       5.921   8.170  -0.909  1.00  0.00    -0.014 A 
BRANCH  57  58
ATOM     58  C   UNL     1       6.009   9.360  -0.019  1.00  0.00     0.031 A 
ATOM     59  C   UNL     1       4.812  10.245   0.218  1.00  0.00     0.074 A 
ATOM     60  C   UNL     1       7.164   9.607   0.630  1.00  0.00     0.049 A 
ATOM     61  N   UNL     1       4.697  11.268   1.026  1.00  0.00    -0.248 NA
ATOM     62  C   UNL     1       3.588   9.952  -0.546  1.00  0.00     0.031 C 
ATOM     63  C   UNL     1       8.400   8.839   0.463  1.00  0.00     0.029 A 
ATOM     64  N   UNL     1       7.486  10.550   1.572  1.00  0.00    -0.354 N 
ATOM     65  C   UNL     1       3.409  11.760   0.845  1.00  0.00     0.074 A 
ATOM     66  C   UNL     1       2.783  10.935  -0.165  1.00  0.00     0.031 C 
ATOM     67  C   UNL     1       9.326   9.305   1.312  1.00  0.00     0.029 A 
ATOM     68  C   UNL     1       8.774  10.440   2.043  1.00  0.00     0.049 A 
ATOM     69  H   UNL     1       6.856  11.240   1.882  1.00  0.00     0.167 HD
ATOM     70  C   UNL     1       2.793  12.785   1.482  1.00  0.00     0.034 A 
ATOM     71  C   UNL     1       9.442  11.171   2.958  1.00  0.00     0.034 A 
ATOM     72  C   UNL     1       3.401  13.573   2.520  1.00  0.00     0.049 A 
ATOM     73  C   UNL     1       8.733  12.302   3.648  1.00  0.00     0.074 A 
ATOM     74  C   UNL     1       2.836  14.598   3.260  1.00  0.00     0.029 A 
ATOM     75  N   UNL     1       4.705  13.430   2.967  1.00  0.00    -0.354 N 
ATOM     76  N   UNL     1       7.481  12.675   3.542  1.00  0.00    -0.248 NA
ATOM     77  C   UNL     1       9.520  13.101   4.598  1.00  0.00     0.031 C 
ATOM     78  C   UNL     1       3.805  15.088   4.140  1.00  0.00     0.029 A 
ATOM     79  C   UNL     1       4.968  14.354   3.964  1.00  0.00     0.049 A 
ATOM     80  H   UNL     1       5.350  12.768   2.627  1.00  0.00     0.167 HD
ATOM     81  C   UNL     1       7.325  13.741   4.419  1.00  0.00     0.074 A 
ATOM     82  C   UNL     1       8.603  13.933   5.074  1.00  0.00     0.031 C 
ATOM     83  C   UNL     1       6.229  14.507   4.642  1.00  0.00     0.034 A 
BRANCH  70  84
ATOM     84  C   UNL     1       1.361  13.089   1.121  1.00  0.00     0.023 A 
ATOM     85  C   UNL     1       0.339  12.225   1.563  1.00  0.00     0.012 A 
ATOM     86  C   UNL     1       1.018  14.274   0.440  1.00  0.00     0.148 A 
ATOM     87  C   UNL     1      -1.001  12.524   1.316  1.00  0.00     0.002 A 
ATOM     88  C   UNL     1      -0.322  14.587   0.235  1.00  0.00     0.091 A 
ATOM     89  F   UNL     1       2.005  15.075   0.013  1.00  0.00    -0.205 F 
ATOM     90  C   UNL     1      -1.331  13.709   0.664  1.00  0.00     0.022 A 
BRANCH  88  91
ATOM     91  S   UNL     1      -0.856  16.128  -0.519  1.00  0.00     0.127 S 
ATOM     92  O   UNL     1      -1.382  15.661  -1.802  1.00  0.00    -0.237 OA
ATOM     93  O   UNL     1      -1.874  16.595   0.422  1.00  0.00    -0.237 OA
ATOM     94  O   UNL     1       0.330  16.968  -0.601  1.00  0.00    -0.744 OA
ENDBRANCH  88  91
ENDBRANCH  70  84
BRANCH  71  95
ATOM     95  C   UNL     1      10.843  10.803   3.310  1.00  0.00     0.023 A 
ATOM     96  C   UNL     1      11.119  10.275   4.586  1.00  0.00     0.012 A 
ATOM     97  C   UNL     1      11.885  10.901   2.367  1.00  0.00     0.148 A 
ATOM     98  C   UNL     1      12.410   9.863   4.920  1.00  0.00     0.002 A 
ATOM     99  C   UNL     1      13.152  10.427   2.684  1.00  0.00     0.091 A 
ATOM    100  F   UNL     1      11.606  11.424   1.165  1.00  0.00    -0.205 F 
ATOM    101  C   UNL     1      13.421   9.923   3.965  1.00  0.00     0.022 A 
BRANCH  99 102
ATOM    102  S   UNL     1      14.466  10.309   1.464  1.00  0.00     0.127 S 
ATOM    103  O   UNL     1      15.398  11.332   1.930  1.00  0.00    -0.237 OA
ATOM    104  O   UNL     1      14.920   8.929   1.647  1.00  0.00    -0.237 OA
ATOM    105  O   UNL     1      13.832  10.565   0.178  1.00  0.00    -0.744 OA
ENDBRANCH  99 102
ENDBRANCH  71  95
BRANCH  83 106
ATOM    106  C   UNL     1       6.346  15.633   5.636  1.00  0.00     0.023 A 
ATOM    107  C   UNL     1       7.059  16.796   5.282  1.00  0.00     0.012 A 
ATOM    108  C   UNL     1       5.656  15.590   6.864  1.00  0.00     0.148 A 
ATOM    109  C   UNL     1       7.098  17.892   6.142  1.00  0.00     0.002 A 
ATOM    110  C   UNL     1       5.659  16.705   7.694  1.00  0.00     0.091 A 
ATOM    111  F   UNL     1       4.997  14.468   7.187  1.00  0.00    -0.205 F 
ATOM    112  C   UNL     1       6.387  17.853   7.339  1.00  0.00     0.022 A 
BRANCH 110 113
ATOM    113  S   UNL     1       4.693  16.787   9.206  1.00  0.00     0.127 S 
ATOM    114  O   UNL     1       5.738  16.769  10.228  1.00  0.00    -0.237 OA
ATOM    115  O   UNL     1       4.002  18.069   9.063  1.00  0.00    -0.237 OA
ATOM    116  O   UNL     1       3.819  15.621   9.190  1.00  0.00    -0.744 OA
ENDBRANCH 110 113
ENDBRANCH  83 106
ENDBRANCH  57  58
ENDBRANCH  49  52
ENDBRANCH  47  48
ENDBRANCH  46  47
ENDBRANCH  45  46
ENDBRANCH   3  45
TORSDOF 20
