REMARK SMILES [NH3+][C@@H](Cc1cn(-c2nc(Cl)nc(N3CCOCC3)n2)c2ccccc12)C(=O)NCCCNC(=O)c1ccc(-c2c3nc(c(-c4cccc(S(=O)(=O)[O-])c4F)c4ccc([nH]4)c(-c4cccc(S(=O)(=O)[O-])c4F)c4nc(c(-c5cccc(S(=O)(=O)[O-])c5F)c5ccc2[nH]5)C=C4)C=C3)cc1
REMARK SMILES IDX 29 1 28 2 26 3 27 4 2 6 1 7 3 11 4 12 5 13 25 14 6 15 20 16
REMARK SMILES IDX 24 17 21 18 23 19 22 20 7 21 8 22 19 23 9 24 12 25 10 26
REMARK SMILES IDX 11 27 13 28 14 29 18 30 15 31 17 32 16 33 30 34 31 35 32 36
REMARK SMILES IDX 33 37 34 39 35 40 36 41 97 42 37 43 96 44 38 45 39 46 40 47
REMARK SMILES IDX 90 48 41 49 95 50 89 51 91 52 42 53 94 54 88 55 87 56 43 58
REMARK SMILES IDX 75 59 55 60 74 61 56 62 59 63 73 64 92 65 57 66 58 67 72 69
REMARK SMILES IDX 93 70 60 71 44 72 45 73 53 74 46 75 48 76 54 77 47 78 49 79
REMARK SMILES IDX 50 80 51 81 52 82 76 83 77 84 85 85 78 86 80 87 86 88 79 89
REMARK SMILES IDX 81 90 82 91 83 92 84 93 61 94 62 95 70 96 63 97 65 98 71 99
REMARK SMILES IDX 64 100 66 101 67 102 68 103 69 104
REMARK H PARENT 28 5 1 8 1 9 1 10 32 38 91 57 59 68
REMARK Flexibility Score: inf
ROOT
ATOM      1  C   UNL     1      -2.129  -1.575   1.025  1.00  0.00     0.118 C 
ENDROOT
BRANCH   1   2
ATOM      2  N   UNL     1      -2.041  -1.079  -0.332  1.00  0.00    -0.351 N 
ATOM      3  C   UNL     1      -1.007  -1.022  -1.212  1.00  0.00     0.278 C 
ATOM      4  O   UNL     1      -1.332  -0.740  -2.380  1.00  0.00    -0.268 OA
ATOM      5  H   UNL     1      -2.886  -0.717  -0.682  1.00  0.00     0.163 HD
BRANCH   3   6
ATOM      6  C   UNL     1       0.512  -1.170  -0.885  1.00  0.00     0.275 C 
BRANCH   6   7
ATOM      7  N   UNL     1       1.078   0.122  -0.445  1.00  0.00    -0.347 N 
ATOM      8  H   UNL     1       2.070   0.005  -0.236  1.00  0.00     0.345 HD
ATOM      9  H   UNL     1       0.589   0.439   0.393  1.00  0.00     0.345 HD
ATOM     10  H   UNL     1       0.965   0.813  -1.186  1.00  0.00     0.345 HD
ENDBRANCH   6   7
BRANCH   6  11
ATOM     11  C   UNL     1       1.134  -2.420  -0.240  1.00  0.00     0.113 C 
BRANCH  11  12
ATOM     12  C   UNL     1       1.028  -2.738   1.225  1.00  0.00    -0.015 A 
ATOM     13  C   UNL     1       0.962  -4.047   1.675  1.00  0.00     0.099 A 
ATOM     14  C   UNL     1       0.946  -1.916   2.409  1.00  0.00     0.004 A 
ATOM     15  N   UNL     1       0.583  -4.050   2.994  1.00  0.00    -0.285 N 
ATOM     16  C   UNL     1       0.548  -2.753   3.464  1.00  0.00     0.056 A 
ATOM     17  C   UNL     1       1.054  -0.535   2.692  1.00  0.00     0.010 A 
ATOM     18  C   UNL     1       0.231  -2.265   4.743  1.00  0.00     0.027 A 
ATOM     19  C   UNL     1       0.758  -0.039   3.968  1.00  0.00     0.001 A 
ATOM     20  C   UNL     1       0.349  -0.896   4.976  1.00  0.00     0.002 A 
BRANCH  15  21
ATOM     21  C   UNL     1       0.276  -5.217   3.729  1.00  0.00     0.240 A 
ATOM     22  N   UNL     1      -0.988  -5.406   4.087  1.00  0.00    -0.181 NA
ATOM     23  N   UNL     1       1.278  -6.073   3.926  1.00  0.00    -0.176 NA
ATOM     24  C   UNL     1      -1.181  -6.603   4.620  1.00  0.00     0.228 A 
ATOM     25  C   UNL     1       0.965  -7.189   4.569  1.00  0.00     0.231 A 
ATOM     26  Cl  UNL     1      -2.795  -6.996   5.013  1.00  0.00    -0.041 Cl
ATOM     27  N   UNL     1      -0.277  -7.547   4.850  1.00  0.00    -0.182 NA
BRANCH  25  28
ATOM     28  N   UNL     1       1.984  -7.970   5.021  1.00  0.00    -0.336 N 
ATOM     29  C   UNL     1       3.135  -7.360   5.677  1.00  0.00     0.148 C 
ATOM     30  C   UNL     1       2.125  -9.348   4.592  1.00  0.00     0.148 C 
ATOM     31  C   UNL     1       4.399  -7.594   4.842  1.00  0.00     0.181 C 
ATOM     32  C   UNL     1       3.437  -9.489   3.795  1.00  0.00     0.181 C 
ATOM     33  O   UNL     1       4.573  -8.989   4.524  1.00  0.00    -0.378 OA
ENDBRANCH  25  28
ENDBRANCH  15  21
ENDBRANCH  11  12
ENDBRANCH   6  11
ENDBRANCH   3   6
ENDBRANCH   1   2
BRANCH   1  34
ATOM     34  C   UNL     1      -2.448  -0.522   2.092  1.00  0.00     0.042 C 
BRANCH  34  35
ATOM     35  C   UNL     1      -3.817  -0.647   2.767  1.00  0.00     0.118 C 
BRANCH  35  36
ATOM     36  N   UNL     1      -4.192  -2.005   3.109  1.00  0.00    -0.352 N 
ATOM     37  C   UNL     1      -4.290  -2.781   4.224  1.00  0.00     0.251 C 
ATOM     38  H   UNL     1      -4.450  -2.511   2.305  1.00  0.00     0.163 HD
ATOM     39  O   UNL     1      -4.864  -3.859   4.029  1.00  0.00    -0.269 OA
BRANCH  37  40
ATOM     40  C   UNL     1      -3.752  -2.504   5.583  1.00  0.00     0.039 A 
ATOM     41  C   UNL     1      -2.967  -1.420   5.972  1.00  0.00     0.014 A 
ATOM     42  C   UNL     1      -3.999  -3.521   6.530  1.00  0.00     0.014 A 
ATOM     43  C   UNL     1      -2.349  -1.425   7.235  1.00  0.00     0.010 A 
ATOM     44  C   UNL     1      -3.382  -3.532   7.773  1.00  0.00     0.010 A 
ATOM     45  C   UNL     1      -2.492  -2.519   8.101  1.00  0.00    -0.014 A 
BRANCH  45  46
ATOM     46  C   UNL     1      -1.808  -2.540   9.402  1.00  0.00     0.031 A 
ATOM     47  C   UNL     1      -2.224  -1.437  10.316  1.00  0.00     0.074 A 
ATOM     48  C   UNL     1      -1.015  -3.559   9.817  1.00  0.00     0.049 A 
ATOM     49  N   UNL     1      -1.500  -0.475  10.793  1.00  0.00    -0.248 NA
ATOM     50  C   UNL     1      -3.658  -1.313  10.629  1.00  0.00     0.031 C 
ATOM     51  C   UNL     1      -0.758  -4.829   9.122  1.00  0.00     0.029 A 
ATOM     52  N   UNL     1      -0.366  -3.744  11.010  1.00  0.00    -0.354 N 
ATOM     53  C   UNL     1      -2.343   0.235  11.651  1.00  0.00     0.074 A 
ATOM     54  C   UNL     1      -3.683  -0.207  11.373  1.00  0.00     0.031 C 
ATOM     55  C   UNL     1      -0.236  -5.728   9.990  1.00  0.00     0.029 A 
ATOM     56  C   UNL     1       0.022  -5.068  11.256  1.00  0.00     0.049 A 
ATOM     57  H   UNL     1      -0.187  -3.009  11.640  1.00  0.00     0.167 HD
ATOM     58  C   UNL     1      -1.863   0.932  12.717  1.00  0.00     0.034 A 
ATOM     59  C   UNL     1       0.478  -5.578  12.431  1.00  0.00     0.034 A 
ATOM     60  C   UNL     1      -0.439   1.089  12.650  1.00  0.00     0.049 A 
ATOM     61  C   UNL     1       0.978  -4.432  13.215  1.00  0.00     0.074 A 
ATOM     62  C   UNL     1       0.457   1.827  11.912  1.00  0.00     0.029 A 
ATOM     63  N   UNL     1       0.248   0.063  13.238  1.00  0.00    -0.354 N 
ATOM     64  N   UNL     1       2.028  -3.739  12.886  1.00  0.00    -0.248 NA
ATOM     65  C   UNL     1       0.142  -3.863  14.263  1.00  0.00     0.031 C 
ATOM     66  C   UNL     1       1.652   1.050  11.871  1.00  0.00     0.029 A 
ATOM     67  C   UNL     1       1.454  -0.110  12.620  1.00  0.00     0.049 A 
ATOM     68  H   UNL     1      -0.078  -0.474  13.997  1.00  0.00     0.167 HD
ATOM     69  C   UNL     1       1.736  -2.470  13.344  1.00  0.00     0.074 A 
ATOM     70  C   UNL     1       0.684  -2.646  14.335  1.00  0.00     0.031 C 
ATOM     71  C   UNL     1       2.141  -1.379  12.640  1.00  0.00     0.034 A 
BRANCH  58  72
ATOM     72  C   UNL     1      -2.583   1.071  14.040  1.00  0.00     0.023 A 
ATOM     73  C   UNL     1      -2.114   2.033  14.960  1.00  0.00     0.012 A 
ATOM     74  C   UNL     1      -3.498   0.109  14.527  1.00  0.00     0.148 A 
ATOM     75  C   UNL     1      -2.541   2.040  16.295  1.00  0.00     0.002 A 
ATOM     76  C   UNL     1      -3.975   0.163  15.832  1.00  0.00     0.091 A 
ATOM     77  F   UNL     1      -3.803  -0.952  13.771  1.00  0.00    -0.205 F 
ATOM     78  C   UNL     1      -3.485   1.116  16.727  1.00  0.00     0.022 A 
BRANCH  76  79
ATOM     79  S   UNL     1      -5.209  -0.996  16.433  1.00  0.00     0.127 S 
ATOM     80  O   UNL     1      -4.415  -1.828  17.333  1.00  0.00    -0.237 OA
ATOM     81  O   UNL     1      -6.161  -0.101  17.091  1.00  0.00    -0.237 OA
ATOM     82  O   UNL     1      -5.733  -1.655  15.243  1.00  0.00    -0.744 OA
ENDBRANCH  76  79
ENDBRANCH  58  72
BRANCH  59  83
ATOM     83  C   UNL     1       0.413  -6.918  13.078  1.00  0.00     0.023 A 
ATOM     84  C   UNL     1       1.244  -7.169  14.199  1.00  0.00     0.012 A 
ATOM     85  C   UNL     1      -0.676  -7.785  12.863  1.00  0.00     0.148 A 
ATOM     86  C   UNL     1       0.937  -8.167  15.130  1.00  0.00     0.002 A 
ATOM     87  C   UNL     1      -0.975  -8.784  13.793  1.00  0.00     0.091 A 
ATOM     88  F   UNL     1      -1.476  -7.565  11.812  1.00  0.00    -0.205 F 
ATOM     89  C   UNL     1      -0.187  -8.959  14.940  1.00  0.00     0.022 A 
BRANCH  87  90
ATOM     90  S   UNL     1      -2.420  -9.842  13.634  1.00  0.00     0.127 S 
ATOM     91  O   UNL     1      -1.888 -11.151  14.013  1.00  0.00    -0.237 OA
ATOM     92  O   UNL     1      -3.337  -9.251  14.600  1.00  0.00    -0.237 OA
ATOM     93  O   UNL     1      -2.818  -9.745  12.232  1.00  0.00    -0.744 OA
ENDBRANCH  87  90
ENDBRANCH  59  83
BRANCH  71  94
ATOM     94  C   UNL     1       3.265  -1.565  11.668  1.00  0.00     0.023 A 
ATOM     95  C   UNL     1       3.109  -2.216  10.428  1.00  0.00     0.012 A 
ATOM     96  C   UNL     1       4.479  -0.932  11.971  1.00  0.00     0.148 A 
ATOM     97  C   UNL     1       4.156  -2.228   9.502  1.00  0.00     0.002 A 
ATOM     98  C   UNL     1       5.500  -0.912  11.035  1.00  0.00     0.091 A 
ATOM     99  F   UNL     1       4.592  -0.326  13.162  1.00  0.00    -0.205 F 
ATOM    100  C   UNL     1       5.345  -1.563   9.799  1.00  0.00     0.022 A 
BRANCH  98 101
ATOM    101  S   UNL     1       7.008   0.014  11.313  1.00  0.00     0.127 S 
ATOM    102  O   UNL     1       8.009  -1.047  11.388  1.00  0.00    -0.237 OA
ATOM    103  O   UNL     1       7.083   0.845  10.110  1.00  0.00    -0.237 OA
ATOM    104  O   UNL     1       6.805   0.764  12.546  1.00  0.00    -0.744 OA
ENDBRANCH  98 101
ENDBRANCH  71  94
ENDBRANCH  45  46
ENDBRANCH  37  40
ENDBRANCH  35  36
ENDBRANCH  34  35
ENDBRANCH   1  34
TORSDOF 18
