REMARK SMILES CCOc1cc(C(=O)N2CCC(C(=O)NCCCNC(=O)c3ccc(-c4c5nc(c(-c6cccc(S(=O)(=O)[O-])c6F)c6ccc([nH]6)c(-c6cccc(S(=O)(=O)[O-])c6F)c6nc(c(-c7cccc(S(=O)(=O)[O-])c7F)c7ccc4[nH]7)C=C6)C=C5)cc3)(c3ccccc3)CC2)ccc1OC
REMARK SMILES IDX 17 1 16 2 15 3 13 4 14 5 12 7 7 8 8 9 9 10 10 11 92 12 11 13
REMARK SMILES IDX 91 14 6 15 4 16 5 17 95 18 94 19 93 20 3 21 2 22 1 23 96 24
REMARK SMILES IDX 97 25 85 26 86 27 90 28 87 29 89 30 88 31 18 32 19 33 20 34
REMARK SMILES IDX 21 36 22 37 23 38 84 39 24 40 83 41 25 42 26 43 27 44 77 45
REMARK SMILES IDX 28 46 82 47 76 48 78 49 29 50 81 51 75 52 74 53 30 55 62 56
REMARK SMILES IDX 42 57 61 58 43 59 46 60 60 61 79 62 44 63 45 64 59 66 80 67
REMARK SMILES IDX 47 68 31 69 32 70 40 71 33 72 35 73 41 74 34 75 36 76 37 77
REMARK SMILES IDX 38 78 39 79 63 80 64 81 72 82 65 83 67 84 73 85 66 86 68 87
REMARK SMILES IDX 69 88 70 89 71 90 48 91 49 92 57 93 50 94 52 95 58 96 51 97
REMARK SMILES IDX 53 98 54 99 55 100 56 101
REMARK H PARENT 15 6 19 35 78 54 46 65
REMARK Flexibility Score: inf
ROOT
ATOM      1  C   UNL     1       5.181  -1.843 -10.398  1.00  0.00     0.042 C 
ENDROOT
BRANCH   1   2
ATOM      2  C   UNL     1       5.562  -2.748  -9.233  1.00  0.00     0.117 C 
BRANCH   2   3
ATOM      3  N   UNL     1       6.919  -3.264  -9.360  1.00  0.00    -0.355 N 
ATOM      4  C   UNL     1       8.063  -3.099  -8.633  1.00  0.00     0.230 C 
ATOM      5  O   UNL     1       9.032  -3.668  -9.142  1.00  0.00    -0.274 OA
ATOM      6  H   UNL     1       7.035  -3.859 -10.136  1.00  0.00     0.163 HD
BRANCH   4   7
ATOM      7  C   UNL     1       8.102  -2.279  -7.288  1.00  0.00     0.077 C 
ATOM      8  C   UNL     1       4.781  -0.094  -5.452  1.00  0.00     0.253 C 
ATOM      9  O   UNL     1       4.190   0.735  -6.138  1.00  0.00    -0.269 OA
ATOM     10  N   UNL     1       5.918  -0.796  -5.908  1.00  0.00    -0.339 N 
ATOM     11  C   UNL     1       6.885  -0.027  -6.677  1.00  0.00     0.121 C 
ATOM     12  C   UNL     1       6.347  -2.079  -5.362  1.00  0.00     0.121 C 
ATOM     13  C   UNL     1       7.726  -0.819  -7.670  1.00  0.00     0.043 C 
ATOM     14  C   UNL     1       7.078  -2.979  -6.347  1.00  0.00     0.043 C 
BRANCH   8  15
ATOM     15  C   UNL     1       4.328  -0.289  -4.041  1.00  0.00     0.043 A 
ATOM     16  C   UNL     1       2.589  -0.476  -2.341  1.00  0.00     0.161 A 
ATOM     17  C   UNL     1       2.974  -0.223  -3.676  1.00  0.00     0.064 A 
ATOM     18  C   UNL     1       3.552  -0.858  -1.396  1.00  0.00     0.160 A 
ATOM     19  C   UNL     1       4.901  -0.788  -1.750  1.00  0.00     0.051 A 
ATOM     20  C   UNL     1       5.287  -0.456  -3.042  1.00  0.00     0.018 A 
BRANCH  16  21
ATOM     21  O   UNL     1       1.258  -0.443  -2.018  1.00  0.00    -0.490 OA
BRANCH  21  22
ATOM     22  C   UNL     1       0.741   0.890  -1.879  1.00  0.00     0.226 C 
ATOM     23  C   UNL     1       0.066   1.020  -0.518  1.00  0.00     0.049 C 
ENDBRANCH  21  22
ENDBRANCH  16  21
BRANCH  18  24
ATOM     24  O   UNL     1       3.399  -1.311  -0.118  1.00  0.00    -0.493 OA
ATOM     25  C   UNL     1       2.107  -1.565   0.397  1.00  0.00     0.278 C 
ENDBRANCH  18  24
ENDBRANCH   8  15
BRANCH   7  26
ATOM     26  C   UNL     1       9.487  -2.259  -6.533  1.00  0.00    -0.032 A 
ATOM     27  C   UNL     1      10.634  -2.957  -6.951  1.00  0.00     0.005 A 
ATOM     28  C   UNL     1       9.632  -1.529  -5.332  1.00  0.00     0.005 A 
ATOM     29  C   UNL     1      11.831  -2.945  -6.218  1.00  0.00     0.000 A 
ATOM     30  C   UNL     1      10.819  -1.525  -4.587  1.00  0.00     0.000 A 
ATOM     31  C   UNL     1      11.922  -2.237  -5.029  1.00  0.00     0.000 A 
ENDBRANCH   7  26
ENDBRANCH   4   7
ENDBRANCH   2   3
ENDBRANCH   1   2
BRANCH   1  32
ATOM     32  C   UNL     1       5.263  -2.512 -11.765  1.00  0.00     0.118 C 
BRANCH  32  33
ATOM     33  N   UNL     1       4.339  -3.630 -11.904  1.00  0.00    -0.352 N 
ATOM     34  C   UNL     1       3.220  -3.756 -12.695  1.00  0.00     0.251 C 
ATOM     35  H   UNL     1       4.547  -4.415 -11.347  1.00  0.00     0.163 HD
ATOM     36  O   UNL     1       2.463  -4.705 -12.532  1.00  0.00    -0.269 OA
BRANCH  34  37
ATOM     37  C   UNL     1       2.922  -2.734 -13.723  1.00  0.00     0.039 A 
ATOM     38  C   UNL     1       1.620  -2.240 -13.828  1.00  0.00     0.014 A 
ATOM     39  C   UNL     1       3.924  -2.256 -14.571  1.00  0.00     0.014 A 
ATOM     40  C   UNL     1       1.344  -1.201 -14.721  1.00  0.00     0.010 A 
ATOM     41  C   UNL     1       3.666  -1.167 -15.399  1.00  0.00     0.010 A 
ATOM     42  C   UNL     1       2.376  -0.621 -15.476  1.00  0.00    -0.014 A 
BRANCH  42  43
ATOM     43  C   UNL     1       2.145   0.584 -16.315  1.00  0.00     0.031 A 
ATOM     44  C   UNL     1       2.383   0.534 -17.800  1.00  0.00     0.074 A 
ATOM     45  C   UNL     1       1.821   1.752 -15.722  1.00  0.00     0.049 A 
ATOM     46  N   UNL     1       2.352   1.507 -18.673  1.00  0.00    -0.248 NA
ATOM     47  C   UNL     1       2.720  -0.778 -18.378  1.00  0.00     0.031 C 
ATOM     48  C   UNL     1       1.628   1.947 -14.282  1.00  0.00     0.029 A 
ATOM     49  N   UNL     1       1.635   3.006 -16.251  1.00  0.00    -0.354 N 
ATOM     50  C   UNL     1       2.688   0.935 -19.894  1.00  0.00     0.074 A 
ATOM     51  C   UNL     1       2.951  -0.465 -19.646  1.00  0.00     0.031 C 
ATOM     52  C   UNL     1       1.363   3.241 -14.043  1.00  0.00     0.029 A 
ATOM     53  C   UNL     1       1.409   3.977 -15.301  1.00  0.00     0.049 A 
ATOM     54  H   UNL     1       1.660   3.193 -17.217  1.00  0.00     0.167 HD
ATOM     55  C   UNL     1       2.743   1.516 -21.116  1.00  0.00     0.034 A 
ATOM     56  C   UNL     1       1.285   5.313 -15.424  1.00  0.00     0.034 A 
ATOM     57  C   UNL     1       2.456   2.904 -21.365  1.00  0.00     0.049 A 
ATOM     58  C   UNL     1       1.360   5.930 -16.795  1.00  0.00     0.074 A 
ATOM     59  C   UNL     1       2.429   3.571 -22.578  1.00  0.00     0.029 A 
ATOM     60  N   UNL     1       2.155   3.839 -20.388  1.00  0.00    -0.354 N 
ATOM     61  N   UNL     1       1.537   5.346 -17.956  1.00  0.00    -0.248 NA
ATOM     62  C   UNL     1       1.187   7.388 -16.878  1.00  0.00     0.031 C 
ATOM     63  C   UNL     1       2.137   4.916 -22.331  1.00  0.00     0.029 A 
ATOM     64  C   UNL     1       1.950   5.079 -20.968  1.00  0.00     0.049 A 
ATOM     65  H   UNL     1       2.095   3.650 -19.424  1.00  0.00     0.167 HD
ATOM     66  C   UNL     1       1.464   6.359 -18.906  1.00  0.00     0.074 A 
ATOM     67  C   UNL     1       1.194   7.587 -18.189  1.00  0.00     0.031 C 
ATOM     68  C   UNL     1       1.626   6.284 -20.249  1.00  0.00     0.034 A 
BRANCH  55  69
ATOM     69  C   UNL     1       3.072   0.642 -22.299  1.00  0.00     0.023 A 
ATOM     70  C   UNL     1       2.111  -0.280 -22.763  1.00  0.00     0.012 A 
ATOM     71  C   UNL     1       4.280   0.797 -23.006  1.00  0.00     0.148 A 
ATOM     72  C   UNL     1       2.357  -1.052 -23.898  1.00  0.00     0.002 A 
ATOM     73  C   UNL     1       4.500   0.056 -24.162  1.00  0.00     0.091 A 
ATOM     74  F   UNL     1       5.186   1.669 -22.541  1.00  0.00    -0.205 F 
ATOM     75  C   UNL     1       3.544  -0.875 -24.603  1.00  0.00     0.022 A 
BRANCH  73  76
ATOM     76  S   UNL     1       5.958   0.261 -25.190  1.00  0.00     0.127 S 
ATOM     77  O   UNL     1       6.606  -1.042 -25.045  1.00  0.00    -0.237 OA
ATOM     78  O   UNL     1       5.372   0.507 -26.507  1.00  0.00    -0.237 OA
ATOM     79  O   UNL     1       6.695   1.384 -24.628  1.00  0.00    -0.744 OA
ENDBRANCH  73  76
ENDBRANCH  55  69
BRANCH  56  80
ATOM     80  C   UNL     1       1.059   6.167 -14.222  1.00  0.00     0.023 A 
ATOM     81  C   UNL     1      -0.166   6.845 -14.070  1.00  0.00     0.012 A 
ATOM     82  C   UNL     1       2.058   6.330 -13.243  1.00  0.00     0.148 A 
ATOM     83  C   UNL     1      -0.373   7.709 -12.993  1.00  0.00     0.002 A 
ATOM     84  C   UNL     1       1.823   7.146 -12.142  1.00  0.00     0.091 A 
ATOM     85  F   UNL     1       3.224   5.689 -13.410  1.00  0.00    -0.205 F 
ATOM     86  C   UNL     1       0.617   7.853 -12.026  1.00  0.00     0.022 A 
BRANCH  84  87
ATOM     87  S   UNL     1       2.994   7.290 -10.788  1.00  0.00     0.127 S 
ATOM     88  O   UNL     1       3.539   8.627 -11.005  1.00  0.00    -0.237 OA
ATOM     89  O   UNL     1       2.123   7.162  -9.619  1.00  0.00    -0.237 OA
ATOM     90  O   UNL     1       3.929   6.187 -10.963  1.00  0.00    -0.744 OA
ENDBRANCH  84  87
ENDBRANCH  56  80
BRANCH  68  91
ATOM     91  C   UNL     1       1.478   7.556 -21.043  1.00  0.00     0.023 A 
ATOM     92  C   UNL     1       2.470   8.553 -20.961  1.00  0.00     0.012 A 
ATOM     93  C   UNL     1       0.389   7.733 -21.918  1.00  0.00     0.148 A 
ATOM     94  C   UNL     1       2.361   9.724 -21.711  1.00  0.00     0.002 A 
ATOM     95  C   UNL     1       0.314   8.879 -22.701  1.00  0.00     0.091 A 
ATOM     96  F   UNL     1      -0.552   6.779 -21.971  1.00  0.00    -0.205 F 
ATOM     97  C   UNL     1       1.291   9.881 -22.588  1.00  0.00     0.022 A 
BRANCH  95  98
ATOM     98  S   UNL     1      -0.974   9.129 -23.929  1.00  0.00     0.127 S 
ATOM     99  O   UNL     1      -1.740  10.224 -23.337  1.00  0.00    -0.237 OA
ATOM    100  O   UNL     1      -0.201   9.497 -25.115  1.00  0.00    -0.237 OA
ATOM    101  O   UNL     1      -1.683   7.861 -24.035  1.00  0.00    -0.744 OA
ENDBRANCH  95  98
ENDBRANCH  68  91
ENDBRANCH  42  43
ENDBRANCH  34  37
ENDBRANCH  32  33
ENDBRANCH   1  32
TORSDOF 18
