REMARK SMILES Cc1cc2c(c(C)c1Br)C=C(C(=O)NCCCNC(=O)c1ccc(-c3c4nc(c(-c5cccc(S(=O)(=O)[O-])c5F)c5ccc([nH]5)c(-c5cccc(S(=O)(=O)[O-])c5F)c5nc(c(-c6cccc(S(=O)(=O)[O-])c6F)c6ccc3[nH]6)C=C5)C=C4)cc1)[C@@H](C(F)(F)F)O2
REMARK SMILES IDX 17 1 16 2 15 3 14 4 12 5 13 6 11 8 1 9 2 10 3 11 8 12 4 13
REMARK SMILES IDX 6 14 9 15 5 16 89 17 7 18 10 19 84 20 85 21 86 22 87 23
REMARK SMILES IDX 88 24 18 25 19 26 20 28 21 29 22 30 83 31 23 32 82 33 24 34
REMARK SMILES IDX 25 35 26 36 76 37 27 38 81 39 75 40 77 41 28 42 80 43 74 44
REMARK SMILES IDX 73 45 29 47 61 48 41 49 60 50 42 51 45 52 59 53 78 54 43 55
REMARK SMILES IDX 44 56 58 58 79 59 46 60 30 61 31 62 39 63 32 64 34 65 40 66
REMARK SMILES IDX 33 67 35 68 36 69 37 70 38 71 62 72 63 73 71 74 64 75 66 76
REMARK SMILES IDX 72 77 65 78 67 79 68 80 69 81 70 82 47 83 48 84 56 85 49 86
REMARK SMILES IDX 51 87 57 88 50 89 52 90 53 91 54 92 55 93
REMARK H PARENT 14 7 18 27 77 46 45 57
REMARK Flexibility Score: inf
ROOT
ATOM      1  C   UNL     1       1.450 -10.960   1.524  1.00  0.00     0.118 C 
ENDROOT
BRANCH   1   2
ATOM      2  C   UNL     1       1.846  -9.493   1.434  1.00  0.00     0.042 C 
BRANCH   2   3
ATOM      3  C   UNL     1       1.674  -8.938   0.030  1.00  0.00     0.118 C 
BRANCH   3   4
ATOM      4  N   UNL     1       0.279  -8.659  -0.281  1.00  0.00    -0.352 N 
ATOM      5  C   UNL     1      -0.497  -7.567  -0.466  1.00  0.00     0.251 C 
ATOM      6  O   UNL     1      -1.677  -7.802  -0.748  1.00  0.00    -0.270 OA
ATOM      7  H   UNL     1      -0.238  -9.490  -0.386  1.00  0.00     0.163 HD
BRANCH   5   8
ATOM      8  C   UNL     1      -0.028  -6.155  -0.365  1.00  0.00     0.067 C 
ATOM      9  C   UNL     1       0.815   0.282   0.006  1.00  0.00     0.046 C 
ATOM     10  C   UNL     1       0.279  -1.113  -0.175  1.00  0.00    -0.033 A 
ATOM     11  C   UNL     1       1.130  -2.177   0.132  1.00  0.00     0.051 A 
ATOM     12  C   UNL     1      -1.040  -1.395  -0.592  1.00  0.00     0.024 A 
ATOM     13  C   UNL     1       0.698  -3.490   0.000  1.00  0.00     0.128 A 
ATOM     14  C   UNL     1      -1.495  -2.733  -0.730  1.00  0.00    -0.026 A 
ATOM     15  Br  UNL     1      -2.210   0.080  -0.945  1.00  0.00    -0.050 Br
ATOM     16  C   UNL     1      -0.601  -3.789  -0.420  1.00  0.00     0.021 A 
ATOM     17  O   UNL     1       1.614  -4.437   0.352  1.00  0.00    -0.475 OA
ATOM     18  C   UNL     1      -2.897  -3.072  -1.181  1.00  0.00     0.046 C 
ATOM     19  C   UNL     1      -0.977  -5.207  -0.474  1.00  0.00     0.026 C 
ATOM     20  C   UNL     1       1.407  -5.765  -0.183  1.00  0.00     0.314 C 
BRANCH  20  21
ATOM     21  C   UNL     1       2.232  -5.928  -1.474  1.00  0.00     0.429 C 
ATOM     22  F   UNL     1       3.559  -5.945  -1.194  1.00  0.00    -0.167 F 
ATOM     23  F   UNL     1       1.964  -7.086  -2.125  1.00  0.00    -0.167 F 
ATOM     24  F   UNL     1       2.019  -4.929  -2.360  1.00  0.00    -0.167 F 
ENDBRANCH  20  21
ENDBRANCH   5   8
ENDBRANCH   3   4
ENDBRANCH   2   3
ENDBRANCH   1   2
BRANCH   1  25
ATOM     25  N   UNL     1       2.303 -11.803   0.688  1.00  0.00    -0.352 N 
ATOM     26  C   UNL     1       3.318 -12.656   1.041  1.00  0.00     0.251 C 
ATOM     27  H   UNL     1       2.121 -11.751  -0.278  1.00  0.00     0.163 HD
ATOM     28  O   UNL     1       4.104 -13.055   0.183  1.00  0.00    -0.269 OA
BRANCH  26  29
ATOM     29  C   UNL     1       3.459 -13.093   2.442  1.00  0.00     0.039 A 
ATOM     30  C   UNL     1       4.732 -13.212   3.004  1.00  0.00     0.014 A 
ATOM     31  C   UNL     1       2.325 -13.406   3.195  1.00  0.00     0.014 A 
ATOM     32  C   UNL     1       4.859 -13.589   4.341  1.00  0.00     0.010 A 
ATOM     33  C   UNL     1       2.447 -13.672   4.550  1.00  0.00     0.010 A 
ATOM     34  C   UNL     1       3.715 -13.792   5.132  1.00  0.00    -0.014 A 
BRANCH  34  35
ATOM     35  C   UNL     1       3.818 -14.166   6.562  1.00  0.00     0.031 A 
ATOM     36  C   UNL     1       3.259 -15.482   7.032  1.00  0.00     0.074 A 
ATOM     37  C   UNL     1       4.351 -13.296   7.441  1.00  0.00     0.049 A 
ATOM     38  N   UNL     1       3.221 -15.974   8.242  1.00  0.00    -0.248 NA
ATOM     39  C   UNL     1       2.635 -16.349   6.016  1.00  0.00     0.031 C 
ATOM     40  C   UNL     1       4.858 -11.963   7.107  1.00  0.00     0.029 A 
ATOM     41  N   UNL     1       4.548 -13.396   8.794  1.00  0.00    -0.354 N 
ATOM     42  C   UNL     1       2.556 -17.189   8.134  1.00  0.00     0.074 A 
ATOM     43  C   UNL     1       2.149 -17.333   6.756  1.00  0.00     0.031 C 
ATOM     44  C   UNL     1       5.339 -11.384   8.219  1.00  0.00     0.029 A 
ATOM     45  C   UNL     1       5.145 -12.288   9.348  1.00  0.00     0.049 A 
ATOM     46  H   UNL     1       4.287 -14.187   9.319  1.00  0.00     0.167 HD
ATOM     47  C   UNL     1       2.347 -18.126   9.088  1.00  0.00     0.034 A 
ATOM     48  C   UNL     1       5.505 -12.036  10.623  1.00  0.00     0.034 A 
ATOM     49  C   UNL     1       2.798 -17.994  10.444  1.00  0.00     0.049 A 
ATOM     50  C   UNL     1       5.269 -13.097  11.664  1.00  0.00     0.074 A 
ATOM     51  C   UNL     1       2.696 -18.910  11.475  1.00  0.00     0.029 A 
ATOM     52  N   UNL     1       3.441 -16.878  10.958  1.00  0.00    -0.354 N 
ATOM     53  N   UNL     1       4.762 -14.297  11.517  1.00  0.00    -0.248 NA
ATOM     54  C   UNL     1       5.678 -12.784  13.041  1.00  0.00     0.031 C 
ATOM     55  C   UNL     1       3.257 -18.337  12.619  1.00  0.00     0.029 A 
ATOM     56  C   UNL     1       3.733 -17.076  12.294  1.00  0.00     0.049 A 
ATOM     57  H   UNL     1       3.657 -16.065  10.446  1.00  0.00     0.167 HD
ATOM     58  C   UNL     1       4.819 -14.894  12.771  1.00  0.00     0.074 A 
ATOM     59  C   UNL     1       5.429 -13.930  13.663  1.00  0.00     0.031 C 
ATOM     60  C   UNL     1       4.389 -16.122  13.153  1.00  0.00     0.034 A 
BRANCH  47  61
ATOM     61  C   UNL     1       1.672 -19.409   8.676  1.00  0.00     0.023 A 
ATOM     62  C   UNL     1       2.365 -20.317   7.848  1.00  0.00     0.012 A 
ATOM     63  C   UNL     1       0.394 -19.752   9.158  1.00  0.00     0.148 A 
ATOM     64  C   UNL     1       1.786 -21.529   7.478  1.00  0.00     0.002 A 
ATOM     65  C   UNL     1      -0.157 -20.985   8.825  1.00  0.00     0.091 A 
ATOM     66  F   UNL     1      -0.258 -18.869   9.927  1.00  0.00    -0.205 F 
ATOM     67  C   UNL     1       0.531 -21.868   7.976  1.00  0.00     0.022 A 
BRANCH  65  68
ATOM     68  S   UNL     1      -1.728 -21.557   9.480  1.00  0.00     0.127 S 
ATOM     69  O   UNL     1      -2.563 -21.567   8.279  1.00  0.00    -0.237 OA
ATOM     70  O   UNL     1      -1.382 -22.883   9.992  1.00  0.00    -0.237 OA
ATOM     71  O   UNL     1      -2.116 -20.592  10.499  1.00  0.00    -0.744 OA
ENDBRANCH  65  68
ENDBRANCH  47  61
BRANCH  48  72
ATOM     72  C   UNL     1       6.218 -10.768  10.953  1.00  0.00     0.023 A 
ATOM     73  C   UNL     1       7.582 -10.821  11.301  1.00  0.00     0.012 A 
ATOM     74  C   UNL     1       5.582  -9.514  10.863  1.00  0.00     0.148 A 
ATOM     75  C   UNL     1       8.295  -9.653  11.572  1.00  0.00     0.002 A 
ATOM     76  C   UNL     1       6.313  -8.350  11.079  1.00  0.00     0.091 A 
ATOM     77  F   UNL     1       4.282  -9.483  10.538  1.00  0.00    -0.205 F 
ATOM     78  C   UNL     1       7.665  -8.418  11.450  1.00  0.00     0.022 A 
BRANCH  76  79
ATOM     79  S   UNL     1       5.627  -6.711  10.809  1.00  0.00     0.127 S 
ATOM     80  O   UNL     1       5.613  -6.165  12.164  1.00  0.00    -0.237 OA
ATOM     81  O   UNL     1       6.618  -6.115   9.913  1.00  0.00    -0.237 OA
ATOM     82  O   UNL     1       4.319  -6.925  10.204  1.00  0.00    -0.744 OA
ENDBRANCH  76  79
ENDBRANCH  48  72
BRANCH  60  83
ATOM     83  C   UNL     1       4.564 -16.519  14.595  1.00  0.00     0.023 A 
ATOM     84  C   UNL     1       3.725 -15.955  15.575  1.00  0.00     0.012 A 
ATOM     85  C   UNL     1       5.451 -17.555  14.952  1.00  0.00     0.148 A 
ATOM     86  C   UNL     1       3.774 -16.407  16.893  1.00  0.00     0.002 A 
ATOM     87  C   UNL     1       5.456 -18.036  16.255  1.00  0.00     0.091 A 
ATOM     88  F   UNL     1       6.248 -18.069  14.004  1.00  0.00    -0.205 F 
ATOM     89  C   UNL     1       4.626 -17.457  17.229  1.00  0.00     0.022 A 
BRANCH  87  90
ATOM     90  S   UNL     1       6.433 -19.457  16.760  1.00  0.00     0.127 S 
ATOM     91  O   UNL     1       7.387 -18.849  17.685  1.00  0.00    -0.237 OA
ATOM     92  O   UNL     1       5.428 -20.311  17.393  1.00  0.00    -0.237 OA
ATOM     93  O   UNL     1       7.014 -20.003  15.541  1.00  0.00    -0.744 OA
ENDBRANCH  87  90
ENDBRANCH  60  83
ENDBRANCH  34  35
ENDBRANCH  26  29
ENDBRANCH   1  25
TORSDOF 14
