REMARK SMILES C/C(=C\C(=O)c1c(O)n(C)c2ccccc2c1=O)Nc1ccc(C(=O)NCCCNC(=O)c2ccc(-c3c4nc(c(-c5cccc(S(=O)(=O)[O-])c5F)c5ccc([nH]5)c(-c5cccc(S(=O)(=O)[O-])c5F)c5nc(c(-c6cccc(S(=O)(=O)[O-])c6F)c6ccc3[nH]6)C=C5)C=C4)cc2)cc1
REMARK SMILES IDX 27 1 26 2 24 3 25 4 23 6 20 7 21 8 97 9 22 10 96 11 19 12
REMARK SMILES IDX 2 14 1 15 3 16 4 17 5 18 6 19 7 20 17 21 9 22 16 23 18 24
REMARK SMILES IDX 10 25 11 26 15 27 12 28 14 29 13 30 8 31 28 33 29 34 30 35
REMARK SMILES IDX 31 36 32 38 33 39 34 40 95 41 35 42 94 43 36 44 37 45 38 46
REMARK SMILES IDX 88 47 39 48 93 49 87 50 89 51 40 52 92 53 86 54 85 55 41 57
REMARK SMILES IDX 73 58 53 59 72 60 54 61 57 62 71 63 90 64 55 65 56 66 70 68
REMARK SMILES IDX 91 69 58 70 42 71 43 72 51 73 44 74 46 75 52 76 45 77 47 78
REMARK SMILES IDX 48 79 49 80 50 81 74 82 75 83 83 84 76 85 78 86 84 87 77 88
REMARK SMILES IDX 79 89 80 90 81 91 82 92 59 93 60 94 68 95 61 96 63 97 69 98
REMARK SMILES IDX 62 99 64 100 65 101 66 102 67 103
REMARK H PARENT 26 5 19 13 8 32 30 37 89 56 57 67
REMARK Flexibility Score: inf
ROOT
ATOM      1  C   UNL     1       2.968   7.357   1.095  1.00  0.00     0.118 C 
ENDROOT
BRANCH   1   2
ATOM      2  N   UNL     1       3.945   6.368   1.510  1.00  0.00    -0.352 N 
ATOM      3  C   UNL     1       4.259   5.079   1.192  1.00  0.00     0.251 C 
ATOM      4  O   UNL     1       5.229   4.618   1.805  1.00  0.00    -0.269 OA
ATOM      5  H   UNL     1       4.542   6.722   2.208  1.00  0.00     0.163 HD
BRANCH   3   6
ATOM      6  C   UNL     1       3.554   4.196   0.216  1.00  0.00     0.039 A 
ATOM      7  C   UNL     1       2.296   2.208  -1.409  1.00  0.00     0.038 A 
ATOM      8  C   UNL     1       3.481   1.940  -0.732  1.00  0.00     0.027 A 
ATOM      9  C   UNL     1       1.805   3.516  -1.341  1.00  0.00     0.027 A 
ATOM     10  C   UNL     1       4.087   2.904   0.080  1.00  0.00     0.016 A 
ATOM     11  C   UNL     1       2.427   4.495  -0.546  1.00  0.00     0.016 A 
BRANCH   7  12
ATOM     12  N   UNL     1       1.510   1.221  -2.040  1.00  0.00    -0.359 N 
ATOM     13  H   UNL     1       1.260   1.399  -2.975  1.00  0.00     0.166 HD
BRANCH  12  14
ATOM     14  C   UNL     1       1.041   0.014  -1.494  1.00  0.00     0.016 C 
ATOM     15  C   UNL     1       1.806  -0.568  -0.328  1.00  0.00     0.064 C 
ATOM     16  C   UNL     1      -0.081  -0.546  -2.005  1.00  0.00     0.074 C 
BRANCH  16  17
ATOM     17  C   UNL     1      -0.938  -1.710  -1.594  1.00  0.00     0.196 C 
ATOM     18  O   UNL     1      -1.912  -2.007  -2.281  1.00  0.00    -0.289 OA
BRANCH  17  19
ATOM     19  C   UNL     1      -0.695  -2.382  -0.306  1.00  0.00     0.130 A 
ATOM     20  C   UNL     1      -0.927  -1.738   0.856  1.00  0.00     0.206 A 
ATOM     21  C   UNL     1      -0.033  -3.705  -0.276  1.00  0.00     0.204 A 
ATOM     22  N   UNL     1      -0.465  -2.197   2.087  1.00  0.00    -0.315 N 
ATOM     23  C   UNL     1       0.321  -4.263   1.047  1.00  0.00     0.047 A 
ATOM     24  O   UNL     1       0.262  -4.302  -1.306  1.00  0.00    -0.288 OA
ATOM     25  C   UNL     1      -0.394  -1.319   3.262  1.00  0.00     0.153 C 
ATOM     26  C   UNL     1       0.118  -3.483   2.201  1.00  0.00     0.055 A 
ATOM     27  C   UNL     1       0.902  -5.540   1.111  1.00  0.00     0.014 A 
ATOM     28  C   UNL     1       0.518  -4.044   3.426  1.00  0.00     0.027 A 
ATOM     29  C   UNL     1       1.290  -6.065   2.339  1.00  0.00     0.001 A 
ATOM     30  C   UNL     1       1.099  -5.317   3.495  1.00  0.00     0.002 A 
BRANCH  20  31
ATOM     31  O   UNL     1      -1.581  -0.519   0.891  1.00  0.00    -0.494 OA
ATOM     32  H   UNL     1      -1.920  -0.146   0.101  1.00  0.00     0.295 HD
ENDBRANCH  20  31
ENDBRANCH  17  19
ENDBRANCH  16  17
ENDBRANCH  12  14
ENDBRANCH   7  12
ENDBRANCH   3   6
ENDBRANCH   1   2
BRANCH   1  33
ATOM     33  C   UNL     1       2.058   7.770   2.246  1.00  0.00     0.042 C 
BRANCH  33  34
ATOM     34  C   UNL     1       2.800   8.505   3.358  1.00  0.00     0.118 C 
BRANCH  34  35
ATOM     35  N   UNL     1       3.381   9.766   2.904  1.00  0.00    -0.352 N 
ATOM     36  C   UNL     1       2.910  11.058   2.979  1.00  0.00     0.251 C 
ATOM     37  H   UNL     1       4.260   9.676   2.469  1.00  0.00     0.163 HD
ATOM     38  O   UNL     1       3.444  11.931   2.308  1.00  0.00    -0.269 OA
BRANCH  36  39
ATOM     39  C   UNL     1       1.750  11.379   3.839  1.00  0.00     0.039 A 
ATOM     40  C   UNL     1       1.616  10.790   5.094  1.00  0.00     0.014 A 
ATOM     41  C   UNL     1       0.785  12.286   3.392  1.00  0.00     0.014 A 
ATOM     42  C   UNL     1       0.427  10.925   5.795  1.00  0.00     0.010 A 
ATOM     43  C   UNL     1      -0.360  12.520   4.162  1.00  0.00     0.010 A 
ATOM     44  C   UNL     1      -0.578  11.794   5.343  1.00  0.00    -0.014 A 
BRANCH  44  45
ATOM     45  C   UNL     1      -1.831  11.922   6.133  1.00  0.00     0.031 A 
ATOM     46  C   UNL     1      -3.168  11.569   5.536  1.00  0.00     0.074 A 
ATOM     47  C   UNL     1      -1.753  12.298   7.426  1.00  0.00     0.049 A 
ATOM     48  N   UNL     1      -4.349  11.594   6.100  1.00  0.00    -0.248 NA
ATOM     49  C   UNL     1      -3.192  11.138   4.128  1.00  0.00     0.031 C 
ATOM     50  C   UNL     1      -0.518  12.681   8.118  1.00  0.00     0.029 A 
ATOM     51  N   UNL     1      -2.717  12.393   8.398  1.00  0.00    -0.354 N 
ATOM     52  C   UNL     1      -5.255  11.235   5.110  1.00  0.00     0.074 A 
ATOM     53  C   UNL     1      -4.492  10.995   3.905  1.00  0.00     0.031 C 
ATOM     54  C   UNL     1      -0.787  12.900   9.412  1.00  0.00     0.029 A 
ATOM     55  C   UNL     1      -2.220  12.745   9.630  1.00  0.00     0.049 A 
ATOM     56  H   UNL     1      -3.672  12.225   8.228  1.00  0.00     0.167 HD
ATOM     57  C   UNL     1      -6.598  11.096   5.200  1.00  0.00     0.034 A 
ATOM     58  C   UNL     1      -2.843  12.934  10.809  1.00  0.00     0.034 A 
ATOM     59  C   UNL     1      -7.349  11.269   6.413  1.00  0.00     0.049 A 
ATOM     60  C   UNL     1      -4.329  12.756  10.887  1.00  0.00     0.074 A 
ATOM     61  C   UNL     1      -8.710  11.107   6.609  1.00  0.00     0.029 A 
ATOM     62  N   UNL     1      -6.808  11.631   7.636  1.00  0.00    -0.354 N 
ATOM     63  N   UNL     1      -5.156  12.365   9.950  1.00  0.00    -0.248 NA
ATOM     64  C   UNL     1      -4.968  13.041  12.179  1.00  0.00     0.031 C 
ATOM     65  C   UNL     1      -8.992  11.374   7.951  1.00  0.00     0.029 A 
ATOM     66  C   UNL     1      -7.806  11.696   8.592  1.00  0.00     0.049 A 
ATOM     67  H   UNL     1      -5.855  11.814   7.801  1.00  0.00     0.167 HD
ATOM     68  C   UNL     1      -6.414  12.351  10.537  1.00  0.00     0.074 A 
ATOM     69  C   UNL     1      -6.237  12.750  11.919  1.00  0.00     0.031 C 
ATOM     70  C   UNL     1      -7.609  12.055   9.972  1.00  0.00     0.034 A 
BRANCH  57  71
ATOM     71  C   UNL     1      -7.352  10.687   3.965  1.00  0.00     0.023 A 
ATOM     72  C   UNL     1      -7.359   9.333   3.579  1.00  0.00     0.012 A 
ATOM     73  C   UNL     1      -8.125  11.620   3.246  1.00  0.00     0.148 A 
ATOM     74  C   UNL     1      -8.117   8.912   2.486  1.00  0.00     0.002 A 
ATOM     75  C   UNL     1      -8.900  11.188   2.176  1.00  0.00     0.091 A 
ATOM     76  F   UNL     1      -8.089  12.905   3.624  1.00  0.00    -0.205 F 
ATOM     77  C   UNL     1      -8.894   9.837   1.792  1.00  0.00     0.022 A 
BRANCH  75  78
ATOM     78  S   UNL     1      -9.977  12.287   1.248  1.00  0.00     0.127 S 
ATOM     79  O   UNL     1      -9.317  12.312  -0.057  1.00  0.00    -0.237 OA
ATOM     80  O   UNL     1     -11.249  11.563   1.274  1.00  0.00    -0.237 OA
ATOM     81  O   UNL     1      -9.979  13.552   1.967  1.00  0.00    -0.744 OA
ENDBRANCH  75  78
ENDBRANCH  57  71
BRANCH  58  82
ATOM     82  C   UNL     1      -2.031  13.273  12.008  1.00  0.00     0.023 A 
ATOM     83  C   UNL     1      -1.793  12.284  12.980  1.00  0.00     0.012 A 
ATOM     84  C   UNL     1      -1.407  14.530  12.131  1.00  0.00     0.148 A 
ATOM     85  C   UNL     1      -0.942  12.539  14.056  1.00  0.00     0.002 A 
ATOM     86  C   UNL     1      -0.524  14.761  13.178  1.00  0.00     0.091 A 
ATOM     87  F   UNL     1      -1.654  15.453  11.192  1.00  0.00    -0.205 F 
ATOM     88  C   UNL     1      -0.297  13.771  14.147  1.00  0.00     0.022 A 
BRANCH  86  89
ATOM     89  S   UNL     1       0.449  16.265  13.309  1.00  0.00     0.127 S 
ATOM     90  O   UNL     1      -0.053  16.837  14.557  1.00  0.00    -0.237 OA
ATOM     91  O   UNL     1       1.810  15.733  13.378  1.00  0.00    -0.237 OA
ATOM     92  O   UNL     1       0.158  17.033  12.107  1.00  0.00    -0.744 OA
ENDBRANCH  86  89
ENDBRANCH  58  82
BRANCH  70  93
ATOM     93  C   UNL     1      -8.834  12.145  10.835  1.00  0.00     0.023 A 
ATOM     94  C   UNL     1      -9.413  13.406  11.075  1.00  0.00     0.012 A 
ATOM     95  C   UNL     1      -9.476  10.981  11.299  1.00  0.00     0.148 A 
ATOM     96  C   UNL     1     -10.616  13.508  11.771  1.00  0.00     0.002 A 
ATOM     97  C   UNL     1     -10.691  11.088  11.963  1.00  0.00     0.091 A 
ATOM     98  F   UNL     1      -8.896   9.796  11.062  1.00  0.00    -0.205 F 
ATOM     99  C   UNL     1     -11.260  12.351  12.204  1.00  0.00     0.022 A 
BRANCH  97 100
ATOM    100  S   UNL     1     -11.634   9.655  12.494  1.00  0.00     0.127 S 
ATOM    101  O   UNL     1     -11.570   9.780  13.950  1.00  0.00    -0.237 OA
ATOM    102  O   UNL     1     -12.951   9.920  11.915  1.00  0.00    -0.237 OA
ATOM    103  O   UNL     1     -10.949   8.493  11.943  1.00  0.00    -0.744 OA
ENDBRANCH  97 100
ENDBRANCH  70  93
ENDBRANCH  44  45
ENDBRANCH  36  39
ENDBRANCH  34  35
ENDBRANCH  33  34
ENDBRANCH   1  33
TORSDOF 18
