REMARK SMILES CCc1c(C(=O)NCC(=O)NCCCNC(=O)c2ccc(-c3c4nc(c(-c5cccc(S(=O)(=O)[O-])c5F)c5ccc([nH]5)c(-c5cccc(S(=O)(=O)[O-])c5F)c5nc(c(-c6cccc(S(=O)(=O)[O-])c6F)c6ccc3[nH]6)C=C5)C=C4)cc2)nnn1-c1ccc(C)cc1
REMARK SMILES IDX 13 1 12 2 11 3 9 4 10 5 8 7 7 8 5 9 6 10 4 12 3 13 83 14
REMARK SMILES IDX 81 15 82 16 2 17 1 18 84 19 85 20 90 21 86 22 89 23 87 24
REMARK SMILES IDX 88 25 14 26 15 27 16 28 17 30 18 31 19 32 80 33 20 34 79 35
REMARK SMILES IDX 21 36 22 37 23 38 73 39 24 40 78 41 72 42 74 43 25 44 77 45
REMARK SMILES IDX 71 46 70 47 26 49 58 50 38 51 57 52 39 53 42 54 56 55 75 56
REMARK SMILES IDX 40 57 41 58 55 60 76 61 43 62 27 63 28 64 36 65 29 66 31 67
REMARK SMILES IDX 37 68 30 69 32 70 33 71 34 72 35 73 59 74 60 75 68 76 61 77
REMARK SMILES IDX 63 78 69 79 62 80 64 81 65 82 66 83 67 84 44 85 45 86 53 87
REMARK SMILES IDX 46 88 48 89 54 90 47 91 49 92 50 93 51 94 52 95
REMARK H PARENT 11 6 7 11 15 29 74 48 42 59
REMARK Flexibility Score: inf
ROOT
ATOM      1  C   UNL     1       2.168  -1.609   3.659  1.00  0.00     0.042 C 
ENDROOT
BRANCH   1   2
ATOM      2  C   UNL     1       1.408  -0.859   2.571  1.00  0.00     0.117 C 
BRANCH   2   3
ATOM      3  N   UNL     1       1.847   0.508   2.379  1.00  0.00    -0.355 N 
ATOM      4  C   UNL     1       2.582   1.080   1.387  1.00  0.00     0.239 C 
ATOM      5  O   UNL     1       2.532   2.309   1.293  1.00  0.00    -0.273 OA
ATOM      6  H   UNL     1       1.566   1.130   3.088  1.00  0.00     0.163 HD
BRANCH   4   7
ATOM      7  C   UNL     1       3.278   0.288   0.276  1.00  0.00     0.216 C 
BRANCH   7   8
ATOM      8  N   UNL     1       3.850  -0.999   0.566  1.00  0.00    -0.342 N 
ATOM      9  C   UNL     1       3.521  -2.293   0.294  1.00  0.00     0.274 C 
ATOM     10  O   UNL     1       4.398  -3.101   0.623  1.00  0.00    -0.267 OA
ATOM     11  H   UNL     1       4.681  -0.928   1.089  1.00  0.00     0.164 HD
BRANCH   9  12
ATOM     12  C   UNL     1       2.237  -2.790  -0.235  1.00  0.00     0.174 A 
ATOM     13  C   UNL     1       1.117  -2.307  -0.931  1.00  0.00     0.077 A 
ATOM     14  N   UNL     1       0.319  -3.454  -1.071  1.00  0.00    -0.217 N 
ATOM     15  N   UNL     1       1.980  -4.111   0.107  1.00  0.00    -0.124 NA
ATOM     16  N   UNL     1       0.778  -4.447  -0.296  1.00  0.00    -0.061 NA
BRANCH  13  17
ATOM     17  C   UNL     1       0.632  -0.980  -1.450  1.00  0.00     0.055 C 
ATOM     18  C   UNL     1      -0.087  -0.104  -0.428  1.00  0.00     0.011 C 
ENDBRANCH  13  17
BRANCH  14  19
ATOM     19  C   UNL     1      -0.847  -3.666  -1.843  1.00  0.00     0.067 A 
ATOM     20  C   UNL     1      -1.905  -4.396  -1.294  1.00  0.00     0.029 A 
ATOM     21  C   UNL     1      -0.947  -3.152  -3.139  1.00  0.00     0.029 A 
ATOM     22  C   UNL     1      -3.109  -4.488  -1.992  1.00  0.00     0.005 A 
ATOM     23  C   UNL     1      -2.150  -3.250  -3.834  1.00  0.00     0.005 A 
ATOM     24  C   UNL     1      -3.249  -3.888  -3.251  1.00  0.00    -0.051 A 
ATOM     25  C   UNL     1      -4.571  -3.920  -3.955  1.00  0.00     0.044 C 
ENDBRANCH  14  19
ENDBRANCH   9  12
ENDBRANCH   7   8
ENDBRANCH   4   7
ENDBRANCH   2   3
ENDBRANCH   1   2
BRANCH   1  26
ATOM     26  C   UNL     1       1.600  -1.295   5.032  1.00  0.00     0.118 C 
BRANCH  26  27
ATOM     27  N   UNL     1       0.285  -1.917   5.254  1.00  0.00    -0.352 N 
ATOM     28  C   UNL     1      -0.542  -1.786   6.359  1.00  0.00     0.251 C 
ATOM     29  H   UNL     1      -0.048  -2.496   4.530  1.00  0.00     0.163 HD
ATOM     30  O   UNL     1      -1.427  -2.588   6.594  1.00  0.00    -0.269 OA
BRANCH  28  31
ATOM     31  C   UNL     1      -0.323  -0.623   7.236  1.00  0.00     0.039 A 
ATOM     32  C   UNL     1      -0.279  -0.744   8.628  1.00  0.00     0.014 A 
ATOM     33  C   UNL     1      -0.074   0.591   6.606  1.00  0.00     0.014 A 
ATOM     34  C   UNL     1       0.115   0.362   9.378  1.00  0.00     0.010 A 
ATOM     35  C   UNL     1       0.495   1.604   7.322  1.00  0.00     0.010 A 
ATOM     36  C   UNL     1       0.524   1.525   8.711  1.00  0.00    -0.014 A 
BRANCH  36  37
ATOM     37  C   UNL     1       1.125   2.647   9.419  1.00  0.00     0.031 A 
ATOM     38  C   UNL     1       2.342   2.295  10.200  1.00  0.00     0.074 A 
ATOM     39  C   UNL     1       0.749   3.920   9.153  1.00  0.00     0.049 A 
ATOM     40  N   UNL     1       2.487   2.353  11.482  1.00  0.00    -0.248 NA
ATOM     41  C   UNL     1       3.473   1.651   9.509  1.00  0.00     0.031 C 
ATOM     42  C   UNL     1      -0.250   4.372   8.172  1.00  0.00     0.029 A 
ATOM     43  N   UNL     1       1.305   5.091   9.563  1.00  0.00    -0.354 N 
ATOM     44  C   UNL     1       3.814   2.008  11.728  1.00  0.00     0.074 A 
ATOM     45  C   UNL     1       4.285   1.366  10.531  1.00  0.00     0.031 C 
ATOM     46  C   UNL     1      -0.024   5.666   7.863  1.00  0.00     0.029 A 
ATOM     47  C   UNL     1       1.018   6.175   8.732  1.00  0.00     0.049 A 
ATOM     48  H   UNL     1       1.860   5.168  10.373  1.00  0.00     0.167 HD
ATOM     49  C   UNL     1       4.489   2.538  12.787  1.00  0.00     0.034 A 
ATOM     50  C   UNL     1       1.637   7.384   8.717  1.00  0.00     0.034 A 
ATOM     51  C   UNL     1       3.579   3.188  13.701  1.00  0.00     0.049 A 
ATOM     52  C   UNL     1       2.314   7.536  10.026  1.00  0.00     0.074 A 
ATOM     53  C   UNL     1       2.468   2.789  14.417  1.00  0.00     0.029 A 
ATOM     54  N   UNL     1       3.524   4.561  13.642  1.00  0.00    -0.354 N 
ATOM     55  N   UNL     1       1.664   7.643  11.151  1.00  0.00    -0.248 NA
ATOM     56  C   UNL     1       3.691   7.082  10.137  1.00  0.00     0.031 C 
ATOM     57  C   UNL     1       1.564   3.887  14.323  1.00  0.00     0.029 A 
ATOM     58  C   UNL     1       2.205   4.926  13.645  1.00  0.00     0.049 A 
ATOM     59  H   UNL     1       4.295   5.172  13.605  1.00  0.00     0.167 HD
ATOM     60  C   UNL     1       2.356   6.807  12.017  1.00  0.00     0.074 A 
ATOM     61  C   UNL     1       3.656   6.589  11.379  1.00  0.00     0.031 C 
ATOM     62  C   UNL     1       1.702   6.117  12.998  1.00  0.00     0.034 A 
BRANCH  49  63
ATOM     63  C   UNL     1       5.971   2.846  12.831  1.00  0.00     0.023 A 
ATOM     64  C   UNL     1       6.490   3.296  14.068  1.00  0.00     0.012 A 
ATOM     65  C   UNL     1       6.800   3.003  11.697  1.00  0.00     0.148 A 
ATOM     66  C   UNL     1       7.727   3.943  14.157  1.00  0.00     0.002 A 
ATOM     67  C   UNL     1       8.061   3.582  11.803  1.00  0.00     0.091 A 
ATOM     68  F   UNL     1       6.337   2.717  10.480  1.00  0.00    -0.205 F 
ATOM     69  C   UNL     1       8.514   4.086  13.023  1.00  0.00     0.022 A 
BRANCH  67  70
ATOM     70  S   UNL     1       9.140   3.762  10.376  1.00  0.00     0.127 S 
ATOM     71  O   UNL     1       9.087   5.203  10.150  1.00  0.00    -0.237 OA
ATOM     72  O   UNL     1      10.411   3.261  10.899  1.00  0.00    -0.237 OA
ATOM     73  O   UNL     1       8.554   2.931   9.331  1.00  0.00    -0.744 OA
ENDBRANCH  67  70
ENDBRANCH  49  63
BRANCH  50  74
ATOM     74  C   UNL     1       1.880   8.317   7.590  1.00  0.00     0.023 A 
ATOM     75  C   UNL     1       2.226   9.660   7.846  1.00  0.00     0.012 A 
ATOM     76  C   UNL     1       2.045   7.834   6.272  1.00  0.00     0.148 A 
ATOM     77  C   UNL     1       2.748  10.480   6.836  1.00  0.00     0.002 A 
ATOM     78  C   UNL     1       2.557   8.655   5.270  1.00  0.00     0.091 A 
ATOM     79  F   UNL     1       1.794   6.543   6.022  1.00  0.00    -0.205 F 
ATOM     80  C   UNL     1       2.921   9.976   5.550  1.00  0.00     0.022 A 
BRANCH  78  81
ATOM     81  S   UNL     1       2.833   8.052   3.599  1.00  0.00     0.127 S 
ATOM     82  O   UNL     1       2.274   9.133   2.787  1.00  0.00    -0.237 OA
ATOM     83  O   UNL     1       4.289   7.942   3.556  1.00  0.00    -0.237 OA
ATOM     84  O   UNL     1       2.098   6.797   3.510  1.00  0.00    -0.744 OA
ENDBRANCH  78  81
ENDBRANCH  50  74
BRANCH  62  85
ATOM     85  C   UNL     1       0.254   6.453  13.264  1.00  0.00     0.023 A 
ATOM     86  C   UNL     1      -0.761   6.270  12.300  1.00  0.00     0.012 A 
ATOM     87  C   UNL     1      -0.116   6.777  14.579  1.00  0.00     0.148 A 
ATOM     88  C   UNL     1      -2.109   6.429  12.633  1.00  0.00     0.002 A 
ATOM     89  C   UNL     1      -1.458   6.885  14.919  1.00  0.00     0.091 A 
ATOM     90  F   UNL     1       0.857   6.942  15.487  1.00  0.00    -0.205 F 
ATOM     91  C   UNL     1      -2.459   6.722  13.948  1.00  0.00     0.022 A 
BRANCH  89  92
ATOM     92  S   UNL     1      -1.970   7.128  16.620  1.00  0.00     0.127 S 
ATOM     93  O   UNL     1      -2.357   8.537  16.623  1.00  0.00    -0.237 OA
ATOM     94  O   UNL     1      -3.084   6.187  16.752  1.00  0.00    -0.237 OA
ATOM     95  O   UNL     1      -0.811   6.793  17.439  1.00  0.00    -0.744 OA
ENDBRANCH  89  92
ENDBRANCH  62  85
ENDBRANCH  36  37
ENDBRANCH  28  31
ENDBRANCH  26  27
ENDBRANCH   1  26
TORSDOF 17
