REMARK SMILES C[C@@](O)(c1cccc(O)c1)[C@@H](F)C(=O)NCCCNC(=O)c1ccc(-c2c3nc(c(-c4cccc(S(=O)(=O)[O-])c4F)c4ccc([nH]4)c(-c4cccc(S(=O)(=O)[O-])c4F)c4nc(c(-c5cccc(S(=O)(=O)[O-])c5F)c5ccc2[nH]5)C=C4)C=C3)cc1
REMARK SMILES IDX 17 1 16 2 15 3 13 4 14 5 11 7 12 8 2 9 1 10 3 11 4 13 5 14
REMARK SMILES IDX 10 15 6 16 8 17 7 18 9 19 18 21 19 22 20 23 21 25 22 26
REMARK SMILES IDX 23 27 84 28 24 29 83 30 25 31 26 32 27 33 77 34 28 35 82 36
REMARK SMILES IDX 76 37 78 38 29 39 81 40 75 41 74 42 30 44 62 45 42 46 61 47
REMARK SMILES IDX 43 48 46 49 60 50 79 51 44 52 45 53 59 55 80 56 47 57 31 58
REMARK SMILES IDX 32 59 40 60 33 61 35 62 41 63 34 64 36 65 37 66 38 67 39 68
REMARK SMILES IDX 63 69 64 70 72 71 65 72 67 73 73 74 66 75 68 76 69 77 70 78
REMARK SMILES IDX 71 79 48 80 49 81 57 82 50 83 52 84 58 85 51 86 53 87 54 88
REMARK SMILES IDX 55 89 56 90
REMARK H PARENT 15 6 3 12 9 20 19 24 78 43 46 54
REMARK Flexibility Score: inf
ROOT
ATOM      1  C   UNL     1       3.010   0.853   1.387  1.00  0.00     0.042 C 
ENDROOT
BRANCH   1   2
ATOM      2  C   UNL     1       2.693   1.802   0.232  1.00  0.00     0.117 C 
BRANCH   2   3
ATOM      3  N   UNL     1       3.049   1.245  -1.066  1.00  0.00    -0.353 N 
ATOM      4  C   UNL     1       2.274   0.809  -2.101  1.00  0.00     0.257 C 
ATOM      5  O   UNL     1       2.861   0.282  -3.053  1.00  0.00    -0.272 OA
ATOM      6  H   UNL     1       4.018   1.169  -1.224  1.00  0.00     0.163 HD
BRANCH   4   7
ATOM      7  C   UNL     1       0.747   0.898  -2.087  1.00  0.00     0.291 C 
ATOM      8  F   UNL     1       0.276   1.895  -1.283  1.00  0.00    -0.233 F 
BRANCH   7   9
ATOM      9  C   UNL     1       0.066  -0.461  -1.737  1.00  0.00     0.127 C 
ATOM     10  C   UNL     1       0.661  -1.054  -0.452  1.00  0.00     0.051 C 
BRANCH   9  11
ATOM     11  O   UNL     1       0.295  -1.410  -2.796  1.00  0.00    -0.382 OA
ATOM     12  H   UNL     1      -0.131  -2.253  -2.573  1.00  0.00     0.212 HD
ENDBRANCH   9  11
BRANCH   9  13
ATOM     13  C   UNL     1      -1.468  -0.330  -1.666  1.00  0.00    -0.010 A 
ATOM     14  C   UNL     1      -2.176   0.411  -2.632  1.00  0.00     0.007 A 
ATOM     15  C   UNL     1      -2.231  -0.976  -0.674  1.00  0.00     0.053 A 
ATOM     16  C   UNL     1      -3.570   0.532  -2.586  1.00  0.00     0.004 A 
ATOM     17  C   UNL     1      -3.619  -0.861  -0.641  1.00  0.00     0.115 A 
ATOM     18  C   UNL     1      -4.297  -0.106  -1.585  1.00  0.00     0.046 A 
BRANCH  17  19
ATOM     19  O   UNL     1      -4.278  -1.523   0.352  1.00  0.00    -0.508 OA
ATOM     20  H   UNL     1      -5.212  -1.471   0.410  1.00  0.00     0.293 HD
ENDBRANCH  17  19
ENDBRANCH   9  13
ENDBRANCH   7   9
ENDBRANCH   4   7
ENDBRANCH   2   3
ENDBRANCH   1   2
BRANCH   1  21
ATOM     21  C   UNL     1       4.489   0.536   1.559  1.00  0.00     0.118 C 
BRANCH  21  22
ATOM     22  N   UNL     1       5.196   1.608   2.237  1.00  0.00    -0.352 N 
ATOM     23  C   UNL     1       5.814   1.606   3.464  1.00  0.00     0.251 C 
ATOM     24  H   UNL     1       5.240   2.460   1.745  1.00  0.00     0.163 HD
ATOM     25  O   UNL     1       6.135   2.680   3.968  1.00  0.00    -0.269 OA
BRANCH  23  26
ATOM     26  C   UNL     1       6.091   0.339   4.186  1.00  0.00     0.039 A 
ATOM     27  C   UNL     1       5.970   0.322   5.579  1.00  0.00     0.014 A 
ATOM     28  C   UNL     1       6.527  -0.811   3.520  1.00  0.00     0.014 A 
ATOM     29  C   UNL     1       6.258  -0.845   6.293  1.00  0.00     0.010 A 
ATOM     30  C   UNL     1       6.731  -1.999   4.225  1.00  0.00     0.010 A 
ATOM     31  C   UNL     1       6.626  -2.024   5.622  1.00  0.00    -0.014 A 
BRANCH  31  32
ATOM     32  C   UNL     1       6.916  -3.270   6.384  1.00  0.00     0.031 A 
ATOM     33  C   UNL     1       8.289  -3.893   6.355  1.00  0.00     0.074 A 
ATOM     34  C   UNL     1       5.928  -3.869   7.080  1.00  0.00     0.049 A 
ATOM     35  N   UNL     1       8.732  -4.942   7.002  1.00  0.00    -0.248 NA
ATOM     36  C   UNL     1       9.289  -3.278   5.467  1.00  0.00     0.031 C 
ATOM     37  C   UNL     1       4.532  -3.430   7.111  1.00  0.00     0.029 A 
ATOM     38  N   UNL     1       5.944  -4.980   7.886  1.00  0.00    -0.354 N 
ATOM     39  C   UNL     1      10.044  -5.128   6.580  1.00  0.00     0.074 A 
ATOM     40  C   UNL     1      10.313  -4.110   5.588  1.00  0.00     0.031 C 
ATOM     41  C   UNL     1       3.831  -4.247   7.913  1.00  0.00     0.029 A 
ATOM     42  C   UNL     1       4.722  -5.276   8.443  1.00  0.00     0.049 A 
ATOM     43  H   UNL     1       6.755  -5.514   8.051  1.00  0.00     0.167 HD
ATOM     44  C   UNL     1      10.955  -6.038   7.001  1.00  0.00     0.034 A 
ATOM     45  C   UNL     1       4.360  -6.255   9.296  1.00  0.00     0.034 A 
ATOM     46  C   UNL     1      10.703  -7.019   8.023  1.00  0.00     0.049 A 
ATOM     47  C   UNL     1       5.411  -7.198   9.815  1.00  0.00     0.074 A 
ATOM     48  C   UNL     1      11.585  -7.926   8.585  1.00  0.00     0.029 A 
ATOM     49  N   UNL     1       9.477  -7.224   8.637  1.00  0.00    -0.354 N 
ATOM     50  N   UNL     1       6.691  -7.244   9.534  1.00  0.00    -0.248 NA
ATOM     51  C   UNL     1       4.978  -8.193  10.806  1.00  0.00     0.031 C 
ATOM     52  C   UNL     1      10.888  -8.689   9.529  1.00  0.00     0.029 A 
ATOM     53  C   UNL     1       9.577  -8.242   9.571  1.00  0.00     0.049 A 
ATOM     54  H   UNL     1       8.655  -6.719   8.439  1.00  0.00     0.167 HD
ATOM     55  C   UNL     1       7.222  -8.247  10.337  1.00  0.00     0.074 A 
ATOM     56  C   UNL     1       6.129  -8.762  11.137  1.00  0.00     0.031 C 
ATOM     57  C   UNL     1       8.494  -8.712  10.396  1.00  0.00     0.034 A 
BRANCH  44  58
ATOM     58  C   UNL     1      12.339  -5.972   6.404  1.00  0.00     0.023 A 
ATOM     59  C   UNL     1      13.191  -4.902   6.748  1.00  0.00     0.012 A 
ATOM     60  C   UNL     1      12.820  -6.989   5.556  1.00  0.00     0.148 A 
ATOM     61  C   UNL     1      14.483  -4.824   6.231  1.00  0.00     0.002 A 
ATOM     62  C   UNL     1      14.125  -6.928   5.080  1.00  0.00     0.091 A 
ATOM     63  F   UNL     1      11.992  -7.989   5.222  1.00  0.00    -0.205 F 
ATOM     64  C   UNL     1      14.953  -5.842   5.406  1.00  0.00     0.022 A 
BRANCH  62  65
ATOM     65  S   UNL     1      14.852  -8.229   4.075  1.00  0.00     0.127 S 
ATOM     66  O   UNL     1      14.921  -7.585   2.764  1.00  0.00    -0.237 OA
ATOM     67  O   UNL     1      16.149  -8.431   4.723  1.00  0.00    -0.237 OA
ATOM     68  O   UNL     1      13.944  -9.363   4.170  1.00  0.00    -0.744 OA
ENDBRANCH  62  65
ENDBRANCH  44  58
BRANCH  45  69
ATOM     69  C   UNL     1       2.955  -6.327   9.790  1.00  0.00     0.023 A 
ATOM     70  C   UNL     1       2.675  -5.990  11.129  1.00  0.00     0.012 A 
ATOM     71  C   UNL     1       1.896  -6.691   8.938  1.00  0.00     0.148 A 
ATOM     72  C   UNL     1       1.370  -6.046  11.619  1.00  0.00     0.002 A 
ATOM     73  C   UNL     1       0.591  -6.690   9.417  1.00  0.00     0.091 A 
ATOM     74  F   UNL     1       2.184  -7.021   7.671  1.00  0.00    -0.205 F 
ATOM     75  C   UNL     1       0.328  -6.385  10.761  1.00  0.00     0.022 A 
BRANCH  73  76
ATOM     76  S   UNL     1      -0.823  -6.978   8.347  1.00  0.00     0.127 S 
ATOM     77  O   UNL     1      -1.236  -8.319   8.753  1.00  0.00    -0.237 OA
ATOM     78  O   UNL     1      -1.733  -5.904   8.751  1.00  0.00    -0.237 OA
ATOM     79  O   UNL     1      -0.316  -6.852   6.989  1.00  0.00    -0.744 OA
ENDBRANCH  73  76
ENDBRANCH  45  69
BRANCH  57  80
ATOM     80  C   UNL     1       8.784  -9.818  11.378  1.00  0.00     0.023 A 
ATOM     81  C   UNL     1       8.293 -11.117  11.135  1.00  0.00     0.012 A 
ATOM     82  C   UNL     1       9.577  -9.583  12.517  1.00  0.00     0.148 A 
ATOM     83  C   UNL     1       8.549 -12.152  12.033  1.00  0.00     0.002 A 
ATOM     84  C   UNL     1       9.870 -10.631  13.383  1.00  0.00     0.091 A 
ATOM     85  F   UNL     1      10.020  -8.337  12.746  1.00  0.00    -0.205 F 
ATOM     86  C   UNL     1       9.345 -11.912  13.150  1.00  0.00     0.022 A 
BRANCH  84  87
ATOM     87  S   UNL     1      10.965 -10.424  14.792  1.00  0.00     0.127 S 
ATOM     88  O   UNL     1      10.014 -10.291  15.893  1.00  0.00    -0.237 OA
ATOM     89  O   UNL     1      11.723 -11.676  14.789  1.00  0.00    -0.237 OA
ATOM     90  O   UNL     1      11.763  -9.241  14.499  1.00  0.00    -0.744 OA
ENDBRANCH  84  87
ENDBRANCH  57  80
ENDBRANCH  31  32
ENDBRANCH  23  26
ENDBRANCH  21  22
ENDBRANCH   1  21
TORSDOF 17
