REMARK SMILES CC(C)Oc1ccc(/C=C(\NC(=O)c2ccccc2)C(=O)NCCCNC(=O)c2ccc(-c3c4nc(c(-c5cccc(S(=O)(=O)[O-])c5F)c5ccc([nH]5)c(-c5cccc(S(=O)(=O)[O-])c5F)c5nc(c(-c6cccc(S(=O)(=O)[O-])c6F)c6ccc3[nH]6)C=C5)C=C4)cc2)cc1
REMARK SMILES IDX 24 1 23 2 22 3 20 4 21 5 10 7 9 8 8 9 5 10 6 11 93 12 7 13
REMARK SMILES IDX 92 14 4 15 2 16 1 17 3 18 11 19 12 20 13 22 14 23 15 24
REMARK SMILES IDX 19 25 16 26 18 27 17 28 25 29 26 30 27 31 28 33 29 34 30 35
REMARK SMILES IDX 91 36 31 37 90 38 32 39 33 40 34 41 84 42 35 43 89 44 83 45
REMARK SMILES IDX 85 46 36 47 88 48 82 49 81 50 37 52 69 53 49 54 68 55 50 56
REMARK SMILES IDX 53 57 67 58 86 59 51 60 52 61 66 63 87 64 54 65 38 66 39 67
REMARK SMILES IDX 47 68 40 69 42 70 48 71 41 72 43 73 44 74 45 75 46 76 70 77
REMARK SMILES IDX 71 78 79 79 72 80 74 81 80 82 73 83 75 84 76 85 77 86 78 87
REMARK SMILES IDX 55 88 56 89 64 90 57 91 59 92 65 93 58 94 60 95 61 96 62 97
REMARK SMILES IDX 63 98
REMARK H PARENT 22 6 11 21 26 32 85 51 53 62
REMARK Flexibility Score: inf
ROOT
ATOM      1  C   UNL     1      -8.022   3.530  -6.196  1.00  0.00     0.042 C 
ENDROOT
BRANCH   1   2
ATOM      2  C   UNL     1      -8.016   1.817  -6.501  1.00  0.00     0.118 C 
BRANCH   2   3
ATOM      3  N   UNL     1      -6.452   0.441  -6.649  1.00  0.00    -0.351 N 
ATOM      4  C   UNL     1      -5.240  -0.160  -6.195  1.00  0.00     0.267 C 
ATOM      5  O   UNL     1      -4.925  -1.197  -6.800  1.00  0.00    -0.268 OA
ATOM      6  H   UNL     1      -6.664  -0.061  -7.469  1.00  0.00     0.163 HD
BRANCH   4   7
ATOM      7  C   UNL     1      -4.308   0.318  -5.068  1.00  0.00     0.107 C 
ATOM      8  C   UNL     1      -3.705  -0.621  -4.308  1.00  0.00     0.040 C 
BRANCH   8   9
ATOM      9  C   UNL     1      -2.943  -0.302  -3.081  1.00  0.00    -0.023 A 
ATOM     10  C   UNL     1      -1.390   0.458  -0.857  1.00  0.00     0.119 A 
ATOM     11  C   UNL     1      -2.631   1.046  -1.073  1.00  0.00     0.047 A 
ATOM     12  C   UNL     1      -0.972  -0.574  -1.696  1.00  0.00     0.047 A 
ATOM     13  C   UNL     1      -3.413   0.645  -2.155  1.00  0.00     0.012 A 
ATOM     14  C   UNL     1      -1.735  -0.943  -2.814  1.00  0.00     0.012 A 
BRANCH  10  15
ATOM     15  O   UNL     1      -0.728   0.876   0.258  1.00  0.00    -0.491 OA
BRANCH  15  16
ATOM     16  C   UNL     1       0.656   1.246   0.170  1.00  0.00     0.167 C 
ATOM     17  C   UNL     1       1.593   0.044   0.163  1.00  0.00     0.052 C 
ATOM     18  C   UNL     1       0.978   2.264  -0.923  1.00  0.00     0.052 C 
ENDBRANCH  15  16
ENDBRANCH  10  15
ENDBRANCH   8   9
BRANCH   7  19
ATOM     19  N   UNL     1      -4.085   1.652  -4.792  1.00  0.00    -0.317 N 
ATOM     20  C   UNL     1      -4.986   2.639  -4.983  1.00  0.00     0.255 C 
ATOM     21  H   UNL     1      -3.204   1.903  -4.429  1.00  0.00     0.170 HD
ATOM     22  O   UNL     1      -4.882   3.794  -4.619  1.00  0.00    -0.269 OA
BRANCH  20  23
ATOM     23  C   UNL     1      -6.153   2.124  -5.638  1.00  0.00     0.040 A 
ATOM     24  C   UNL     1      -6.164   2.266  -7.460  1.00  0.00     0.014 A 
ATOM     25  C   UNL     1      -7.175   0.867  -4.798  1.00  0.00     0.014 A 
ATOM     26  C   UNL     1      -7.237   1.193  -8.426  1.00  0.00     0.001 A 
ATOM     27  C   UNL     1      -8.207  -0.237  -5.806  1.00  0.00     0.001 A 
ATOM     28  C   UNL     1      -8.273  -0.049  -7.595  1.00  0.00     0.000 A 
ENDBRANCH  20  23
ENDBRANCH   7  19
ENDBRANCH   4   7
ENDBRANCH   2   3
ENDBRANCH   1   2
BRANCH   1  29
ATOM     29  C   UNL     1      -8.837   4.264  -7.249  1.00  0.00     0.118 C 
BRANCH  29  30
ATOM     30  N   UNL     1     -10.195   3.763  -7.354  1.00  0.00    -0.352 N 
ATOM     31  C   UNL     1     -11.080   4.026  -8.367  1.00  0.00     0.251 C 
ATOM     32  H   UNL     1     -10.511   3.178  -6.627  1.00  0.00     0.163 HD
ATOM     33  O   UNL     1     -12.197   3.527  -8.394  1.00  0.00    -0.269 OA
BRANCH  31  34
ATOM     34  C   UNL     1     -10.664   5.022  -9.364  1.00  0.00     0.039 A 
ATOM     35  C   UNL     1     -11.222   6.295  -9.256  1.00  0.00     0.014 A 
ATOM     36  C   UNL     1      -9.628   4.751 -10.263  1.00  0.00     0.014 A 
ATOM     37  C   UNL     1     -10.723   7.320 -10.047  1.00  0.00     0.010 A 
ATOM     38  C   UNL     1      -9.082   5.798 -10.998  1.00  0.00     0.010 A 
ATOM     39  C   UNL     1      -9.639   7.084 -10.908  1.00  0.00    -0.014 A 
BRANCH  39  40
ATOM     40  C   UNL     1      -9.131   8.190 -11.748  1.00  0.00     0.031 A 
ATOM     41  C   UNL     1      -9.341   8.140 -13.232  1.00  0.00     0.074 A 
ATOM     42  C   UNL     1      -8.513   9.237 -11.169  1.00  0.00     0.049 A 
ATOM     43  N   UNL     1      -9.080   9.051 -14.130  1.00  0.00    -0.248 NA
ATOM     44  C   UNL     1      -9.907   6.898 -13.784  1.00  0.00     0.031 C 
ATOM     45  C   UNL     1      -8.216   9.358  -9.739  1.00  0.00     0.029 A 
ATOM     46  N   UNL     1      -8.031  10.402 -11.707  1.00  0.00    -0.354 N 
ATOM     47  C   UNL     1      -9.418   8.483 -15.351  1.00  0.00     0.074 A 
ATOM     48  C   UNL     1      -9.869   7.137 -15.085  1.00  0.00     0.031 C 
ATOM     49  C   UNL     1      -7.635  10.547  -9.510  1.00  0.00     0.029 A 
ATOM     50  C   UNL     1      -7.495  11.260 -10.775  1.00  0.00     0.049 A 
ATOM     51  H   UNL     1      -8.066  10.606 -12.670  1.00  0.00     0.167 HD
ATOM     52  C   UNL     1      -9.378   9.043 -16.582  1.00  0.00     0.034 A 
ATOM     53  C   UNL     1      -6.962  12.488 -10.930  1.00  0.00     0.034 A 
ATOM     54  C   UNL     1      -8.952  10.393 -16.824  1.00  0.00     0.049 A 
ATOM     55  C   UNL     1      -6.949  13.095 -12.308  1.00  0.00     0.074 A 
ATOM     56  C   UNL     1      -8.943  11.092 -18.016  1.00  0.00     0.029 A 
ATOM     57  N   UNL     1      -8.437  11.241 -15.855  1.00  0.00    -0.354 N 
ATOM     58  N   UNL     1      -7.415  12.603 -13.431  1.00  0.00    -0.248 NA
ATOM     59  C   UNL     1      -6.368  14.438 -12.435  1.00  0.00     0.031 C 
ATOM     60  C   UNL     1      -8.378  12.349 -17.776  1.00  0.00     0.029 A 
ATOM     61  C   UNL     1      -8.082  12.450 -16.424  1.00  0.00     0.049 A 
ATOM     62  H   UNL     1      -8.339  11.016 -14.902  1.00  0.00     0.167 HD
ATOM     63  C   UNL     1      -7.221  13.590 -14.390  1.00  0.00     0.074 A 
ATOM     64  C   UNL     1      -6.610  14.714 -13.709  1.00  0.00     0.031 C 
ATOM     65  C   UNL     1      -7.513  13.568 -15.714  1.00  0.00     0.034 A 
BRANCH  52  66
ATOM     66  C   UNL     1      -9.812   8.192 -17.747  1.00  0.00     0.023 A 
ATOM     67  C   UNL     1     -11.165   7.820 -17.890  1.00  0.00     0.012 A 
ATOM     68  C   UNL     1      -8.875   7.769 -18.709  1.00  0.00     0.148 A 
ATOM     69  C   UNL     1     -11.569   7.000 -18.943  1.00  0.00     0.002 A 
ATOM     70  C   UNL     1      -9.295   6.995 -19.785  1.00  0.00     0.091 A 
ATOM     71  F   UNL     1      -7.589   8.109 -18.544  1.00  0.00    -0.205 F 
ATOM     72  C   UNL     1     -10.637   6.596 -19.894  1.00  0.00     0.022 A 
BRANCH  70  73
ATOM     73  S   UNL     1      -8.186   6.492 -21.104  1.00  0.00     0.127 S 
ATOM     74  O   UNL     1      -8.071   5.055 -20.860  1.00  0.00    -0.237 OA
ATOM     75  O   UNL     1      -8.950   6.849 -22.299  1.00  0.00    -0.237 OA
ATOM     76  O   UNL     1      -6.962   7.258 -20.914  1.00  0.00    -0.744 OA
ENDBRANCH  70  73
ENDBRANCH  52  66
BRANCH  53  77
ATOM     77  C   UNL     1      -6.472  13.250  -9.746  1.00  0.00     0.023 A 
ATOM     78  C   UNL     1      -7.167  14.400  -9.323  1.00  0.00     0.012 A 
ATOM     79  C   UNL     1      -5.338  12.831  -9.023  1.00  0.00     0.148 A 
ATOM     80  C   UNL     1      -6.725  15.137  -8.223  1.00  0.00     0.002 A 
ATOM     81  C   UNL     1      -4.933  13.539  -7.897  1.00  0.00     0.091 A 
ATOM     82  F   UNL     1      -4.685  11.740  -9.446  1.00  0.00    -0.205 F 
ATOM     83  C   UNL     1      -5.615  14.701  -7.505  1.00  0.00     0.022 A 
BRANCH  81  84
ATOM     84  S   UNL     1      -3.587  12.990  -6.842  1.00  0.00     0.127 S 
ATOM     85  O   UNL     1      -2.592  14.037  -7.057  1.00  0.00    -0.237 OA
ATOM     86  O   UNL     1      -4.219  13.001  -5.522  1.00  0.00    -0.237 OA
ATOM     87  O   UNL     1      -3.222  11.666  -7.325  1.00  0.00    -0.744 OA
ENDBRANCH  81  84
ENDBRANCH  53  77
BRANCH  65  88
ATOM     88  C   UNL     1      -7.216  14.810 -16.512  1.00  0.00     0.023 A 
ATOM     89  C   UNL     1      -5.883  15.164 -16.799  1.00  0.00     0.012 A 
ATOM     90  C   UNL     1      -8.268  15.579 -17.047  1.00  0.00     0.148 A 
ATOM     91  C   UNL     1      -5.602  16.287 -17.576  1.00  0.00     0.002 A 
ATOM     92  C   UNL     1      -7.982  16.662 -17.867  1.00  0.00     0.091 A 
ATOM     93  F   UNL     1      -9.529  15.234 -16.747  1.00  0.00    -0.205 F 
ATOM     94  C   UNL     1      -6.649  17.026 -18.121  1.00  0.00     0.022 A 
BRANCH  92  95
ATOM     95  S   UNL     1      -9.265  17.603 -18.699  1.00  0.00     0.127 S 
ATOM     96  O   UNL     1      -9.218  18.873 -17.977  1.00  0.00    -0.237 OA
ATOM     97  O   UNL     1      -8.762  17.663 -20.072  1.00  0.00    -0.237 OA
ATOM     98  O   UNL     1     -10.494  16.839 -18.538  1.00  0.00    -0.744 OA
ENDBRANCH  92  95
ENDBRANCH  65  88
ENDBRANCH  39  40
ENDBRANCH  31  34
ENDBRANCH  29  30
ENDBRANCH   1  29
TORSDOF 18
