REMARK SMILES Cc1cc(C(F)(F)CC(C)(C)CC(=O)NCCCNC(=O)c2ccc(-c3c4nc(c(-c5cccc(S(=O)(=O)[O-])c5F)c5ccc([nH]5)c(-c5cccc(S(=O)(=O)[O-])c5F)c5nc(c(-c6cccc(S(=O)(=O)[O-])c6F)c6ccc3[nH]6)C=C5)C=C4)cc2)sc1Br
REMARK SMILES IDX 16 1 15 2 13 3 14 4 12 6 9 7 10 8 11 9 8 10 5 11 6 12 7 13
REMARK SMILES IDX 4 14 1 15 2 16 3 17 86 18 85 19 87 20 17 21 18 22 19 23
REMARK SMILES IDX 20 24 21 26 22 27 23 28 84 29 24 30 83 31 25 32 26 33 27 34
REMARK SMILES IDX 77 35 28 36 82 37 76 38 78 39 29 40 81 41 75 42 74 43 30 45
REMARK SMILES IDX 62 46 42 47 61 48 43 49 46 50 60 51 79 52 44 53 45 54 59 56
REMARK SMILES IDX 80 57 47 58 31 59 32 60 40 61 33 62 35 63 41 64 34 65 36 66
REMARK SMILES IDX 37 67 38 68 39 69 63 70 64 71 72 72 65 73 67 74 73 75 66 76
REMARK SMILES IDX 68 77 69 78 70 79 71 80 48 81 49 82 57 83 50 84 52 85 58 86
REMARK SMILES IDX 51 87 53 88 54 89 55 90 56 91
REMARK H PARENT 15 5 19 25 78 44 46 55
REMARK Flexibility Score: inf
ROOT
ATOM      1  C   UNL     1      -6.304   2.167  -2.619  1.00  0.00     0.117 C 
ENDROOT
BRANCH   1   2
ATOM      2  N   UNL     1      -5.884   3.493  -2.193  1.00  0.00    -0.356 N 
ATOM      3  C   UNL     1      -4.638   4.025  -2.067  1.00  0.00     0.220 C 
ATOM      4  O   UNL     1      -4.529   5.233  -1.874  1.00  0.00    -0.275 OA
ATOM      5  H   UNL     1      -6.620   4.104  -1.958  1.00  0.00     0.163 HD
BRANCH   3   6
ATOM      6  C   UNL     1      -3.410   3.159  -2.207  1.00  0.00     0.106 C 
BRANCH   6   7
ATOM      7  C   UNL     1      -2.915   2.389  -0.954  1.00  0.00    -0.021 C 
ATOM      8  C   UNL     1      -1.733   1.544  -1.468  1.00  0.00     0.012 C 
ATOM      9  C   UNL     1      -3.920   1.358  -0.423  1.00  0.00     0.012 C 
BRANCH   7  10
ATOM     10  C   UNL     1      -2.659   3.342   0.270  1.00  0.00     0.090 C 
BRANCH  10  11
ATOM     11  C   UNL     1      -1.405   4.216   0.346  1.00  0.00     0.282 C 
ATOM     12  F   UNL     1      -1.528   5.031   1.429  1.00  0.00    -0.200 F 
ATOM     13  F   UNL     1      -1.370   5.020  -0.749  1.00  0.00    -0.200 F 
BRANCH  11  14
ATOM     14  C   UNL     1      -0.137   3.418   0.477  1.00  0.00     0.075 A 
ATOM     15  C   UNL     1       1.469   0.070   0.418  1.00  0.00     0.046 C 
ATOM     16  C   UNL     1       1.254   1.545   0.463  1.00  0.00    -0.025 A 
ATOM     17  C   UNL     1       0.044   2.134   0.962  1.00  0.00     0.026 A 
ATOM     18  C   UNL     1       2.083   2.535  -0.021  1.00  0.00     0.073 A 
ATOM     19  S   UNL     1       1.356   4.067  -0.058  1.00  0.00    -0.127 S 
ATOM     20  Br  UNL     1       3.819   2.260  -0.677  1.00  0.00    -0.039 Br
ENDBRANCH  11  14
ENDBRANCH  10  11
ENDBRANCH   7  10
ENDBRANCH   6   7
ENDBRANCH   3   6
ENDBRANCH   1   2
BRANCH   1  21
ATOM     21  C   UNL     1      -6.958   1.339  -1.508  1.00  0.00     0.042 C 
BRANCH  21  22
ATOM     22  C   UNL     1      -8.336   1.821  -1.155  1.00  0.00     0.118 C 
BRANCH  22  23
ATOM     23  N   UNL     1      -9.372   1.334  -2.068  1.00  0.00    -0.352 N 
ATOM     24  C   UNL     1     -10.748   1.407  -1.878  1.00  0.00     0.251 C 
ATOM     25  H   UNL     1      -9.063   0.912  -2.902  1.00  0.00     0.163 HD
ATOM     26  O   UNL     1     -11.513   0.684  -2.490  1.00  0.00    -0.269 OA
BRANCH  24  27
ATOM     27  C   UNL     1     -11.241   2.412  -0.914  1.00  0.00     0.039 A 
ATOM     28  C   UNL     1     -12.329   2.218  -0.061  1.00  0.00     0.014 A 
ATOM     29  C   UNL     1     -10.490   3.571  -0.833  1.00  0.00     0.014 A 
ATOM     30  C   UNL     1     -12.621   3.227   0.858  1.00  0.00     0.010 A 
ATOM     31  C   UNL     1     -10.511   4.279   0.318  1.00  0.00     0.010 A 
ATOM     32  C   UNL     1     -11.700   4.272   1.010  1.00  0.00    -0.014 A 
BRANCH  32  33
ATOM     33  C   UNL     1     -11.863   5.407   1.898  1.00  0.00     0.031 A 
ATOM     34  C   UNL     1     -11.873   5.019   3.323  1.00  0.00     0.074 A 
ATOM     35  C   UNL     1     -11.674   6.673   1.449  1.00  0.00     0.049 A 
ATOM     36  N   UNL     1     -12.888   4.983   4.120  1.00  0.00    -0.248 NA
ATOM     37  C   UNL     1     -10.664   4.375   3.865  1.00  0.00     0.031 C 
ATOM     38  C   UNL     1     -11.266   7.116   0.100  1.00  0.00     0.029 A 
ATOM     39  N   UNL     1     -11.634   7.835   2.148  1.00  0.00    -0.354 N 
ATOM     40  C   UNL     1     -12.354   4.603   5.348  1.00  0.00     0.074 A 
ATOM     41  C   UNL     1     -11.110   3.951   5.050  1.00  0.00     0.031 C 
ATOM     42  C   UNL     1     -10.776   8.374   0.160  1.00  0.00     0.029 A 
ATOM     43  C   UNL     1     -10.987   8.887   1.498  1.00  0.00     0.049 A 
ATOM     44  H   UNL     1     -12.031   7.929   3.044  1.00  0.00     0.167 HD
ATOM     45  C   UNL     1     -12.790   5.182   6.502  1.00  0.00     0.034 A 
ATOM     46  C   UNL     1     -10.602  10.067   2.049  1.00  0.00     0.034 A 
ATOM     47  C   UNL     1     -14.015   5.918   6.274  1.00  0.00     0.049 A 
ATOM     48  C   UNL     1     -11.373  10.223   3.305  1.00  0.00     0.074 A 
ATOM     49  C   UNL     1     -15.259   5.614   5.757  1.00  0.00     0.029 A 
ATOM     50  N   UNL     1     -13.902   7.287   6.201  1.00  0.00    -0.354 N 
ATOM     51  N   UNL     1     -12.670  10.357   3.336  1.00  0.00    -0.248 NA
ATOM     52  C   UNL     1     -10.761   9.736   4.530  1.00  0.00     0.031 C 
ATOM     53  C   UNL     1     -15.615   6.749   4.968  1.00  0.00     0.029 A 
ATOM     54  C   UNL     1     -14.620   7.717   5.118  1.00  0.00     0.049 A 
ATOM     55  H   UNL     1     -13.394   7.859   6.821  1.00  0.00     0.167 HD
ATOM     56  C   UNL     1     -13.072   9.532   4.379  1.00  0.00     0.074 A 
ATOM     57  C   UNL     1     -11.851   9.264   5.143  1.00  0.00     0.031 C 
ATOM     58  C   UNL     1     -14.278   8.891   4.344  1.00  0.00     0.034 A 
BRANCH  45  59
ATOM     59  C   UNL     1     -11.924   5.476   7.715  1.00  0.00     0.023 A 
ATOM     60  C   UNL     1     -12.587   6.012   8.842  1.00  0.00     0.012 A 
ATOM     61  C   UNL     1     -10.510   5.535   7.727  1.00  0.00     0.148 A 
ATOM     62  C   UNL     1     -11.892   6.655   9.871  1.00  0.00     0.002 A 
ATOM     63  C   UNL     1      -9.818   6.112   8.785  1.00  0.00     0.091 A 
ATOM     64  F   UNL     1      -9.802   5.150   6.666  1.00  0.00    -0.205 F 
ATOM     65  C   UNL     1     -10.505   6.708   9.842  1.00  0.00     0.022 A 
BRANCH  63  66
ATOM     66  S   UNL     1      -8.020   6.177   8.811  1.00  0.00     0.127 S 
ATOM     67  O   UNL     1      -7.779   7.592   8.550  1.00  0.00    -0.237 OA
ATOM     68  O   UNL     1      -7.728   5.736  10.176  1.00  0.00    -0.237 OA
ATOM     69  O   UNL     1      -7.577   5.248   7.779  1.00  0.00    -0.744 OA
ENDBRANCH  63  66
ENDBRANCH  45  59
BRANCH  46  70
ATOM     70  C   UNL     1      -9.422  10.917   1.749  1.00  0.00     0.023 A 
ATOM     71  C   UNL     1      -9.402  12.270   2.148  1.00  0.00     0.012 A 
ATOM     72  C   UNL     1      -8.205  10.333   1.335  1.00  0.00     0.148 A 
ATOM     73  C   UNL     1      -8.207  13.005   2.163  1.00  0.00     0.002 A 
ATOM     74  C   UNL     1      -7.021  11.067   1.348  1.00  0.00     0.091 A 
ATOM     75  F   UNL     1      -8.194   9.031   1.018  1.00  0.00    -0.205 F 
ATOM     76  C   UNL     1      -7.016  12.401   1.772  1.00  0.00     0.022 A 
BRANCH  74  77
ATOM     77  S   UNL     1      -5.440  10.345   0.890  1.00  0.00     0.127 S 
ATOM     78  O   UNL     1      -4.945  11.312  -0.091  1.00  0.00    -0.237 OA
ATOM     79  O   UNL     1      -4.730  10.347   2.166  1.00  0.00    -0.237 OA
ATOM     80  O   UNL     1      -5.757   9.034   0.341  1.00  0.00    -0.744 OA
ENDBRANCH  74  77
ENDBRANCH  46  70
BRANCH  58  81
ATOM     81  C   UNL     1     -15.257   9.281   3.261  1.00  0.00     0.023 A 
ATOM     82  C   UNL     1     -15.015   9.046   1.890  1.00  0.00     0.012 A 
ATOM     83  C   UNL     1     -16.527   9.729   3.655  1.00  0.00     0.148 A 
ATOM     84  C   UNL     1     -16.012   9.271   0.934  1.00  0.00     0.002 A 
ATOM     85  C   UNL     1     -17.528   9.909   2.709  1.00  0.00     0.091 A 
ATOM     86  F   UNL     1     -16.744   9.939   4.962  1.00  0.00    -0.205 F 
ATOM     87  C   UNL     1     -17.273   9.690   1.346  1.00  0.00     0.022 A 
BRANCH  85  88
ATOM     88  S   UNL     1     -19.203  10.328   3.191  1.00  0.00     0.127 S 
ATOM     89  O   UNL     1     -19.298  11.727   2.779  1.00  0.00    -0.237 OA
ATOM     90  O   UNL     1     -20.002   9.398   2.391  1.00  0.00    -0.237 OA
ATOM     91  O   UNL     1     -19.280  10.091   4.628  1.00  0.00    -0.744 OA
ENDBRANCH  85  88
ENDBRANCH  58  81
ENDBRANCH  32  33
ENDBRANCH  24  27
ENDBRANCH  22  23
ENDBRANCH  21  22
ENDBRANCH   1  21
TORSDOF 17
