REMARK SMILES O=C(CCCc1nc(-c2ccc(Cl)c(Cl)c2)c(-c2ccccc2)o1)NCCCNC(=O)c1ccc(-c2c3nc(c(-c4cccc(S(=O)(=O)[O-])c4F)c4ccc([nH]4)c(-c4cccc(S(=O)(=O)[O-])c4F)c4nc(c(-c5cccc(S(=O)(=O)[O-])c5F)c5ccc2[nH]5)C=C4)C=C3)cc1
REMARK SMILES IDX 26 1 25 2 1 3 2 4 3 6 4 7 5 8 6 9 7 10 24 11 8 12 17 13 9 14
REMARK SMILES IDX 10 15 16 16 11 17 14 18 12 19 15 20 13 21 18 22 19 23 23 24
REMARK SMILES IDX 20 25 22 26 21 27 27 28 28 29 29 30 30 31 31 33 32 34 33 35
REMARK SMILES IDX 94 36 34 37 93 38 35 39 36 40 37 41 87 42 38 43 92 44 86 45
REMARK SMILES IDX 88 46 39 47 91 48 85 49 84 50 40 52 72 53 52 54 71 55 53 56
REMARK SMILES IDX 56 57 70 58 89 59 54 60 55 61 69 63 90 64 57 65 41 66 42 67
REMARK SMILES IDX 50 68 43 69 45 70 51 71 44 72 46 73 47 74 48 75 49 76 73 77
REMARK SMILES IDX 74 78 82 79 75 80 77 81 83 82 76 83 78 84 79 85 80 86 81 87
REMARK SMILES IDX 58 88 59 89 67 90 60 91 62 92 68 93 61 94 63 95 64 96 65 97
REMARK SMILES IDX 66 98
REMARK H PARENT 25 5 29 32 88 51 56 62
REMARK Flexibility Score: inf
ROOT
ATOM      1  C   UNL     1       1.990   2.132   1.407  1.00  0.00     0.117 C 
ENDROOT
BRANCH   1   2
ATOM      2  N   UNL     1       2.576   0.936   0.837  1.00  0.00    -0.356 N 
ATOM      3  O   UNL     1       0.886   0.551  -0.674  1.00  0.00    -0.275 OA
ATOM      4  C   UNL     1       1.976   0.255  -0.196  1.00  0.00     0.220 C 
ATOM      5  H   UNL     1       3.427   0.601   1.200  1.00  0.00     0.163 HD
BRANCH   4   6
ATOM      6  C   UNL     1       2.808  -0.883  -0.742  1.00  0.00     0.100 C 
BRANCH   6   7
ATOM      7  C   UNL     1       3.854  -0.392  -1.750  1.00  0.00     0.020 C 
BRANCH   7   8
ATOM      8  C   UNL     1       5.075   0.328  -1.156  1.00  0.00     0.098 C 
BRANCH   8   9
ATOM      9  C   UNL     1       5.821  -0.508  -0.177  1.00  0.00     0.195 A 
ATOM     10  N   UNL     1       5.796  -1.819  -0.037  1.00  0.00    -0.213 NA
ATOM     11  O   UNL     1       6.607   0.151   0.736  1.00  0.00    -0.440 OA
ATOM     12  C   UNL     1       6.588  -2.042   1.057  1.00  0.00     0.117 A 
ATOM     13  C   UNL     1       7.134  -0.857   1.500  1.00  0.00     0.162 A 
BRANCH  12  14
ATOM     14  C   UNL     1       6.817  -3.342   1.642  1.00  0.00     0.006 A 
ATOM     15  C   UNL     1       7.285  -4.387   0.843  1.00  0.00     0.012 A 
ATOM     16  C   UNL     1       6.601  -3.555   3.010  1.00  0.00     0.032 A 
ATOM     17  C   UNL     1       7.572  -5.627   1.416  1.00  0.00     0.023 A 
ATOM     18  C   UNL     1       6.878  -4.799   3.582  1.00  0.00     0.060 A 
ATOM     19  C   UNL     1       7.374  -5.835   2.785  1.00  0.00     0.059 A 
ATOM     20  Cl  UNL     1       6.585  -4.988   5.273  1.00  0.00    -0.083 Cl
ATOM     21  Cl  UNL     1       7.763  -7.392   3.423  1.00  0.00    -0.083 Cl
ENDBRANCH  12  14
BRANCH  13  22
ATOM     22  C   UNL     1       8.102  -0.514   2.524  1.00  0.00     0.020 A 
ATOM     23  C   UNL     1       7.749   0.306   3.597  1.00  0.00     0.012 A 
ATOM     24  C   UNL     1       9.372  -1.107   2.510  1.00  0.00     0.012 A 
ATOM     25  C   UNL     1       8.648   0.525   4.644  1.00  0.00     0.001 A 
ATOM     26  C   UNL     1      10.270  -0.889   3.556  1.00  0.00     0.001 A 
ATOM     27  C   UNL     1       9.905  -0.076   4.625  1.00  0.00     0.000 A 
ENDBRANCH  13  22
ENDBRANCH   8   9
ENDBRANCH   7   8
ENDBRANCH   6   7
ENDBRANCH   4   6
ENDBRANCH   1   2
BRANCH   1  28
ATOM     28  C   UNL     1       2.323   2.305   2.882  1.00  0.00     0.042 C 
BRANCH  28  29
ATOM     29  C   UNL     1       3.801   2.524   3.188  1.00  0.00     0.118 C 
BRANCH  29  30
ATOM     30  N   UNL     1       4.325   3.779   2.667  1.00  0.00    -0.352 N 
ATOM     31  C   UNL     1       5.010   4.787   3.306  1.00  0.00     0.251 C 
ATOM     32  H   UNL     1       4.163   3.931   1.708  1.00  0.00     0.163 HD
ATOM     33  O   UNL     1       5.245   5.832   2.699  1.00  0.00    -0.269 OA
BRANCH  31  34
ATOM     34  C   UNL     1       5.454   4.638   4.713  1.00  0.00     0.039 A 
ATOM     35  C   UNL     1       5.356   5.726   5.583  1.00  0.00     0.014 A 
ATOM     36  C   UNL     1       5.990   3.437   5.177  1.00  0.00     0.014 A 
ATOM     37  C   UNL     1       5.732   5.582   6.924  1.00  0.00     0.010 A 
ATOM     38  C   UNL     1       6.283   3.267   6.528  1.00  0.00     0.010 A 
ATOM     39  C   UNL     1       6.166   4.340   7.417  1.00  0.00    -0.014 A 
BRANCH  39  40
ATOM     40  C   UNL     1       6.463   4.136   8.860  1.00  0.00     0.031 A 
ATOM     41  C   UNL     1       7.842   3.737   9.319  1.00  0.00     0.074 A 
ATOM     42  C   UNL     1       5.459   4.219   9.755  1.00  0.00     0.049 A 
ATOM     43  N   UNL     1       8.268   3.499  10.533  1.00  0.00    -0.248 NA
ATOM     44  C   UNL     1       8.869   3.553   8.280  1.00  0.00     0.031 C 
ATOM     45  C   UNL     1       4.057   4.493   9.429  1.00  0.00     0.029 A 
ATOM     46  N   UNL     1       5.455   4.055  11.118  1.00  0.00    -0.354 N 
ATOM     47  C   UNL     1       9.597   3.114  10.405  1.00  0.00     0.074 A 
ATOM     48  C   UNL     1       9.897   3.109   8.989  1.00  0.00     0.031 C 
ATOM     49  C   UNL     1       3.333   4.491  10.559  1.00  0.00     0.029 A 
ATOM     50  C   UNL     1       4.209   4.190  11.687  1.00  0.00     0.049 A 
ATOM     51  H   UNL     1       6.267   3.860  11.640  1.00  0.00     0.167 HD
ATOM     52  C   UNL     1      10.496   2.822  11.376  1.00  0.00     0.034 A 
ATOM     53  C   UNL     1       3.814   4.081  12.970  1.00  0.00     0.034 A 
ATOM     54  C   UNL     1      10.206   2.864  12.785  1.00  0.00     0.049 A 
ATOM     55  C   UNL     1       4.842   3.805  14.033  1.00  0.00     0.074 A 
ATOM     56  C   UNL     1      11.073   2.682  13.848  1.00  0.00     0.029 A 
ATOM     57  N   UNL     1       8.952   3.094  13.329  1.00  0.00    -0.354 N 
ATOM     58  N   UNL     1       6.133   3.620  13.904  1.00  0.00    -0.248 NA
ATOM     59  C   UNL     1       4.365   3.764  15.423  1.00  0.00     0.031 C 
ATOM     60  C   UNL     1      10.337   2.772  15.035  1.00  0.00     0.029 A 
ATOM     61  C   UNL     1       9.018   3.046  14.712  1.00  0.00     0.049 A 
ATOM     62  H   UNL     1       8.133   3.265  12.810  1.00  0.00     0.167 HD
ATOM     63  C   UNL     1       6.628   3.479  15.195  1.00  0.00     0.074 A 
ATOM     64  C   UNL     1       5.501   3.622  16.093  1.00  0.00     0.031 C 
ATOM     65  C   UNL     1       7.900   3.238  15.600  1.00  0.00     0.034 A 
BRANCH  52  66
ATOM     66  C   UNL     1      11.905   2.486  10.953  1.00  0.00     0.023 A 
ATOM     67  C   UNL     1      12.733   3.500  10.428  1.00  0.00     0.012 A 
ATOM     68  C   UNL     1      12.433   1.194  11.139  1.00  0.00     0.148 A 
ATOM     69  C   UNL     1      14.050   3.226  10.061  1.00  0.00     0.002 A 
ATOM     70  C   UNL     1      13.761   0.939  10.814  1.00  0.00     0.091 A 
ATOM     71  F   UNL     1      11.628   0.237  11.623  1.00  0.00    -0.205 F 
ATOM     72  C   UNL     1      14.566   1.950  10.264  1.00  0.00     0.022 A 
BRANCH  70  73
ATOM     73  S   UNL     1      14.545  -0.650  11.109  1.00  0.00     0.127 S 
ATOM     74  O   UNL     1      14.711  -1.152   9.745  1.00  0.00    -0.237 OA
ATOM     75  O   UNL     1      15.791  -0.260  11.770  1.00  0.00    -0.237 OA
ATOM     76  O   UNL     1      13.623  -1.404  11.944  1.00  0.00    -0.744 OA
ENDBRANCH  70  73
ENDBRANCH  52  66
BRANCH  53  77
ATOM     77  C   UNL     1       2.385   4.308  13.329  1.00  0.00     0.023 A 
ATOM     78  C   UNL     1       2.027   5.466  14.046  1.00  0.00     0.012 A 
ATOM     79  C   UNL     1       1.381   3.401  12.941  1.00  0.00     0.148 A 
ATOM     80  C   UNL     1       0.699   5.700  14.402  1.00  0.00     0.002 A 
ATOM     81  C   UNL     1       0.052   3.669  13.249  1.00  0.00     0.091 A 
ATOM     82  F   UNL     1       1.744   2.301  12.267  1.00  0.00    -0.205 F 
ATOM     83  C   UNL     1      -0.289   4.807  13.996  1.00  0.00     0.022 A 
BRANCH  81  84
ATOM     84  S   UNL     1      -1.298   2.646  12.651  1.00  0.00     0.127 S 
ATOM     85  O   UNL     1      -1.757   2.008  13.883  1.00  0.00    -0.237 OA
ATOM     86  O   UNL     1      -2.212   3.648  12.098  1.00  0.00    -0.237 OA
ATOM     87  O   UNL     1      -0.710   1.759  11.659  1.00  0.00    -0.744 OA
ENDBRANCH  81  84
ENDBRANCH  53  77
BRANCH  65  88
ATOM     88  C   UNL     1       8.157   3.153  17.082  1.00  0.00     0.023 A 
ATOM     89  C   UNL     1       7.696   2.042  17.815  1.00  0.00     0.012 A 
ATOM     90  C   UNL     1       8.912   4.147  17.737  1.00  0.00     0.148 A 
ATOM     91  C   UNL     1       7.948   1.939  19.183  1.00  0.00     0.002 A 
ATOM     92  C   UNL     1       9.204   4.012  19.089  1.00  0.00     0.091 A 
ATOM     93  F   UNL     1       9.327   5.207  17.028  1.00  0.00    -0.205 F 
ATOM     94  C   UNL     1       8.711   2.917  19.817  1.00  0.00     0.022 A 
BRANCH  92  95
ATOM     95  S   UNL     1      10.261   5.171  19.966  1.00  0.00     0.127 S 
ATOM     96  O   UNL     1       9.295   5.881  20.802  1.00  0.00    -0.237 OA
ATOM     97  O   UNL     1      11.161   4.278  20.697  1.00  0.00    -0.237 OA
ATOM     98  O   UNL     1      10.912   5.976  18.941  1.00  0.00    -0.744 OA
ENDBRANCH  92  95
ENDBRANCH  65  88
ENDBRANCH  39  40
ENDBRANCH  31  34
ENDBRANCH  29  30
ENDBRANCH  28  29
ENDBRANCH   1  28
TORSDOF 18
