REMARK SMILES C=C1C(=O)O[C@H]2[C@@H]1[C@@H](OC(=O)[C@]1(C)O[C@@H]1C)[C@@H](OC(C)=O)/C(C(=O)NCCCNC(=O)c1ccc(-c3c4nc(c(-c5cccc(S(=O)(=O)[O-])c5F)c5ccc([nH]5)c(-c5cccc(S(=O)(=O)[O-])c5F)c5nc(c(-c6cccc(S(=O)(=O)[O-])c6F)c6ccc3[nH]6)C=C5)C=C4)cc1)=C/[C@@H]1O[C@@H]1[C@]1(C)O[C@H]21
REMARK SMILES IDX 26 1 25 2 23 3 24 4 22 6 95 7 17 8 8 9 7 10 1 11 2 12 3 13
REMARK SMILES IDX 5 14 4 15 6 16 9 18 10 19 11 20 12 21 14 22 15 23 13 24
REMARK SMILES IDX 16 25 18 26 19 27 20 28 21 29 96 30 97 31 98 32 99 33 101 34
REMARK SMILES IDX 102 35 100 36 27 38 28 39 29 40 30 41 31 43 32 44 33 45
REMARK SMILES IDX 94 46 34 47 93 48 35 49 36 50 37 51 87 52 38 53 92 54 86 55
REMARK SMILES IDX 88 56 39 57 91 58 85 59 84 60 40 62 72 63 52 64 71 65 53 66
REMARK SMILES IDX 56 67 70 68 89 69 54 70 55 71 69 73 90 74 57 75 41 76 42 77
REMARK SMILES IDX 50 78 43 79 45 80 51 81 44 82 46 83 47 84 48 85 49 86 73 87
REMARK SMILES IDX 74 88 82 89 75 90 77 91 83 92 76 93 78 94 79 95 80 96 81 97
REMARK SMILES IDX 58 98 59 99 67 100 60 101 62 102 68 103 61 104 63 105 64 106
REMARK SMILES IDX 65 107 66 108
REMARK H PARENT 25 5 29 42 88 61 56 72
REMARK Flexibility Score: 90.00
ROOT
ATOM      1  C   UNL     1      -6.512  -2.830   1.051  1.00  0.00     0.118 C 
ENDROOT
BRANCH   1   2
ATOM      2  N   UNL     1      -6.843  -1.451   0.764  1.00  0.00    -0.352 N 
ATOM      3  C   UNL     1      -6.897  -0.818  -0.425  1.00  0.00     0.250 C 
ATOM      4  O   UNL     1      -7.186   0.372  -0.452  1.00  0.00    -0.270 OA
ATOM      5  H   UNL     1      -7.058  -0.896   1.548  1.00  0.00     0.163 HD
BRANCH   3   6
ATOM      6  C   UNL     1      -6.680  -1.608  -1.651  1.00  0.00     0.060 C 
ATOM      7  C   UNL     1      -7.670  -2.409  -2.084  1.00  0.00     0.020 C 
BRANCH   6   8
ATOM      8  C   UNL     1      -5.439  -1.379  -2.466  1.00  0.00     0.253 C 
BRANCH   8   9
ATOM      9  C   UNL     1      -5.298   0.059  -3.075  1.00  0.00     0.233 C 
BRANCH   9  10
ATOM     10  C   UNL     1      -6.307   0.267  -4.262  1.00  0.00     0.115 C 
ATOM     11  C   UNL     1      -6.056   2.835  -4.634  1.00  0.00     0.021 C 
ATOM     12  C   UNL     1      -6.475   1.601  -4.925  1.00  0.00     0.041 C 
ATOM     13  C   UNL     1      -7.565   1.420  -5.909  1.00  0.00     0.334 C 
ATOM     14  O   UNL     1      -8.350   0.429  -5.420  1.00  0.00    -0.455 OA
ATOM     15  O   UNL     1      -7.673   1.982  -6.981  1.00  0.00    -0.247 OA
ATOM     16  C   UNL     1      -7.837  -0.003  -4.126  1.00  0.00     0.220 CG0
ATOM     17  G   UNL     1      -8.615   0.732  -3.048  1.00  0.00     0.000 G0
ENDBRANCH   9  10
BRANCH   9  18
ATOM     18  O   UNL     1      -5.440   1.180  -2.182  1.00  0.00    -0.455 OA
BRANCH  18  19
ATOM     19  C   UNL     1      -4.758   1.386  -1.024  1.00  0.00     0.341 C 
ATOM     20  O   UNL     1      -3.930   0.632  -0.528  1.00  0.00    -0.249 OA
BRANCH  19  21
ATOM     21  C   UNL     1      -5.215   2.672  -0.401  1.00  0.00     0.188 C 
ATOM     22  O   UNL     1      -4.227   3.375   0.380  1.00  0.00    -0.354 OA
ATOM     23  C   UNL     1      -5.359   2.871   1.099  1.00  0.00     0.160 C 
ATOM     24  C   UNL     1      -6.023   3.614  -1.252  1.00  0.00     0.058 C 
ATOM     25  C   UNL     1      -5.008   1.914   2.173  1.00  0.00     0.042 C 
ENDBRANCH  19  21
ENDBRANCH  18  19
ENDBRANCH   9  18
ENDBRANCH   8   9
BRANCH   8  26
ATOM     26  O   UNL     1      -4.283  -1.752  -1.693  1.00  0.00    -0.453 OA
BRANCH  26  27
ATOM     27  C   UNL     1      -3.534  -2.871  -1.801  1.00  0.00     0.303 C 
ATOM     28  C   UNL     1      -3.894  -3.934  -2.798  1.00  0.00     0.139 C 
ATOM     29  O   UNL     1      -2.583  -3.042  -1.043  1.00  0.00    -0.253 OA
ENDBRANCH  26  27
ENDBRANCH   8  26
ENDBRANCH   6   8
BRANCH   7  30
ATOM     30  C   UNL     1      -9.059  -2.486  -1.637  1.00  0.00     0.174 C 
ATOM     31  O   UNL     1     -10.071  -2.284  -2.645  1.00  0.00    -0.362 OA
ATOM     32  C   UNL     1     -10.005  -1.298  -1.616  1.00  0.00     0.186 C 
BRANCH  32  33
ATOM     33  C   UNL     1      -9.573   0.137  -1.963  1.00  0.00     0.125 C 
ATOM     34  O   UNL     1     -10.037   0.615  -3.229  1.00  0.00    -0.359 OA
ATOM     35  C   UNL     1      -8.615   0.732  -3.048  1.00  0.00     0.195 CG0
ATOM     36  C   UNL     1      -9.954   1.094  -0.843  1.00  0.00     0.048 C 
ATOM     37  G   UNL     1      -7.837  -0.003  -4.126  1.00  0.00     0.000 G0
ENDBRANCH  32  33
ENDBRANCH   7  30
ENDBRANCH   3   6
ENDBRANCH   1   2
BRANCH   1  38
ATOM     38  C   UNL     1      -5.212  -2.955   1.825  1.00  0.00     0.042 C 
BRANCH  38  39
ATOM     39  C   UNL     1      -5.136  -2.047   3.044  1.00  0.00     0.118 C 
BRANCH  39  40
ATOM     40  N   UNL     1      -6.326  -2.136   3.890  1.00  0.00    -0.352 N 
ATOM     41  C   UNL     1      -6.539  -2.853   5.040  1.00  0.00     0.251 C 
ATOM     42  H   UNL     1      -7.093  -1.598   3.587  1.00  0.00     0.163 HD
ATOM     43  O   UNL     1      -7.682  -3.016   5.457  1.00  0.00    -0.269 OA
BRANCH  41  44
ATOM     44  C   UNL     1      -5.387  -3.438   5.747  1.00  0.00     0.039 A 
ATOM     45  C   UNL     1      -5.459  -4.751   6.214  1.00  0.00     0.014 A 
ATOM     46  C   UNL     1      -4.223  -2.689   5.915  1.00  0.00     0.014 A 
ATOM     47  C   UNL     1      -4.324  -5.338   6.776  1.00  0.00     0.010 A 
ATOM     48  C   UNL     1      -3.066  -3.311   6.357  1.00  0.00     0.010 A 
ATOM     49  C   UNL     1      -3.106  -4.637   6.808  1.00  0.00    -0.014 A 
BRANCH  49  50
ATOM     50  C   UNL     1      -1.860  -5.266   7.311  1.00  0.00     0.031 A 
ATOM     51  C   UNL     1      -1.121  -4.648   8.469  1.00  0.00     0.074 A 
ATOM     52  C   UNL     1      -1.347  -6.334   6.667  1.00  0.00     0.049 A 
ATOM     53  N   UNL     1       0.013  -5.010   9.008  1.00  0.00    -0.248 NA
ATOM     54  C   UNL     1      -1.714  -3.445   9.080  1.00  0.00     0.031 C 
ATOM     55  C   UNL     1      -1.922  -6.964   5.475  1.00  0.00     0.029 A 
ATOM     56  N   UNL     1      -0.210  -7.064   6.908  1.00  0.00    -0.354 N 
ATOM     57  C   UNL     1       0.288  -4.062   9.986  1.00  0.00     0.074 A 
ATOM     58  C   UNL     1      -0.773  -3.083   9.940  1.00  0.00     0.031 C 
ATOM     59  C   UNL     1      -1.145  -7.992   5.100  1.00  0.00     0.029 A 
ATOM     60  C   UNL     1       0.004  -8.071   5.995  1.00  0.00     0.049 A 
ATOM     61  H   UNL     1       0.396  -6.884   7.663  1.00  0.00     0.167 HD
ATOM     62  C   UNL     1       1.315  -4.025  10.866  1.00  0.00     0.034 A 
ATOM     63  C   UNL     1       1.020  -8.950   5.884  1.00  0.00     0.034 A 
ATOM     64  C   UNL     1       2.343  -5.026  10.936  1.00  0.00     0.049 A 
ATOM     65  C   UNL     1       2.126  -8.910   6.904  1.00  0.00     0.074 A 
ATOM     66  C   UNL     1       3.373  -5.135  11.852  1.00  0.00     0.029 A 
ATOM     67  N   UNL     1       2.479  -6.082  10.049  1.00  0.00    -0.354 N 
ATOM     68  N   UNL     1       2.278  -8.103   7.926  1.00  0.00    -0.248 NA
ATOM     69  C   UNL     1       3.182  -9.924   6.777  1.00  0.00     0.031 C 
ATOM     70  C   UNL     1       4.156  -6.237  11.496  1.00  0.00     0.029 A 
ATOM     71  C   UNL     1       3.585  -6.840  10.386  1.00  0.00     0.049 A 
ATOM     72  H   UNL     1       1.878  -6.264   9.291  1.00  0.00     0.167 HD
ATOM     73  C   UNL     1       3.423  -8.536   8.586  1.00  0.00     0.074 A 
ATOM     74  C   UNL     1       3.910  -9.691   7.861  1.00  0.00     0.031 C 
ATOM     75  C   UNL     1       4.025  -8.018   9.684  1.00  0.00     0.034 A 
BRANCH  62  76
ATOM     76  C   UNL     1       1.356  -2.890  11.856  1.00  0.00     0.023 A 
ATOM     77  C   UNL     1       0.405  -2.832  12.895  1.00  0.00     0.012 A 
ATOM     78  C   UNL     1       2.380  -1.925  11.802  1.00  0.00     0.148 A 
ATOM     79  C   UNL     1       0.452  -1.814  13.846  1.00  0.00     0.002 A 
ATOM     80  C   UNL     1       2.450  -0.943  12.783  1.00  0.00     0.091 A 
ATOM     81  F   UNL     1       3.263  -1.985  10.796  1.00  0.00    -0.205 F 
ATOM     82  C   UNL     1       1.481  -0.878  13.797  1.00  0.00     0.022 A 
BRANCH  80  83
ATOM     83  S   UNL     1       3.784   0.258  12.861  1.00  0.00     0.127 S 
ATOM     84  O   UNL     1       3.071   1.507  12.595  1.00  0.00    -0.237 OA
ATOM     85  O   UNL     1       4.251   0.104  14.239  1.00  0.00    -0.237 OA
ATOM     86  O   UNL     1       4.745  -0.137  11.841  1.00  0.00    -0.744 OA
ENDBRANCH  80  83
ENDBRANCH  62  76
BRANCH  63  87
ATOM     87  C   UNL     1       1.017  -9.974   4.800  1.00  0.00     0.023 A 
ATOM     88  C   UNL     1       0.862 -11.335   5.130  1.00  0.00     0.012 A 
ATOM     89  C   UNL     1       1.165  -9.610   3.448  1.00  0.00     0.148 A 
ATOM     90  C   UNL     1       0.904 -12.318   4.139  1.00  0.00     0.002 A 
ATOM     91  C   UNL     1       1.146 -10.588   2.460  1.00  0.00     0.091 A 
ATOM     92  F   UNL     1       1.317  -8.311   3.153  1.00  0.00    -0.205 F 
ATOM     93  C   UNL     1       1.038 -11.944   2.805  1.00  0.00     0.022 A 
BRANCH  91  94
ATOM     94  S   UNL     1       1.179 -10.192   0.709  1.00  0.00     0.127 S 
ATOM     95  O   UNL     1       2.500 -10.676   0.317  1.00  0.00    -0.237 OA
ATOM     96  O   UNL     1       0.057 -10.982   0.200  1.00  0.00    -0.237 OA
ATOM     97  O   UNL     1       0.982  -8.751   0.627  1.00  0.00    -0.744 OA
ENDBRANCH  91  94
ENDBRANCH  63  87
BRANCH  75  98
ATOM     98  C   UNL     1       5.249  -8.722  10.207  1.00  0.00     0.023 A 
ATOM     99  C   UNL     1       6.461  -8.663   9.491  1.00  0.00     0.012 A 
ATOM    100  C   UNL     1       5.212  -9.383  11.451  1.00  0.00     0.148 A 
ATOM    101  C   UNL     1       7.606  -9.286   9.985  1.00  0.00     0.002 A 
ATOM    102  C   UNL     1       6.370  -9.952  11.964  1.00  0.00     0.091 A 
ATOM    103  F   UNL     1       4.045  -9.440  12.110  1.00  0.00    -0.205 F 
ATOM    104  C   UNL     1       7.563  -9.918  11.226  1.00  0.00     0.022 A 
BRANCH 102 105
ATOM    105  S   UNL     1       6.435 -10.696  13.597  1.00  0.00     0.127 S 
ATOM    106  O   UNL     1       6.587 -12.114  13.272  1.00  0.00    -0.237 OA
ATOM    107  O   UNL     1       7.626 -10.072  14.173  1.00  0.00    -0.237 OA
ATOM    108  O   UNL     1       5.185 -10.338  14.255  1.00  0.00    -0.744 OA
ENDBRANCH 102 105
ENDBRANCH  75  98
ENDBRANCH  49  50
ENDBRANCH  41  44
ENDBRANCH  39  40
ENDBRANCH  38  39
ENDBRANCH   1  38
TORSDOF 18
