REMARK SMILES CC(C)(C)[C@H](CCC(=O)NCCCNC(=O)c1ccc(-c2c3nc(c(-c4cccc(S(=O)(=O)[O-])c4F)c4ccc([nH]4)c(-c4cccc(S(=O)(=O)[O-])c4F)c4nc(c(-c5cccc(S(=O)(=O)[O-])c5F)c5ccc2[nH]5)C=C4)C=C3)cc1)CC[NH+]1CCOCC1
REMARK SMILES IDX 11 1 10 2 8 3 9 4 7 6 6 7 5 8 2 9 1 10 3 11 4 12 80 13 81 14
REMARK SMILES IDX 82 15 83 16 87 17 84 19 86 20 85 21 12 22 13 23 14 24 15 25
REMARK SMILES IDX 16 27 17 28 18 29 79 30 19 31 78 32 20 33 21 34 22 35 72 36
REMARK SMILES IDX 23 37 77 38 71 39 73 40 24 41 76 42 70 43 69 44 25 46 57 47
REMARK SMILES IDX 37 48 56 49 38 50 41 51 55 52 74 53 39 54 40 55 54 57 75 58
REMARK SMILES IDX 42 59 26 60 27 61 35 62 28 63 30 64 36 65 29 66 31 67 32 68
REMARK SMILES IDX 33 69 34 70 58 71 59 72 67 73 60 74 62 75 68 76 61 77 63 78
REMARK SMILES IDX 64 79 65 80 66 81 43 82 44 83 52 84 45 85 47 86 53 87 46 88
REMARK SMILES IDX 48 89 49 90 50 91 51 92
REMARK H PARENT 10 5 82 18 14 26 73 45 41 56
REMARK Flexibility Score: inf
ROOT
ATOM      1  C   UNL     1       0.936  -5.196   1.410  1.00  0.00     0.117 C 
ENDROOT
BRANCH   1   2
ATOM      2  N   UNL     1       0.043  -4.348   2.213  1.00  0.00    -0.356 N 
ATOM      3  C   UNL     1      -1.091  -3.787   1.685  1.00  0.00     0.220 C 
ATOM      4  O   UNL     1      -2.111  -4.485   1.657  1.00  0.00    -0.275 OA
ATOM      5  H   UNL     1       0.265  -4.179   3.157  1.00  0.00     0.163 HD
BRANCH   3   6
ATOM      6  C   UNL     1      -1.215  -2.276   1.401  1.00  0.00     0.100 C 
BRANCH   6   7
ATOM      7  C   UNL     1      -0.113  -1.311   0.942  1.00  0.00     0.014 C 
BRANCH   7   8
ATOM      8  C   UNL     1       1.104  -1.909   0.245  1.00  0.00     0.000 C 
BRANCH   8   9
ATOM      9  C   UNL     1       0.936  -2.100  -1.342  1.00  0.00    -0.035 C 
ATOM     10  C   UNL     1       1.879  -1.205  -2.159  1.00  0.00     0.011 C 
ATOM     11  C   UNL     1      -0.506  -1.857  -1.852  1.00  0.00     0.011 C 
ATOM     12  C   UNL     1       1.248  -3.561  -1.754  1.00  0.00     0.011 C 
ENDBRANCH   8   9
BRANCH   8  13
ATOM     13  C   UNL     1       2.453  -1.286   0.776  1.00  0.00     0.065 C 
BRANCH  13  14
ATOM     14  C   UNL     1       2.670  -0.954   2.317  1.00  0.00     0.262 C 
BRANCH  14  15
ATOM     15  N   UNL     1       1.914  -1.735   3.312  1.00  0.00    -0.331 N 
ATOM     16  C   UNL     1       2.750  -2.522   4.254  1.00  0.00     0.291 C 
ATOM     17  C   UNL     1       1.059  -0.899   4.199  1.00  0.00     0.291 C 
ATOM     18  H   UNL     1       1.367  -2.347   2.708  1.00  0.00     0.348 HD
ATOM     19  C   UNL     1       1.835  -3.445   5.092  1.00  0.00     0.221 C 
ATOM     20  C   UNL     1       0.114  -1.830   4.976  1.00  0.00     0.221 C 
ATOM     21  O   UNL     1       0.851  -2.710   5.834  1.00  0.00    -0.370 OA
ENDBRANCH  14  15
ENDBRANCH  13  14
ENDBRANCH   8  13
ENDBRANCH   7   8
ENDBRANCH   6   7
ENDBRANCH   3   6
ENDBRANCH   1   2
BRANCH   1  22
ATOM     22  C   UNL     1       2.417  -4.812   1.516  1.00  0.00     0.042 C 
BRANCH  22  23
ATOM     23  C   UNL     1       3.224  -5.629   2.501  1.00  0.00     0.118 C 
BRANCH  23  24
ATOM     24  N   UNL     1       3.657  -6.896   1.961  1.00  0.00    -0.352 N 
ATOM     25  C   UNL     1       4.779  -7.625   2.301  1.00  0.00     0.251 C 
ATOM     26  H   UNL     1       3.082  -7.288   1.264  1.00  0.00     0.163 HD
ATOM     27  O   UNL     1       5.073  -8.608   1.647  1.00  0.00    -0.269 OA
BRANCH  25  28
ATOM     28  C   UNL     1       5.645  -7.180   3.429  1.00  0.00     0.039 A 
ATOM     29  C   UNL     1       7.028  -7.299   3.278  1.00  0.00     0.014 A 
ATOM     30  C   UNL     1       5.125  -6.675   4.625  1.00  0.00     0.014 A 
ATOM     31  C   UNL     1       7.879  -6.904   4.314  1.00  0.00     0.010 A 
ATOM     32  C   UNL     1       5.978  -6.196   5.621  1.00  0.00     0.010 A 
ATOM     33  C   UNL     1       7.364  -6.340   5.494  1.00  0.00    -0.014 A 
BRANCH  33  34
ATOM     34  C   UNL     1       8.289  -5.954   6.594  1.00  0.00     0.031 A 
ATOM     35  C   UNL     1       8.238  -6.657   7.927  1.00  0.00     0.074 A 
ATOM     36  C   UNL     1       9.196  -4.978   6.389  1.00  0.00     0.049 A 
ATOM     37  N   UNL     1       9.079  -6.582   8.927  1.00  0.00    -0.248 NA
ATOM     38  C   UNL     1       7.089  -7.540   8.184  1.00  0.00     0.031 C 
ATOM     39  C   UNL     1       9.280  -4.141   5.190  1.00  0.00     0.029 A 
ATOM     40  N   UNL     1      10.227  -4.531   7.178  1.00  0.00    -0.354 N 
ATOM     41  C   UNL     1       8.556  -7.393   9.928  1.00  0.00     0.074 A 
ATOM     42  C   UNL     1       7.297  -7.906   9.440  1.00  0.00     0.031 C 
ATOM     43  C   UNL     1      10.331  -3.313   5.304  1.00  0.00     0.029 A 
ATOM     44  C   UNL     1      10.993  -3.556   6.583  1.00  0.00     0.049 A 
ATOM     45  H   UNL     1      10.401  -4.876   8.083  1.00  0.00     0.167 HD
ATOM     46  C   UNL     1       9.093  -7.720  11.129  1.00  0.00     0.034 A 
ATOM     47  C   UNL     1      12.122  -2.951   7.004  1.00  0.00     0.034 A 
ATOM     48  C   UNL     1      10.363  -7.237  11.598  1.00  0.00     0.049 A 
ATOM     49  C   UNL     1      12.745  -3.392   8.302  1.00  0.00     0.074 A 
ATOM     50  C   UNL     1      11.037  -7.570  12.759  1.00  0.00     0.029 A 
ATOM     51  N   UNL     1      11.148  -6.310  10.931  1.00  0.00    -0.354 N 
ATOM     52  N   UNL     1      12.336  -4.309   9.145  1.00  0.00    -0.248 NA
ATOM     53  C   UNL     1      14.014  -2.754   8.679  1.00  0.00     0.031 C 
ATOM     54  C   UNL     1      12.222  -6.826  12.805  1.00  0.00     0.029 A 
ATOM     55  C   UNL     1      12.298  -6.053  11.658  1.00  0.00     0.049 A 
ATOM     56  H   UNL     1      10.922  -5.895  10.068  1.00  0.00     0.167 HD
ATOM     57  C   UNL     1      13.311  -4.381  10.134  1.00  0.00     0.074 A 
ATOM     58  C   UNL     1      14.346  -3.437   9.765  1.00  0.00     0.031 C 
ATOM     59  C   UNL     1      13.340  -5.144  11.255  1.00  0.00     0.034 A 
BRANCH  46  60
ATOM     60  C   UNL     1       8.332  -8.697  11.990  1.00  0.00     0.023 A 
ATOM     61  C   UNL     1       8.249 -10.050  11.597  1.00  0.00     0.012 A 
ATOM     62  C   UNL     1       7.743  -8.295  13.204  1.00  0.00     0.148 A 
ATOM     63  C   UNL     1       7.560 -10.977  12.376  1.00  0.00     0.002 A 
ATOM     64  C   UNL     1       7.096  -9.236  13.999  1.00  0.00     0.091 A 
ATOM     65  F   UNL     1       7.813  -7.003  13.553  1.00  0.00    -0.205 F 
ATOM     66  C   UNL     1       6.992 -10.573  13.581  1.00  0.00     0.022 A 
BRANCH  64  67
ATOM     67  S   UNL     1       6.401  -8.835  15.606  1.00  0.00     0.127 S 
ATOM     68  O   UNL     1       4.966  -8.927  15.338  1.00  0.00    -0.237 OA
ATOM     69  O   UNL     1       6.933  -9.906  16.448  1.00  0.00    -0.237 OA
ATOM     70  O   UNL     1       6.891  -7.504  15.935  1.00  0.00    -0.744 OA
ENDBRANCH  64  67
ENDBRANCH  46  60
BRANCH  47  71
ATOM     71  C   UNL     1      12.793  -1.940   6.137  1.00  0.00     0.023 A 
ATOM     72  C   UNL     1      14.025  -2.251   5.527  1.00  0.00     0.012 A 
ATOM     73  C   UNL     1      12.207  -0.683   5.893  1.00  0.00     0.148 A 
ATOM     74  C   UNL     1      14.678  -1.317   4.722  1.00  0.00     0.002 A 
ATOM     75  C   UNL     1      12.833   0.221   5.043  1.00  0.00     0.091 A 
ATOM     76  F   UNL     1      11.041  -0.400   6.491  1.00  0.00    -0.205 F 
ATOM     77  C   UNL     1      14.078  -0.086   4.471  1.00  0.00     0.022 A 
BRANCH  75  78
ATOM     78  S   UNL     1      12.065   1.769   4.555  1.00  0.00     0.127 S 
ATOM     79  O   UNL     1      12.864   2.745   5.292  1.00  0.00    -0.237 OA
ATOM     80  O   UNL     1      12.273   1.768   3.107  1.00  0.00    -0.237 OA
ATOM     81  O   UNL     1      10.669   1.657   4.958  1.00  0.00    -0.744 OA
ENDBRANCH  75  78
ENDBRANCH  47  71
BRANCH  59  82
ATOM     82  C   UNL     1      14.541  -5.009  12.155  1.00  0.00     0.023 A 
ATOM     83  C   UNL     1      14.726  -3.831  12.907  1.00  0.00     0.012 A 
ATOM     84  C   UNL     1      15.460  -6.067  12.294  1.00  0.00     0.148 A 
ATOM     85  C   UNL     1      15.831  -3.690  13.746  1.00  0.00     0.002 A 
ATOM     86  C   UNL     1      16.531  -5.940  13.171  1.00  0.00     0.091 A 
ATOM     87  F   UNL     1      15.282  -7.174  11.557  1.00  0.00    -0.205 F 
ATOM     88  C   UNL     1      16.727  -4.747  13.886  1.00  0.00     0.022 A 
BRANCH  86  89
ATOM     89  S   UNL     1      17.674  -7.290  13.484  1.00  0.00     0.127 S 
ATOM     90  O   UNL     1      18.831  -6.894  12.684  1.00  0.00    -0.237 OA
ATOM     91  O   UNL     1      17.875  -7.203  14.931  1.00  0.00    -0.237 OA
ATOM     92  O   UNL     1      16.987  -8.498  13.046  1.00  0.00    -0.744 OA
ENDBRANCH  86  89
ENDBRANCH  59  82
ENDBRANCH  33  34
ENDBRANCH  25  28
ENDBRANCH  23  24
ENDBRANCH  22  23
ENDBRANCH   1  22
TORSDOF 19
