REMARK SMILES O=C(NCCCNC(=O)c1ccc([C@@H]2CC(O)=Nc3c2ncn3-c2cccc(Cl)c2)cc1)c1ccc(-c2c3nc(c(-c4cccc(S(=O)(=O)[O-])c4F)c4ccc([nH]4)c(-c4cccc(S(=O)(=O)[O-])c4F)c4nc(c(-c5cccc(S(=O)(=O)[O-])c5F)c5ccc2[nH]5)C=C4)C=C3)cc1
REMARK SMILES IDX 4 1 3 2 1 3 2 4 33 6 34 7 95 8 35 9 94 10 36 11 37 12 38 13
REMARK SMILES IDX 88 14 39 15 93 16 87 17 89 18 40 19 92 20 86 21 85 22 41 24
REMARK SMILES IDX 73 25 53 26 72 27 54 28 57 29 71 30 90 31 55 32 56 33 70 35
REMARK SMILES IDX 91 36 58 37 42 38 43 39 51 40 44 41 46 42 52 43 45 44 47 45
REMARK SMILES IDX 48 46 49 47 50 48 74 49 75 50 83 51 76 52 78 53 84 54 77 55
REMARK SMILES IDX 79 56 80 57 81 58 82 59 59 60 60 61 68 62 61 63 63 64 69 65
REMARK SMILES IDX 62 66 64 67 65 68 66 69 67 70 5 71 6 72 7 73 8 74 9 76 10 77
REMARK SMILES IDX 11 78 32 79 12 80 31 81 13 82 14 83 15 84 20 85 16 86 19 87
REMARK SMILES IDX 21 88 18 89 23 90 22 91 17 92 24 94 25 95 30 96 26 97 28 98
REMARK SMILES IDX 27 99 29 100
REMARK H PARENT 3 5 89 23 57 34 7 75 17 93
REMARK Flexibility Score: inf
ROOT
ATOM      1  C   UNL     1       4.675   0.340   0.982  1.00  0.00     0.118 C 
ENDROOT
BRANCH   1   2
ATOM      2  N   UNL     1       3.255   0.051   0.948  1.00  0.00    -0.352 N 
ATOM      3  O   UNL     1       1.195  -0.401   0.332  1.00  0.00    -0.269 OA
ATOM      4  C   UNL     1       2.268   0.115   0.004  1.00  0.00     0.251 C 
ATOM      5  H   UNL     1       2.920  -0.269   1.817  1.00  0.00     0.163 HD
BRANCH   4   6
ATOM      6  C   UNL     1       2.362   0.802  -1.315  1.00  0.00     0.039 A 
ATOM      7  C   UNL     1       3.534   1.218  -1.947  1.00  0.00     0.014 A 
ATOM      8  C   UNL     1       1.132   1.047  -1.959  1.00  0.00     0.014 A 
ATOM      9  C   UNL     1       3.471   1.918  -3.156  1.00  0.00     0.010 A 
ATOM     10  C   UNL     1       1.063   1.741  -3.164  1.00  0.00     0.010 A 
ATOM     11  C   UNL     1       2.235   2.199  -3.755  1.00  0.00    -0.014 A 
BRANCH  11  12
ATOM     12  C   UNL     1       2.216   2.749  -5.115  1.00  0.00     0.031 A 
ATOM     13  C   UNL     1       2.757   1.806  -6.137  1.00  0.00     0.074 A 
ATOM     14  C   UNL     1       1.627   3.910  -5.479  1.00  0.00     0.049 A 
ATOM     15  N   UNL     1       3.820   1.946  -6.861  1.00  0.00    -0.248 NA
ATOM     16  C   UNL     1       2.124   0.483  -6.260  1.00  0.00     0.031 C 
ATOM     17  C   UNL     1       0.792   4.781  -4.649  1.00  0.00     0.029 A 
ATOM     18  N   UNL     1       1.548   4.501  -6.713  1.00  0.00    -0.354 N 
ATOM     19  C   UNL     1       3.854   0.831  -7.700  1.00  0.00     0.074 A 
ATOM     20  C   UNL     1       2.915  -0.110  -7.155  1.00  0.00     0.031 C 
ATOM     21  C   UNL     1       0.110   5.639  -5.444  1.00  0.00     0.029 A 
ATOM     22  C   UNL     1       0.548   5.470  -6.819  1.00  0.00     0.049 A 
ATOM     23  H   UNL     1       2.144   4.262  -7.460  1.00  0.00     0.167 HD
ATOM     24  C   UNL     1       4.469   0.879  -8.915  1.00  0.00     0.034 A 
ATOM     25  C   UNL     1       0.071   6.045  -7.955  1.00  0.00     0.034 A 
ATOM     26  C   UNL     1       5.359   2.010  -8.998  1.00  0.00     0.049 A 
ATOM     27  C   UNL     1       1.080   5.843  -9.015  1.00  0.00     0.074 A 
ATOM     28  C   UNL     1       6.461   2.451  -8.295  1.00  0.00     0.029 A 
ATOM     29  N   UNL     1       4.916   3.085  -9.726  1.00  0.00    -0.354 N 
ATOM     30  N   UNL     1       2.241   6.430  -9.028  1.00  0.00    -0.248 NA
ATOM     31  C   UNL     1       0.950   4.676  -9.869  1.00  0.00     0.031 C 
ATOM     32  C   UNL     1       6.336   3.871  -8.272  1.00  0.00     0.029 A 
ATOM     33  C   UNL     1       5.211   4.217  -9.022  1.00  0.00     0.049 A 
ATOM     34  H   UNL     1       4.466   3.047 -10.601  1.00  0.00     0.167 HD
ATOM     35  C   UNL     1       3.104   5.448  -9.489  1.00  0.00     0.074 A 
ATOM     36  C   UNL     1       2.243   4.439 -10.101  1.00  0.00     0.031 C 
ATOM     37  C   UNL     1       4.400   5.410  -9.065  1.00  0.00     0.034 A 
BRANCH  24  38
ATOM     38  C   UNL     1       3.987   0.176 -10.174  1.00  0.00     0.023 A 
ATOM     39  C   UNL     1       4.774   0.345 -11.339  1.00  0.00     0.012 A 
ATOM     40  C   UNL     1       2.694  -0.365 -10.358  1.00  0.00     0.148 A 
ATOM     41  C   UNL     1       4.270   0.085 -12.618  1.00  0.00     0.002 A 
ATOM     42  C   UNL     1       2.222  -0.691 -11.626  1.00  0.00     0.091 A 
ATOM     43  F   UNL     1       1.852  -0.464  -9.329  1.00  0.00    -0.205 F 
ATOM     44  C   UNL     1       2.990  -0.431 -12.762  1.00  0.00     0.022 A 
BRANCH  42  45
ATOM     45  S   UNL     1       0.592  -1.407 -11.876  1.00  0.00     0.127 S 
ATOM     46  O   UNL     1      -0.112  -0.309 -12.530  1.00  0.00    -0.237 OA
ATOM     47  O   UNL     1       0.900  -2.548 -12.738  1.00  0.00    -0.237 OA
ATOM     48  O   UNL     1       0.111  -1.773 -10.550  1.00  0.00    -0.744 OA
ENDBRANCH  42  45
ENDBRANCH  24  38
BRANCH  25  49
ATOM     49  C   UNL     1      -1.278   6.563  -8.300  1.00  0.00     0.023 A 
ATOM     50  C   UNL     1      -1.437   7.428  -9.406  1.00  0.00     0.012 A 
ATOM     51  C   UNL     1      -2.436   5.970  -7.755  1.00  0.00     0.148 A 
ATOM     52  C   UNL     1      -2.698   7.658  -9.975  1.00  0.00     0.002 A 
ATOM     53  C   UNL     1      -3.687   6.203  -8.321  1.00  0.00     0.091 A 
ATOM     54  F   UNL     1      -2.297   5.102  -6.745  1.00  0.00    -0.205 F 
ATOM     55  C   UNL     1      -3.821   7.037  -9.439  1.00  0.00     0.022 A 
BRANCH  53  56
ATOM     56  S   UNL     1      -5.178   5.404  -7.712  1.00  0.00     0.127 S 
ATOM     57  O   UNL     1      -6.096   6.534  -7.581  1.00  0.00    -0.237 OA
ATOM     58  O   UNL     1      -5.490   4.480  -8.795  1.00  0.00    -0.237 OA
ATOM     59  O   UNL     1      -4.804   4.786  -6.441  1.00  0.00    -0.744 OA
ENDBRANCH  53  56
ENDBRANCH  25  49
BRANCH  37  60
ATOM     60  C   UNL     1       4.961   6.622  -8.371  1.00  0.00     0.023 A 
ATOM     61  C   UNL     1       4.455   7.115  -7.150  1.00  0.00     0.012 A 
ATOM     62  C   UNL     1       6.143   7.172  -8.892  1.00  0.00     0.148 A 
ATOM     63  C   UNL     1       5.109   8.150  -6.476  1.00  0.00     0.002 A 
ATOM     64  C   UNL     1       6.819   8.160  -8.192  1.00  0.00     0.091 A 
ATOM     65  F   UNL     1       6.603   6.696 -10.059  1.00  0.00    -0.205 F 
ATOM     66  C   UNL     1       6.300   8.661  -6.988  1.00  0.00     0.022 A 
BRANCH  64  67
ATOM     67  S   UNL     1       8.422   8.750  -8.737  1.00  0.00     0.127 S 
ATOM     68  O   UNL     1       8.088  10.051  -9.312  1.00  0.00    -0.237 OA
ATOM     69  O   UNL     1       9.177   8.810  -7.484  1.00  0.00    -0.237 OA
ATOM     70  O   UNL     1       8.915   7.753  -9.679  1.00  0.00    -0.744 OA
ENDBRANCH  64  67
ENDBRANCH  37  60
ENDBRANCH  11  12
ENDBRANCH   4   6
ENDBRANCH   1   2
BRANCH   1  71
ATOM     71  C   UNL     1       5.031   1.806   1.205  1.00  0.00     0.042 C 
BRANCH  71  72
ATOM     72  C   UNL     1       4.447   2.421   2.473  1.00  0.00     0.118 C 
BRANCH  72  73
ATOM     73  N   UNL     1       5.002   1.862   3.698  1.00  0.00    -0.352 N 
ATOM     74  C   UNL     1       5.849   2.407   4.629  1.00  0.00     0.251 C 
ATOM     75  H   UNL     1       4.722   0.938   3.890  1.00  0.00     0.163 HD
ATOM     76  O   UNL     1       6.278   1.697   5.538  1.00  0.00    -0.269 OA
BRANCH  74  77
ATOM     77  C   UNL     1       6.262   3.830   4.573  1.00  0.00     0.039 A 
ATOM     78  C   UNL     1       7.590   4.146   4.876  1.00  0.00     0.014 A 
ATOM     79  C   UNL     1       5.346   4.862   4.351  1.00  0.00     0.014 A 
ATOM     80  C   UNL     1       7.991   5.483   4.969  1.00  0.00     0.005 A 
ATOM     81  C   UNL     1       5.760   6.197   4.391  1.00  0.00     0.005 A 
ATOM     82  C   UNL     1       7.072   6.528   4.769  1.00  0.00    -0.038 A 
BRANCH  82  83
ATOM     83  C   UNL     1       7.443   7.929   5.222  1.00  0.00     0.081 C 
ATOM     84  C   UNL     1       6.443   8.444   6.288  1.00  0.00     0.111 C 
ATOM     85  C   UNL     1       7.576   8.882   4.090  1.00  0.00     0.093 A 
ATOM     86  C   UNL     1       6.082   9.908   6.172  1.00  0.00     0.188 C 
ATOM     87  C   UNL     1       7.175  10.190   4.258  1.00  0.00     0.164 A 
ATOM     88  N   UNL     1       8.263   8.726   2.917  1.00  0.00    -0.238 NA
ATOM     89  N   UNL     1       6.440  10.740   5.254  1.00  0.00    -0.198 NA
ATOM     90  N   UNL     1       7.685  10.883   3.178  1.00  0.00    -0.283 N 
ATOM     91  C   UNL     1       8.255   9.928   2.360  1.00  0.00     0.206 A 
BRANCH  86  92
ATOM     92  O   UNL     1       5.266  10.347   7.150  1.00  0.00    -0.496 OA
ATOM     93  H   UNL     1       4.991   9.763   7.829  1.00  0.00     0.294 HD
ENDBRANCH  86  92
BRANCH  90  94
ATOM     94  C   UNL     1       7.685  12.291   3.014  1.00  0.00     0.050 A 
ATOM     95  C   UNL     1       7.450  12.873   1.766  1.00  0.00     0.027 A 
ATOM     96  C   UNL     1       7.889  13.103   4.143  1.00  0.00     0.047 A 
ATOM     97  C   UNL     1       7.346  14.267   1.673  1.00  0.00     0.004 A 
ATOM     98  C   UNL     1       7.826  14.488   4.027  1.00  0.00     0.043 A 
ATOM     99  C   UNL     1       7.534  15.074   2.800  1.00  0.00     0.020 A 
ATOM    100  Cl  UNL     1       8.111  15.474   5.410  1.00  0.00    -0.084 Cl
ENDBRANCH  90  94
ENDBRANCH  82  83
ENDBRANCH  74  77
ENDBRANCH  72  73
ENDBRANCH  71  72
ENDBRANCH   1  71
TORSDOF 16
