REMARK SMILES CC[C@@H](C)[C@@H]([NH3+])C(=O)N1CCC(CC(=O)NCCCNC(=O)c2ccc(-c3c4nc(c(-c5cccc(S(=O)(=O)[O-])c5F)c5ccc([nH]5)c(-c5cccc(S(=O)(=O)[O-])c5F)c5nc(c(-c6cccc(S(=O)(=O)[O-])c6F)c6ccc3[nH]6)C=C5)C=C4)cc2)CC1
REMARK SMILES IDX 17 1 16 2 14 3 15 4 13 6 12 7 7 8 8 9 9 10 10 11 87 12 11 13
REMARK SMILES IDX 86 14 5 15 3 16 4 17 2 18 1 19 6 20 18 24 19 25 20 26 21 27
REMARK SMILES IDX 22 29 23 30 24 31 85 32 25 33 84 34 26 35 27 36 28 37 78 38
REMARK SMILES IDX 29 39 83 40 77 41 79 42 30 43 82 44 76 45 75 46 31 48 63 49
REMARK SMILES IDX 43 50 62 51 44 52 47 53 61 54 80 55 45 56 46 57 60 59 81 60
REMARK SMILES IDX 48 61 32 62 33 63 41 64 34 65 36 66 42 67 35 68 37 69 38 70
REMARK SMILES IDX 39 71 40 72 64 73 65 74 73 75 66 76 68 77 74 78 67 79 69 80
REMARK SMILES IDX 70 81 71 82 72 83 49 84 50 85 58 86 51 87 53 88 59 89 52 90
REMARK SMILES IDX 54 91 55 92 56 93 57 94
REMARK H PARENT 16 5 6 21 6 22 6 23 20 28 79 47 47 58
REMARK Flexibility Score: inf
ROOT
ATOM      1  C   UNL     1       3.880  -0.498   9.607  1.00  0.00     0.117 C 
ENDROOT
BRANCH   1   2
ATOM      2  N   UNL     1       5.289  -0.414   9.241  1.00  0.00    -0.356 N 
ATOM      3  C   UNL     1       5.906   0.122   8.149  1.00  0.00     0.220 C 
ATOM      4  O   UNL     1       7.138   0.114   8.113  1.00  0.00    -0.275 OA
ATOM      5  H   UNL     1       5.904  -0.815   9.897  1.00  0.00     0.163 HD
BRANCH   3   6
ATOM      6  C   UNL     1       5.104   0.705   7.000  1.00  0.00     0.103 C 
BRANCH   6   7
ATOM      7  C   UNL     1       4.849  -0.299   5.860  1.00  0.00     0.002 C 
ATOM      8  C   UNL     1       1.398  -1.583   4.267  1.00  0.00     0.281 C 
ATOM      9  O   UNL     1       0.768  -1.593   5.330  1.00  0.00    -0.268 OA
ATOM     10  N   UNL     1       2.787  -1.591   4.258  1.00  0.00    -0.338 N 
ATOM     11  C   UNL     1       3.470  -2.379   5.260  1.00  0.00     0.120 C 
ATOM     12  C   UNL     1       3.618  -0.573   3.636  1.00  0.00     0.120 C 
ATOM     13  C   UNL     1       4.019  -1.486   6.356  1.00  0.00     0.026 C 
ATOM     14  C   UNL     1       4.144   0.406   4.690  1.00  0.00     0.026 C 
BRANCH   8  15
ATOM     15  C   UNL     1       0.648  -1.796   2.911  1.00  0.00     0.273 C 
BRANCH  15  16
ATOM     16  C   UNL     1       0.816  -0.668   1.869  1.00  0.00     0.054 C 
ATOM     17  C   UNL     1       0.371   0.675   2.470  1.00  0.00     0.014 C 
BRANCH  16  18
ATOM     18  C   UNL     1       0.072  -0.935   0.541  1.00  0.00     0.006 C 
ATOM     19  C   UNL     1       0.506   0.030  -0.559  1.00  0.00     0.004 C 
ENDBRANCH  16  18
ENDBRANCH  15  16
BRANCH  15  20
ATOM     20  N   UNL     1       1.077  -3.103   2.369  1.00  0.00    -0.347 N 
ATOM     21  H   UNL     1       2.081  -3.082   2.186  1.00  0.00     0.345 HD
ATOM     22  H   UNL     1       0.577  -3.293   1.501  1.00  0.00     0.345 HD
ATOM     23  H   UNL     1       0.871  -3.836   3.048  1.00  0.00     0.345 HD
ENDBRANCH  15  20
ENDBRANCH   8  15
ENDBRANCH   6   7
ENDBRANCH   3   6
ENDBRANCH   1   2
BRANCH   1  24
ATOM     24  C   UNL     1       3.332  -1.927   9.611  1.00  0.00     0.042 C 
BRANCH  24  25
ATOM     25  C   UNL     1       3.961  -2.845  10.648  1.00  0.00     0.118 C 
BRANCH  25  26
ATOM     26  N   UNL     1       3.244  -2.788  11.908  1.00  0.00    -0.352 N 
ATOM     27  C   UNL     1       2.416  -3.724  12.482  1.00  0.00     0.251 C 
ATOM     28  H   UNL     1       3.369  -1.961  12.427  1.00  0.00     0.163 HD
ATOM     29  O   UNL     1       1.676  -3.376  13.400  1.00  0.00    -0.269 OA
BRANCH  27  30
ATOM     30  C   UNL     1       2.402  -5.134  12.016  1.00  0.00     0.039 A 
ATOM     31  C   UNL     1       1.188  -5.830  12.009  1.00  0.00     0.014 A 
ATOM     32  C   UNL     1       3.577  -5.803  11.660  1.00  0.00     0.014 A 
ATOM     33  C   UNL     1       1.150  -7.175  11.625  1.00  0.00     0.010 A 
ATOM     34  C   UNL     1       3.526  -7.118  11.197  1.00  0.00     0.010 A 
ATOM     35  C   UNL     1       2.317  -7.830  11.201  1.00  0.00    -0.014 A 
BRANCH  35  36
ATOM     36  C   UNL     1       2.300  -9.262  10.794  1.00  0.00     0.031 A 
ATOM     37  C   UNL     1       3.096 -10.283  11.568  1.00  0.00     0.074 A 
ATOM     38  C   UNL     1       1.627  -9.640   9.688  1.00  0.00     0.049 A 
ATOM     39  N   UNL     1       3.244 -11.563  11.339  1.00  0.00    -0.248 NA
ATOM     40  C   UNL     1       3.846  -9.798  12.739  1.00  0.00     0.031 C 
ATOM     41  C   UNL     1       0.878  -8.742   8.807  1.00  0.00     0.029 A 
ATOM     42  N   UNL     1       1.486 -10.874   9.102  1.00  0.00    -0.354 N 
ATOM     43  C   UNL     1       4.132 -12.025  12.305  1.00  0.00     0.074 A 
ATOM     44  C   UNL     1       4.516 -10.881  13.103  1.00  0.00     0.031 C 
ATOM     45  C   UNL     1       0.353  -9.455   7.798  1.00  0.00     0.029 A 
ATOM     46  C   UNL     1       0.748 -10.853   7.941  1.00  0.00     0.049 A 
ATOM     47  H   UNL     1       1.877 -11.696   9.477  1.00  0.00     0.167 HD
ATOM     48  C   UNL     1       4.564 -13.289  12.532  1.00  0.00     0.034 A 
ATOM     49  C   UNL     1       0.428 -11.845   7.087  1.00  0.00     0.034 A 
ATOM     50  C   UNL     1       4.138 -14.435  11.775  1.00  0.00     0.049 A 
ATOM     51  C   UNL     1       0.878 -13.249   7.389  1.00  0.00     0.074 A 
ATOM     52  C   UNL     1       4.443 -15.768  11.986  1.00  0.00     0.029 A 
ATOM     53  N   UNL     1       3.316 -14.385  10.660  1.00  0.00    -0.354 N 
ATOM     54  N   UNL     1       1.587 -13.689   8.401  1.00  0.00    -0.248 NA
ATOM     55  C   UNL     1       0.454 -14.301   6.453  1.00  0.00     0.031 C 
ATOM     56  C   UNL     1       3.819 -16.523  10.987  1.00  0.00     0.029 A 
ATOM     57  C   UNL     1       3.109 -15.662  10.167  1.00  0.00     0.049 A 
ATOM     58  H   UNL     1       2.935 -13.563  10.276  1.00  0.00     0.167 HD
ATOM     59  C   UNL     1       1.664 -15.068   8.243  1.00  0.00     0.074 A 
ATOM     60  C   UNL     1       0.912 -15.394   7.049  1.00  0.00     0.031 C 
ATOM     61  C   UNL     1       2.313 -15.980   9.009  1.00  0.00     0.034 A 
BRANCH  48  62
ATOM     62  C   UNL     1       5.508 -13.508  13.688  1.00  0.00     0.023 A 
ATOM     63  C   UNL     1       5.024 -13.400  15.008  1.00  0.00     0.012 A 
ATOM     64  C   UNL     1       6.852 -13.872  13.474  1.00  0.00     0.148 A 
ATOM     65  C   UNL     1       5.870 -13.610  16.096  1.00  0.00     0.002 A 
ATOM     66  C   UNL     1       7.679 -14.123  14.564  1.00  0.00     0.091 A 
ATOM     67  F   UNL     1       7.301 -13.951  12.213  1.00  0.00    -0.205 F 
ATOM     68  C   UNL     1       7.193 -13.981  15.874  1.00  0.00     0.022 A 
BRANCH  66  69
ATOM     69  S   UNL     1       9.376 -14.683  14.382  1.00  0.00     0.127 S 
ATOM     70  O   UNL     1      10.124 -13.481  14.746  1.00  0.00    -0.237 OA
ATOM     71  O   UNL     1       9.451 -15.768  15.361  1.00  0.00    -0.237 OA
ATOM     72  O   UNL     1       9.509 -15.110  12.996  1.00  0.00    -0.744 OA
ENDBRANCH  66  69
ENDBRANCH  48  62
BRANCH  49  73
ATOM     73  C   UNL     1      -0.431 -11.554   5.903  1.00  0.00     0.023 A 
ATOM     74  C   UNL     1      -1.758 -12.028   5.881  1.00  0.00     0.012 A 
ATOM     75  C   UNL     1       0.038 -10.780   4.824  1.00  0.00     0.148 A 
ATOM     76  C   UNL     1      -2.592 -11.761   4.795  1.00  0.00     0.002 A 
ATOM     77  C   UNL     1      -0.815 -10.470   3.771  1.00  0.00     0.091 A 
ATOM     78  F   UNL     1       1.307 -10.349   4.857  1.00  0.00    -0.205 F 
ATOM     79  C   UNL     1      -2.125 -10.973   3.746  1.00  0.00     0.022 A 
BRANCH  77  80
ATOM     80  S   UNL     1      -0.344  -9.353   2.445  1.00  0.00     0.127 S 
ATOM     81  O   UNL     1      -0.217 -10.267   1.314  1.00  0.00    -0.237 OA
ATOM     82  O   UNL     1      -1.494  -8.451   2.383  1.00  0.00    -0.237 OA
ATOM     83  O   UNL     1       0.890  -8.716   2.888  1.00  0.00    -0.744 OA
ENDBRANCH  77  80
ENDBRANCH  49  73
BRANCH  61  84
ATOM     84  C   UNL     1       2.220 -17.428   8.604  1.00  0.00     0.023 A 
ATOM     85  C   UNL     1       2.932 -17.886   7.478  1.00  0.00     0.012 A 
ATOM     86  C   UNL     1       1.492 -18.349   9.383  1.00  0.00     0.148 A 
ATOM     87  C   UNL     1       2.897 -19.233   7.116  1.00  0.00     0.002 A 
ATOM     88  C   UNL     1       1.500 -19.697   9.044  1.00  0.00     0.091 A 
ATOM     89  F   UNL     1       0.805 -17.891  10.440  1.00  0.00    -0.205 F 
ATOM     90  C   UNL     1       2.192 -20.139   7.905  1.00  0.00     0.022 A 
BRANCH  88  91
ATOM     91  S   UNL     1       0.698 -20.948  10.055  1.00  0.00     0.127 S 
ATOM     92  O   UNL     1      -0.475 -21.278   9.247  1.00  0.00    -0.237 OA
ATOM     93  O   UNL     1       1.714 -22.000  10.113  1.00  0.00    -0.237 OA
ATOM     94  O   UNL     1       0.419 -20.310  11.334  1.00  0.00    -0.744 OA
ENDBRANCH  88  91
ENDBRANCH  61  84
ENDBRANCH  35  36
ENDBRANCH  27  30
ENDBRANCH  25  26
ENDBRANCH  24  25
ENDBRANCH   1  24
TORSDOF 18
