REMARK SMILES O=C(NCCCNC(=O)[C@@H]1CCCC[C@H]1C(=O)Nc1sc2c(c1C(=O)NC1CCCC1)CCC2)c1ccc(-c2c3nc(c(-c4cccc(S(=O)(=O)[O-])c4F)c4ccc([nH]4)c(-c4cccc(S(=O)(=O)[O-])c4F)c4nc(c(-c5cccc(S(=O)(=O)[O-])c5F)c5ccc2[nH]5)C=C4)C=C3)cc1
REMARK SMILES IDX 5 1 4 2 3 3 1 4 2 5 35 7 36 8 97 9 37 10 96 11 38 12 39 13
REMARK SMILES IDX 40 14 90 15 41 16 95 17 89 18 91 19 42 20 94 21 88 22 87 23
REMARK SMILES IDX 43 25 75 26 55 27 74 28 56 29 59 30 73 31 92 32 57 33 58 34
REMARK SMILES IDX 72 36 93 37 60 38 44 39 45 40 53 41 46 42 48 43 54 44 47 45
REMARK SMILES IDX 49 46 50 47 51 48 52 49 76 50 77 51 85 52 78 53 80 54 86 55
REMARK SMILES IDX 79 56 81 57 82 58 83 59 84 60 61 61 62 62 70 63 63 64 65 65
REMARK SMILES IDX 71 66 64 67 66 68 67 69 68 70 69 71 6 72 7 73 8 74 9 76
REMARK SMILES IDX 10 77 11 78 15 79 12 80 14 81 13 82 16 83 17 84 18 85 19 87
REMARK SMILES IDX 20 88 23 89 21 90 22 91 34 92 32 93 33 94 24 95 25 96 26 97
REMARK SMILES IDX 27 99 28 100 31 101 29 102 30 103
REMARK H PARENT 3 6 91 24 59 35 7 75 18 86 26 98
REMARK Flexibility Score: inf
ROOT
ATOM      1  C   UNL     1       5.086   1.701  -1.023  1.00  0.00     0.042 C 
ENDROOT
BRANCH   1   2
ATOM      2  C   UNL     1       4.742   0.940   0.260  1.00  0.00     0.118 C 
BRANCH   2   3
ATOM      3  N   UNL     1       3.315   0.923   0.535  1.00  0.00    -0.352 N 
ATOM      4  O   UNL     1       1.181   0.485   0.758  1.00  0.00    -0.269 OA
ATOM      5  C   UNL     1       2.254   0.096   0.285  1.00  0.00     0.251 C 
ATOM      6  H   UNL     1       3.036   1.724   1.035  1.00  0.00     0.163 HD
BRANCH   5   7
ATOM      7  C   UNL     1       2.268  -1.181  -0.488  1.00  0.00     0.039 A 
ATOM      8  C   UNL     1       3.374  -1.767  -1.104  1.00  0.00     0.014 A 
ATOM      9  C   UNL     1       1.024  -1.842  -0.593  1.00  0.00     0.014 A 
ATOM     10  C   UNL     1       3.239  -2.974  -1.805  1.00  0.00     0.010 A 
ATOM     11  C   UNL     1       0.884  -3.039  -1.294  1.00  0.00     0.010 A 
ATOM     12  C   UNL     1       1.994  -3.604  -1.915  1.00  0.00    -0.014 A 
BRANCH  12  13
ATOM     13  C   UNL     1       1.910  -4.913  -2.575  1.00  0.00     0.031 A 
ATOM     14  C   UNL     1       2.590  -6.045  -1.871  1.00  0.00     0.074 A 
ATOM     15  C   UNL     1       1.119  -5.173  -3.638  1.00  0.00     0.049 A 
ATOM     16  N   UNL     1       3.527  -6.823  -2.313  1.00  0.00    -0.248 NA
ATOM     17  C   UNL     1       2.214  -6.299  -0.473  1.00  0.00     0.031 C 
ATOM     18  C   UNL     1       0.113  -4.291  -4.236  1.00  0.00     0.029 A 
ATOM     19  N   UNL     1       0.946  -6.348  -4.318  1.00  0.00    -0.354 N 
ATOM     20  C   UNL     1       3.725  -7.788  -1.319  1.00  0.00     0.074 A 
ATOM     21  C   UNL     1       2.992  -7.337  -0.166  1.00  0.00     0.031 C 
ATOM     22  C   UNL     1      -0.719  -5.027  -5.006  1.00  0.00     0.029 A 
ATOM     23  C   UNL     1      -0.228  -6.392  -5.062  1.00  0.00     0.049 A 
ATOM     24  H   UNL     1       1.592  -7.090  -4.284  1.00  0.00     0.167 HD
ATOM     25  C   UNL     1       4.324  -8.986  -1.569  1.00  0.00     0.034 A 
ATOM     26  C   UNL     1      -0.802  -7.488  -5.617  1.00  0.00     0.034 A 
ATOM     27  C   UNL     1       5.035  -8.986  -2.817  1.00  0.00     0.049 A 
ATOM     28  C   UNL     1       0.229  -8.542  -5.720  1.00  0.00     0.074 A 
ATOM     29  C   UNL     1       6.084  -8.274  -3.359  1.00  0.00     0.029 A 
ATOM     30  N   UNL     1       4.462  -9.666  -3.862  1.00  0.00    -0.354 N 
ATOM     31  N   UNL     1       1.256  -8.484  -6.520  1.00  0.00    -0.248 NA
ATOM     32  C   UNL     1       0.308  -9.540  -4.667  1.00  0.00     0.031 C 
ATOM     33  C   UNL     1       5.790  -8.190  -4.750  1.00  0.00     0.029 A 
ATOM     34  C   UNL     1       4.594  -8.877  -4.970  1.00  0.00     0.049 A 
ATOM     35  H   UNL     1       4.036 -10.552  -3.821  1.00  0.00     0.167 HD
ATOM     36  C   UNL     1       2.274  -9.117  -5.821  1.00  0.00     0.074 A 
ATOM     37  C   UNL     1       1.600  -9.857  -4.759  1.00  0.00     0.031 C 
ATOM     38  C   UNL     1       3.578  -8.749  -5.991  1.00  0.00     0.034 A 
BRANCH  25  39
ATOM     39  C   UNL     1       4.026 -10.290  -0.855  1.00  0.00     0.023 A 
ATOM     40  C   UNL     1       4.868 -11.394  -1.135  1.00  0.00     0.012 A 
ATOM     41  C   UNL     1       2.824 -10.565  -0.168  1.00  0.00     0.148 A 
ATOM     42  C   UNL     1       4.503 -12.705  -0.807  1.00  0.00     0.002 A 
ATOM     43  C   UNL     1       2.503 -11.862   0.226  1.00  0.00     0.091 A 
ATOM     44  F   UNL     1       1.911  -9.602  -0.004  1.00  0.00    -0.205 F 
ATOM     45  C   UNL     1       3.321 -12.939  -0.120  1.00  0.00     0.022 A 
BRANCH  43  46
ATOM     46  S   UNL     1       1.013 -12.209   1.169  1.00  0.00     0.127 S 
ATOM     47  O   UNL     1       0.119 -12.709   0.130  1.00  0.00    -0.237 OA
ATOM     48  O   UNL     1       1.484 -13.216   2.121  1.00  0.00    -0.237 OA
ATOM     49  O   UNL     1       0.649 -10.938   1.783  1.00  0.00    -0.744 OA
ENDBRANCH  43  46
ENDBRANCH  25  39
BRANCH  26  50
ATOM     50  C   UNL     1      -2.234  -7.780  -5.858  1.00  0.00     0.023 A 
ATOM     51  C   UNL     1      -2.606  -8.728  -6.832  1.00  0.00     0.012 A 
ATOM     52  C   UNL     1      -3.223  -7.330  -4.955  1.00  0.00     0.148 A 
ATOM     53  C   UNL     1      -3.913  -9.229  -6.889  1.00  0.00     0.002 A 
ATOM     54  C   UNL     1      -4.522  -7.822  -5.022  1.00  0.00     0.091 A 
ATOM     55  F   UNL     1      -2.864  -6.491  -3.974  1.00  0.00    -0.205 F 
ATOM     56  C   UNL     1      -4.869  -8.781  -5.982  1.00  0.00     0.022 A 
BRANCH  54  57
ATOM     57  S   UNL     1      -5.803  -7.299  -3.874  1.00  0.00     0.127 S 
ATOM     58  O   UNL     1      -6.918  -7.007  -4.776  1.00  0.00    -0.237 OA
ATOM     59  O   UNL     1      -5.977  -8.492  -3.052  1.00  0.00    -0.237 OA
ATOM     60  O   UNL     1      -5.268  -6.129  -3.190  1.00  0.00    -0.744 OA
ENDBRANCH  54  57
ENDBRANCH  26  50
BRANCH  38  61
ATOM     61  C   UNL     1       3.930  -7.864  -7.158  1.00  0.00     0.023 A 
ATOM     62  C   UNL     1       3.417  -6.556  -7.280  1.00  0.00     0.012 A 
ATOM     63  C   UNL     1       4.956  -8.278  -8.025  1.00  0.00     0.148 A 
ATOM     64  C   UNL     1       3.904  -5.686  -8.258  1.00  0.00     0.002 A 
ATOM     65  C   UNL     1       5.474  -7.392  -8.961  1.00  0.00     0.091 A 
ATOM     66  F   UNL     1       5.438  -9.523  -7.890  1.00  0.00    -0.205 F 
ATOM     67  C   UNL     1       4.943  -6.098  -9.087  1.00  0.00     0.022 A 
BRANCH  65  68
ATOM     68  S   UNL     1       6.912  -7.801  -9.953  1.00  0.00     0.127 S 
ATOM     69  O   UNL     1       6.324  -8.005 -11.275  1.00  0.00    -0.237 OA
ATOM     70  O   UNL     1       7.731  -6.593  -9.827  1.00  0.00    -0.237 OA
ATOM     71  O   UNL     1       7.501  -8.984  -9.339  1.00  0.00    -0.744 OA
ENDBRANCH  65  68
ENDBRANCH  38  61
ENDBRANCH  12  13
ENDBRANCH   5   7
ENDBRANCH   2   3
ENDBRANCH   1   2
BRANCH   1  72
ATOM     72  C   UNL     1       4.753   3.200  -0.964  1.00  0.00     0.117 C 
BRANCH  72  73
ATOM     73  N   UNL     1       5.872   4.056  -0.594  1.00  0.00    -0.356 N 
ATOM     74  C   UNL     1       6.632   4.915  -1.344  1.00  0.00     0.223 C 
ATOM     75  H   UNL     1       6.124   4.010   0.356  1.00  0.00     0.163 HD
ATOM     76  O   UNL     1       7.384   5.676  -0.730  1.00  0.00    -0.275 OA
BRANCH  74  77
ATOM     77  C   UNL     1       6.649   4.833  -2.882  1.00  0.00     0.091 C 
ATOM     78  C   UNL     1       7.677   3.754  -3.254  1.00  0.00     0.014 C 
ATOM     79  C   UNL     1       6.937   6.205  -3.539  1.00  0.00     0.091 C 
ATOM     80  C   UNL     1       8.087   3.788  -4.717  1.00  0.00     0.001 C 
ATOM     81  C   UNL     1       7.677   6.225  -4.893  1.00  0.00     0.014 C 
ATOM     82  C   UNL     1       8.708   5.125  -5.062  1.00  0.00     0.001 C 
BRANCH  79  83
ATOM     83  C   UNL     1       5.689   7.098  -3.591  1.00  0.00     0.228 C 
ATOM     84  O   UNL     1       5.590   8.018  -2.765  1.00  0.00    -0.274 OA
ATOM     85  N   UNL     1       4.715   7.054  -4.546  1.00  0.00    -0.317 N 
ATOM     86  H   UNL     1       4.022   7.745  -4.441  1.00  0.00     0.170 HD
BRANCH  85  87
ATOM     87  C   UNL     1       4.516   6.227  -5.631  1.00  0.00     0.108 A 
ATOM     88  S   UNL     1       4.312   7.153  -7.067  1.00  0.00    -0.122 S 
ATOM     89  C   UNL     1       4.288   4.855  -5.824  1.00  0.00     0.078 A 
ATOM     90  C   UNL     1       4.232   5.757  -7.966  1.00  0.00     0.011 A 
ATOM     91  C   UNL     1       4.263   4.597  -7.233  1.00  0.00    -0.019 A 
ATOM     92  C   UNL     1       4.006   5.568  -9.419  1.00  0.00     0.047 C 
ATOM     93  C   UNL     1       4.062   3.440  -8.150  1.00  0.00     0.038 C 
ATOM     94  C   UNL     1       4.296   4.055  -9.558  1.00  0.00     0.010 C 
BRANCH  89  95
ATOM     95  C   UNL     1       3.934   3.998  -4.698  1.00  0.00     0.254 C 
ATOM     96  O   UNL     1       3.313   4.468  -3.744  1.00  0.00    -0.269 OA
ATOM     97  N   UNL     1       4.331   2.692  -4.559  1.00  0.00    -0.349 N 
ATOM     98  H   UNL     1       4.563   2.450  -3.634  1.00  0.00     0.164 HD
BRANCH  97  99
ATOM     99  C   UNL     1       4.478   1.604  -5.491  1.00  0.00     0.082 C 
ATOM    100  C   UNL     1       5.899   1.257  -5.917  1.00  0.00     0.025 C 
ATOM    101  C   UNL     1       4.051   0.279  -4.850  1.00  0.00     0.025 C 
ATOM    102  C   UNL     1       5.751  -0.137  -6.529  1.00  0.00     0.002 C 
ATOM    103  C   UNL     1       4.530  -0.763  -5.848  1.00  0.00     0.002 C 
ENDBRANCH  97  99
ENDBRANCH  89  95
ENDBRANCH  85  87
ENDBRANCH  79  83
ENDBRANCH  74  77
ENDBRANCH  72  73
ENDBRANCH   1  72
TORSDOF 17
