REMARK SMILES Cc1cccc(CN(C)c2ccc(C(=O)NCCCNC(=O)c3ccc(-c4c5nc(c(-c6cccc(S(=O)(=O)[O-])c6F)c6ccc([nH]6)c(-c6cccc(S(=O)(=O)[O-])c6F)c6nc(c(-c7cccc(S(=O)(=O)[O-])c7F)c7ccc4[nH]7)C=C6)C=C5)cc3)cc2C)n1
REMARK SMILES IDX 18 1 17 2 16 3 14 4 15 5 13 7 10 8 11 9 87 10 12 11 86 12
REMARK SMILES IDX 88 13 8 14 9 15 7 16 6 17 1 18 2 19 3 20 89 21 4 22 5 23
REMARK SMILES IDX 19 24 20 25 21 26 22 28 23 29 24 30 85 31 25 32 84 33 26 34
REMARK SMILES IDX 27 35 28 36 78 37 29 38 83 39 77 40 79 41 30 42 82 43 76 44
REMARK SMILES IDX 75 45 31 47 63 48 43 49 62 50 44 51 47 52 61 53 80 54 45 55
REMARK SMILES IDX 46 56 60 58 81 59 48 60 32 61 33 62 41 63 34 64 36 65 42 66
REMARK SMILES IDX 35 67 37 68 38 69 39 70 40 71 64 72 65 73 73 74 66 75 68 76
REMARK SMILES IDX 74 77 67 78 69 79 70 80 71 81 72 82 49 83 50 84 58 85 51 86
REMARK SMILES IDX 53 87 59 88 52 89 54 90 55 91 56 92 57 93
REMARK H PARENT 16 6 20 27 79 46 47 57
REMARK Flexibility Score: inf
ROOT
ATOM      1  C   UNL     1      -0.666  -1.648   5.325  1.00  0.00     0.042 C 
ENDROOT
BRANCH   1   2
ATOM      2  C   UNL     1      -2.100  -1.196   5.600  1.00  0.00     0.118 C 
BRANCH   2   3
ATOM      3  N   UNL     1      -2.156  -0.048   6.498  1.00  0.00    -0.352 N 
ATOM      4  C   UNL     1      -2.153   1.310   6.255  1.00  0.00     0.251 C 
ATOM      5  O   UNL     1      -2.382   2.068   7.197  1.00  0.00    -0.269 OA
ATOM      6  H   UNL     1      -2.205  -0.286   7.452  1.00  0.00     0.163 HD
BRANCH   4   7
ATOM      7  C   UNL     1      -1.907   1.901   4.907  1.00  0.00     0.040 A 
ATOM      8  C   UNL     1      -1.479   3.098   2.342  1.00  0.00     0.040 A 
ATOM      9  C   UNL     1      -0.940   1.865   2.695  1.00  0.00     0.027 A 
ATOM     10  C   UNL     1      -2.145   3.806   3.360  1.00  0.00    -0.027 A 
ATOM     11  C   UNL     1      -1.159   1.276   3.930  1.00  0.00     0.016 A 
ATOM     12  C   UNL     1      -2.351   3.201   4.629  1.00  0.00     0.019 A 
ATOM     13  C   UNL     1      -2.571   5.237   3.189  1.00  0.00     0.046 C 
BRANCH   8  14
ATOM     14  N   UNL     1      -1.281   3.596   1.055  1.00  0.00    -0.368 N 
ATOM     15  C   UNL     1      -0.131   4.475   0.905  1.00  0.00     0.144 C 
BRANCH  14  16
ATOM     16  C   UNL     1      -1.700   2.798  -0.125  1.00  0.00     0.172 C 
BRANCH  16  17
ATOM     17  C   UNL     1      -1.045   1.427  -0.305  1.00  0.00     0.060 A 
ATOM     18  C   UNL     1       2.388   0.079  -0.233  1.00  0.00     0.067 C 
ATOM     19  C   UNL     1       0.891   0.122  -0.331  1.00  0.00     0.038 A 
ATOM     20  C   UNL     1       0.151  -1.054  -0.268  1.00  0.00     0.023 A 
ATOM     21  N   UNL     1       0.314   1.352  -0.383  1.00  0.00    -0.256 NA
ATOM     22  C   UNL     1      -1.235  -0.972  -0.259  1.00  0.00     0.004 A 
ATOM     23  C   UNL     1      -1.844   0.280  -0.271  1.00  0.00     0.026 A 
ENDBRANCH  16  17
ENDBRANCH  14  16
ENDBRANCH   8  14
ENDBRANCH   4   7
ENDBRANCH   2   3
ENDBRANCH   1   2
BRANCH   1  24
ATOM     24  C   UNL     1      -0.143  -2.695   6.277  1.00  0.00     0.118 C 
BRANCH  24  25
ATOM     25  N   UNL     1      -0.245  -4.052   5.777  1.00  0.00    -0.352 N 
ATOM     26  C   UNL     1       0.211  -5.227   6.355  1.00  0.00     0.251 C 
ATOM     27  H   UNL     1      -0.701  -4.152   4.910  1.00  0.00     0.163 HD
ATOM     28  O   UNL     1       0.193  -6.251   5.694  1.00  0.00    -0.269 OA
BRANCH  26  29
ATOM     29  C   UNL     1       0.560  -5.237   7.801  1.00  0.00     0.039 A 
ATOM     30  C   UNL     1       0.037  -6.279   8.578  1.00  0.00     0.014 A 
ATOM     31  C   UNL     1       1.138  -4.133   8.419  1.00  0.00     0.014 A 
ATOM     32  C   UNL     1      -0.156  -6.085   9.942  1.00  0.00     0.010 A 
ATOM     33  C   UNL     1       0.842  -3.888   9.738  1.00  0.00     0.010 A 
ATOM     34  C   UNL     1       0.134  -4.840  10.478  1.00  0.00    -0.014 A 
BRANCH  34  35
ATOM     35  C   UNL     1      -0.254  -4.389  11.799  1.00  0.00     0.031 A 
ATOM     36  C   UNL     1       0.761  -4.330  12.862  1.00  0.00     0.074 A 
ATOM     37  C   UNL     1      -1.423  -3.721  11.909  1.00  0.00     0.049 A 
ATOM     38  N   UNL     1       0.516  -3.928  14.059  1.00  0.00    -0.248 NA
ATOM     39  C   UNL     1       2.149  -4.747  12.661  1.00  0.00     0.031 C 
ATOM     40  C   UNL     1      -1.776  -2.679  12.868  1.00  0.00     0.029 A 
ATOM     41  N   UNL     1      -2.621  -4.004  11.263  1.00  0.00    -0.354 N 
ATOM     42  C   UNL     1       1.733  -3.698  14.651  1.00  0.00     0.074 A 
ATOM     43  C   UNL     1       2.700  -4.360  13.816  1.00  0.00     0.031 C 
ATOM     44  C   UNL     1      -3.113  -2.555  12.909  1.00  0.00     0.029 A 
ATOM     45  C   UNL     1      -3.659  -3.661  12.143  1.00  0.00     0.049 A 
ATOM     46  H   UNL     1      -2.723  -4.376  10.357  1.00  0.00     0.167 HD
ATOM     47  C   UNL     1       1.788  -2.820  15.685  1.00  0.00     0.034 A 
ATOM     48  C   UNL     1      -4.450  -4.643  12.677  1.00  0.00     0.034 A 
ATOM     49  C   UNL     1       0.447  -2.541  16.211  1.00  0.00     0.049 A 
ATOM     50  C   UNL     1      -4.357  -4.768  14.189  1.00  0.00     0.074 A 
ATOM     51  C   UNL     1      -0.402  -1.451  16.153  1.00  0.00     0.029 A 
ATOM     52  N   UNL     1      -0.314  -3.604  16.692  1.00  0.00    -0.354 N 
ATOM     53  N   UNL     1      -3.470  -4.162  14.931  1.00  0.00    -0.248 NA
ATOM     54  C   UNL     1      -5.274  -5.577  14.988  1.00  0.00     0.031 C 
ATOM     55  C   UNL     1      -1.715  -1.908  16.473  1.00  0.00     0.029 A 
ATOM     56  C   UNL     1      -1.651  -3.258  16.781  1.00  0.00     0.049 A 
ATOM     57  H   UNL     1       0.051  -4.486  16.936  1.00  0.00     0.167 HD
ATOM     58  C   UNL     1      -3.580  -4.576  16.233  1.00  0.00     0.074 A 
ATOM     59  C   UNL     1      -4.784  -5.392  16.227  1.00  0.00     0.031 C 
ATOM     60  C   UNL     1      -2.641  -4.259  17.182  1.00  0.00     0.034 A 
BRANCH  47  61
ATOM     61  C   UNL     1       3.034  -2.082  16.123  1.00  0.00     0.023 A 
ATOM     62  C   UNL     1       2.958  -1.339  17.319  1.00  0.00     0.012 A 
ATOM     63  C   UNL     1       4.243  -1.967  15.388  1.00  0.00     0.148 A 
ATOM     64  C   UNL     1       4.018  -0.540  17.768  1.00  0.00     0.002 A 
ATOM     65  C   UNL     1       5.329  -1.237  15.879  1.00  0.00     0.091 A 
ATOM     66  F   UNL     1       4.329  -2.463  14.149  1.00  0.00    -0.205 F 
ATOM     67  C   UNL     1       5.213  -0.507  17.062  1.00  0.00     0.022 A 
BRANCH  65  68
ATOM     68  S   UNL     1       6.926  -1.226  15.042  1.00  0.00     0.127 S 
ATOM     69  O   UNL     1       6.931   0.085  14.397  1.00  0.00    -0.237 OA
ATOM     70  O   UNL     1       7.868  -1.361  16.154  1.00  0.00    -0.237 OA
ATOM     71  O   UNL     1       6.910  -2.371  14.137  1.00  0.00    -0.744 OA
ENDBRANCH  65  68
ENDBRANCH  47  61
BRANCH  48  72
ATOM     72  C   UNL     1      -4.681  -5.764  11.709  1.00  0.00     0.023 A 
ATOM     73  C   UNL     1      -5.356  -5.424  10.509  1.00  0.00     0.012 A 
ATOM     74  C   UNL     1      -3.913  -6.943  11.742  1.00  0.00     0.148 A 
ATOM     75  C   UNL     1      -5.137  -6.141   9.332  1.00  0.00     0.002 A 
ATOM     76  C   UNL     1      -3.716  -7.667  10.564  1.00  0.00     0.091 A 
ATOM     77  F   UNL     1      -3.340  -7.304  12.897  1.00  0.00    -0.205 F 
ATOM     78  C   UNL     1      -4.286  -7.239   9.353  1.00  0.00     0.022 A 
BRANCH  76  79
ATOM     79  S   UNL     1      -2.638  -9.106  10.495  1.00  0.00     0.127 S 
ATOM     80  O   UNL     1      -3.600 -10.199  10.611  1.00  0.00    -0.237 OA
ATOM     81  O   UNL     1      -2.017  -8.976   9.176  1.00  0.00    -0.237 OA
ATOM     82  O   UNL     1      -1.712  -8.946  11.607  1.00  0.00    -0.744 OA
ENDBRANCH  76  79
ENDBRANCH  48  72
BRANCH  60  83
ATOM     83  C   UNL     1      -2.538  -4.883  18.570  1.00  0.00     0.023 A 
ATOM     84  C   UNL     1      -3.175  -6.094  18.908  1.00  0.00     0.012 A 
ATOM     85  C   UNL     1      -1.666  -4.342  19.554  1.00  0.00     0.148 A 
ATOM     86  C   UNL     1      -3.020  -6.698  20.162  1.00  0.00     0.002 A 
ATOM     87  C   UNL     1      -1.425  -5.007  20.756  1.00  0.00     0.091 A 
ATOM     88  F   UNL     1      -1.071  -3.158  19.345  1.00  0.00    -0.205 F 
ATOM     89  C   UNL     1      -2.127  -6.168  21.079  1.00  0.00     0.022 A 
BRANCH  87  90
ATOM     90  S   UNL     1      -0.094  -4.488  21.852  1.00  0.00     0.127 S 
ATOM     91  O   UNL     1      -0.788  -3.590  22.771  1.00  0.00    -0.237 OA
ATOM     92  O   UNL     1       0.338  -5.753  22.449  1.00  0.00    -0.237 OA
ATOM     93  O   UNL     1       0.897  -3.877  20.976  1.00  0.00    -0.744 OA
ENDBRANCH  87  90
ENDBRANCH  60  83
ENDBRANCH  34  35
ENDBRANCH  26  29
ENDBRANCH  24  25
ENDBRANCH   1  24
TORSDOF 16
