REMARK SMILES Cc1ccc(-c2cn3c(n2)sc2cc(C(=O)NCCCNC(=O)c4ccc(-c5c6nc(c(-c7cccc(S(=O)(=O)[O-])c7F)c7ccc([nH]7)c(-c7cccc(S(=O)(=O)[O-])c7F)c7nc(c(-c8cccc(S(=O)(=O)[O-])c8F)c8ccc5[nH]8)C=C7)C=C6)cc4)ccc23)cc1
REMARK SMILES IDX 20 1 19 2 18 3 17 4 15 5 16 6 14 8 6 9 7 10 10 11 8 12 9 13
REMARK SMILES IDX 89 14 11 15 12 16 88 17 13 18 87 19 5 20 1 21 2 22 3 23
REMARK SMILES IDX 91 24 4 25 90 26 21 27 22 28 23 30 24 31 25 32 86 33 26 34
REMARK SMILES IDX 85 35 27 36 28 37 29 38 79 39 30 40 84 41 78 42 80 43 31 44
REMARK SMILES IDX 83 45 77 46 76 47 32 49 64 50 44 51 63 52 45 53 48 54 62 55
REMARK SMILES IDX 81 56 46 57 47 58 61 60 82 61 49 62 33 63 34 64 42 65 35 66
REMARK SMILES IDX 37 67 43 68 36 69 38 70 39 71 40 72 41 73 65 74 66 75 74 76
REMARK SMILES IDX 67 77 69 78 75 79 68 80 70 81 71 82 72 83 73 84 50 85 51 86
REMARK SMILES IDX 59 87 52 88 54 89 60 90 53 91 55 92 56 93 57 94 58 95
REMARK H PARENT 17 7 21 29 80 48 48 59
REMARK Flexibility Score: inf
ROOT
ATOM      1  C   UNL     1      -4.339   2.882   5.329  1.00  0.00     0.118 C 
ENDROOT
BRANCH   1   2
ATOM      2  C   UNL     1      -4.873   1.575   4.763  1.00  0.00     0.042 C 
BRANCH   2   3
ATOM      3  C   UNL     1      -4.045   0.336   5.090  1.00  0.00     0.118 C 
BRANCH   3   4
ATOM      4  N   UNL     1      -4.666  -0.497   6.129  1.00  0.00    -0.352 N 
ATOM      5  C   UNL     1      -5.592  -1.517   6.002  1.00  0.00     0.251 C 
ATOM      6  O   UNL     1      -5.901  -2.235   6.945  1.00  0.00    -0.269 OA
ATOM      7  H   UNL     1      -4.381  -0.301   7.051  1.00  0.00     0.163 HD
BRANCH   5   8
ATOM      8  C   UNL     1      -6.134  -1.813   4.657  1.00  0.00     0.041 A 
ATOM      9  C   UNL     1      -3.575  -0.582   0.003  1.00  0.00     0.090 A 
ATOM     10  C   UNL     1      -4.209  -1.788   0.269  1.00  0.00     0.123 A 
ATOM     11  N   UNL     1      -4.469   0.479   0.096  1.00  0.00    -0.219 NA
ATOM     12  N   UNL     1      -5.389  -1.397   0.832  1.00  0.00    -0.290 N 
ATOM     13  C   UNL     1      -5.562  -0.066   0.572  1.00  0.00     0.195 A 
ATOM     14  C   UNL     1      -6.052  -1.897   1.960  1.00  0.00     0.065 A 
ATOM     15  S   UNL     1      -6.848   0.626   1.529  1.00  0.00    -0.096 S 
ATOM     16  C   UNL     1      -6.749  -0.846   2.579  1.00  0.00     0.056 A 
ATOM     17  C   UNL     1      -5.621  -3.033   2.634  1.00  0.00     0.029 A 
ATOM     18  C   UNL     1      -6.839  -0.824   3.958  1.00  0.00     0.035 A 
ATOM     19  C   UNL     1      -5.640  -2.968   4.022  1.00  0.00     0.016 A 
BRANCH   9  20
ATOM     20  C   UNL     1      -2.127  -0.417  -0.103  1.00  0.00     0.002 A 
ATOM     21  C   UNL     1       2.172   0.088  -0.043  1.00  0.00     0.044 C 
ATOM     22  C   UNL     1       0.682  -0.075  -0.067  1.00  0.00    -0.051 A 
ATOM     23  C   UNL     1       0.124  -1.354  -0.137  1.00  0.00     0.004 A 
ATOM     24  C   UNL     1      -0.171   1.032  -0.004  1.00  0.00     0.004 A 
ATOM     25  C   UNL     1      -1.264  -1.522  -0.157  1.00  0.00     0.010 A 
ATOM     26  C   UNL     1      -1.562   0.862  -0.022  1.00  0.00     0.010 A 
ENDBRANCH   9  20
ENDBRANCH   5   8
ENDBRANCH   3   4
ENDBRANCH   2   3
ENDBRANCH   1   2
BRANCH   1  27
ATOM     27  N   UNL     1      -3.814   3.774   4.294  1.00  0.00    -0.352 N 
ATOM     28  C   UNL     1      -3.551   5.133   4.353  1.00  0.00     0.251 C 
ATOM     29  H   UNL     1      -3.619   3.345   3.430  1.00  0.00     0.163 HD
ATOM     30  O   UNL     1      -3.198   5.736   3.343  1.00  0.00    -0.269 OA
BRANCH  28  31
ATOM     31  C   UNL     1      -3.569   5.798   5.673  1.00  0.00     0.039 A 
ATOM     32  C   UNL     1      -2.362   6.343   6.125  1.00  0.00     0.014 A 
ATOM     33  C   UNL     1      -4.611   5.541   6.555  1.00  0.00     0.014 A 
ATOM     34  C   UNL     1      -2.082   6.330   7.486  1.00  0.00     0.010 A 
ATOM     35  C   UNL     1      -4.296   5.413   7.888  1.00  0.00     0.010 A 
ATOM     36  C   UNL     1      -3.006   5.734   8.335  1.00  0.00    -0.014 A 
BRANCH  36  37
ATOM     37  C   UNL     1      -2.746   5.375   9.716  1.00  0.00     0.031 A 
ATOM     38  C   UNL     1      -3.270   6.245  10.783  1.00  0.00     0.074 A 
ATOM     39  C   UNL     1      -2.234   4.155   9.990  1.00  0.00     0.049 A 
ATOM     40  N   UNL     1      -2.974   6.121  12.029  1.00  0.00    -0.248 NA
ATOM     41  C   UNL     1      -4.135   7.386  10.500  1.00  0.00     0.031 C 
ATOM     42  C   UNL     1      -2.332   3.424  11.248  1.00  0.00     0.029 A 
ATOM     43  N   UNL     1      -1.318   3.415   9.233  1.00  0.00    -0.354 N 
ATOM     44  C   UNL     1      -3.817   6.953  12.733  1.00  0.00     0.074 A 
ATOM     45  C   UNL     1      -4.414   7.804  11.737  1.00  0.00     0.031 C 
ATOM     46  C   UNL     1      -1.338   2.525  11.302  1.00  0.00     0.029 A 
ATOM     47  C   UNL     1      -0.474   2.780  10.163  1.00  0.00     0.049 A 
ATOM     48  H   UNL     1      -1.273   3.351   8.252  1.00  0.00     0.167 HD
ATOM     49  C   UNL     1      -4.006   6.707  14.058  1.00  0.00     0.034 A 
ATOM     50  C   UNL     1       0.873   2.987  10.235  1.00  0.00     0.034 A 
ATOM     51  C   UNL     1      -3.003   5.747  14.546  1.00  0.00     0.049 A 
ATOM     52  C   UNL     1       1.324   3.513  11.587  1.00  0.00     0.074 A 
ATOM     53  C   UNL     1      -3.037   4.390  14.819  1.00  0.00     0.029 A 
ATOM     54  N   UNL     1      -1.660   6.113  14.537  1.00  0.00    -0.354 N 
ATOM     55  N   UNL     1       0.512   3.905  12.530  1.00  0.00    -0.248 NA
ATOM     56  C   UNL     1       2.724   3.655  11.978  1.00  0.00     0.031 C 
ATOM     57  C   UNL     1      -1.693   3.922  14.857  1.00  0.00     0.029 A 
ATOM     58  C   UNL     1      -0.844   4.998  14.653  1.00  0.00     0.049 A 
ATOM     59  H   UNL     1      -1.333   7.038  14.459  1.00  0.00     0.167 HD
ATOM     60  C   UNL     1       1.222   4.460  13.563  1.00  0.00     0.074 A 
ATOM     61  C   UNL     1       2.607   4.204  13.201  1.00  0.00     0.031 C 
ATOM     62  C   UNL     1       0.611   5.136  14.587  1.00  0.00     0.034 A 
BRANCH  49  63
ATOM     63  C   UNL     1      -5.213   7.133  14.889  1.00  0.00     0.023 A 
ATOM     64  C   UNL     1      -5.306   6.600  16.196  1.00  0.00     0.012 A 
ATOM     65  C   UNL     1      -6.321   7.912  14.469  1.00  0.00     0.148 A 
ATOM     66  C   UNL     1      -6.432   6.782  17.010  1.00  0.00     0.002 A 
ATOM     67  C   UNL     1      -7.436   8.117  15.289  1.00  0.00     0.091 A 
ATOM     68  F   UNL     1      -6.351   8.445  13.251  1.00  0.00    -0.205 F 
ATOM     69  C   UNL     1      -7.501   7.539  16.556  1.00  0.00     0.022 A 
BRANCH  67  70
ATOM     70  S   UNL     1      -8.860   9.096  14.764  1.00  0.00     0.127 S 
ATOM     71  O   UNL     1      -9.926   8.095  14.738  1.00  0.00    -0.237 OA
ATOM     72  O   UNL     1      -8.975  10.080  15.840  1.00  0.00    -0.237 OA
ATOM     73  O   UNL     1      -8.522   9.659  13.462  1.00  0.00    -0.744 OA
ENDBRANCH  67  70
ENDBRANCH  49  63
BRANCH  50  74
ATOM     74  C   UNL     1       1.504   3.288   8.918  1.00  0.00     0.023 A 
ATOM     75  C   UNL     1       1.493   2.244   7.962  1.00  0.00     0.012 A 
ATOM     76  C   UNL     1       1.706   4.609   8.479  1.00  0.00     0.148 A 
ATOM     77  C   UNL     1       1.544   2.520   6.595  1.00  0.00     0.002 A 
ATOM     78  C   UNL     1       1.755   4.876   7.111  1.00  0.00     0.091 A 
ATOM     79  F   UNL     1       1.751   5.586   9.394  1.00  0.00    -0.205 F 
ATOM     80  C   UNL     1       1.637   3.839   6.170  1.00  0.00     0.022 A 
BRANCH  78  81
ATOM     81  S   UNL     1       1.816   6.554   6.465  1.00  0.00     0.127 S 
ATOM     82  O   UNL     1       3.225   6.678   6.105  1.00  0.00    -0.237 OA
ATOM     83  O   UNL     1       0.896   6.481   5.331  1.00  0.00    -0.237 OA
ATOM     84  O   UNL     1       1.353   7.396   7.557  1.00  0.00    -0.744 OA
ENDBRANCH  78  81
ENDBRANCH  50  74
BRANCH  62  85
ATOM     85  C   UNL     1       1.320   6.010  15.613  1.00  0.00     0.023 A 
ATOM     86  C   UNL     1       2.606   6.542  15.392  1.00  0.00     0.012 A 
ATOM     87  C   UNL     1       0.647   6.458  16.780  1.00  0.00     0.148 A 
ATOM     88  C   UNL     1       3.219   7.415  16.300  1.00  0.00     0.002 A 
ATOM     89  C   UNL     1       1.214   7.417  17.619  1.00  0.00     0.091 A 
ATOM     90  F   UNL     1      -0.550   5.947  17.102  1.00  0.00    -0.205 F 
ATOM     91  C   UNL     1       2.514   7.873  17.402  1.00  0.00     0.022 A 
BRANCH  89  92
ATOM     92  S   UNL     1       0.229   8.216  18.896  1.00  0.00     0.127 S 
ATOM     93  O   UNL     1       0.460   7.350  20.049  1.00  0.00    -0.237 OA
ATOM     94  O   UNL     1       0.850   9.539  18.996  1.00  0.00    -0.237 OA
ATOM     95  O   UNL     1      -1.125   8.236  18.360  1.00  0.00    -0.744 OA
ENDBRANCH  89  92
ENDBRANCH  62  85
ENDBRANCH  36  37
ENDBRANCH  28  31
ENDBRANCH   1  27
TORSDOF 14
