REMARK SMILES C[C@H](O)[C@H](C)[N@H+]1Cc2ccccc2C[C@@H]1C(=O)NCCCNC(=O)c1ccc(-c2c3nc(c(-c4cccc(S(=O)(=O)[O-])c4F)c4ccc([nH]4)c(-c4cccc(S(=O)(=O)[O-])c4F)c4nc(c(-c5cccc(S(=O)(=O)[O-])c5F)c5ccc2[nH]5)C=C4)C=C3)cc1
REMARK SMILES IDX 20 1 19 2 18 3 16 4 17 5 15 7 6 8 7 9 8 11 14 12 9 13 13 14
REMARK SMILES IDX 10 15 12 16 11 17 4 18 5 19 2 20 1 21 3 22 21 24 22 25 23 26
REMARK SMILES IDX 24 28 25 29 26 30 87 31 27 32 86 33 28 34 29 35 30 36 80 37
REMARK SMILES IDX 31 38 85 39 79 40 81 41 32 42 84 43 78 44 77 45 33 47 65 48
REMARK SMILES IDX 45 49 64 50 46 51 49 52 63 53 82 54 47 55 48 56 62 58 83 59
REMARK SMILES IDX 50 60 34 61 35 62 43 63 36 64 38 65 44 66 37 67 39 68 40 69
REMARK SMILES IDX 41 70 42 71 66 72 67 73 75 74 68 75 70 76 76 77 69 78 71 79
REMARK SMILES IDX 72 80 73 81 74 82 51 83 52 84 60 85 53 86 55 87 61 88 54 89
REMARK SMILES IDX 56 90 57 91 58 92 59 93
REMARK H PARENT 18 6 6 10 3 23 22 27 81 46 49 57
REMARK Flexibility Score: inf
ROOT
ATOM      1  C   UNL     1      -4.146  -3.068  -2.119  1.00  0.00     0.042 C 
ENDROOT
BRANCH   1   2
ATOM      2  C   UNL     1      -3.070  -2.974  -3.195  1.00  0.00     0.118 C 
BRANCH   2   3
ATOM      3  N   UNL     1      -3.307  -1.857  -4.090  1.00  0.00    -0.351 N 
ATOM      4  C   UNL     1      -2.634  -0.683  -4.262  1.00  0.00     0.278 C 
ATOM      5  O   UNL     1      -3.169   0.144  -5.005  1.00  0.00    -0.268 OA
ATOM      6  H   UNL     1      -4.090  -1.966  -4.675  1.00  0.00     0.163 HD
BRANCH   4   7
ATOM      7  C   UNL     1      -1.254  -0.461  -3.588  1.00  0.00     0.279 C 
ATOM      8  N   UNL     1      -1.331   0.735  -2.710  1.00  0.00    -0.316 N 
ATOM      9  C   UNL     1      -0.775   1.972  -3.278  1.00  0.00     0.300 C 
ATOM     10  H   UNL     1      -2.322   0.976  -2.671  1.00  0.00     0.349 HD
ATOM     11  C   UNL     1      -0.558   2.002  -4.777  1.00  0.00     0.010 A 
ATOM     12  C   UNL     1      -0.163  -0.445  -4.675  1.00  0.00     0.111 C 
ATOM     13  C   UNL     1      -0.656   3.202  -5.494  1.00  0.00     0.010 A 
ATOM     14  C   UNL     1      -0.203   0.832  -5.459  1.00  0.00    -0.033 A 
ATOM     15  C   UNL     1      -0.416   3.226  -6.869  1.00  0.00     0.001 A 
ATOM     16  C   UNL     1       0.061   0.861  -6.832  1.00  0.00     0.004 A 
ATOM     17  C   UNL     1      -0.053   2.058  -7.536  1.00  0.00     0.000 A 
BRANCH   8  18
ATOM     18  C   UNL     1      -0.983   0.442  -1.297  1.00  0.00     0.210 C 
ATOM     19  C   UNL     1       0.505   0.079  -1.114  1.00  0.00     0.078 C 
BRANCH  18  20
ATOM     20  C   UNL     1      -1.491   1.419  -0.168  1.00  0.00     0.169 C 
ATOM     21  C   UNL     1      -2.347   2.608  -0.580  1.00  0.00     0.045 C 
BRANCH  20  22
ATOM     22  O   UNL     1      -0.417   1.916   0.639  1.00  0.00    -0.387 OA
ATOM     23  H   UNL     1       0.145   2.500   0.106  1.00  0.00     0.211 HD
ENDBRANCH  20  22
ENDBRANCH  18  20
ENDBRANCH   8  18
ENDBRANCH   4   7
ENDBRANCH   2   3
ENDBRANCH   1   2
BRANCH   1  24
ATOM     24  C   UNL     1      -5.548  -3.338  -2.659  1.00  0.00     0.118 C 
BRANCH  24  25
ATOM     25  N   UNL     1      -5.638  -4.591  -3.397  1.00  0.00    -0.352 N 
ATOM     26  C   UNL     1      -6.465  -5.669  -3.214  1.00  0.00     0.251 C 
ATOM     27  H   UNL     1      -5.004  -4.677  -4.146  1.00  0.00     0.163 HD
ATOM     28  O   UNL     1      -6.245  -6.705  -3.845  1.00  0.00    -0.269 OA
BRANCH  26  29
ATOM     29  C   UNL     1      -7.599  -5.608  -2.268  1.00  0.00     0.039 A 
ATOM     30  C   UNL     1      -7.890  -6.735  -1.494  1.00  0.00     0.014 A 
ATOM     31  C   UNL     1      -8.399  -4.467  -2.161  1.00  0.00     0.014 A 
ATOM     32  C   UNL     1      -8.948  -6.699  -0.582  1.00  0.00     0.010 A 
ATOM     33  C   UNL     1      -9.396  -4.402  -1.190  1.00  0.00     0.010 A 
ATOM     34  C   UNL     1      -9.693  -5.522  -0.401  1.00  0.00    -0.014 A 
BRANCH  34  35
ATOM     35  C   UNL     1     -10.779  -5.455   0.612  1.00  0.00     0.031 A 
ATOM     36  C   UNL     1     -12.201  -5.185   0.195  1.00  0.00     0.074 A 
ATOM     37  C   UNL     1     -10.475  -5.569   1.919  1.00  0.00     0.049 A 
ATOM     38  N   UNL     1     -13.272  -5.083   0.940  1.00  0.00    -0.248 NA
ATOM     39  C   UNL     1     -12.450  -4.974  -1.240  1.00  0.00     0.031 C 
ATOM     40  C   UNL     1      -9.124  -5.733   2.460  1.00  0.00     0.029 A 
ATOM     41  N   UNL     1     -11.277  -5.541   3.033  1.00  0.00    -0.354 N 
ATOM     42  C   UNL     1     -14.311  -4.770   0.072  1.00  0.00     0.074 A 
ATOM     43  C   UNL     1     -13.734  -4.650  -1.249  1.00  0.00     0.031 C 
ATOM     44  C   UNL     1      -9.191  -5.795   3.799  1.00  0.00     0.029 A 
ATOM     45  C   UNL     1     -10.582  -5.649   4.215  1.00  0.00     0.049 A 
ATOM     46  H   UNL     1     -12.256  -5.452   2.990  1.00  0.00     0.167 HD
ATOM     47  C   UNL     1     -15.632  -4.629   0.340  1.00  0.00     0.034 A 
ATOM     48  C   UNL     1     -11.014  -5.628   5.491  1.00  0.00     0.034 A 
ATOM     49  C   UNL     1     -16.208  -4.778   1.649  1.00  0.00     0.049 A 
ATOM     50  C   UNL     1     -12.489  -5.522   5.763  1.00  0.00     0.074 A 
ATOM     51  C   UNL     1     -17.542  -4.738   2.014  1.00  0.00     0.029 A 
ATOM     52  N   UNL     1     -15.483  -4.984   2.813  1.00  0.00    -0.354 N 
ATOM     53  N   UNL     1     -13.476  -5.394   4.911  1.00  0.00    -0.248 NA
ATOM     54  C   UNL     1     -12.914  -5.601   7.168  1.00  0.00     0.031 C 
ATOM     55  C   UNL     1     -17.621  -4.893   3.402  1.00  0.00     0.029 A 
ATOM     56  C   UNL     1     -16.339  -5.066   3.898  1.00  0.00     0.049 A 
ATOM     57  H   UNL     1     -14.502  -5.062   2.861  1.00  0.00     0.167 HD
ATOM     58  C   UNL     1     -14.641  -5.410   5.671  1.00  0.00     0.074 A 
ATOM     59  C   UNL     1     -14.235  -5.582   7.051  1.00  0.00     0.031 C 
ATOM     60  C   UNL     1     -15.928  -5.282   5.263  1.00  0.00     0.034 A 
BRANCH  47  61
ATOM     61  C   UNL     1     -16.552  -4.351  -0.824  1.00  0.00     0.023 A 
ATOM     62  C   UNL     1     -16.773  -5.355  -1.790  1.00  0.00     0.012 A 
ATOM     63  C   UNL     1     -17.225  -3.120  -0.945  1.00  0.00     0.148 A 
ATOM     64  C   UNL     1     -17.608  -5.123  -2.882  1.00  0.00     0.002 A 
ATOM     65  C   UNL     1     -18.095  -2.914  -2.010  1.00  0.00     0.091 A 
ATOM     66  F   UNL     1     -16.992  -2.169  -0.030  1.00  0.00    -0.205 F 
ATOM     67  C   UNL     1     -18.276  -3.907  -2.987  1.00  0.00     0.022 A 
BRANCH  65  68
ATOM     68  S   UNL     1     -19.068  -1.414  -2.190  1.00  0.00     0.127 S 
ATOM     69  O   UNL     1     -18.396  -0.759  -3.312  1.00  0.00    -0.237 OA
ATOM     70  O   UNL     1     -20.396  -1.943  -2.500  1.00  0.00    -0.237 OA
ATOM     71  O   UNL     1     -18.975  -0.721  -0.913  1.00  0.00    -0.744 OA
ENDBRANCH  65  68
ENDBRANCH  47  61
BRANCH  48  72
ATOM     72  C   UNL     1     -10.030  -5.771   6.601  1.00  0.00     0.023 A 
ATOM     73  C   UNL     1      -9.991  -6.963   7.350  1.00  0.00     0.012 A 
ATOM     74  C   UNL     1      -9.100  -4.752   6.881  1.00  0.00     0.148 A 
ATOM     75  C   UNL     1      -9.060  -7.126   8.377  1.00  0.00     0.002 A 
ATOM     76  C   UNL     1      -8.138  -4.944   7.865  1.00  0.00     0.091 A 
ATOM     77  F   UNL     1      -9.160  -3.623   6.161  1.00  0.00    -0.205 F 
ATOM     78  C   UNL     1      -8.127  -6.123   8.627  1.00  0.00     0.022 A 
BRANCH  76  79
ATOM     79  S   UNL     1      -6.812  -3.768   8.159  1.00  0.00     0.127 S 
ATOM     80  O   UNL     1      -7.158  -3.251   9.480  1.00  0.00    -0.237 OA
ATOM     81  O   UNL     1      -5.632  -4.634   8.126  1.00  0.00    -0.237 OA
ATOM     82  O   UNL     1      -6.884  -2.810   7.065  1.00  0.00    -0.744 OA
ENDBRANCH  76  79
ENDBRANCH  48  72
BRANCH  60  83
ATOM     83  C   UNL     1     -17.005  -5.358   6.313  1.00  0.00     0.023 A 
ATOM     84  C   UNL     1     -17.181  -4.296   7.221  1.00  0.00     0.012 A 
ATOM     85  C   UNL     1     -17.891  -6.454   6.351  1.00  0.00     0.148 A 
ATOM     86  C   UNL     1     -18.200  -4.338   8.173  1.00  0.00     0.002 A 
ATOM     87  C   UNL     1     -18.935  -6.465   7.267  1.00  0.00     0.091 A 
ATOM     88  F   UNL     1     -17.696  -7.464   5.490  1.00  0.00    -0.205 F 
ATOM     89  C   UNL     1     -19.083  -5.415   8.188  1.00  0.00     0.022 A 
BRANCH  87  90
ATOM     90  S   UNL     1     -20.178  -7.762   7.296  1.00  0.00     0.127 S 
ATOM     91  O   UNL     1     -19.833  -8.478   8.522  1.00  0.00    -0.237 OA
ATOM     92  O   UNL     1     -21.423  -6.996   7.367  1.00  0.00    -0.237 OA
ATOM     93  O   UNL     1     -20.002  -8.515   6.062  1.00  0.00    -0.744 OA
ENDBRANCH  87  90
ENDBRANCH  60  83
ENDBRANCH  34  35
ENDBRANCH  26  29
ENDBRANCH  24  25
ENDBRANCH   1  24
TORSDOF 16
