REMARK SMILES CS(=O)(=O)c1ccc(N2N=C(C(=O)NCCCNC(=O)c3ccc(-c4c5nc(c(-c6cccc(S(=O)(=O)[O-])c6F)c6ccc([nH]6)c(-c6cccc(S(=O)(=O)[O-])c6F)c6nc(c(-c7cccc(S(=O)(=O)[O-])c7F)c7ccc4[nH]7)C=C6)C=C5)cc3)C[C@H]2c2ccco2)cc1
REMARK SMILES IDX 16 1 15 2 14 3 12 4 13 5 11 7 9 8 10 9 85 10 84 11 8 12 5 13
REMARK SMILES IDX 6 14 92 15 7 16 91 17 2 18 1 19 3 20 4 21 86 22 87 23 90 24
REMARK SMILES IDX 88 25 89 26 17 27 18 28 19 29 20 31 21 32 22 33 83 34 23 35
REMARK SMILES IDX 82 36 24 37 25 38 26 39 76 40 27 41 81 42 75 43 77 44 28 45
REMARK SMILES IDX 80 46 74 47 73 48 29 50 61 51 41 52 60 53 42 54 45 55 59 56
REMARK SMILES IDX 78 57 43 58 44 59 58 61 79 62 46 63 30 64 31 65 39 66 32 67
REMARK SMILES IDX 34 68 40 69 33 70 35 71 36 72 37 73 38 74 62 75 63 76 71 77
REMARK SMILES IDX 64 78 66 79 72 80 65 81 67 82 68 83 69 84 70 85 47 86 48 87
REMARK SMILES IDX 56 88 49 89 51 90 57 91 50 92 52 93 53 94 54 95 55 96
REMARK H PARENT 14 6 18 30 77 49 45 60
REMARK Flexibility Score: inf
ROOT
ATOM      1  C   UNL     1       3.897  -6.646 -10.545  1.00  0.00     0.042 C 
ENDROOT
BRANCH   1   2
ATOM      2  C   UNL     1       3.312  -5.259 -10.329  1.00  0.00     0.118 C 
BRANCH   2   3
ATOM      3  N   UNL     1       1.930  -5.323  -9.889  1.00  0.00    -0.351 N 
ATOM      4  C   UNL     1       1.285  -5.092  -8.702  1.00  0.00     0.267 C 
ATOM      5  O   UNL     1       0.076  -5.312  -8.664  1.00  0.00    -0.268 OA
ATOM      6  H   UNL     1       1.315  -5.594 -10.608  1.00  0.00     0.163 HD
BRANCH   4   7
ATOM      7  C   UNL     1       1.959  -4.530  -7.462  1.00  0.00     0.128 C 
ATOM      8  N   UNL     1       2.122  -3.592  -5.560  1.00  0.00    -0.254 N 
ATOM      9  N   UNL     1       1.259  -4.179  -6.425  1.00  0.00    -0.171 NA
ATOM     10  C   UNL     1       3.526  -3.655  -5.965  1.00  0.00     0.180 C 
ATOM     11  C   UNL     1       3.428  -4.304  -7.348  1.00  0.00     0.099 C 
BRANCH   8  12
ATOM     12  C   UNL     1       1.684  -3.176  -4.315  1.00  0.00     0.060 A 
ATOM     13  C   UNL     1       0.798  -2.281  -1.806  1.00  0.00     0.067 A 
ATOM     14  C   UNL     1       0.697  -3.635  -2.138  1.00  0.00     0.022 A 
ATOM     15  C   UNL     1       1.323  -1.369  -2.719  1.00  0.00     0.022 A 
ATOM     16  C   UNL     1       1.127  -4.073  -3.396  1.00  0.00     0.029 A 
ATOM     17  C   UNL     1       1.757  -1.823  -3.963  1.00  0.00     0.029 A 
BRANCH  13  18
ATOM     18  S   UNL     1       0.251  -1.767  -0.199  1.00  0.00     0.175 S 
ATOM     19  C   UNL     1       0.898  -0.139   0.064  1.00  0.00     0.163 C 
ATOM     20  O   UNL     1       0.895  -2.636   0.764  1.00  0.00    -0.224 OA
ATOM     21  O   UNL     1      -1.196  -1.654  -0.263  1.00  0.00    -0.224 OA
ENDBRANCH  13  18
ENDBRANCH   8  12
BRANCH  10  22
ATOM     22  C   UNL     1       4.298  -2.362  -5.992  1.00  0.00     0.128 A 
ATOM     23  C   UNL     1       4.958  -1.643  -5.013  1.00  0.00     0.048 A 
ATOM     24  O   UNL     1       4.410  -1.702  -7.186  1.00  0.00    -0.467 OA
ATOM     25  C   UNL     1       5.487  -0.489  -5.641  1.00  0.00     0.042 A 
ATOM     26  C   UNL     1       5.143  -0.584  -6.968  1.00  0.00     0.195 A 
ENDBRANCH  10  22
ENDBRANCH   4   7
ENDBRANCH   2   3
ENDBRANCH   1   2
BRANCH   1  27
ATOM     27  C   UNL     1       3.354  -7.326 -11.794  1.00  0.00     0.118 C 
BRANCH  27  28
ATOM     28  N   UNL     1       3.706  -6.599 -13.010  1.00  0.00    -0.352 N 
ATOM     29  C   UNL     1       4.538  -6.953 -14.043  1.00  0.00     0.251 C 
ATOM     30  H   UNL     1       3.280  -5.717 -13.104  1.00  0.00     0.163 HD
ATOM     31  O   UNL     1       4.897  -6.099 -14.849  1.00  0.00    -0.269 OA
BRANCH  29  32
ATOM     32  C   UNL     1       5.002  -8.348 -14.178  1.00  0.00     0.039 A 
ATOM     33  C   UNL     1       6.319  -8.595 -14.572  1.00  0.00     0.014 A 
ATOM     34  C   UNL     1       4.132  -9.413 -13.935  1.00  0.00     0.014 A 
ATOM     35  C   UNL     1       6.779  -9.911 -14.656  1.00  0.00     0.010 A 
ATOM     36  C   UNL     1       4.618 -10.714 -13.921  1.00  0.00     0.010 A 
ATOM     37  C   UNL     1       5.943 -10.979 -14.294  1.00  0.00    -0.014 A 
BRANCH  37  38
ATOM     38  C   UNL     1       6.427 -12.383 -14.297  1.00  0.00     0.031 A 
ATOM     39  C   UNL     1       5.764 -13.409 -15.176  1.00  0.00     0.074 A 
ATOM     40  C   UNL     1       7.397 -12.751 -13.436  1.00  0.00     0.049 A 
ATOM     41  N   UNL     1       5.991 -14.694 -15.257  1.00  0.00    -0.248 NA
ATOM     42  C   UNL     1       4.681 -12.938 -16.057  1.00  0.00     0.031 C 
ATOM     43  C   UNL     1       8.059 -11.865 -12.476  1.00  0.00     0.029 A 
ATOM     44  N   UNL     1       7.974 -13.976 -13.208  1.00  0.00    -0.354 N 
ATOM     45  C   UNL     1       5.058 -15.189 -16.160  1.00  0.00     0.074 A 
ATOM     46  C   UNL     1       4.237 -14.073 -16.574  1.00  0.00     0.031 C 
ATOM     47  C   UNL     1       8.954 -12.573 -11.767  1.00  0.00     0.029 A 
ATOM     48  C   UNL     1       8.904 -13.967 -12.194  1.00  0.00     0.049 A 
ATOM     49  H   UNL     1       7.745 -14.784 -13.722  1.00  0.00     0.167 HD
ATOM     50  C   UNL     1       4.915 -16.452 -16.626  1.00  0.00     0.034 A 
ATOM     51  C   UNL     1       9.626 -14.971 -11.660  1.00  0.00     0.034 A 
ATOM     52  C   UNL     1       5.764 -17.547 -16.245  1.00  0.00     0.049 A 
ATOM     53  C   UNL     1       9.477 -16.357 -12.226  1.00  0.00     0.074 A 
ATOM     54  C   UNL     1       5.763 -18.843 -16.729  1.00  0.00     0.029 A 
ATOM     55  N   UNL     1       6.758 -17.480 -15.282  1.00  0.00    -0.354 N 
ATOM     56  N   UNL     1       8.697 -16.772 -13.195  1.00  0.00    -0.248 NA
ATOM     57  C   UNL     1      10.333 -17.405 -11.653  1.00  0.00     0.031 C 
ATOM     58  C   UNL     1       6.737 -19.568 -16.035  1.00  0.00     0.029 A 
ATOM     59  C   UNL     1       7.371 -18.713 -15.148  1.00  0.00     0.049 A 
ATOM     60  H   UNL     1       6.994 -16.673 -14.769  1.00  0.00     0.167 HD
ATOM     61  C   UNL     1       8.998 -18.117 -13.376  1.00  0.00     0.074 A 
ATOM     62  C   UNL     1      10.043 -18.442 -12.428  1.00  0.00     0.031 C 
ATOM     63  C   UNL     1       8.450 -19.006 -14.240  1.00  0.00     0.034 A 
BRANCH  50  64
ATOM     64  C   UNL     1       3.830 -16.711 -17.639  1.00  0.00     0.023 A 
ATOM     65  C   UNL     1       3.958 -16.197 -18.946  1.00  0.00     0.012 A 
ATOM     66  C   UNL     1       2.720 -17.516 -17.320  1.00  0.00     0.148 A 
ATOM     67  C   UNL     1       2.982 -16.451 -19.909  1.00  0.00     0.002 A 
ATOM     68  C   UNL     1       1.776 -17.805 -18.298  1.00  0.00     0.091 A 
ATOM     69  F   UNL     1       2.605 -17.979 -16.067  1.00  0.00    -0.205 F 
ATOM     70  C   UNL     1       1.898 -17.264 -19.588  1.00  0.00     0.022 A 
BRANCH  68  71
ATOM     71  S   UNL     1       0.388 -18.910 -18.012  1.00  0.00     0.127 S 
ATOM     72  O   UNL     1      -0.741 -17.983 -18.062  1.00  0.00    -0.237 OA
ATOM     73  O   UNL     1       0.481 -19.820 -19.154  1.00  0.00    -0.237 OA
ATOM     74  O   UNL     1       0.628 -19.531 -16.717  1.00  0.00    -0.744 OA
ENDBRANCH  68  71
ENDBRANCH  50  64
BRANCH  51  75
ATOM     75  C   UNL     1      10.597 -14.692 -10.564  1.00  0.00     0.023 A 
ATOM     76  C   UNL     1      11.979 -14.794 -10.819  1.00  0.00     0.012 A 
ATOM     77  C   UNL     1      10.164 -14.307  -9.281  1.00  0.00     0.148 A 
ATOM     78  C   UNL     1      12.909 -14.558  -9.807  1.00  0.00     0.002 A 
ATOM     79  C   UNL     1      11.097 -14.015  -8.293  1.00  0.00     0.091 A 
ATOM     80  F   UNL     1       8.845 -14.222  -9.055  1.00  0.00    -0.205 F 
ATOM     81  C   UNL     1      12.470 -14.160  -8.548  1.00  0.00     0.022 A 
BRANCH  79  82
ATOM     82  S   UNL     1      10.626 -13.363  -6.687  1.00  0.00     0.127 S 
ATOM     83  O   UNL     1      10.917 -14.493  -5.809  1.00  0.00    -0.237 OA
ATOM     84  O   UNL     1      11.532 -12.223  -6.547  1.00  0.00    -0.237 OA
ATOM     85  O   UNL     1       9.221 -12.999  -6.808  1.00  0.00    -0.744 OA
ENDBRANCH  79  82
ENDBRANCH  51  75
BRANCH  63  86
ATOM     86  C   UNL     1       9.001 -20.408 -14.247  1.00  0.00     0.023 A 
ATOM     87  C   UNL     1       8.726 -21.281 -13.177  1.00  0.00     0.012 A 
ATOM     88  C   UNL     1       9.726 -20.881 -15.359  1.00  0.00     0.148 A 
ATOM     89  C   UNL     1       9.193 -22.595 -13.198  1.00  0.00     0.002 A 
ATOM     90  C   UNL     1      10.141 -22.206 -15.397  1.00  0.00     0.091 A 
ATOM     91  F   UNL     1       9.991 -20.028 -16.359  1.00  0.00    -0.205 F 
ATOM     92  C   UNL     1       9.888 -23.060 -14.312  1.00  0.00     0.022 A 
BRANCH  90  93
ATOM     93  S   UNL     1      10.953 -22.919 -16.832  1.00  0.00     0.127 S 
ATOM     94  O   UNL     1      12.317 -23.106 -16.340  1.00  0.00    -0.237 OA
ATOM     95  O   UNL     1      10.200 -24.158 -17.028  1.00  0.00    -0.237 OA
ATOM     96  O   UNL     1      10.805 -21.945 -17.905  1.00  0.00    -0.744 OA
ENDBRANCH  90  93
ENDBRANCH  63  86
ENDBRANCH  37  38
ENDBRANCH  29  32
ENDBRANCH  27  28
ENDBRANCH   1  27
TORSDOF 16
