REMARK SMILES CCC[C@H](Nc1cc(C)c(N)c(C(=O)NCCCNC(=O)c2ccc(-c3c4nc(c(-c5cccc(S(=O)(=O)[O-])c5F)c5ccc([nH]5)c(-c5cccc(S(=O)(=O)[O-])c5F)c5nc(c(-c6cccc(S(=O)(=O)[O-])c6F)c6ccc3[nH]6)C=C5)C=C4)cc2)c1)c1cccs1
REMARK SMILES IDX 16 1 15 2 13 3 14 4 12 6 6 7 7 8 85 9 8 10 9 11 10 12 5 13
REMARK SMILES IDX 4 15 3 16 2 17 1 18 86 19 87 20 90 21 88 22 89 23 11 24
REMARK SMILES IDX 17 27 18 28 19 29 20 30 21 32 22 33 23 34 84 35 24 36 83 37
REMARK SMILES IDX 25 38 26 39 27 40 77 41 28 42 82 43 76 44 78 45 29 46 81 47
REMARK SMILES IDX 75 48 74 49 30 51 62 52 42 53 61 54 43 55 46 56 60 57 79 58
REMARK SMILES IDX 44 59 45 60 59 62 80 63 47 64 31 65 32 66 40 67 33 68 35 69
REMARK SMILES IDX 41 70 34 71 36 72 37 73 38 74 39 75 63 76 64 77 72 78 65 79
REMARK SMILES IDX 67 80 73 81 66 82 68 83 69 84 70 85 71 86 48 87 49 88 57 89
REMARK SMILES IDX 50 90 52 91 58 92 51 93 53 94 54 95 55 96 56 97
REMARK H PARENT 15 5 5 14 11 25 11 26 19 31 78 50 46 61
REMARK Flexibility Score: inf
ROOT
ATOM      1  C   UNL     1       0.737   1.863  -5.974  1.00  0.00     0.118 C 
ENDROOT
BRANCH   1   2
ATOM      2  N   UNL     1      -0.610   2.390  -5.856  1.00  0.00    -0.352 N 
ATOM      3  C   UNL     1      -1.579   2.304  -4.888  1.00  0.00     0.253 C 
ATOM      4  O   UNL     1      -2.645   2.874  -5.144  1.00  0.00    -0.269 OA
ATOM      5  H   UNL     1      -0.887   2.923  -6.637  1.00  0.00     0.163 HD
BRANCH   3   6
ATOM      6  C   UNL     1      -1.392   1.620  -3.567  1.00  0.00     0.065 A 
ATOM      7  C   UNL     1      -0.224  -0.010  -2.164  1.00  0.00     0.036 A 
ATOM      8  C   UNL     1      -0.970   0.422  -1.072  1.00  0.00     0.031 A 
ATOM      9  C   UNL     1      -0.473   0.577  -3.404  1.00  0.00     0.041 A 
ATOM     10  C   UNL     1      -2.008   1.355  -1.220  1.00  0.00    -0.025 A 
ATOM     11  C   UNL     1      -2.908   1.624  -0.045  1.00  0.00     0.046 C 
ATOM     12  C   UNL     1      -2.234   1.959  -2.476  1.00  0.00     0.047 A 
BRANCH   7  13
ATOM     13  N   UNL     1       0.642  -1.082  -2.092  1.00  0.00    -0.377 N 
ATOM     14  H   UNL     1       1.583  -0.918  -2.331  1.00  0.00     0.161 HD
BRANCH  13  15
ATOM     15  C   UNL     1       0.275  -2.456  -1.688  1.00  0.00     0.119 C 
BRANCH  15  16
ATOM     16  C   UNL     1      -1.263  -2.711  -1.633  1.00  0.00     0.030 C 
BRANCH  16  17
ATOM     17  C   UNL     1      -1.750  -3.499  -0.407  1.00  0.00    -0.001 C 
ATOM     18  C   UNL     1      -1.405  -2.868   0.934  1.00  0.00     0.004 C 
ENDBRANCH  16  17
ENDBRANCH  15  16
BRANCH  15  19
ATOM     19  C   UNL     1       0.911  -3.509  -2.598  1.00  0.00     0.027 A 
ATOM     20  C   UNL     1       1.416  -3.372  -3.881  1.00  0.00     0.017 A 
ATOM     21  S   UNL     1       1.017  -5.148  -2.079  1.00  0.00    -0.147 S 
ATOM     22  C   UNL     1       1.764  -4.622  -4.470  1.00  0.00     0.012 A 
ATOM     23  C   UNL     1       1.534  -5.676  -3.617  1.00  0.00     0.065 A 
ENDBRANCH  15  19
ENDBRANCH  13  15
ENDBRANCH   7  13
BRANCH  12  24
ATOM     24  N   UNL     1      -3.200   2.970  -2.583  1.00  0.00    -0.398 N 
ATOM     25  H   UNL     1      -3.772   3.188  -1.812  1.00  0.00     0.156 HD
ATOM     26  H   UNL     1      -3.305   3.463  -3.429  1.00  0.00     0.156 HD
ENDBRANCH  12  24
ENDBRANCH   3   6
ENDBRANCH   1   2
BRANCH   1  27
ATOM     27  C   UNL     1       0.747   0.609  -6.850  1.00  0.00     0.042 C 
BRANCH  27  28
ATOM     28  C   UNL     1       0.605   0.932  -8.335  1.00  0.00     0.118 C 
BRANCH  28  29
ATOM     29  N   UNL     1       1.777   1.638  -8.844  1.00  0.00    -0.352 N 
ATOM     30  C   UNL     1       2.639   1.282  -9.852  1.00  0.00     0.251 C 
ATOM     31  H   UNL     1       1.978   2.494  -8.401  1.00  0.00     0.163 HD
ATOM     32  O   UNL     1       3.709   1.867  -9.977  1.00  0.00    -0.269 OA
BRANCH  30  33
ATOM     33  C   UNL     1       2.268   0.193 -10.777  1.00  0.00     0.039 A 
ATOM     34  C   UNL     1       3.225  -0.761 -11.130  1.00  0.00     0.014 A 
ATOM     35  C   UNL     1       0.975   0.126 -11.299  1.00  0.00     0.014 A 
ATOM     36  C   UNL     1       2.865  -1.821 -11.965  1.00  0.00     0.010 A 
ATOM     37  C   UNL     1       0.598  -0.971 -12.062  1.00  0.00     0.010 A 
ATOM     38  C   UNL     1       1.540  -1.951 -12.411  1.00  0.00    -0.014 A 
BRANCH  38  39
ATOM     39  C   UNL     1       1.101  -3.092 -13.250  1.00  0.00     0.031 A 
ATOM     40  C   UNL     1       0.550  -2.834 -14.626  1.00  0.00     0.074 A 
ATOM     41  C   UNL     1       1.084  -4.336 -12.731  1.00  0.00     0.049 A 
ATOM     42  N   UNL     1      -0.024  -3.666 -15.454  1.00  0.00    -0.248 NA
ATOM     43  C   UNL     1       0.621  -1.448 -15.121  1.00  0.00     0.031 C 
ATOM     44  C   UNL     1       1.536  -4.698 -11.386  1.00  0.00     0.029 A 
ATOM     45  N   UNL     1       0.632  -5.519 -13.259  1.00  0.00    -0.354 N 
ATOM     46  C   UNL     1      -0.424  -2.900 -16.542  1.00  0.00     0.074 A 
ATOM     47  C   UNL     1      -0.055  -1.531 -16.257  1.00  0.00     0.031 C 
ATOM     48  C   UNL     1       1.332  -6.011 -11.192  1.00  0.00     0.029 A 
ATOM     49  C   UNL     1       0.695  -6.574 -12.378  1.00  0.00     0.049 A 
ATOM     50  H   UNL     1       0.294  -5.605 -14.180  1.00  0.00     0.167 HD
ATOM     51  C   UNL     1      -1.025  -3.303 -17.687  1.00  0.00     0.034 A 
ATOM     52  C   UNL     1       0.266  -7.846 -12.502  1.00  0.00     0.034 A 
ATOM     53  C   UNL     1      -1.351  -4.672 -17.979  1.00  0.00     0.049 A 
ATOM     54  C   UNL     1      -0.378  -8.274 -13.794  1.00  0.00     0.074 A 
ATOM     55  C   UNL     1      -1.880  -5.199 -19.142  1.00  0.00     0.029 A 
ATOM     56  N   UNL     1      -1.187  -5.728 -17.096  1.00  0.00    -0.354 N 
ATOM     57  N   UNL     1      -0.622  -7.563 -14.868  1.00  0.00    -0.248 NA
ATOM     58  C   UNL     1      -0.778  -9.684 -13.905  1.00  0.00     0.031 C 
ATOM     59  C   UNL     1      -2.069  -6.571 -18.951  1.00  0.00     0.029 A 
ATOM     60  C   UNL     1      -1.616  -6.904 -17.684  1.00  0.00     0.049 A 
ATOM     61  H   UNL     1      -0.821  -5.653 -16.186  1.00  0.00     0.167 HD
ATOM     62  C   UNL     1      -1.159  -8.447 -15.797  1.00  0.00     0.074 A 
ATOM     63  C   UNL     1      -1.197  -9.748 -15.162  1.00  0.00     0.031 C 
ATOM     64  C   UNL     1      -1.588  -8.202 -17.059  1.00  0.00     0.034 A 
BRANCH  51  65
ATOM     65  C   UNL     1      -1.334  -2.256 -18.725  1.00  0.00     0.023 A 
ATOM     66  C   UNL     1      -0.283  -1.638 -19.432  1.00  0.00     0.012 A 
ATOM     67  C   UNL     1      -2.667  -1.926 -19.042  1.00  0.00     0.148 A 
ATOM     68  C   UNL     1      -0.549  -0.678 -20.407  1.00  0.00     0.002 A 
ATOM     69  C   UNL     1      -2.926  -1.006 -20.051  1.00  0.00     0.091 A 
ATOM     70  F   UNL     1      -3.653  -2.510 -18.348  1.00  0.00    -0.205 F 
ATOM     71  C   UNL     1      -1.869  -0.371 -20.724  1.00  0.00     0.022 A 
BRANCH  69  72
ATOM     72  S   UNL     1      -4.590  -0.605 -20.594  1.00  0.00     0.127 S 
ATOM     73  O   UNL     1      -4.725   0.777 -20.133  1.00  0.00    -0.237 OA
ATOM     74  O   UNL     1      -4.484  -0.756 -22.045  1.00  0.00    -0.237 OA
ATOM     75  O   UNL     1      -5.469  -1.567 -19.944  1.00  0.00    -0.744 OA
ENDBRANCH  69  72
ENDBRANCH  51  65
BRANCH  52  76
ATOM     76  C   UNL     1       0.475  -8.818 -11.391  1.00  0.00     0.023 A 
ATOM     77  C   UNL     1       1.395  -9.871 -11.558  1.00  0.00     0.012 A 
ATOM     78  C   UNL     1      -0.210  -8.692 -10.167  1.00  0.00     0.148 A 
ATOM     79  C   UNL     1       1.600 -10.804 -10.541  1.00  0.00     0.002 A 
ATOM     80  C   UNL     1       0.044  -9.589  -9.136  1.00  0.00     0.091 A 
ATOM     81  F   UNL     1      -1.083  -7.685 -10.029  1.00  0.00    -0.205 F 
ATOM     82  C   UNL     1       0.933 -10.659  -9.328  1.00  0.00     0.022 A 
BRANCH  80  83
ATOM     83  S   UNL     1      -0.664  -9.403  -7.495  1.00  0.00     0.127 S 
ATOM     84  O   UNL     1      -1.542 -10.567  -7.415  1.00  0.00    -0.237 OA
ATOM     85  O   UNL     1       0.527  -9.466  -6.646  1.00  0.00    -0.237 OA
ATOM     86  O   UNL     1      -1.330  -8.108  -7.498  1.00  0.00    -0.744 OA
ENDBRANCH  80  83
ENDBRANCH  52  76
BRANCH  64  87
ATOM     87  C   UNL     1      -2.079  -9.367 -17.878  1.00  0.00     0.023 A 
ATOM     88  C   UNL     1      -3.329  -9.951 -17.600  1.00  0.00     0.012 A 
ATOM     89  C   UNL     1      -1.339  -9.806 -18.994  1.00  0.00     0.148 A 
ATOM     90  C   UNL     1      -3.826 -10.973 -18.410  1.00  0.00     0.002 A 
ATOM     91  C   UNL     1      -1.864 -10.786 -19.826  1.00  0.00     0.091 A 
ATOM     92  F   UNL     1      -0.143  -9.246 -19.228  1.00  0.00    -0.205 F 
ATOM     93  C   UNL     1      -3.102 -11.379 -19.529  1.00  0.00     0.022 A 
BRANCH  91  94
ATOM     94  S   UNL     1      -1.054 -11.297 -21.345  1.00  0.00     0.127 S 
ATOM     95  O   UNL     1      -0.667 -12.671 -21.028  1.00  0.00    -0.237 OA
ATOM     96  O   UNL     1      -2.134 -11.178 -22.325  1.00  0.00    -0.237 OA
ATOM     97  O   UNL     1       0.053 -10.372 -21.546  1.00  0.00    -0.744 OA
ENDBRANCH  91  94
ENDBRANCH  64  87
ENDBRANCH  38  39
ENDBRANCH  30  33
ENDBRANCH  28  29
ENDBRANCH  27  28
ENDBRANCH   1  27
TORSDOF 19
