REMARK SMILES COc1ccc(/C=C/c2ncc(C(=O)NCCCNC(=O)c3ccc(-c4c5nc(c(-c6cccc(S(=O)(=O)[O-])c6F)c6ccc([nH]6)c(-c6cccc(S(=O)(=O)[O-])c6F)c6nc(c(-c7cccc(S(=O)(=O)[O-])c7F)c7ccc4[nH]7)C=C6)C=C5)cc3)s2)cc1O
REMARK SMILES IDX 17 1 16 2 15 3 13 4 14 5 12 7 9 8 10 9 85 10 11 11 8 12 7 13
REMARK SMILES IDX 6 14 3 15 4 16 87 17 5 18 86 19 2 20 1 21 88 22 18 24 19 25
REMARK SMILES IDX 20 26 21 28 22 29 23 30 84 31 24 32 83 33 25 34 26 35 27 36
REMARK SMILES IDX 77 37 28 38 82 39 76 40 78 41 29 42 81 43 75 44 74 45 30 47
REMARK SMILES IDX 62 48 42 49 61 50 43 51 46 52 60 53 79 54 44 55 45 56 59 58
REMARK SMILES IDX 80 59 47 60 31 61 32 62 40 63 33 64 35 65 41 66 34 67 36 68
REMARK SMILES IDX 37 69 38 70 39 71 63 72 64 73 72 74 65 75 67 76 73 77 66 78
REMARK SMILES IDX 68 79 69 80 70 81 71 82 48 83 49 84 57 85 50 86 52 87 58 88
REMARK SMILES IDX 51 89 53 90 54 91 55 92 56 93
REMARK H PARENT 15 6 88 23 19 27 78 46 46 57
REMARK Flexibility Score: inf
ROOT
ATOM      1  C   UNL     1      -6.612   2.448  11.578  1.00  0.00     0.042 C 
ENDROOT
BRANCH   1   2
ATOM      2  C   UNL     1      -7.414   2.247  10.294  1.00  0.00     0.118 C 
BRANCH   2   3
ATOM      3  N   UNL     1      -7.708   3.507   9.638  1.00  0.00    -0.351 N 
ATOM      4  C   UNL     1      -7.151   4.122   8.542  1.00  0.00     0.263 C 
ATOM      5  O   UNL     1      -7.725   5.147   8.167  1.00  0.00    -0.268 OA
ATOM      6  H   UNL     1      -8.442   4.016  10.055  1.00  0.00     0.163 HD
BRANCH   4   7
ATOM      7  C   UNL     1      -5.992   3.570   7.869  1.00  0.00     0.112 A 
ATOM      8  C   UNL     1      -4.301   3.002   6.178  1.00  0.00     0.116 A 
ATOM      9  N   UNL     1      -4.063   2.363   7.305  1.00  0.00    -0.244 NA
ATOM     10  S   UNL     1      -5.679   4.040   6.240  1.00  0.00    -0.109 S 
ATOM     11  C   UNL     1      -4.981   2.725   8.273  1.00  0.00     0.137 A 
BRANCH   8  12
ATOM     12  C   UNL     1      -3.547   2.909   4.973  1.00  0.00     0.040 C 
ATOM     13  C   UNL     1      -2.769   1.838   4.739  1.00  0.00     0.011 C 
BRANCH  13  14
ATOM     14  C   UNL     1      -1.949   1.655   3.534  1.00  0.00    -0.022 A 
ATOM     15  C   UNL     1      -0.346   1.215   1.252  1.00  0.00     0.160 A 
ATOM     16  C   UNL     1      -0.489   2.499   1.780  1.00  0.00     0.051 A 
ATOM     17  C   UNL     1      -1.028   0.159   1.859  1.00  0.00     0.158 A 
ATOM     18  C   UNL     1      -1.281   2.719   2.914  1.00  0.00     0.012 A 
ATOM     19  C   UNL     1      -1.795   0.367   3.006  1.00  0.00     0.058 A 
BRANCH  15  20
ATOM     20  O   UNL     1       0.413   1.126   0.117  1.00  0.00    -0.493 OA
ATOM     21  C   UNL     1       1.311   0.020   0.054  1.00  0.00     0.278 C 
ENDBRANCH  15  20
BRANCH  17  22
ATOM     22  O   UNL     1      -1.047  -1.103   1.335  1.00  0.00    -0.504 OA
ATOM     23  H   UNL     1      -0.550  -1.298   0.565  1.00  0.00     0.293 HD
ENDBRANCH  17  22
ENDBRANCH  13  14
ENDBRANCH   8  12
ENDBRANCH   4   7
ENDBRANCH   2   3
ENDBRANCH   1   2
BRANCH   1  24
ATOM     24  C   UNL     1      -7.434   3.024  12.731  1.00  0.00     0.118 C 
BRANCH  24  25
ATOM     25  N   UNL     1      -8.463   2.099  13.185  1.00  0.00    -0.352 N 
ATOM     26  C   UNL     1      -8.713   1.588  14.433  1.00  0.00     0.251 C 
ATOM     27  H   UNL     1      -9.078   1.790  12.481  1.00  0.00     0.163 HD
ATOM     28  O   UNL     1      -9.501   0.650  14.539  1.00  0.00    -0.269 OA
BRANCH  26  29
ATOM     29  C   UNL     1      -8.061   2.143  15.640  1.00  0.00     0.039 A 
ATOM     30  C   UNL     1      -7.708   1.266  16.672  1.00  0.00     0.014 A 
ATOM     31  C   UNL     1      -7.870   3.518  15.804  1.00  0.00     0.014 A 
ATOM     32  C   UNL     1      -7.146   1.762  17.851  1.00  0.00     0.010 A 
ATOM     33  C   UNL     1      -7.245   4.005  16.952  1.00  0.00     0.010 A 
ATOM     34  C   UNL     1      -6.899   3.136  17.997  1.00  0.00    -0.014 A 
BRANCH  34  35
ATOM     35  C   UNL     1      -6.308   3.679  19.247  1.00  0.00     0.031 A 
ATOM     36  C   UNL     1      -7.106   4.610  20.123  1.00  0.00     0.074 A 
ATOM     37  C   UNL     1      -5.032   3.385  19.564  1.00  0.00     0.049 A 
ATOM     38  N   UNL     1      -6.753   5.200  21.236  1.00  0.00    -0.248 NA
ATOM     39  C   UNL     1      -8.468   4.945  19.676  1.00  0.00     0.031 C 
ATOM     40  C   UNL     1      -4.129   2.563  18.756  1.00  0.00     0.029 A 
ATOM     41  N   UNL     1      -4.267   3.762  20.638  1.00  0.00    -0.354 N 
ATOM     42  C   UNL     1      -7.829   6.002  21.601  1.00  0.00     0.074 A 
ATOM     43  C   UNL     1      -8.835   5.849  20.573  1.00  0.00     0.031 C 
ATOM     44  C   UNL     1      -2.935   2.493  19.367  1.00  0.00     0.029 A 
ATOM     45  C   UNL     1      -2.981   3.276  20.598  1.00  0.00     0.049 A 
ATOM     46  H   UNL     1      -4.606   4.328  21.369  1.00  0.00     0.167 HD
ATOM     47  C   UNL     1      -7.983   6.769  22.707  1.00  0.00     0.034 A 
ATOM     48  C   UNL     1      -1.958   3.435  21.460  1.00  0.00     0.034 A 
ATOM     49  C   UNL     1      -7.005   6.872  23.756  1.00  0.00     0.049 A 
ATOM     50  C   UNL     1      -2.182   4.226  22.721  1.00  0.00     0.074 A 
ATOM     51  C   UNL     1      -7.098   7.553  24.957  1.00  0.00     0.029 A 
ATOM     52  N   UNL     1      -5.756   6.271  23.734  1.00  0.00    -0.354 N 
ATOM     53  N   UNL     1      -3.265   4.846  23.125  1.00  0.00    -0.248 NA
ATOM     54  C   UNL     1      -1.060   4.300  23.667  1.00  0.00     0.031 C 
ATOM     55  C   UNL     1      -5.901   7.368  25.658  1.00  0.00     0.029 A 
ATOM     56  C   UNL     1      -5.069   6.560  24.900  1.00  0.00     0.049 A 
ATOM     57  H   UNL     1      -5.409   5.719  22.996  1.00  0.00     0.167 HD
ATOM     58  C   UNL     1      -2.968   5.349  24.386  1.00  0.00     0.074 A 
ATOM     59  C   UNL     1      -1.611   4.943  24.688  1.00  0.00     0.031 C 
ATOM     60  C   UNL     1      -3.742   6.095  25.213  1.00  0.00     0.034 A 
BRANCH  47  61
ATOM     61  C   UNL     1      -9.289   7.504  22.871  1.00  0.00     0.023 A 
ATOM     62  C   UNL     1     -10.457   6.777  23.180  1.00  0.00     0.012 A 
ATOM     63  C   UNL     1      -9.356   8.908  22.772  1.00  0.00     0.148 A 
ATOM     64  C   UNL     1     -11.677   7.428  23.351  1.00  0.00     0.002 A 
ATOM     65  C   UNL     1     -10.569   9.555  22.986  1.00  0.00     0.091 A 
ATOM     66  F   UNL     1      -8.242   9.582  22.456  1.00  0.00    -0.205 F 
ATOM     67  C   UNL     1     -11.731   8.816  23.264  1.00  0.00     0.022 A 
BRANCH  65  68
ATOM     68  S   UNL     1     -10.726  11.345  22.971  1.00  0.00     0.127 S 
ATOM     69  O   UNL     1     -11.411  11.570  21.699  1.00  0.00    -0.237 OA
ATOM     70  O   UNL     1     -11.547  11.594  24.157  1.00  0.00    -0.237 OA
ATOM     71  O   UNL     1      -9.369  11.865  23.055  1.00  0.00    -0.744 OA
ENDBRANCH  65  68
ENDBRANCH  47  61
BRANCH  48  72
ATOM     72  C   UNL     1      -0.660   2.749  21.206  1.00  0.00     0.023 A 
ATOM     73  C   UNL     1      -0.294   1.652  22.011  1.00  0.00     0.012 A 
ATOM     74  C   UNL     1       0.192   3.147  20.159  1.00  0.00     0.148 A 
ATOM     75  C   UNL     1       0.911   0.983  21.798  1.00  0.00     0.002 A 
ATOM     76  C   UNL     1       1.367   2.443  19.919  1.00  0.00     0.091 A 
ATOM     77  F   UNL     1      -0.167   4.200  19.412  1.00  0.00    -0.205 F 
ATOM     78  C   UNL     1       1.737   1.372  20.746  1.00  0.00     0.022 A 
BRANCH  76  79
ATOM     79  S   UNL     1       2.422   2.792  18.506  1.00  0.00     0.127 S 
ATOM     80  O   UNL     1       3.553   3.468  19.137  1.00  0.00    -0.237 OA
ATOM     81  O   UNL     1       2.710   1.448  18.002  1.00  0.00    -0.237 OA
ATOM     82  O   UNL     1       1.613   3.605  17.609  1.00  0.00    -0.744 OA
ENDBRANCH  76  79
ENDBRANCH  48  72
BRANCH  60  83
ATOM     83  C   UNL     1      -3.159   6.492  26.543  1.00  0.00     0.023 A 
ATOM     84  C   UNL     1      -2.160   7.484  26.599  1.00  0.00     0.012 A 
ATOM     85  C   UNL     1      -3.644   5.930  27.739  1.00  0.00     0.148 A 
ATOM     86  C   UNL     1      -1.629   7.885  27.825  1.00  0.00     0.002 A 
ATOM     87  C   UNL     1      -3.143   6.368  28.960  1.00  0.00     0.091 A 
ATOM     88  F   UNL     1      -4.579   4.971  27.666  1.00  0.00    -0.205 F 
ATOM     89  C   UNL     1      -2.128   7.337  29.004  1.00  0.00     0.022 A 
BRANCH  87  90
ATOM     90  S   UNL     1      -3.800   5.779  30.525  1.00  0.00     0.127 S 
ATOM     91  O   UNL     1      -2.803   4.783  30.912  1.00  0.00    -0.237 OA
ATOM     92  O   UNL     1      -3.800   6.992  31.344  1.00  0.00    -0.237 OA
ATOM     93  O   UNL     1      -5.128   5.261  30.223  1.00  0.00    -0.744 OA
ENDBRANCH  87  90
ENDBRANCH  60  83
ENDBRANCH  34  35
ENDBRANCH  26  29
ENDBRANCH  24  25
ENDBRANCH   1  24
TORSDOF 17
