REMARK SMILES O=C(NCCCNC(=O)c1cn(C2C[NH+](CCC[C@@H]3CCCO3)C2)nn1)c1ccc(-c2c3nc(c(-c4cccc(S(=O)(=O)[O-])c4F)c4ccc([nH]4)c(-c4cccc(S(=O)(=O)[O-])c4F)c4nc(c(-c5cccc(S(=O)(=O)[O-])c5F)c5ccc2[nH]5)C=C4)C=C3)cc1
REMARK SMILES IDX 6 1 5 2 4 3 3 4 1 5 2 6 27 8 28 9 89 10 29 11 88 12 30 13
REMARK SMILES IDX 31 14 32 15 82 16 33 17 87 18 81 19 83 20 34 21 86 22 80 23
REMARK SMILES IDX 79 24 35 26 67 27 47 28 66 29 48 30 51 31 65 32 84 33 49 34
REMARK SMILES IDX 50 35 64 37 85 38 52 39 36 40 37 41 45 42 38 43 40 44 46 45
REMARK SMILES IDX 39 46 41 47 42 48 43 49 44 50 68 51 69 52 77 53 70 54 72 55
REMARK SMILES IDX 78 56 71 57 73 58 74 59 75 60 76 61 53 62 54 63 62 64 55 65
REMARK SMILES IDX 57 66 63 67 56 68 58 69 59 70 60 71 61 72 7 73 8 74 9 76
REMARK SMILES IDX 10 77 11 78 26 79 12 80 25 81 13 82 14 83 24 84 15 85 16 87
REMARK SMILES IDX 17 88 18 89 19 90 20 91 23 92 21 93 22 94
REMARK H PARENT 3 7 83 25 51 36 7 75 15 86
REMARK Flexibility Score: inf
ROOT
ATOM      1  C   UNL     1       4.404  -2.155   2.845  1.00  0.00     0.118 C 
ENDROOT
BRANCH   1   2
ATOM      2  C   UNL     1       4.914  -0.913   2.106  1.00  0.00     0.042 C 
BRANCH   2   3
ATOM      3  C   UNL     1       4.633  -0.895   0.604  1.00  0.00     0.118 C 
BRANCH   3   4
ATOM      4  N   UNL     1       3.236  -1.005   0.239  1.00  0.00    -0.352 N 
ATOM      5  O   UNL     1       1.181  -0.570  -0.421  1.00  0.00    -0.269 OA
ATOM      6  C   UNL     1       2.204  -0.119   0.102  1.00  0.00     0.251 C 
ATOM      7  H   UNL     1       2.968  -1.932   0.046  1.00  0.00     0.163 HD
BRANCH   6   8
ATOM      8  C   UNL     1       2.203   1.282   0.602  1.00  0.00     0.039 A 
ATOM      9  C   UNL     1       3.330   2.032   0.942  1.00  0.00     0.014 A 
ATOM     10  C   UNL     1       0.932   1.870   0.749  1.00  0.00     0.014 A 
ATOM     11  C   UNL     1       3.188   3.305   1.491  1.00  0.00     0.010 A 
ATOM     12  C   UNL     1       0.784   3.140   1.290  1.00  0.00     0.010 A 
ATOM     13  C   UNL     1       1.914   3.846   1.689  1.00  0.00    -0.014 A 
BRANCH  13  14
ATOM     14  C   UNL     1       1.801   5.236   2.127  1.00  0.00     0.031 A 
ATOM     15  C   UNL     1       2.248   6.229   1.109  1.00  0.00     0.074 A 
ATOM     16  C   UNL     1       1.188   5.612   3.269  1.00  0.00     0.049 A 
ATOM     17  N   UNL     1       3.227   7.071   1.192  1.00  0.00    -0.248 NA
ATOM     18  C   UNL     1       1.609   6.187  -0.216  1.00  0.00     0.031 C 
ATOM     19  C   UNL     1       0.440   4.756   4.193  1.00  0.00     0.029 A 
ATOM     20  N   UNL     1       0.978   6.866   3.770  1.00  0.00    -0.354 N 
ATOM     21  C   UNL     1       3.172   7.825   0.019  1.00  0.00     0.074 A 
ATOM     22  C   UNL     1       2.302   7.114  -0.877  1.00  0.00     0.031 C 
ATOM     23  C   UNL     1      -0.339   5.531   4.983  1.00  0.00     0.029 A 
ATOM     24  C   UNL     1      -0.054   6.928   4.707  1.00  0.00     0.049 A 
ATOM     25  H   UNL     1       1.504   7.651   3.496  1.00  0.00     0.167 HD
ATOM     26  C   UNL     1       3.638   9.105  -0.027  1.00  0.00     0.034 A 
ATOM     27  C   UNL     1      -0.684   8.043   5.157  1.00  0.00     0.034 A 
ATOM     28  C   UNL     1       4.498   9.390   1.093  1.00  0.00     0.049 A 
ATOM     29  C   UNL     1       0.189   9.200   4.869  1.00  0.00     0.074 A 
ATOM     30  C   UNL     1       5.672   8.869   1.596  1.00  0.00     0.029 A 
ATOM     31  N   UNL     1       3.965  10.162   2.095  1.00  0.00    -0.354 N 
ATOM     32  N   UNL     1       1.329   9.408   5.462  1.00  0.00    -0.248 NA
ATOM     33  C   UNL     1      -0.017   9.924   3.627  1.00  0.00     0.031 C 
ATOM     34  C   UNL     1       5.540   8.971   3.012  1.00  0.00     0.029 A 
ATOM     35  C   UNL     1       4.324   9.600   3.286  1.00  0.00     0.049 A 
ATOM     36  H   UNL     1       3.422  10.974   1.976  1.00  0.00     0.167 HD
ATOM     37  C   UNL     1       2.150   9.893   4.454  1.00  0.00     0.074 A 
ATOM     38  C   UNL     1       1.240  10.305   3.388  1.00  0.00     0.031 C 
ATOM     39  C   UNL     1       3.490   9.635   4.464  1.00  0.00     0.034 A 
BRANCH  26  40
ATOM     40  C   UNL     1       3.014  10.234  -0.829  1.00  0.00     0.023 A 
ATOM     41  C   UNL     1       3.678  11.485  -0.795  1.00  0.00     0.012 A 
ATOM     42  C   UNL     1       1.696  10.230  -1.339  1.00  0.00     0.148 A 
ATOM     43  C   UNL     1       3.033  12.673  -1.153  1.00  0.00     0.002 A 
ATOM     44  C   UNL     1       1.085  11.405  -1.767  1.00  0.00     0.091 A 
ATOM     45  F   UNL     1       0.961   9.118  -1.299  1.00  0.00    -0.205 F 
ATOM     46  C   UNL     1       1.735  12.634  -1.640  1.00  0.00     0.022 A 
BRANCH  44  47
ATOM     47  S   UNL     1      -0.579  11.411  -2.449  1.00  0.00     0.127 S 
ATOM     48  O   UNL     1      -1.333  12.037  -1.368  1.00  0.00    -0.237 OA
ATOM     49  O   UNL     1      -0.405  12.235  -3.645  1.00  0.00    -0.237 OA
ATOM     50  O   UNL     1      -0.895  10.015  -2.726  1.00  0.00    -0.744 OA
ENDBRANCH  44  47
ENDBRANCH  26  40
BRANCH  27  51
ATOM     51  C   UNL     1      -2.088   8.239   5.595  1.00  0.00     0.023 A 
ATOM     52  C   UNL     1      -2.430   9.370   6.367  1.00  0.00     0.012 A 
ATOM     53  C   UNL     1      -3.136   7.490   5.018  1.00  0.00     0.148 A 
ATOM     54  C   UNL     1      -3.767   9.760   6.527  1.00  0.00     0.002 A 
ATOM     55  C   UNL     1      -4.462   7.876   5.186  1.00  0.00     0.091 A 
ATOM     56  F   UNL     1      -2.827   6.456   4.225  1.00  0.00    -0.205 F 
ATOM     57  C   UNL     1      -4.782   9.019   5.929  1.00  0.00     0.022 A 
BRANCH  55  58
ATOM     58  S   UNL     1      -5.822   6.983   4.420  1.00  0.00     0.127 S 
ATOM     59  O   UNL     1      -6.744   6.816   5.544  1.00  0.00    -0.237 OA
ATOM     60  O   UNL     1      -6.266   7.926   3.398  1.00  0.00    -0.237 OA
ATOM     61  O   UNL     1      -5.249   5.737   3.926  1.00  0.00    -0.744 OA
ENDBRANCH  55  58
ENDBRANCH  27  51
BRANCH  39  62
ATOM     62  C   UNL     1       4.103   9.100   5.730  1.00  0.00     0.023 A 
ATOM     63  C   UNL     1       3.738   7.857   6.287  1.00  0.00     0.012 A 
ATOM     64  C   UNL     1       5.193   9.798   6.274  1.00  0.00     0.148 A 
ATOM     65  C   UNL     1       4.433   7.335   7.382  1.00  0.00     0.002 A 
ATOM     66  C   UNL     1       5.913   9.252   7.326  1.00  0.00     0.091 A 
ATOM     67  F   UNL     1       5.525  10.979   5.730  1.00  0.00    -0.205 F 
ATOM     68  C   UNL     1       5.531   8.026   7.892  1.00  0.00     0.022 A 
BRANCH  66  69
ATOM     69  S   UNL     1       7.412  10.029   7.932  1.00  0.00     0.127 S 
ATOM     70  O   UNL     1       6.961  10.620   9.190  1.00  0.00    -0.237 OA
ATOM     71  O   UNL     1       8.317   8.888   8.080  1.00  0.00    -0.237 OA
ATOM     72  O   UNL     1       7.816  10.976   6.901  1.00  0.00    -0.744 OA
ENDBRANCH  66  69
ENDBRANCH  39  62
ENDBRANCH  13  14
ENDBRANCH   6   8
ENDBRANCH   3   4
ENDBRANCH   2   3
ENDBRANCH   1   2
BRANCH   1  73
ATOM     73  N   UNL     1       4.926  -3.396   2.289  1.00  0.00    -0.351 N 
ATOM     74  C   UNL     1       5.708  -4.378   2.853  1.00  0.00     0.273 C 
ATOM     75  H   UNL     1       4.678  -3.559   1.351  1.00  0.00     0.163 HD
ATOM     76  O   UNL     1       6.190  -5.231   2.114  1.00  0.00    -0.267 OA
BRANCH  74  77
ATOM     77  C   UNL     1       5.931  -4.380   4.288  1.00  0.00     0.170 A 
ATOM     78  C   UNL     1       5.011  -4.229   5.308  1.00  0.00     0.145 A 
ATOM     79  N   UNL     1       7.169  -4.597   4.839  1.00  0.00    -0.125 NA
ATOM     80  N   UNL     1       5.778  -4.192   6.438  1.00  0.00    -0.237 N 
ATOM     81  N   UNL     1       7.064  -4.474   6.154  1.00  0.00    -0.066 NA
BRANCH  80  82
ATOM     82  C   UNL     1       5.433  -3.667   7.721  1.00  0.00     0.218 C 
ATOM     83  C   UNL     1       4.397  -2.518   7.661  1.00  0.00     0.295 C 
ATOM     84  C   UNL     1       4.336  -4.398   8.518  1.00  0.00     0.295 C 
ATOM     85  N   UNL     1       3.722  -3.086   8.830  1.00  0.00    -0.331 N 
ATOM     86  H   UNL     1       2.712  -3.015   8.954  1.00  0.00     0.348 HD
BRANCH  85  87
ATOM     87  C   UNL     1       4.118  -2.470  10.108  1.00  0.00     0.262 C 
BRANCH  87  88
ATOM     88  C   UNL     1       5.571  -2.349  10.610  1.00  0.00     0.064 C 
BRANCH  88  89
ATOM     89  C   UNL     1       6.526  -1.311   9.994  1.00  0.00     0.038 C 
BRANCH  89  90
ATOM     90  C   UNL     1       6.082   0.155  10.054  1.00  0.00     0.118 C 
ATOM     91  C   UNL     1       5.339   0.659   8.829  1.00  0.00     0.034 C 
ATOM     92  O   UNL     1       7.262   0.986  10.123  1.00  0.00    -0.378 OA
ATOM     93  C   UNL     1       5.604   2.140   8.874  1.00  0.00     0.031 C 
ATOM     94  C   UNL     1       7.038   2.179   9.350  1.00  0.00     0.160 C 
ENDBRANCH  89  90
ENDBRANCH  88  89
ENDBRANCH  87  88
ENDBRANCH  85  87
ENDBRANCH  80  82
ENDBRANCH  74  77
ENDBRANCH   1  73
TORSDOF 18
