REMARK SMILES COc1ccc(-c2c(C(=O)NCCCNC(=O)c3ccc(-c4c5nc(c(-c6cccc(S(=O)(=O)[O-])c6F)c6ccc([nH]6)c(-c6cccc(S(=O)(=O)[O-])c6F)c6nc(c(-c7cccc(S(=O)(=O)[O-])c7F)c7ccc4[nH]7)C=C6)C=C5)cc3)sc3c2N=C(O)C[C@H]3c2ccc(OC)c(OC)c2)cc1
REMARK SMILES IDX 13 1 12 2 11 3 9 4 10 5 8 7 7 8 83 9 81 10 82 11 84 12 88 13
REMARK SMILES IDX 85 14 87 15 6 16 3 17 4 18 100 19 5 20 99 21 2 22 1 23 89 24
REMARK SMILES IDX 90 25 98 26 91 27 95 28 92 29 96 30 97 31 93 32 94 33 86 34
REMARK SMILES IDX 14 36 15 37 16 38 17 40 18 41 19 42 80 43 20 44 79 45 21 46
REMARK SMILES IDX 22 47 23 48 73 49 24 50 78 51 72 52 74 53 25 54 77 55 71 56
REMARK SMILES IDX 70 57 26 59 58 60 38 61 57 62 39 63 42 64 56 65 75 66 40 67
REMARK SMILES IDX 41 68 55 70 76 71 43 72 27 73 28 74 36 75 29 76 31 77 37 78
REMARK SMILES IDX 30 79 32 80 33 81 34 82 35 83 59 84 60 85 68 86 61 87 63 88
REMARK SMILES IDX 69 89 62 90 64 91 65 92 66 93 67 94 44 95 45 96 53 97 46 98
REMARK SMILES IDX 48 99 54 100 47 101 49 102 50 103 51 104 52 105
REMARK H PARENT 11 6 86 35 15 39 74 58 42 69
REMARK Flexibility Score: inf
ROOT
ATOM      1  C   UNL     1       1.092  -3.974   2.012  1.00  0.00     0.042 C 
ENDROOT
BRANCH   1   2
ATOM      2  C   UNL     1       1.003  -3.377   3.400  1.00  0.00     0.118 C 
BRANCH   2   3
ATOM      3  N   UNL     1       0.233  -4.043   4.412  1.00  0.00    -0.351 N 
ATOM      4  C   UNL     1       0.290  -3.798   5.774  1.00  0.00     0.262 C 
ATOM      5  O   UNL     1      -0.585  -4.333   6.459  1.00  0.00    -0.268 OA
ATOM      6  H   UNL     1      -0.396  -4.738   4.110  1.00  0.00     0.163 HD
BRANCH   4   7
ATOM      7  C   UNL     1       1.385  -3.019   6.366  1.00  0.00     0.102 A 
ATOM      8  C   UNL     1       2.011  -1.796   6.088  1.00  0.00     0.031 A 
ATOM      9  C   UNL     1       3.123  -1.584   6.960  1.00  0.00     0.090 A 
ATOM     10  S   UNL     1       2.111  -3.768   7.761  1.00  0.00    -0.131 S 
ATOM     11  C   UNL     1       3.279  -2.554   7.906  1.00  0.00     0.040 A 
ATOM     12  N   UNL     1       3.970  -0.471   6.853  1.00  0.00    -0.216 NA
ATOM     13  C   UNL     1       4.341  -2.549   8.950  1.00  0.00     0.071 C 
ATOM     14  C   UNL     1       5.032  -0.518   7.582  1.00  0.00     0.186 C 
ATOM     15  C   UNL     1       5.482  -1.616   8.516  1.00  0.00     0.111 C 
BRANCH   8  16
ATOM     16  C   UNL     1       1.676  -0.911   4.975  1.00  0.00    -0.014 A 
ATOM     17  C   UNL     1       1.012   0.428   2.602  1.00  0.00     0.118 A 
ATOM     18  C   UNL     1       0.091   0.348   3.655  1.00  0.00     0.047 A 
ATOM     19  C   UNL     1       2.298  -0.074   2.771  1.00  0.00     0.047 A 
ATOM     20  C   UNL     1       0.415  -0.326   4.841  1.00  0.00     0.012 A 
ATOM     21  C   UNL     1       2.633  -0.723   3.960  1.00  0.00     0.012 A 
BRANCH  17  22
ATOM     22  O   UNL     1       0.548   0.997   1.448  1.00  0.00    -0.497 OA
ATOM     23  C   UNL     1       1.181   0.568   0.242  1.00  0.00     0.278 C 
ENDBRANCH  17  22
ENDBRANCH   8  16
BRANCH  13  24
ATOM     24  C   UNL     1       3.807  -2.184  10.329  1.00  0.00    -0.035 A 
ATOM     25  C   UNL     1       3.057  -1.026  10.550  1.00  0.00     0.008 A 
ATOM     26  C   UNL     1       4.071  -3.034  11.418  1.00  0.00     0.054 A 
ATOM     27  C   UNL     1       2.581  -0.737  11.828  1.00  0.00     0.051 A 
ATOM     28  C   UNL     1       3.605  -2.749  12.712  1.00  0.00     0.161 A 
ATOM     29  C   UNL     1       2.844  -1.585  12.914  1.00  0.00     0.160 A 
BRANCH  28  30
ATOM     30  O   UNL     1       3.884  -3.545  13.792  1.00  0.00    -0.493 OA
ATOM     31  C   UNL     1       4.577  -4.766  13.567  1.00  0.00     0.278 C 
ENDBRANCH  28  30
BRANCH  29  32
ATOM     32  O   UNL     1       2.300  -1.108  14.080  1.00  0.00    -0.493 OA
ATOM     33  C   UNL     1       2.264  -1.964  15.211  1.00  0.00     0.278 C 
ENDBRANCH  29  32
ENDBRANCH  13  24
BRANCH  14  34
ATOM     34  O   UNL     1       5.918   0.494   7.468  1.00  0.00    -0.496 OA
ATOM     35  H   UNL     1       5.727   1.222   6.910  1.00  0.00     0.294 HD
ENDBRANCH  14  34
ENDBRANCH   4   7
ENDBRANCH   2   3
ENDBRANCH   1   2
BRANCH   1  36
ATOM     36  C   UNL     1      -0.181  -3.809   1.204  1.00  0.00     0.118 C 
BRANCH  36  37
ATOM     37  N   UNL     1      -0.571  -2.426   0.885  1.00  0.00    -0.352 N 
ATOM     38  C   UNL     1      -1.496  -2.021  -0.073  1.00  0.00     0.251 C 
ATOM     39  H   UNL     1      -0.133  -1.713   1.405  1.00  0.00     0.163 HD
ATOM     40  O   UNL     1      -1.668  -0.855  -0.377  1.00  0.00    -0.269 OA
BRANCH  38  41
ATOM     41  C   UNL     1      -2.255  -3.097  -0.734  1.00  0.00     0.039 A 
ATOM     42  C   UNL     1      -2.064  -3.352  -2.091  1.00  0.00     0.014 A 
ATOM     43  C   UNL     1      -2.853  -4.025   0.107  1.00  0.00     0.014 A 
ATOM     44  C   UNL     1      -2.323  -4.636  -2.566  1.00  0.00     0.010 A 
ATOM     45  C   UNL     1      -2.926  -5.328  -0.328  1.00  0.00     0.010 A 
ATOM     46  C   UNL     1      -2.679  -5.654  -1.664  1.00  0.00    -0.014 A 
BRANCH  46  47
ATOM     47  C   UNL     1      -2.638  -7.062  -2.087  1.00  0.00     0.031 A 
ATOM     48  C   UNL     1      -1.474  -7.483  -2.929  1.00  0.00     0.074 A 
ATOM     49  C   UNL     1      -3.451  -8.028  -1.605  1.00  0.00     0.049 A 
ATOM     50  N   UNL     1      -1.498  -7.864  -4.166  1.00  0.00    -0.248 NA
ATOM     51  C   UNL     1      -0.120  -7.412  -2.360  1.00  0.00     0.031 C 
ATOM     52  C   UNL     1      -4.455  -7.919  -0.538  1.00  0.00     0.029 A 
ATOM     53  N   UNL     1      -3.448  -9.366  -1.877  1.00  0.00    -0.354 N 
ATOM     54  C   UNL     1      -0.204  -8.295  -4.465  1.00  0.00     0.074 A 
ATOM     55  C   UNL     1       0.627  -7.844  -3.380  1.00  0.00     0.031 C 
ATOM     56  C   UNL     1      -4.738  -9.146  -0.058  1.00  0.00     0.029 A 
ATOM     57  C   UNL     1      -4.131 -10.123  -0.938  1.00  0.00     0.049 A 
ATOM     58  H   UNL     1      -3.004  -9.756  -2.665  1.00  0.00     0.167 HD
ATOM     59  C   UNL     1       0.034  -9.190  -5.465  1.00  0.00     0.034 A 
ATOM     60  C   UNL     1      -4.239 -11.466  -0.877  1.00  0.00     0.034 A 
ATOM     61  C   UNL     1      -1.139  -9.400  -6.273  1.00  0.00     0.049 A 
ATOM     62  C   UNL     1      -4.039 -11.991  -2.241  1.00  0.00     0.074 A 
ATOM     63  C   UNL     1      -1.887  -8.687  -7.181  1.00  0.00     0.029 A 
ATOM     64  N   UNL     1      -1.878 -10.494  -5.907  1.00  0.00    -0.354 N 
ATOM     65  N   UNL     1      -4.852 -11.742  -3.231  1.00  0.00    -0.248 NA
ATOM     66  C   UNL     1      -2.768 -12.593  -2.612  1.00  0.00     0.031 C 
ATOM     67  C   UNL     1      -3.201  -9.238  -7.114  1.00  0.00     0.029 A 
ATOM     68  C   UNL     1      -3.200 -10.270  -6.173  1.00  0.00     0.049 A 
ATOM     69  H   UNL     1      -1.512 -11.318  -5.511  1.00  0.00     0.167 HD
ATOM     70  C   UNL     1      -4.034 -11.734  -4.346  1.00  0.00     0.074 A 
ATOM     71  C   UNL     1      -2.839 -12.459  -3.940  1.00  0.00     0.031 C 
ATOM     72  C   UNL     1      -4.256 -10.865  -5.376  1.00  0.00     0.034 A 
BRANCH  59  73
ATOM     73  C   UNL     1       1.159 -10.211  -5.525  1.00  0.00     0.023 A 
ATOM     74  C   UNL     1       1.286 -10.960  -6.724  1.00  0.00     0.012 A 
ATOM     75  C   UNL     1       1.876 -10.686  -4.407  1.00  0.00     0.148 A 
ATOM     76  C   UNL     1       2.030 -12.144  -6.787  1.00  0.00     0.002 A 
ATOM     77  C   UNL     1       2.679 -11.822  -4.497  1.00  0.00     0.091 A 
ATOM     78  F   UNL     1       1.684 -10.133  -3.206  1.00  0.00    -0.205 F 
ATOM     79  C   UNL     1       2.735 -12.573  -5.673  1.00  0.00     0.022 A 
BRANCH  77  80
ATOM     80  S   UNL     1       3.656 -12.384  -3.096  1.00  0.00     0.127 S 
ATOM     81  O   UNL     1       2.817 -13.451  -2.562  1.00  0.00    -0.237 OA
ATOM     82  O   UNL     1       4.890 -12.830  -3.744  1.00  0.00    -0.237 OA
ATOM     83  O   UNL     1       3.821 -11.204  -2.256  1.00  0.00    -0.744 OA
ENDBRANCH  77  80
ENDBRANCH  59  73
BRANCH  60  84
ATOM     84  C   UNL     1      -4.475 -12.325   0.296  1.00  0.00     0.023 A 
ATOM     85  C   UNL     1      -5.186 -13.528   0.160  1.00  0.00     0.012 A 
ATOM     86  C   UNL     1      -3.795 -12.069   1.509  1.00  0.00     0.148 A 
ATOM     87  C   UNL     1      -5.194 -14.472   1.192  1.00  0.00     0.002 A 
ATOM     88  C   UNL     1      -3.804 -13.012   2.531  1.00  0.00     0.091 A 
ATOM     89  F   UNL     1      -3.083 -10.939   1.620  1.00  0.00    -0.205 F 
ATOM     90  C   UNL     1      -4.495 -14.220   2.371  1.00  0.00     0.022 A 
BRANCH  88  91
ATOM     91  S   UNL     1      -2.904 -12.777   4.069  1.00  0.00     0.127 S 
ATOM     92  O   UNL     1      -3.926 -13.089   5.069  1.00  0.00    -0.237 OA
ATOM     93  O   UNL     1      -1.841 -13.773   3.950  1.00  0.00    -0.237 OA
ATOM     94  O   UNL     1      -2.470 -11.386   4.068  1.00  0.00    -0.744 OA
ENDBRANCH  88  91
ENDBRANCH  60  84
BRANCH  72  95
ATOM     95  C   UNL     1      -5.631 -10.269  -5.516  1.00  0.00     0.023 A 
ATOM     96  C   UNL     1      -6.177  -9.401  -4.550  1.00  0.00     0.012 A 
ATOM     97  C   UNL     1      -6.333 -10.478  -6.716  1.00  0.00     0.148 A 
ATOM     98  C   UNL     1      -7.409  -8.776  -4.764  1.00  0.00     0.002 A 
ATOM     99  C   UNL     1      -7.534  -9.818  -6.946  1.00  0.00     0.091 A 
ATOM    100  F   UNL     1      -5.801 -11.306  -7.628  1.00  0.00    -0.205 F 
ATOM    101  C   UNL     1      -8.081  -8.974  -5.967  1.00  0.00     0.022 A 
BRANCH  99 102
ATOM    102  S   UNL     1      -8.373  -9.934  -8.528  1.00  0.00     0.127 S 
ATOM    103  O   UNL     1      -9.420 -10.914  -8.250  1.00  0.00    -0.237 OA
ATOM    104  O   UNL     1      -8.855  -8.567  -8.735  1.00  0.00    -0.237 OA
ATOM    105  O   UNL     1      -7.354 -10.351  -9.484  1.00  0.00    -0.744 OA
ENDBRANCH  99 102
ENDBRANCH  72  95
ENDBRANCH  46  47
ENDBRANCH  38  41
ENDBRANCH  36  37
ENDBRANCH   1  36
TORSDOF 19
