REMARK SMILES CC[C@@](O)(C(=O)NCCCNC(=O)c1ccc(-c2c3nc(c(-c4cccc(S(=O)(=O)[O-])c4F)c4ccc([nH]4)c(-c4cccc(S(=O)(=O)[O-])c4F)c4nc(c(-c5cccc(S(=O)(=O)[O-])c5F)c5ccc2[nH]5)C=C4)C=C3)cc1)[C@@H](C)c1ccc(OC)c(OC)c1
REMARK SMILES IDX 9 1 8 2 7 3 5 4 6 5 3 7 2 8 1 9 4 10 77 12 78 13 79 14 80 15
REMARK SMILES IDX 88 16 81 17 85 18 82 19 86 20 87 21 83 22 84 23 10 24 11 25
REMARK SMILES IDX 12 26 13 28 14 29 15 30 76 31 16 32 75 33 17 34 18 35 19 36
REMARK SMILES IDX 69 37 20 38 74 39 68 40 70 41 21 42 73 43 67 44 66 45 22 47
REMARK SMILES IDX 54 48 34 49 53 50 35 51 38 52 52 53 71 54 36 55 37 56 51 58
REMARK SMILES IDX 72 59 39 60 23 61 24 62 32 63 25 64 27 65 33 66 26 67 28 68
REMARK SMILES IDX 29 69 30 70 31 71 55 72 56 73 64 74 57 75 59 76 65 77 58 78
REMARK SMILES IDX 60 79 61 80 62 81 63 82 40 83 41 84 49 85 42 86 44 87 50 88
REMARK SMILES IDX 43 89 45 90 46 91 47 92 48 93
REMARK H PARENT 7 6 4 11 11 27 70 46 38 57
REMARK Flexibility Score: inf
ROOT
ATOM      1  C   UNL     1      -3.064   2.705   0.896  1.00  0.00     0.042 C 
ENDROOT
BRANCH   1   2
ATOM      2  C   UNL     1      -2.146   3.136  -0.244  1.00  0.00     0.117 C 
BRANCH   2   3
ATOM      3  N   UNL     1      -0.982   3.917   0.167  1.00  0.00    -0.354 N 
ATOM      4  C   UNL     1       0.356   3.609   0.180  1.00  0.00     0.252 C 
ATOM      5  O   UNL     1       1.135   4.546   0.381  1.00  0.00    -0.272 OA
ATOM      6  H   UNL     1      -1.194   4.822   0.491  1.00  0.00     0.163 HD
BRANCH   4   7
ATOM      7  C   UNL     1       0.860   2.131  -0.017  1.00  0.00     0.149 C 
BRANCH   7   8
ATOM      8  C   UNL     1       0.409   1.357   1.255  1.00  0.00     0.043 C 
ATOM      9  C   UNL     1       0.218  -0.145   1.164  1.00  0.00     0.007 C 
ENDBRANCH   7   8
BRANCH   7  10
ATOM     10  O   UNL     1       0.199   1.652  -1.197  1.00  0.00    -0.379 OA
ATOM     11  H   UNL     1      -0.760   1.648  -1.052  1.00  0.00     0.212 HD
ENDBRANCH   7  10
BRANCH   7  12
ATOM     12  C   UNL     1       2.425   2.124  -0.288  1.00  0.00     0.058 C 
ATOM     13  C   UNL     1       3.239   2.348   1.006  1.00  0.00     0.016 C 
BRANCH  12  14
ATOM     14  C   UNL     1       3.046   0.938  -1.055  1.00  0.00    -0.038 A 
ATOM     15  C   UNL     1       2.374  -0.259  -1.303  1.00  0.00     0.008 A 
ATOM     16  C   UNL     1       4.380   1.022  -1.509  1.00  0.00     0.054 A 
ATOM     17  C   UNL     1       3.028  -1.370  -1.831  1.00  0.00     0.051 A 
ATOM     18  C   UNL     1       5.034  -0.072  -2.109  1.00  0.00     0.160 A 
ATOM     19  C   UNL     1       4.361  -1.294  -2.217  1.00  0.00     0.160 A 
BRANCH  18  20
ATOM     20  O   UNL     1       6.342  -0.007  -2.513  1.00  0.00    -0.493 OA
ATOM     21  C   UNL     1       6.725   1.233  -3.102  1.00  0.00     0.278 C 
ENDBRANCH  18  20
BRANCH  19  22
ATOM     22  O   UNL     1       4.884  -2.493  -2.617  1.00  0.00    -0.493 OA
ATOM     23  C   UNL     1       5.716  -2.447  -3.765  1.00  0.00     0.278 C 
ENDBRANCH  19  22
ENDBRANCH  12  14
ENDBRANCH   7  12
ENDBRANCH   4   7
ENDBRANCH   2   3
ENDBRANCH   1   2
BRANCH   1  24
ATOM     24  C   UNL     1      -3.686   3.852   1.676  1.00  0.00     0.118 C 
BRANCH  24  25
ATOM     25  N   UNL     1      -4.667   4.583   0.889  1.00  0.00    -0.352 N 
ATOM     26  C   UNL     1      -6.029   4.679   1.038  1.00  0.00     0.251 C 
ATOM     27  H   UNL     1      -4.296   5.089   0.131  1.00  0.00     0.163 HD
ATOM     28  O   UNL     1      -6.693   5.164   0.125  1.00  0.00    -0.269 OA
BRANCH  26  29
ATOM     29  C   UNL     1      -6.703   4.204   2.271  1.00  0.00     0.039 A 
ATOM     30  C   UNL     1      -7.963   3.606   2.162  1.00  0.00     0.014 A 
ATOM     31  C   UNL     1      -6.139   4.396   3.534  1.00  0.00     0.014 A 
ATOM     32  C   UNL     1      -8.633   3.171   3.309  1.00  0.00     0.010 A 
ATOM     33  C   UNL     1      -6.764   3.879   4.667  1.00  0.00     0.010 A 
ATOM     34  C   UNL     1      -8.031   3.286   4.572  1.00  0.00    -0.014 A 
BRANCH  34  35
ATOM     35  C   UNL     1      -8.725   2.829   5.805  1.00  0.00     0.031 A 
ATOM     36  C   UNL     1      -9.076   3.817   6.889  1.00  0.00     0.074 A 
ATOM     37  C   UNL     1      -8.978   1.517   5.985  1.00  0.00     0.049 A 
ATOM     38  N   UNL     1      -9.648   3.604   8.046  1.00  0.00    -0.248 NA
ATOM     39  C   UNL     1      -8.708   5.224   6.657  1.00  0.00     0.031 C 
ATOM     40  C   UNL     1      -8.612   0.449   5.053  1.00  0.00     0.029 A 
ATOM     41  N   UNL     1      -9.582   0.856   7.026  1.00  0.00    -0.354 N 
ATOM     42  C   UNL     1      -9.669   4.834   8.694  1.00  0.00     0.074 A 
ATOM     43  C   UNL     1      -9.020   5.783   7.817  1.00  0.00     0.031 C 
ATOM     44  C   UNL     1      -9.007  -0.731   5.559  1.00  0.00     0.029 A 
ATOM     45  C   UNL     1      -9.633  -0.508   6.858  1.00  0.00     0.049 A 
ATOM     46  H   UNL     1      -9.945   1.315   7.817  1.00  0.00     0.167 HD
ATOM     47  C   UNL     1     -10.211   5.157   9.893  1.00  0.00     0.034 A 
ATOM     48  C   UNL     1     -10.132  -1.471   7.660  1.00  0.00     0.034 A 
ATOM     49  C   UNL     1     -10.913   4.226  10.734  1.00  0.00     0.049 A 
ATOM     50  C   UNL     1     -10.793  -1.076   8.953  1.00  0.00     0.074 A 
ATOM     51  C   UNL     1     -11.583   4.473  11.918  1.00  0.00     0.029 A 
ATOM     52  N   UNL     1     -11.037   2.869  10.479  1.00  0.00    -0.354 N 
ATOM     53  N   UNL     1     -10.951   0.119   9.468  1.00  0.00    -0.248 NA
ATOM     54  C   UNL     1     -11.383  -2.158   9.755  1.00  0.00     0.031 C 
ATOM     55  C   UNL     1     -12.102   3.261  12.387  1.00  0.00     0.029 A 
ATOM     56  C   UNL     1     -11.771   2.264  11.484  1.00  0.00     0.049 A 
ATOM     57  H   UNL     1     -10.658   2.405   9.698  1.00  0.00     0.167 HD
ATOM     58  C   UNL     1     -11.690  -0.061  10.632  1.00  0.00     0.074 A 
ATOM     59  C   UNL     1     -11.967  -1.479  10.734  1.00  0.00     0.031 C 
ATOM     60  C   UNL     1     -12.090   0.861  11.542  1.00  0.00     0.034 A 
BRANCH  47  61
ATOM     61  C   UNL     1     -10.123   6.595  10.337  1.00  0.00     0.023 A 
ATOM     62  C   UNL     1     -10.904   7.571   9.685  1.00  0.00     0.012 A 
ATOM     63  C   UNL     1      -9.316   6.972  11.429  1.00  0.00     0.148 A 
ATOM     64  C   UNL     1     -10.856   8.905  10.087  1.00  0.00     0.002 A 
ATOM     65  C   UNL     1      -9.308   8.297  11.852  1.00  0.00     0.091 A 
ATOM     66  F   UNL     1      -8.564   6.035  12.023  1.00  0.00    -0.205 F 
ATOM     67  C   UNL     1     -10.068   9.266  11.176  1.00  0.00     0.022 A 
BRANCH  65  68
ATOM     68  S   UNL     1      -8.387   8.847  13.293  1.00  0.00     0.127 S 
ATOM     69  O   UNL     1      -7.296   9.599  12.677  1.00  0.00    -0.237 OA
ATOM     70  O   UNL     1      -9.374   9.669  13.995  1.00  0.00    -0.237 OA
ATOM     71  O   UNL     1      -7.993   7.638  14.002  1.00  0.00    -0.744 OA
ENDBRANCH  65  68
ENDBRANCH  47  61
BRANCH  48  72
ATOM     72  C   UNL     1     -10.103  -2.894   7.218  1.00  0.00     0.023 A 
ATOM     73  C   UNL     1     -11.307  -3.525   6.849  1.00  0.00     0.012 A 
ATOM     74  C   UNL     1      -8.896  -3.614   7.130  1.00  0.00     0.148 A 
ATOM     75  C   UNL     1     -11.315  -4.856   6.432  1.00  0.00     0.002 A 
ATOM     76  C   UNL     1      -8.904  -4.923   6.662  1.00  0.00     0.091 A 
ATOM     77  F   UNL     1      -7.762  -3.001   7.498  1.00  0.00    -0.205 F 
ATOM     78  C   UNL     1     -10.114  -5.552   6.329  1.00  0.00     0.022 A 
BRANCH  76  79
ATOM     79  S   UNL     1      -7.393  -5.850   6.372  1.00  0.00     0.127 S 
ATOM     80  O   UNL     1      -7.414  -6.810   7.471  1.00  0.00    -0.237 OA
ATOM     81  O   UNL     1      -7.636  -6.421   5.048  1.00  0.00    -0.237 OA
ATOM     82  O   UNL     1      -6.319  -4.865   6.410  1.00  0.00    -0.744 OA
ENDBRANCH  76  79
ENDBRANCH  48  72
BRANCH  60  83
ATOM     83  C   UNL     1     -12.904   0.379  12.713  1.00  0.00     0.023 A 
ATOM     84  C   UNL     1     -12.283  -0.356  13.742  1.00  0.00     0.012 A 
ATOM     85  C   UNL     1     -14.266   0.717  12.830  1.00  0.00     0.148 A 
ATOM     86  C   UNL     1     -13.013  -0.777  14.853  1.00  0.00     0.002 A 
ATOM     87  C   UNL     1     -14.976   0.336  13.963  1.00  0.00     0.091 A 
ATOM     88  F   UNL     1     -14.845   1.400  11.832  1.00  0.00    -0.205 F 
ATOM     89  C   UNL     1     -14.355  -0.421  14.969  1.00  0.00     0.022 A 
BRANCH  87  90
ATOM     90  S   UNL     1     -16.680   0.835  14.236  1.00  0.00     0.127 S 
ATOM     91  O   UNL     1     -17.405  -0.397  13.930  1.00  0.00    -0.237 OA
ATOM     92  O   UNL     1     -16.675   1.203  15.653  1.00  0.00    -0.237 OA
ATOM     93  O   UNL     1     -16.919   1.949  13.328  1.00  0.00    -0.744 OA
ENDBRANCH  87  90
ENDBRANCH  60  83
ENDBRANCH  34  35
ENDBRANCH  26  29
ENDBRANCH  24  25
ENDBRANCH   1  24
TORSDOF 19
