REMARK SMILES O=C(NCCCNC(=O)C1CCN(C(=O)COc2ccc(Cl)cc2Cl)CC1)c1ccc(-c2c3nc(c(-c4cccc(S(=O)(=O)[O-])c4F)c4ccc([nH]4)c(-c4cccc(S(=O)(=O)[O-])c4F)c4nc(c(-c5cccc(S(=O)(=O)[O-])c5F)c5ccc2[nH]5)C=C4)C=C3)cc1
REMARK SMILES IDX 5 1 4 2 3 3 1 4 2 5 28 7 29 8 90 9 30 10 89 11 31 12 32 13
REMARK SMILES IDX 33 14 83 15 34 16 88 17 82 18 84 19 35 20 87 21 81 22 80 23
REMARK SMILES IDX 36 25 68 26 48 27 67 28 49 29 52 30 66 31 85 32 50 33 51 34
REMARK SMILES IDX 65 36 86 37 53 38 37 39 38 40 46 41 39 42 41 43 47 44 40 45
REMARK SMILES IDX 42 46 43 47 44 48 45 49 69 50 70 51 78 52 71 53 73 54 79 55
REMARK SMILES IDX 72 56 74 57 75 58 76 59 77 60 54 61 55 62 63 63 56 64 58 65
REMARK SMILES IDX 64 66 57 67 59 68 60 69 61 70 62 71 6 72 7 73 8 74 9 76
REMARK SMILES IDX 10 77 11 78 27 79 12 80 26 81 13 82 14 83 15 84 16 85 17 86
REMARK SMILES IDX 18 87 19 88 24 89 20 90 23 91 25 92 21 93 22 94
REMARK H PARENT 3 6 84 24 52 35 7 75
REMARK Flexibility Score: inf
ROOT
ATOM      1  C   UNL     1       4.818   1.763  -1.580  1.00  0.00     0.042 C 
ENDROOT
BRANCH   1   2
ATOM      2  C   UNL     1       4.516   1.372  -0.145  1.00  0.00     0.118 C 
BRANCH   2   3
ATOM      3  N   UNL     1       3.086   1.168   0.070  1.00  0.00    -0.352 N 
ATOM      4  O   UNL     1       1.148   0.028   0.063  1.00  0.00    -0.269 OA
ATOM      5  C   UNL     1       2.367  -0.000   0.174  1.00  0.00     0.251 C 
ATOM      6  H   UNL     1       2.555   1.993   0.153  1.00  0.00     0.163 HD
BRANCH   5   7
ATOM      7  C   UNL     1       3.078  -1.274   0.411  1.00  0.00     0.039 A 
ATOM      8  C   UNL     1       4.180  -1.304   1.264  1.00  0.00     0.014 A 
ATOM      9  C   UNL     1       2.634  -2.450  -0.201  1.00  0.00     0.014 A 
ATOM     10  C   UNL     1       4.951  -2.450   1.355  1.00  0.00     0.010 A 
ATOM     11  C   UNL     1       3.334  -3.642   0.006  1.00  0.00     0.010 A 
ATOM     12  C   UNL     1       4.515  -3.644   0.764  1.00  0.00    -0.014 A 
BRANCH  12  13
ATOM     13  C   UNL     1       5.264  -4.888   1.069  1.00  0.00     0.031 A 
ATOM     14  C   UNL     1       5.936  -5.689  -0.006  1.00  0.00     0.074 A 
ATOM     15  C   UNL     1       5.356  -5.260   2.363  1.00  0.00     0.049 A 
ATOM     16  N   UNL     1       6.674  -6.762   0.117  1.00  0.00    -0.248 NA
ATOM     17  C   UNL     1       5.755  -5.245  -1.398  1.00  0.00     0.031 C 
ATOM     18  C   UNL     1       4.700  -4.575   3.482  1.00  0.00     0.029 A 
ATOM     19  N   UNL     1       6.045  -6.280   2.962  1.00  0.00    -0.354 N 
ATOM     20  C   UNL     1       7.011  -7.147  -1.174  1.00  0.00     0.074 A 
ATOM     21  C   UNL     1       6.394  -6.194  -2.071  1.00  0.00     0.031 C 
ATOM     22  C   UNL     1       5.059  -5.159   4.632  1.00  0.00     0.029 A 
ATOM     23  C   UNL     1       5.909  -6.302   4.331  1.00  0.00     0.049 A 
ATOM     24  H   UNL     1       6.584  -6.935   2.462  1.00  0.00     0.167 HD
ATOM     25  C   UNL     1       7.775  -8.193  -1.569  1.00  0.00     0.034 A 
ATOM     26  C   UNL     1       6.398  -7.158   5.246  1.00  0.00     0.034 A 
ATOM     27  C   UNL     1       8.413  -9.111  -0.661  1.00  0.00     0.049 A 
ATOM     28  C   UNL     1       7.268  -8.285   4.776  1.00  0.00     0.074 A 
ATOM     29  C   UNL     1       9.251 -10.172  -0.959  1.00  0.00     0.029 A 
ATOM     30  N   UNL     1       8.281  -9.084   0.719  1.00  0.00    -0.354 N 
ATOM     31  N   UNL     1       7.669  -8.561   3.559  1.00  0.00    -0.248 NA
ATOM     32  C   UNL     1       7.770  -9.205   5.803  1.00  0.00     0.031 C 
ATOM     33  C   UNL     1       9.611 -10.795   0.241  1.00  0.00     0.029 A 
ATOM     34  C   UNL     1       9.014 -10.112   1.288  1.00  0.00     0.049 A 
ATOM     35  H   UNL     1       7.744  -8.429   1.222  1.00  0.00     0.167 HD
ATOM     36  C   UNL     1       8.482  -9.679   3.674  1.00  0.00     0.074 A 
ATOM     37  C   UNL     1       8.547 -10.004   5.085  1.00  0.00     0.031 C 
ATOM     38  C   UNL     1       9.098 -10.391   2.698  1.00  0.00     0.034 A 
BRANCH  25  39
ATOM     39  C   UNL     1       8.002  -8.386  -3.046  1.00  0.00     0.023 A 
ATOM     40  C   UNL     1       8.883  -7.527  -3.732  1.00  0.00     0.012 A 
ATOM     41  C   UNL     1       7.410  -9.463  -3.735  1.00  0.00     0.148 A 
ATOM     42  C   UNL     1       9.156  -7.723  -5.086  1.00  0.00     0.002 A 
ATOM     43  C   UNL     1       7.717  -9.675  -5.075  1.00  0.00     0.091 A 
ATOM     44  F   UNL     1       6.558 -10.257  -3.070  1.00  0.00    -0.205 F 
ATOM     45  C   UNL     1       8.583  -8.802  -5.753  1.00  0.00     0.022 A 
BRANCH  43  46
ATOM     46  S   UNL     1       7.087 -11.079  -6.005  1.00  0.00     0.127 S 
ATOM     47  O   UNL     1       6.147 -10.429  -6.917  1.00  0.00    -0.237 OA
ATOM     48  O   UNL     1       8.299 -11.593  -6.644  1.00  0.00    -0.237 OA
ATOM     49  O   UNL     1       6.489 -11.974  -5.025  1.00  0.00    -0.744 OA
ENDBRANCH  43  46
ENDBRANCH  25  39
BRANCH  26  50
ATOM     50  C   UNL     1       6.095  -6.952   6.690  1.00  0.00     0.023 A 
ATOM     51  C   UNL     1       7.125  -6.576   7.571  1.00  0.00     0.012 A 
ATOM     52  C   UNL     1       4.780  -7.073   7.181  1.00  0.00     0.148 A 
ATOM     53  C   UNL     1       6.855  -6.348   8.921  1.00  0.00     0.002 A 
ATOM     54  C   UNL     1       4.508  -6.781   8.512  1.00  0.00     0.091 A 
ATOM     55  F   UNL     1       3.813  -7.451   6.332  1.00  0.00    -0.205 F 
ATOM     56  C   UNL     1       5.546  -6.435   9.389  1.00  0.00     0.022 A 
BRANCH  54  57
ATOM     57  S   UNL     1       2.827  -6.717   9.142  1.00  0.00     0.127 S 
ATOM     58  O   UNL     1       2.721  -7.993   9.843  1.00  0.00    -0.237 OA
ATOM     59  O   UNL     1       2.866  -5.538  10.009  1.00  0.00    -0.237 OA
ATOM     60  O   UNL     1       1.982  -6.559   7.965  1.00  0.00    -0.744 OA
ENDBRANCH  54  57
ENDBRANCH  26  50
BRANCH  38  61
ATOM     61  C   UNL     1       9.905 -11.584   3.131  1.00  0.00     0.023 A 
ATOM     62  C   UNL     1       9.244 -12.749   3.569  1.00  0.00     0.012 A 
ATOM     63  C   UNL     1      11.311 -11.568   3.062  1.00  0.00     0.148 A 
ATOM     64  C   UNL     1       9.972 -13.868   3.966  1.00  0.00     0.002 A 
ATOM     65  C   UNL     1      12.028 -12.704   3.415  1.00  0.00     0.091 A 
ATOM     66  F   UNL     1      11.921 -10.441   2.665  1.00  0.00    -0.205 F 
ATOM     67  C   UNL     1      11.362 -13.850   3.878  1.00  0.00     0.022 A 
BRANCH  65  68
ATOM     68  S   UNL     1      13.814 -12.798   3.248  1.00  0.00     0.127 S 
ATOM     69  O   UNL     1      14.250 -12.670   4.636  1.00  0.00    -0.237 OA
ATOM     70  O   UNL     1      14.004 -14.129   2.668  1.00  0.00    -0.237 OA
ATOM     71  O   UNL     1      14.189 -11.700   2.367  1.00  0.00    -0.744 OA
ENDBRANCH  65  68
ENDBRANCH  38  61
ENDBRANCH  12  13
ENDBRANCH   5   7
ENDBRANCH   2   3
ENDBRANCH   1   2
BRANCH   1  72
ATOM     72  C   UNL     1       4.258   3.128  -1.918  1.00  0.00     0.117 C 
BRANCH  72  73
ATOM     73  N   UNL     1       4.999   4.198  -1.269  1.00  0.00    -0.356 N 
ATOM     74  C   UNL     1       5.759   5.237  -1.676  1.00  0.00     0.223 C 
ATOM     75  H   UNL     1       4.929   4.154  -0.288  1.00  0.00     0.163 HD
ATOM     76  O   UNL     1       6.197   5.949  -0.763  1.00  0.00    -0.275 OA
BRANCH  74  77
ATOM     77  C   UNL     1       6.140   5.558  -3.126  1.00  0.00     0.082 C 
ATOM     78  C   UNL     1       6.123   7.098  -3.304  1.00  0.00     0.035 C 
ATOM     79  C   UNL     1       5.314   4.970  -4.266  1.00  0.00     0.035 C 
ATOM     80  C   UNL     1       4.687   7.642  -3.327  1.00  0.00     0.120 C 
ATOM     81  C   UNL     1       3.877   5.479  -4.184  1.00  0.00     0.120 C 
ATOM     82  N   UNL     1       3.877   6.929  -4.319  1.00  0.00    -0.340 N 
ATOM     83  C   UNL     1       3.180   7.632  -5.288  1.00  0.00     0.260 C 
ATOM     84  O   UNL     1       3.116   8.864  -5.282  1.00  0.00    -0.271 OA
BRANCH  83  85
ATOM     85  C   UNL     1       2.490   6.844  -6.417  1.00  0.00     0.329 C 
BRANCH  85  86
ATOM     86  O   UNL     1       3.141   5.747  -7.036  1.00  0.00    -0.482 OA
BRANCH  86  87
ATOM     87  C   UNL     1       4.196   5.992  -7.870  1.00  0.00     0.138 A 
ATOM     88  C   UNL     1       5.170   6.964  -7.627  1.00  0.00     0.049 A 
ATOM     89  C   UNL     1       4.356   5.133  -8.969  1.00  0.00     0.084 A 
ATOM     90  C   UNL     1       6.276   7.083  -8.472  1.00  0.00     0.024 A 
ATOM     91  C   UNL     1       5.453   5.260  -9.824  1.00  0.00     0.045 A 
ATOM     92  Cl  UNL     1       3.201   3.892  -9.311  1.00  0.00    -0.080 Cl
ATOM     93  C   UNL     1       6.410   6.236  -9.568  1.00  0.00     0.042 A 
ATOM     94  Cl  UNL     1       7.774   6.394 -10.603  1.00  0.00    -0.084 Cl
ENDBRANCH  86  87
ENDBRANCH  85  86
ENDBRANCH  83  85
ENDBRANCH  74  77
ENDBRANCH  72  73
ENDBRANCH   1  72
TORSDOF 16
