REMARK SMILES NS(=O)(=O)c1ccc(-n2nc(C(=O)NCCCNC(=O)c3ccc(-c4c5nc(c(-c6cccc(S(=O)(=O)[O-])c6F)c6ccc([nH]6)c(-c6cccc(S(=O)(=O)[O-])c6F)c6nc(c(-c7cccc(S(=O)(=O)[O-])c7F)c7ccc4[nH]7)C=C6)C=C5)cc3)c(Cl)c2-c2ccc(Cl)cc2)cc1
REMARK SMILES IDX 16 1 15 2 14 3 12 4 13 5 11 7 9 8 10 9 86 10 84 11 85 12
REMARK SMILES IDX 8 13 5 14 6 15 95 16 7 17 94 18 2 19 3 20 4 21 1 22 87 25
REMARK SMILES IDX 88 26 93 27 89 28 92 29 90 30 91 31 17 32 18 33 19 34 20 36
REMARK SMILES IDX 21 37 22 38 83 39 23 40 82 41 24 42 25 43 26 44 76 45 27 46
REMARK SMILES IDX 81 47 75 48 77 49 28 50 80 51 74 52 73 53 29 55 61 56 41 57
REMARK SMILES IDX 60 58 42 59 45 60 59 61 78 62 43 63 44 64 58 66 79 67 46 68
REMARK SMILES IDX 30 69 31 70 39 71 32 72 34 73 40 74 33 75 35 76 36 77 37 78
REMARK SMILES IDX 38 79 62 80 63 81 71 82 64 83 66 84 72 85 65 86 67 87 68 88
REMARK SMILES IDX 69 89 70 90 47 91 48 92 56 93 49 94 51 95 57 96 50 97 52 98
REMARK SMILES IDX 53 99 54 100 55 101
REMARK H PARENT 14 6 1 23 1 24 18 35 77 54 45 65
REMARK Flexibility Score: inf
ROOT
ATOM      1  C   UNL     1       1.056  10.124   7.432  1.00  0.00     0.042 C 
ENDROOT
BRANCH   1   2
ATOM      2  C   UNL     1       2.038  10.068   6.254  1.00  0.00     0.118 C 
BRANCH   2   3
ATOM      3  N   UNL     1       3.114   9.107   6.467  1.00  0.00    -0.351 N 
ATOM      4  C   UNL     1       3.323   7.835   5.965  1.00  0.00     0.273 C 
ATOM      5  O   UNL     1       4.425   7.327   6.170  1.00  0.00    -0.267 OA
ATOM      6  H   UNL     1       3.819   9.421   7.078  1.00  0.00     0.163 HD
BRANCH   4   7
ATOM      7  C   UNL     1       2.308   7.162   5.137  1.00  0.00     0.169 A 
ATOM      8  N   UNL     1       1.532   6.020   3.495  1.00  0.00    -0.231 N 
ATOM      9  N   UNL     1       2.681   6.356   4.112  1.00  0.00    -0.160 NA
ATOM     10  C   UNL     1       0.446   6.681   4.019  1.00  0.00     0.094 A 
ATOM     11  C   UNL     1       0.900   7.126   5.242  1.00  0.00     0.100 A 
ATOM     12  Cl  UNL     1      -0.128   7.487   6.539  1.00  0.00    -0.079 Cl
BRANCH   8  13
ATOM     13  C   UNL     1       1.477   4.990   2.537  1.00  0.00     0.065 A 
ATOM     14  C   UNL     1       0.948   2.907   0.790  1.00  0.00     0.082 A 
ATOM     15  C   UNL     1       1.456   2.621   2.063  1.00  0.00     0.024 A 
ATOM     16  C   UNL     1       0.743   4.229   0.377  1.00  0.00     0.024 A 
ATOM     17  C   UNL     1       1.744   3.673   2.938  1.00  0.00     0.030 A 
ATOM     18  C   UNL     1       0.986   5.275   1.261  1.00  0.00     0.030 A 
BRANCH  14  19
ATOM     19  S   UNL     1       0.525   1.627  -0.352  1.00  0.00     0.238 S 
ATOM     20  O   UNL     1       1.194   1.903  -1.613  1.00  0.00    -0.207 OA
ATOM     21  O   UNL     1      -0.887   1.387  -0.266  1.00  0.00    -0.207 OA
BRANCH  19  22
ATOM     22  N   UNL     1       1.269   0.245   0.240  1.00  0.00    -0.225 NA
ATOM     23  H   UNL     1       1.066  -0.541  -0.377  1.00  0.00     0.137 HD
ATOM     24  H   UNL     1       0.917   0.044   1.176  1.00  0.00     0.137 HD
ENDBRANCH  19  22
ENDBRANCH  14  19
ENDBRANCH   8  13
BRANCH  10  25
ATOM     25  C   UNL     1      -0.932   6.667   3.561  1.00  0.00     0.002 A 
ATOM     26  C   UNL     1      -1.435   7.817   2.935  1.00  0.00     0.012 A 
ATOM     27  C   UNL     1      -1.806   5.660   3.980  1.00  0.00     0.012 A 
ATOM     28  C   UNL     1      -2.810   7.982   2.778  1.00  0.00     0.021 A 
ATOM     29  C   UNL     1      -3.182   5.829   3.826  1.00  0.00     0.021 A 
ATOM     30  C   UNL     1      -3.678   6.996   3.243  1.00  0.00     0.041 A 
ATOM     31  Cl  UNL     1      -5.377   7.245   3.146  1.00  0.00    -0.084 Cl
ENDBRANCH  10  25
ENDBRANCH   4   7
ENDBRANCH   2   3
ENDBRANCH   1   2
BRANCH   1  32
ATOM     32  C   UNL     1       1.357  11.208   8.434  1.00  0.00     0.118 C 
BRANCH  32  33
ATOM     33  N   UNL     1       0.938  12.548   7.998  1.00  0.00    -0.352 N 
ATOM     34  C   UNL     1       0.937  13.717   8.749  1.00  0.00     0.251 C 
ATOM     35  H   UNL     1       0.623  12.626   7.069  1.00  0.00     0.163 HD
ATOM     36  O   UNL     1       0.270  14.688   8.409  1.00  0.00    -0.269 OA
BRANCH  34  37
ATOM     37  C   UNL     1       1.768  13.757   9.967  1.00  0.00     0.039 A 
ATOM     38  C   UNL     1       1.404  14.412  11.147  1.00  0.00     0.014 A 
ATOM     39  C   UNL     1       2.939  13.020   9.910  1.00  0.00     0.014 A 
ATOM     40  C   UNL     1       2.225  14.259  12.266  1.00  0.00     0.010 A 
ATOM     41  C   UNL     1       3.498  12.584  11.063  1.00  0.00     0.010 A 
ATOM     42  C   UNL     1       3.276  13.337  12.200  1.00  0.00    -0.014 A 
BRANCH  42  43
ATOM     43  C   UNL     1       4.192  13.049  13.288  1.00  0.00     0.031 A 
ATOM     44  C   UNL     1       3.551  12.363  14.433  1.00  0.00     0.074 A 
ATOM     45  C   UNL     1       5.530  13.060  13.075  1.00  0.00     0.049 A 
ATOM     46  N   UNL     1       3.283  12.850  15.600  1.00  0.00    -0.248 NA
ATOM     47  C   UNL     1       2.936  11.048  14.182  1.00  0.00     0.031 C 
ATOM     48  C   UNL     1       6.252  13.306  11.812  1.00  0.00     0.029 A 
ATOM     49  N   UNL     1       6.529  12.655  13.898  1.00  0.00    -0.354 N 
ATOM     50  C   UNL     1       2.722  11.789  16.309  1.00  0.00     0.074 A 
ATOM     51  C   UNL     1       2.250  10.872  15.312  1.00  0.00     0.031 C 
ATOM     52  C   UNL     1       7.495  12.783  11.892  1.00  0.00     0.029 A 
ATOM     53  C   UNL     1       7.715  12.320  13.248  1.00  0.00     0.049 A 
ATOM     54  H   UNL     1       6.425  12.603  14.876  1.00  0.00     0.167 HD
ATOM     55  C   UNL     1       3.014  11.594  17.628  1.00  0.00     0.034 A 
ATOM     56  C   UNL     1       8.762  11.639  13.781  1.00  0.00     0.034 A 
ATOM     57  C   UNL     1       3.677  12.763  18.174  1.00  0.00     0.049 A 
ATOM     58  C   UNL     1       8.602  11.699  15.255  1.00  0.00     0.074 A 
ATOM     59  C   UNL     1       3.388  14.113  18.241  1.00  0.00     0.029 A 
ATOM     60  N   UNL     1       5.035  12.665  18.379  1.00  0.00    -0.354 N 
ATOM     61  N   UNL     1       8.665  12.806  15.944  1.00  0.00    -0.248 NA
ATOM     62  C   UNL     1       7.889  10.602  15.892  1.00  0.00     0.031 C 
ATOM     63  C   UNL     1       4.631  14.766  17.982  1.00  0.00     0.029 A 
ATOM     64  C   UNL     1       5.620  13.788  17.863  1.00  0.00     0.049 A 
ATOM     65  H   UNL     1       5.502  11.918  18.819  1.00  0.00     0.167 HD
ATOM     66  C   UNL     1       7.625  12.700  16.860  1.00  0.00     0.074 A 
ATOM     67  C   UNL     1       7.250  11.284  16.847  1.00  0.00     0.031 C 
ATOM     68  C   UNL     1       6.954  13.806  17.302  1.00  0.00     0.034 A 
BRANCH  55  69
ATOM     69  C   UNL     1       3.139  10.239  18.323  1.00  0.00     0.023 A 
ATOM     70  C   UNL     1       3.520  10.274  19.687  1.00  0.00     0.012 A 
ATOM     71  C   UNL     1       3.195   8.973  17.695  1.00  0.00     0.148 A 
ATOM     72  C   UNL     1       4.065   9.161  20.335  1.00  0.00     0.002 A 
ATOM     73  C   UNL     1       3.692   7.855  18.356  1.00  0.00     0.091 A 
ATOM     74  F   UNL     1       2.846   8.825  16.420  1.00  0.00    -0.205 F 
ATOM     75  C   UNL     1       4.168   7.953  19.663  1.00  0.00     0.022 A 
BRANCH  73  76
ATOM     76  S   UNL     1       3.820   6.252  17.544  1.00  0.00     0.127 S 
ATOM     77  O   UNL     1       5.266   6.115  17.405  1.00  0.00    -0.237 OA
ATOM     78  O   UNL     1       3.203   5.370  18.535  1.00  0.00    -0.237 OA
ATOM     79  O   UNL     1       3.071   6.371  16.299  1.00  0.00    -0.744 OA
ENDBRANCH  73  76
ENDBRANCH  55  69
BRANCH  56  80
ATOM     80  C   UNL     1       9.721  10.706  13.137  1.00  0.00     0.023 A 
ATOM     81  C   UNL     1      10.937  10.397  13.782  1.00  0.00     0.012 A 
ATOM     82  C   UNL     1       9.336   9.906  12.038  1.00  0.00     0.148 A 
ATOM     83  C   UNL     1      11.723   9.312  13.368  1.00  0.00     0.002 A 
ATOM     84  C   UNL     1      10.125   8.835  11.624  1.00  0.00     0.091 A 
ATOM     85  F   UNL     1       8.149  10.134  11.459  1.00  0.00    -0.205 F 
ATOM     86  C   UNL     1      11.314   8.526  12.295  1.00  0.00     0.022 A 
BRANCH  84  87
ATOM     87  S   UNL     1       9.647   7.770  10.255  1.00  0.00     0.127 S 
ATOM     88  O   UNL     1      10.889   7.692   9.485  1.00  0.00    -0.237 OA
ATOM     89  O   UNL     1       9.277   6.539  10.948  1.00  0.00    -0.237 OA
ATOM     90  O   UNL     1       8.564   8.470   9.577  1.00  0.00    -0.744 OA
ENDBRANCH  84  87
ENDBRANCH  56  80
BRANCH  68  91
ATOM     91  C   UNL     1       7.510  15.169  16.971  1.00  0.00     0.023 A 
ATOM     92  C   UNL     1       7.604  15.654  15.650  1.00  0.00     0.012 A 
ATOM     93  C   UNL     1       7.746  16.054  18.035  1.00  0.00     0.148 A 
ATOM     94  C   UNL     1       7.938  16.989  15.398  1.00  0.00     0.002 A 
ATOM     95  C   UNL     1       8.032  17.389  17.783  1.00  0.00     0.091 A 
ATOM     96  F   UNL     1       7.650  15.577  19.286  1.00  0.00    -0.205 F 
ATOM     97  C   UNL     1       8.136  17.860  16.465  1.00  0.00     0.022 A 
BRANCH  95  98
ATOM     98  S   UNL     1       8.166  18.582  19.116  1.00  0.00     0.127 S 
ATOM     99  O   UNL     1       9.608  18.812  19.174  1.00  0.00    -0.237 OA
ATOM    100  O   UNL     1       7.386  19.711  18.607  1.00  0.00    -0.237 OA
ATOM    101  O   UNL     1       7.585  17.940  20.289  1.00  0.00    -0.744 OA
ENDBRANCH  95  98
ENDBRANCH  68  91
ENDBRANCH  42  43
ENDBRANCH  34  37
ENDBRANCH  32  33
ENDBRANCH   1  32
TORSDOF 17
