REMARK SMILES [NH3+][C@H]1CCCCC[C@H]1C(=O)N1CCCC[C@@H]1C(=O)NCCCNC(=O)c1ccc(-c2c3nc(c(-c4cccc(S(=O)(=O)[O-])c4F)c4ccc([nH]4)c(-c4cccc(S(=O)(=O)[O-])c4F)c4nc(c(-c5cccc(S(=O)(=O)[O-])c5F)c5ccc2[nH]5)C=C4)C=C3)cc1
REMARK SMILES IDX 20 1 19 2 17 3 18 4 16 6 11 7 12 8 13 9 15 10 14 11 9 12
REMARK SMILES IDX 10 13 8 14 2 15 1 16 3 20 4 21 7 23 6 24 5 25 21 27 22 28
REMARK SMILES IDX 23 29 24 30 25 32 26 33 27 34 88 35 28 36 87 37 29 38 30 39
REMARK SMILES IDX 31 40 81 41 32 42 86 43 80 44 82 45 33 46 85 47 79 48 78 49
REMARK SMILES IDX 34 51 66 52 46 53 65 54 47 55 50 56 64 57 83 58 48 59 49 60
REMARK SMILES IDX 63 62 84 63 51 64 35 65 36 66 44 67 37 68 39 69 45 70 38 71
REMARK SMILES IDX 40 72 41 73 42 74 43 75 67 76 68 77 76 78 69 79 71 80 77 81
REMARK SMILES IDX 70 82 72 83 73 84 74 85 75 86 52 87 53 88 61 89 54 90 56 91
REMARK SMILES IDX 62 92 55 93 57 94 58 95 59 96 60 97
REMARK H PARENT 19 5 1 17 1 18 1 19 23 31 82 50 50 61
REMARK Flexibility Score: 90.00
ROOT
ATOM      1  C   UNL     1       1.769   2.543  -0.444  1.00  0.00     0.117 C 
ENDROOT
BRANCH   1   2
ATOM      2  N   UNL     1       2.527   1.411   0.063  1.00  0.00    -0.354 N 
ATOM      3  C   UNL     1       2.999   1.158   1.312  1.00  0.00     0.242 C 
ATOM      4  O   UNL     1       3.805   0.231   1.443  1.00  0.00    -0.273 OA
ATOM      5  H   UNL     1       2.730   0.717  -0.605  1.00  0.00     0.163 HD
BRANCH   3   6
ATOM      6  C   UNL     1       2.627   2.038   2.514  1.00  0.00     0.174 C 
ATOM      7  N   UNL     1       1.194   2.394   2.689  1.00  0.00    -0.330 N 
ATOM      8  C   UNL     1       0.914   3.496   3.609  1.00  0.00     0.120 C 
ATOM      9  C   UNL     1       1.754   4.731   3.328  1.00  0.00     0.022 C 
ATOM     10  C   UNL     1       3.546   3.281   2.392  1.00  0.00     0.035 C 
ATOM     11  C   UNL     1       3.231   4.379   3.395  1.00  0.00     0.004 C 
BRANCH   7  12
ATOM     12  C   UNL     1       0.092   1.812   2.091  1.00  0.00     0.232 C 
ATOM     13  O   UNL     1      -0.764   2.565   1.597  1.00  0.00    -0.274 OA
BRANCH  12  14
ATOM     14  C   UNL     1      -0.297   0.320   2.229  1.00  0.00     0.136 C 
BRANCH  14  15
ATOM     15  C   UNL     1       0.713  -0.806   1.991  1.00  0.00     0.193 C 
BRANCH  15  16
ATOM     16  N   UNL     1       1.676  -1.011   3.073  1.00  0.00    -0.354 N 
ATOM     17  H   UNL     1       2.305  -1.776   2.829  1.00  0.00     0.344 HD
ATOM     18  H   UNL     1       1.177  -1.242   3.932  1.00  0.00     0.344 HD
ATOM     19  H   UNL     1       2.217  -0.157   3.213  1.00  0.00     0.344 HD
ENDBRANCH  15  16
BRANCH  15  20
ATOM     20  C   UNL     1       0.037  -2.160   1.687  1.00  0.00     0.066 C 
BRANCH  20  21
ATOM     21  C   UNL     1      -0.430  -2.968   2.897  1.00  0.00     0.006 CG0
ATOM     22  G   UNL     1      -1.542  -2.388   3.770  1.00  0.00     0.000 G0
ENDBRANCH  20  21
ENDBRANCH  15  20
ENDBRANCH  14  15
BRANCH  14  23
ATOM     23  C   UNL     1      -1.137   0.140   3.505  1.00  0.00     0.020 C 
BRANCH  23  24
ATOM     24  C   UNL     1      -2.123  -1.027   3.407  1.00  0.00     0.001 C 
BRANCH  24  25
ATOM     25  C   UNL     1      -1.542  -2.388   3.770  1.00  0.00     0.000 CG0
ATOM     26  G   UNL     1      -0.430  -2.968   2.897  1.00  0.00     0.000 G0
ENDBRANCH  24  25
ENDBRANCH  23  24
ENDBRANCH  14  23
ENDBRANCH  12  14
ENDBRANCH   7  12
ENDBRANCH   3   6
ENDBRANCH   1   2
BRANCH   1  27
ATOM     27  C   UNL     1       2.531   3.248  -1.553  1.00  0.00     0.042 C 
BRANCH  27  28
ATOM     28  C   UNL     1       2.740   2.376  -2.781  1.00  0.00     0.118 C 
BRANCH  28  29
ATOM     29  N   UNL     1       1.494   2.062  -3.468  1.00  0.00    -0.352 N 
ATOM     30  C   UNL     1       1.200   2.219  -4.804  1.00  0.00     0.251 C 
ATOM     31  H   UNL     1       0.773   1.693  -2.908  1.00  0.00     0.163 HD
ATOM     32  O   UNL     1       0.064   2.064  -5.220  1.00  0.00    -0.269 OA
BRANCH  30  33
ATOM     33  C   UNL     1       2.295   2.608  -5.715  1.00  0.00     0.039 A 
ATOM     34  C   UNL     1       2.133   3.724  -6.536  1.00  0.00     0.014 A 
ATOM     35  C   UNL     1       3.507   1.912  -5.683  1.00  0.00     0.014 A 
ATOM     36  C   UNL     1       3.217   4.182  -7.287  1.00  0.00     0.010 A 
ATOM     37  C   UNL     1       4.605   2.423  -6.359  1.00  0.00     0.010 A 
ATOM     38  C   UNL     1       4.469   3.555  -7.177  1.00  0.00    -0.014 A 
BRANCH  38  39
ATOM     39  C   UNL     1       5.655   4.054  -7.916  1.00  0.00     0.031 A 
ATOM     40  C   UNL     1       6.333   3.164  -8.921  1.00  0.00     0.074 A 
ATOM     41  C   UNL     1       6.177   5.260  -7.614  1.00  0.00     0.049 A 
ATOM     42  N   UNL     1       7.428   3.374  -9.604  1.00  0.00    -0.248 NA
ATOM     43  C   UNL     1       5.720   1.846  -9.165  1.00  0.00     0.031 C 
ATOM     44  C   UNL     1       5.660   6.177  -6.595  1.00  0.00     0.029 A 
ATOM     45  N   UNL     1       7.280   5.907  -8.112  1.00  0.00    -0.354 N 
ATOM     46  C   UNL     1       7.656   2.207 -10.321  1.00  0.00     0.074 A 
ATOM     47  C   UNL     1       6.612   1.275  -9.960  1.00  0.00     0.031 C 
ATOM     48  C   UNL     1       6.443   7.267  -6.546  1.00  0.00     0.029 A 
ATOM     49  C   UNL     1       7.532   7.115  -7.505  1.00  0.00     0.049 A 
ATOM     50  H   UNL     1       7.838   5.540  -8.836  1.00  0.00     0.167 HD
ATOM     51  C   UNL     1       8.627   1.944 -11.227  1.00  0.00     0.034 A 
ATOM     52  C   UNL     1       8.534   7.997  -7.696  1.00  0.00     0.034 A 
ATOM     53  C   UNL     1       9.629   2.894 -11.623  1.00  0.00     0.049 A 
ATOM     54  C   UNL     1       9.568   7.706  -8.750  1.00  0.00     0.074 A 
ATOM     55  C   UNL     1      10.600   2.763 -12.599  1.00  0.00     0.029 A 
ATOM     56  N   UNL     1       9.789   4.152 -11.063  1.00  0.00    -0.354 N 
ATOM     57  N   UNL     1       9.675   6.661  -9.534  1.00  0.00    -0.248 NA
ATOM     58  C   UNL     1      10.598   8.731  -8.973  1.00  0.00     0.031 C 
ATOM     59  C   UNL     1      11.360   3.937 -12.617  1.00  0.00     0.029 A 
ATOM     60  C   UNL     1      10.845   4.808 -11.669  1.00  0.00     0.049 A 
ATOM     61  H   UNL     1       9.232   4.524 -10.341  1.00  0.00     0.167 HD
ATOM     62  C   UNL     1      10.758   6.917 -10.367  1.00  0.00     0.074 A 
ATOM     63  C   UNL     1      11.262   8.226 -10.005  1.00  0.00     0.031 C 
ATOM     64  C   UNL     1      11.296   6.135 -11.335  1.00  0.00     0.034 A 
BRANCH  51  65
ATOM     65  C   UNL     1       8.610   0.595 -11.897  1.00  0.00     0.023 A 
ATOM     66  C   UNL     1       7.594   0.295 -12.828  1.00  0.00     0.012 A 
ATOM     67  C   UNL     1       9.619  -0.354 -11.646  1.00  0.00     0.148 A 
ATOM     68  C   UNL     1       7.559  -0.943 -13.469  1.00  0.00     0.002 A 
ATOM     69  C   UNL     1       9.605  -1.568 -12.325  1.00  0.00     0.091 A 
ATOM     70  F   UNL     1      10.564  -0.061 -10.742  1.00  0.00    -0.205 F 
ATOM     71  C   UNL     1       8.570  -1.868 -13.226  1.00  0.00     0.022 A 
BRANCH  69  72
ATOM     72  S   UNL     1      10.904  -2.795 -12.143  1.00  0.00     0.127 S 
ATOM     73  O   UNL     1      10.213  -3.847 -11.397  1.00  0.00    -0.237 OA
ATOM     74  O   UNL     1      11.206  -3.132 -13.534  1.00  0.00    -0.237 OA
ATOM     75  O   UNL     1      11.986  -2.131 -11.430  1.00  0.00    -0.744 OA
ENDBRANCH  69  72
ENDBRANCH  51  65
BRANCH  52  76
ATOM     76  C   UNL     1       8.565   9.268  -6.918  1.00  0.00     0.023 A 
ATOM     77  C   UNL     1       8.295  10.486  -7.574  1.00  0.00     0.012 A 
ATOM     78  C   UNL     1       8.827   9.278  -5.535  1.00  0.00     0.148 A 
ATOM     79  C   UNL     1       8.319  11.692  -6.873  1.00  0.00     0.002 A 
ATOM     80  C   UNL     1       8.794  10.477  -4.832  1.00  0.00     0.091 A 
ATOM     81  F   UNL     1       9.091   8.111  -4.931  1.00  0.00    -0.205 F 
ATOM     82  C   UNL     1       8.558  11.687  -5.502  1.00  0.00     0.022 A 
BRANCH  80  83
ATOM     83  S   UNL     1       8.958  10.548  -3.044  1.00  0.00     0.127 S 
ATOM     84  O   UNL     1      10.284  11.139  -2.888  1.00  0.00    -0.237 OA
ATOM     85  O   UNL     1       7.845  11.423  -2.672  1.00  0.00    -0.237 OA
ATOM     86  O   UNL     1       8.817   9.174  -2.582  1.00  0.00    -0.744 OA
ENDBRANCH  80  83
ENDBRANCH  52  76
BRANCH  64  87
ATOM     87  C   UNL     1      12.469   6.680 -12.105  1.00  0.00     0.023 A 
ATOM     88  C   UNL     1      13.735   6.756 -11.492  1.00  0.00     0.012 A 
ATOM     89  C   UNL     1      12.334   7.029 -13.463  1.00  0.00     0.148 A 
ATOM     90  C   UNL     1      14.843   7.200 -12.212  1.00  0.00     0.002 A 
ATOM     91  C   UNL     1      13.452   7.423 -14.187  1.00  0.00     0.091 A 
ATOM     92  F   UNL     1      11.116   6.965 -14.022  1.00  0.00    -0.205 F 
ATOM     93  C   UNL     1      14.705   7.520 -13.561  1.00  0.00     0.022 A 
BRANCH  91  94
ATOM     94  S   UNL     1      13.387   7.759 -15.951  1.00  0.00     0.127 S 
ATOM     95  O   UNL     1      13.534   9.213 -15.982  1.00  0.00    -0.237 OA
ATOM     96  O   UNL     1      14.546   7.018 -16.450  1.00  0.00    -0.237 OA
ATOM     97  O   UNL     1      12.102   7.250 -16.410  1.00  0.00    -0.744 OA
ENDBRANCH  91  94
ENDBRANCH  64  87
ENDBRANCH  38  39
ENDBRANCH  30  33
ENDBRANCH  28  29
ENDBRANCH  27  28
ENDBRANCH   1  27
TORSDOF 16
