REMARK SMILES C[C@@H](C(=O)NCCCNC(=O)c1ccc(-c2c3nc(c(-c4cccc(S(=O)(=O)[O-])c4F)c4ccc([nH]4)c(-c4cccc(S(=O)(=O)[O-])c4F)c4nc(c(-c5cccc(S(=O)(=O)[O-])c5F)c5ccc2[nH]5)C=C4)C=C3)cc1)c1ccc(-c2ccccc2)c(F)c1
REMARK SMILES IDX 7 1 6 2 5 3 3 4 4 5 2 7 1 8 75 9 76 10 87 11 77 12 85 13
REMARK SMILES IDX 78 14 86 15 79 16 80 17 84 18 81 19 83 20 82 21 8 22 9 23
REMARK SMILES IDX 10 24 11 26 12 27 13 28 74 29 14 30 73 31 15 32 16 33 17 34
REMARK SMILES IDX 67 35 18 36 72 37 66 38 68 39 19 40 71 41 65 42 64 43 20 45
REMARK SMILES IDX 52 46 32 47 51 48 33 49 36 50 50 51 69 52 34 53 35 54 49 56
REMARK SMILES IDX 70 57 37 58 21 59 22 60 30 61 23 62 25 63 31 64 24 65 26 66
REMARK SMILES IDX 27 67 28 68 29 69 53 70 54 71 62 72 55 73 57 74 63 75 56 76
REMARK SMILES IDX 58 77 59 78 60 79 61 80 38 81 39 82 47 83 40 84 42 85 48 86
REMARK SMILES IDX 41 87 43 88 44 89 45 90 46 91
REMARK H PARENT 5 6 9 25 68 44 36 55
REMARK Flexibility Score: inf
ROOT
ATOM      1  C   UNL     1       4.244   0.611   1.083  1.00  0.00     0.042 C 
ENDROOT
BRANCH   1   2
ATOM      2  C   UNL     1       3.369  -0.292   1.947  1.00  0.00     0.117 C 
BRANCH   2   3
ATOM      3  N   UNL     1       2.336   0.456   2.637  1.00  0.00    -0.356 N 
ATOM      4  C   UNL     1       1.000   0.565   2.390  1.00  0.00     0.227 C 
ATOM      5  O   UNL     1       0.371   1.320   3.135  1.00  0.00    -0.274 OA
ATOM      6  H   UNL     1       2.653   0.971   3.414  1.00  0.00     0.163 HD
BRANCH   4   7
ATOM      7  C   UNL     1       0.345  -0.259   1.266  1.00  0.00     0.105 C 
ATOM      8  C   UNL     1       0.738   0.235  -0.128  1.00  0.00     0.023 C 
BRANCH   7   9
ATOM      9  C   UNL     1      -1.177  -0.291   1.369  1.00  0.00    -0.033 A 
ATOM     10  C   UNL     1      -1.931   0.891   1.317  1.00  0.00     0.005 A 
ATOM     11  C   UNL     1      -1.859  -1.508   1.485  1.00  0.00     0.044 A 
ATOM     12  C   UNL     1      -3.325   0.859   1.392  1.00  0.00     0.012 A 
ATOM     13  C   UNL     1      -3.254  -1.531   1.554  1.00  0.00     0.131 A 
ATOM     14  C   UNL     1      -4.018  -0.356   1.508  1.00  0.00     0.017 A 
ATOM     15  F   UNL     1      -3.857  -2.727   1.657  1.00  0.00    -0.206 F 
BRANCH  14  16
ATOM     16  C   UNL     1      -5.488  -0.365   1.582  1.00  0.00    -0.015 A 
ATOM     17  C   UNL     1      -6.260   0.322   0.628  1.00  0.00     0.009 A 
ATOM     18  C   UNL     1      -6.162  -1.024   2.622  1.00  0.00     0.009 A 
ATOM     19  C   UNL     1      -7.653   0.358   0.717  1.00  0.00     0.001 A 
ATOM     20  C   UNL     1      -7.556  -0.989   2.713  1.00  0.00     0.001 A 
ATOM     21  C   UNL     1      -8.300  -0.295   1.762  1.00  0.00     0.000 A 
ENDBRANCH  14  16
ENDBRANCH   7   9
ENDBRANCH   4   7
ENDBRANCH   2   3
ENDBRANCH   1   2
BRANCH   1  22
ATOM     22  C   UNL     1       4.985   1.696   1.858  1.00  0.00     0.118 C 
BRANCH  22  23
ATOM     23  N   UNL     1       5.977   1.157   2.779  1.00  0.00    -0.352 N 
ATOM     24  C   UNL     1       7.327   1.408   2.845  1.00  0.00     0.251 C 
ATOM     25  H   UNL     1       5.631   0.523   3.449  1.00  0.00     0.163 HD
ATOM     26  O   UNL     1       8.041   0.736   3.584  1.00  0.00    -0.269 OA
BRANCH  24  27
ATOM     27  C   UNL     1       7.916   2.473   2.007  1.00  0.00     0.039 A 
ATOM     28  C   UNL     1       9.072   2.202   1.269  1.00  0.00     0.014 A 
ATOM     29  C   UNL     1       7.317   3.733   1.941  1.00  0.00     0.014 A 
ATOM     30  C   UNL     1       9.587   3.174   0.406  1.00  0.00     0.010 A 
ATOM     31  C   UNL     1       7.787   4.671   1.030  1.00  0.00     0.010 A 
ATOM     32  C   UNL     1       8.927   4.403   0.255  1.00  0.00    -0.014 A 
BRANCH  32  33
ATOM     33  C   UNL     1       9.389   5.440  -0.703  1.00  0.00     0.031 A 
ATOM     34  C   UNL     1       9.803   6.790  -0.189  1.00  0.00     0.074 A 
ATOM     35  C   UNL     1       9.289   5.222  -2.028  1.00  0.00     0.049 A 
ATOM     36  N   UNL     1      10.042   7.890  -0.853  1.00  0.00    -0.248 NA
ATOM     37  C   UNL     1       9.923   6.930   1.272  1.00  0.00     0.031 C 
ATOM     38  C   UNL     1       8.833   3.977  -2.648  1.00  0.00     0.029 A 
ATOM     39  N   UNL     1       9.513   6.062  -3.091  1.00  0.00    -0.354 N 
ATOM     40  C   UNL     1      10.281   8.865   0.107  1.00  0.00     0.074 A 
ATOM     41  C   UNL     1      10.138   8.230   1.400  1.00  0.00     0.031 C 
ATOM     42  C   UNL     1       8.784   4.142  -3.979  1.00  0.00     0.029 A 
ATOM     43  C   UNL     1       9.169   5.513  -4.305  1.00  0.00     0.049 A 
ATOM     44  H   UNL     1       9.883   6.969  -2.995  1.00  0.00     0.167 HD
ATOM     45  C   UNL     1      10.613  10.166  -0.069  1.00  0.00     0.034 A 
ATOM     46  C   UNL     1       9.139   6.057  -5.538  1.00  0.00     0.034 A 
ATOM     47  C   UNL     1      10.809  10.775  -1.356  1.00  0.00     0.049 A 
ATOM     48  C   UNL     1       9.570   7.487  -5.719  1.00  0.00     0.074 A 
ATOM     49  C   UNL     1      11.242  12.057  -1.644  1.00  0.00     0.029 A 
ATOM     50  N   UNL     1      10.581  10.146  -2.570  1.00  0.00    -0.354 N 
ATOM     51  N   UNL     1       9.939   8.355  -4.809  1.00  0.00    -0.248 NA
ATOM     52  C   UNL     1       9.617   8.003  -7.095  1.00  0.00     0.031 C 
ATOM     53  C   UNL     1      11.264  12.206  -3.035  1.00  0.00     0.029 A 
ATOM     54  C   UNL     1      10.863  11.011  -3.612  1.00  0.00     0.049 A 
ATOM     55  H   UNL     1      10.265   9.220  -2.676  1.00  0.00     0.167 HD
ATOM     56  C   UNL     1      10.297   9.506  -5.501  1.00  0.00     0.074 A 
ATOM     57  C   UNL     1      10.109   9.222  -6.909  1.00  0.00     0.031 C 
ATOM     58  C   UNL     1      10.733  10.693  -5.012  1.00  0.00     0.034 A 
BRANCH  45  59
ATOM     59  C   UNL     1      10.831  11.001   1.165  1.00  0.00     0.023 A 
ATOM     60  C   UNL     1      11.967  10.770   1.969  1.00  0.00     0.012 A 
ATOM     61  C   UNL     1       9.932  12.025   1.520  1.00  0.00     0.148 A 
ATOM     62  C   UNL     1      12.179  11.512   3.130  1.00  0.00     0.002 A 
ATOM     63  C   UNL     1      10.176  12.791   2.655  1.00  0.00     0.091 A 
ATOM     64  F   UNL     1       8.844  12.216   0.761  1.00  0.00    -0.205 F 
ATOM     65  C   UNL     1      11.289  12.527   3.468  1.00  0.00     0.022 A 
BRANCH  63  66
ATOM     66  S   UNL     1       9.124  14.173   3.117  1.00  0.00     0.127 S 
ATOM     67  O   UNL     1       8.300  13.579   4.168  1.00  0.00    -0.237 OA
ATOM     68  O   UNL     1      10.095  15.161   3.591  1.00  0.00    -0.237 OA
ATOM     69  O   UNL     1       8.423  14.557   1.901  1.00  0.00    -0.744 OA
ENDBRANCH  63  66
ENDBRANCH  45  59
BRANCH  46  70
ATOM     70  C   UNL     1       8.737   5.213  -6.698  1.00  0.00     0.023 A 
ATOM     71  C   UNL     1       9.721   4.775  -7.605  1.00  0.00     0.012 A 
ATOM     72  C   UNL     1       7.407   4.779  -6.862  1.00  0.00     0.148 A 
ATOM     73  C   UNL     1       9.385   3.932  -8.665  1.00  0.00     0.002 A 
ATOM     74  C   UNL     1       7.089   3.897  -7.889  1.00  0.00     0.091 A 
ATOM     75  F   UNL     1       6.486   5.213  -5.990  1.00  0.00    -0.205 F 
ATOM     76  C   UNL     1       8.073   3.484  -8.800  1.00  0.00     0.022 A 
BRANCH  74  77
ATOM     77  S   UNL     1       5.461   3.155  -8.059  1.00  0.00     0.127 S 
ATOM     78  O   UNL     1       4.990   3.749  -9.307  1.00  0.00    -0.237 OA
ATOM     79  O   UNL     1       5.787   1.731  -8.138  1.00  0.00    -0.237 OA
ATOM     80  O   UNL     1       4.725   3.537  -6.861  1.00  0.00    -0.744 OA
ENDBRANCH  74  77
ENDBRANCH  46  70
BRANCH  58  81
ATOM     81  C   UNL     1      11.090  11.776  -5.995  1.00  0.00     0.023 A 
ATOM     82  C   UNL     1      10.070  12.502  -6.638  1.00  0.00     0.012 A 
ATOM     83  C   UNL     1      12.436  12.152  -6.183  1.00  0.00     0.148 A 
ATOM     84  C   UNL     1      10.385  13.580  -7.466  1.00  0.00     0.002 A 
ATOM     85  C   UNL     1      12.739  13.253  -6.973  1.00  0.00     0.091 A 
ATOM     86  F   UNL     1      13.390  11.433  -5.573  1.00  0.00    -0.205 F 
ATOM     87  C   UNL     1      11.716  13.964  -7.622  1.00  0.00     0.022 A 
BRANCH  85  88
ATOM     88  S   UNL     1      14.413  13.880  -7.153  1.00  0.00     0.127 S 
ATOM     89  O   UNL     1      14.712  13.536  -8.542  1.00  0.00    -0.237 OA
ATOM     90  O   UNL     1      14.237  15.311  -6.903  1.00  0.00    -0.237 OA
ATOM     91  O   UNL     1      15.213  13.185  -6.153  1.00  0.00    -0.744 OA
ENDBRANCH  85  88
ENDBRANCH  58  81
ENDBRANCH  32  33
ENDBRANCH  24  27
ENDBRANCH  22  23
ENDBRANCH   1  22
TORSDOF 15
