REMARK SMILES O=C(NCCCNC(=O)c1cc(/N=C/c2ccc([N+](=O)[O-])cc2)ccc1O)c1ccc(-c2c3nc(c(-c4cccc(S(=O)(=O)[O-])c4F)c4ccc([nH]4)c(-c4cccc(S(=O)(=O)[O-])c4F)c4nc(c(-c5cccc(S(=O)(=O)[O-])c5F)c5ccc2[nH]5)C=C4)C=C3)cc1
REMARK SMILES IDX 5 1 4 2 3 3 1 4 2 5 28 7 29 8 90 9 30 10 89 11 31 12 32 13
REMARK SMILES IDX 33 14 83 15 34 16 88 17 82 18 84 19 35 20 87 21 81 22 80 23
REMARK SMILES IDX 36 25 68 26 48 27 67 28 49 29 52 30 66 31 85 32 50 33 51 34
REMARK SMILES IDX 65 36 86 37 53 38 37 39 38 40 46 41 39 42 41 43 47 44 40 45
REMARK SMILES IDX 42 46 43 47 44 48 45 49 69 50 70 51 78 52 71 53 73 54 79 55
REMARK SMILES IDX 72 56 74 57 75 58 76 59 77 60 54 61 55 62 63 63 56 64 58 65
REMARK SMILES IDX 64 66 57 67 59 68 60 69 61 70 62 71 6 72 7 73 8 74 9 76
REMARK SMILES IDX 10 77 11 78 26 79 12 80 25 81 24 82 27 83 13 85 14 86 15 87
REMARK SMILES IDX 16 88 23 89 17 90 22 91 18 92 19 93 20 94 21 95
REMARK H PARENT 3 6 84 24 52 35 7 75 27 84
REMARK Flexibility Score: inf
ROOT
ATOM      1  C   UNL     1       4.888  -0.157  -2.491  1.00  0.00     0.042 C 
ENDROOT
BRANCH   1   2
ATOM      2  C   UNL     1       4.535   0.624  -1.235  1.00  0.00     0.118 C 
BRANCH   2   3
ATOM      3  N   UNL     1       3.109   0.583  -0.927  1.00  0.00    -0.352 N 
ATOM      4  O   UNL     1       1.200  -0.104   0.041  1.00  0.00    -0.269 OA
ATOM      5  C   UNL     1       2.428  -0.047   0.088  1.00  0.00     0.251 C 
ATOM      6  H   UNL     1       2.540   1.092  -1.549  1.00  0.00     0.163 HD
BRANCH   5   7
ATOM      7  C   UNL     1       3.159  -0.676   1.212  1.00  0.00     0.039 A 
ATOM      8  C   UNL     1       4.289  -0.069   1.755  1.00  0.00     0.014 A 
ATOM      9  C   UNL     1       2.698  -1.884   1.748  1.00  0.00     0.014 A 
ATOM     10  C   UNL     1       5.066  -0.754   2.680  1.00  0.00     0.010 A 
ATOM     11  C   UNL     1       3.417  -2.514   2.773  1.00  0.00     0.010 A 
ATOM     12  C   UNL     1       4.632  -1.976   3.218  1.00  0.00    -0.014 A 
BRANCH  12  13
ATOM     13  C   UNL     1       5.446  -2.606   4.293  1.00  0.00     0.031 A 
ATOM     14  C   UNL     1       6.069  -3.965   4.124  1.00  0.00     0.074 A 
ATOM     15  C   UNL     1       5.664  -1.900   5.421  1.00  0.00     0.049 A 
ATOM     16  N   UNL     1       6.883  -4.596   4.932  1.00  0.00    -0.248 NA
ATOM     17  C   UNL     1       5.734  -4.720   2.907  1.00  0.00     0.031 C 
ATOM     18  C   UNL     1       5.061  -0.599   5.727  1.00  0.00     0.029 A 
ATOM     19  N   UNL     1       6.462  -2.155   6.506  1.00  0.00    -0.354 N 
ATOM     20  C   UNL     1       7.135  -5.829   4.341  1.00  0.00     0.074 A 
ATOM     21  C   UNL     1       6.372  -5.866   3.111  1.00  0.00     0.031 C 
ATOM     22  C   UNL     1       5.550  -0.147   6.889  1.00  0.00     0.029 A 
ATOM     23  C   UNL     1       6.457  -1.145   7.441  1.00  0.00     0.049 A 
ATOM     24  H   UNL     1       6.988  -2.982   6.607  1.00  0.00     0.167 HD
ATOM     25  C   UNL     1       7.944  -6.827   4.771  1.00  0.00     0.034 A 
ATOM     26  C   UNL     1       7.106  -1.031   8.615  1.00  0.00     0.034 A 
ATOM     27  C   UNL     1       8.729  -6.771   5.977  1.00  0.00     0.049 A 
ATOM     28  C   UNL     1       8.042  -2.126   9.033  1.00  0.00     0.074 A 
ATOM     29  C   UNL     1       9.604  -7.720   6.480  1.00  0.00     0.029 A 
ATOM     30  N   UNL     1       8.741  -5.708   6.867  1.00  0.00    -0.354 N 
ATOM     31  N   UNL     1       8.351  -3.231   8.398  1.00  0.00    -0.248 NA
ATOM     32  C   UNL     1       8.741  -1.948  10.312  1.00  0.00     0.031 C 
ATOM     33  C   UNL     1      10.140  -7.231   7.676  1.00  0.00     0.029 A 
ATOM     34  C   UNL     1       9.610  -5.974   7.913  1.00  0.00     0.049 A 
ATOM     35  H   UNL     1       8.210  -4.885   6.770  1.00  0.00     0.167 HD
ATOM     36  C   UNL     1       9.286  -3.877   9.196  1.00  0.00     0.074 A 
ATOM     37  C   UNL     1       9.527  -3.016  10.337  1.00  0.00     0.031 C 
ATOM     38  C   UNL     1       9.870  -5.087   9.018  1.00  0.00     0.034 A 
BRANCH  25  39
ATOM     39  C   UNL     1       8.075  -8.052   3.901  1.00  0.00     0.023 A 
ATOM     40  C   UNL     1       8.842  -7.978   2.720  1.00  0.00     0.012 A 
ATOM     41  C   UNL     1       7.515  -9.287   4.283  1.00  0.00     0.148 A 
ATOM     42  C   UNL     1       9.033  -9.106   1.923  1.00  0.00     0.002 A 
ATOM     43  C   UNL     1       7.739 -10.416   3.502  1.00  0.00     0.091 A 
ATOM     44  F   UNL     1       6.772  -9.335   5.398  1.00  0.00    -0.205 F 
ATOM     45  C   UNL     1       8.492 -10.326   2.319  1.00  0.00     0.022 A 
BRANCH  43  46
ATOM     46  S   UNL     1       7.145 -12.049   3.961  1.00  0.00     0.127 S 
ATOM     47  O   UNL     1       6.077 -12.259   2.983  1.00  0.00    -0.237 OA
ATOM     48  O   UNL     1       8.331 -12.880   3.753  1.00  0.00    -0.237 OA
ATOM     49  O   UNL     1       6.713 -11.944   5.347  1.00  0.00    -0.744 OA
ENDBRANCH  43  46
ENDBRANCH  25  39
BRANCH  26  50
ATOM     50  C   UNL     1       6.919   0.193   9.442  1.00  0.00     0.023 A 
ATOM     51  C   UNL     1       7.980   1.107   9.590  1.00  0.00     0.012 A 
ATOM     52  C   UNL     1       5.675   0.486  10.034  1.00  0.00     0.148 A 
ATOM     53  C   UNL     1       7.810   2.278  10.330  1.00  0.00     0.002 A 
ATOM     54  C   UNL     1       5.494   1.684  10.714  1.00  0.00     0.091 A 
ATOM     55  F   UNL     1       4.681  -0.405   9.904  1.00  0.00    -0.205 F 
ATOM     56  C   UNL     1       6.565   2.574  10.878  1.00  0.00     0.022 A 
BRANCH  54  57
ATOM     57  S   UNL     1       3.873   2.195  11.296  1.00  0.00     0.127 S 
ATOM     58  O   UNL     1       3.920   1.801  12.700  1.00  0.00    -0.237 OA
ATOM     59  O   UNL     1       3.898   3.640  11.060  1.00  0.00    -0.237 OA
ATOM     60  O   UNL     1       2.926   1.475  10.455  1.00  0.00    -0.744 OA
ENDBRANCH  54  57
ENDBRANCH  26  50
BRANCH  38  61
ATOM     61  C   UNL     1      10.825  -5.549  10.084  1.00  0.00     0.023 A 
ATOM     62  C   UNL     1      10.319  -5.974  11.329  1.00  0.00     0.012 A 
ATOM     63  C   UNL     1      12.211  -5.602   9.846  1.00  0.00     0.148 A 
ATOM     64  C   UNL     1      11.181  -6.410  12.334  1.00  0.00     0.002 A 
ATOM     65  C   UNL     1      13.061  -6.078  10.838  1.00  0.00     0.091 A 
ATOM     66  F   UNL     1      12.677  -5.171   8.664  1.00  0.00    -0.205 F 
ATOM     67  C   UNL     1      12.550  -6.471  12.085  1.00  0.00     0.022 A 
BRANCH  65  68
ATOM     68  S   UNL     1      14.827  -6.266  10.569  1.00  0.00     0.127 S 
ATOM     69  O   UNL     1      15.360  -5.084  11.243  1.00  0.00    -0.237 OA
ATOM     70  O   UNL     1      15.115  -7.534  11.243  1.00  0.00    -0.237 OA
ATOM     71  O   UNL     1      15.004  -6.303   9.123  1.00  0.00    -0.744 OA
ENDBRANCH  65  68
ENDBRANCH  38  61
ENDBRANCH  12  13
ENDBRANCH   5   7
ENDBRANCH   2   3
ENDBRANCH   1   2
BRANCH   1  72
ATOM     72  C   UNL     1       4.324   0.455  -3.763  1.00  0.00     0.118 C 
BRANCH  72  73
ATOM     73  N   UNL     1       4.905   1.757  -4.059  1.00  0.00    -0.352 N 
ATOM     74  C   UNL     1       5.752   2.112  -5.080  1.00  0.00     0.255 C 
ATOM     75  H   UNL     1       4.658   2.482  -3.441  1.00  0.00     0.163 HD
ATOM     76  O   UNL     1       6.229   3.243  -5.130  1.00  0.00    -0.269 OA
BRANCH  74  77
ATOM     77  C   UNL     1       6.143   1.110  -6.088  1.00  0.00     0.083 A 
ATOM     78  C   UNL     1       7.505   0.804  -6.200  1.00  0.00     0.046 A 
ATOM     79  C   UNL     1       5.207   0.461  -6.899  1.00  0.00     0.128 A 
ATOM     80  C   UNL     1       7.932  -0.195  -7.076  1.00  0.00     0.064 A 
ATOM     81  C   UNL     1       5.617  -0.558  -7.752  1.00  0.00     0.049 A 
ATOM     82  C   UNL     1       6.972  -0.896  -7.820  1.00  0.00     0.032 A 
BRANCH  79  83
ATOM     83  O   UNL     1       3.884   0.800  -6.838  1.00  0.00    -0.507 OA
ATOM     84  H   UNL     1       3.602   1.486  -6.264  1.00  0.00     0.293 HD
ENDBRANCH  79  83
BRANCH  80  85
ATOM     85  N   UNL     1       9.302  -0.498  -7.125  1.00  0.00    -0.256 NA
ATOM     86  C   UNL     1       9.852  -0.671  -8.283  1.00  0.00     0.119 C 
BRANCH  86  87
ATOM     87  C   UNL     1      11.290  -0.968  -8.430  1.00  0.00    -0.007 A 
ATOM     88  C   UNL     1      11.785  -1.253  -9.707  1.00  0.00     0.017 A 
ATOM     89  C   UNL     1      12.150  -0.939  -7.326  1.00  0.00     0.017 A 
ATOM     90  C   UNL     1      13.149  -1.497  -9.886  1.00  0.00     0.086 A 
ATOM     91  C   UNL     1      13.517  -1.178  -7.499  1.00  0.00     0.086 A 
ATOM     92  C   UNL     1      14.013  -1.450  -8.782  1.00  0.00     0.269 A 
BRANCH  92  93
ATOM     93  N   UNL     1      15.451  -1.671  -8.979  1.00  0.00     0.062 N 
ATOM     94  O   UNL     1      15.843  -1.908 -10.131  1.00  0.00    -0.258 OA
ATOM     95  O   UNL     1      16.190  -1.597  -7.987  1.00  0.00    -0.258 OA
ENDBRANCH  92  93
ENDBRANCH  86  87
ENDBRANCH  80  85
ENDBRANCH  74  77
ENDBRANCH  72  73
ENDBRANCH   1  72
TORSDOF 17
