REMARK SMILES CCc1c(C(=O)NCCCNC(=O)c2ccc(-c3c4nc(c(-c5cccc(S(=O)(=O)[O-])c5F)c5ccc([nH]5)c(-c5cccc(S(=O)(=O)[O-])c5F)c5nc(c(-c6cccc(S(=O)(=O)[O-])c6F)c6ccc3[nH]6)C=C5)C=C4)cc2)nnn1-c1ccc(OC)cc1
REMARK SMILES IDX 9 1 8 2 7 3 5 4 6 5 4 7 3 8 79 9 77 10 78 11 2 12 1 13 80 14
REMARK SMILES IDX 81 15 87 16 82 17 86 18 83 19 84 20 85 21 10 22 11 23 12 24
REMARK SMILES IDX 13 26 14 27 15 28 76 29 16 30 75 31 17 32 18 33 19 34 69 35
REMARK SMILES IDX 20 36 74 37 68 38 70 39 21 40 73 41 67 42 66 43 22 45 54 46
REMARK SMILES IDX 34 47 53 48 35 49 38 50 52 51 71 52 36 53 37 54 51 56 72 57
REMARK SMILES IDX 39 58 23 59 24 60 32 61 25 62 27 63 33 64 26 65 28 66 29 67
REMARK SMILES IDX 30 68 31 69 55 70 56 71 64 72 57 73 59 74 65 75 58 76 60 77
REMARK SMILES IDX 61 78 62 79 63 80 40 81 41 82 49 83 42 84 44 85 50 86 43 87
REMARK SMILES IDX 45 88 46 89 47 90 48 91
REMARK H PARENT 7 6 11 25 70 44 38 55
REMARK Flexibility Score: inf
ROOT
ATOM      1  C   UNL     1       1.634   3.426  -0.751  1.00  0.00     0.042 C 
ENDROOT
BRANCH   1   2
ATOM      2  C   UNL     1       0.756   3.642  -1.996  1.00  0.00     0.118 C 
BRANCH   2   3
ATOM      3  N   UNL     1       1.473   3.413  -3.224  1.00  0.00    -0.351 N 
ATOM      4  C   UNL     1       1.735   2.308  -3.989  1.00  0.00     0.273 C 
ATOM      5  O   UNL     1       2.220   2.576  -5.091  1.00  0.00    -0.267 OA
ATOM      6  H   UNL     1       1.862   4.237  -3.597  1.00  0.00     0.163 HD
BRANCH   4   7
ATOM      7  C   UNL     1       1.469   0.904  -3.633  1.00  0.00     0.174 A 
ATOM      8  C   UNL     1       0.886   0.181  -2.586  1.00  0.00     0.077 A 
ATOM      9  N   UNL     1       0.911  -1.132  -3.051  1.00  0.00    -0.217 N 
ATOM     10  N   UNL     1       1.947  -0.025  -4.552  1.00  0.00    -0.124 NA
ATOM     11  N   UNL     1       1.696  -1.244  -4.126  1.00  0.00    -0.061 NA
BRANCH   8  12
ATOM     12  C   UNL     1       0.369   0.464  -1.217  1.00  0.00     0.055 C 
ATOM     13  C   UNL     1       1.166  -0.186  -0.090  1.00  0.00     0.011 C 
ENDBRANCH   8  12
BRANCH   9  14
ATOM     14  C   UNL     1       0.291  -2.268  -2.493  1.00  0.00     0.067 A 
ATOM     15  C   UNL     1       1.016  -3.454  -2.381  1.00  0.00     0.032 A 
ATOM     16  C   UNL     1      -1.011  -2.180  -1.990  1.00  0.00     0.032 A 
ATOM     17  C   UNL     1       0.461  -4.519  -1.671  1.00  0.00     0.048 A 
ATOM     18  C   UNL     1      -1.558  -3.249  -1.287  1.00  0.00     0.048 A 
ATOM     19  C   UNL     1      -0.816  -4.417  -1.108  1.00  0.00     0.119 A 
BRANCH  19  20
ATOM     20  O   UNL     1      -1.232  -5.519  -0.412  1.00  0.00    -0.497 OA
ATOM     21  C   UNL     1      -2.503  -5.421   0.218  1.00  0.00     0.278 C 
ENDBRANCH  19  20
ENDBRANCH   9  14
ENDBRANCH   4   7
ENDBRANCH   2   3
ENDBRANCH   1   2
BRANCH   1  22
ATOM     22  C   UNL     1       2.054   4.736  -0.138  1.00  0.00     0.118 C 
BRANCH  22  23
ATOM     23  N   UNL     1       0.899   5.417   0.489  1.00  0.00    -0.352 N 
ATOM     24  C   UNL     1       0.851   6.660   1.106  1.00  0.00     0.251 C 
ATOM     25  H   UNL     1       0.049   4.921   0.466  1.00  0.00     0.163 HD
ATOM     26  O   UNL     1      -0.063   6.970   1.846  1.00  0.00    -0.269 OA
BRANCH  24  27
ATOM     27  C   UNL     1       1.949   7.589   0.805  1.00  0.00     0.039 A 
ATOM     28  C   UNL     1       2.594   8.368   1.767  1.00  0.00     0.014 A 
ATOM     29  C   UNL     1       2.412   7.527  -0.496  1.00  0.00     0.014 A 
ATOM     30  C   UNL     1       3.761   9.024   1.388  1.00  0.00     0.010 A 
ATOM     31  C   UNL     1       3.718   7.809  -0.708  1.00  0.00     0.010 A 
ATOM     32  C   UNL     1       4.316   8.720   0.137  1.00  0.00    -0.014 A 
BRANCH  32  33
ATOM     33  C   UNL     1       5.555   9.277  -0.363  1.00  0.00     0.031 A 
ATOM     34  C   UNL     1       6.722   9.018   0.507  1.00  0.00     0.074 A 
ATOM     35  C   UNL     1       5.653   9.726  -1.637  1.00  0.00     0.049 A 
ATOM     36  N   UNL     1       7.325   9.870   1.265  1.00  0.00    -0.248 NA
ATOM     37  C   UNL     1       7.152   7.626   0.716  1.00  0.00     0.031 C 
ATOM     38  C   UNL     1       4.649   9.690  -2.719  1.00  0.00     0.029 A 
ATOM     39  N   UNL     1       6.755  10.154  -2.295  1.00  0.00    -0.354 N 
ATOM     40  C   UNL     1       8.393   9.174   1.819  1.00  0.00     0.074 A 
ATOM     41  C   UNL     1       8.080   7.778   1.664  1.00  0.00     0.031 C 
ATOM     42  C   UNL     1       5.270   9.788  -3.915  1.00  0.00     0.029 A 
ATOM     43  C   UNL     1       6.669  10.081  -3.682  1.00  0.00     0.049 A 
ATOM     44  H   UNL     1       7.555  10.489  -1.829  1.00  0.00     0.167 HD
ATOM     45  C   UNL     1       9.575   9.800   2.076  1.00  0.00     0.034 A 
ATOM     46  C   UNL     1       7.704  10.185  -4.552  1.00  0.00     0.034 A 
ATOM     47  C   UNL     1       9.443  11.234   1.958  1.00  0.00     0.049 A 
ATOM     48  C   UNL     1       8.800  10.870  -3.819  1.00  0.00     0.074 A 
ATOM     49  C   UNL     1       8.614  12.185   2.523  1.00  0.00     0.029 A 
ATOM     50  N   UNL     1       9.944  11.810   0.811  1.00  0.00    -0.354 N 
ATOM     51  N   UNL     1       8.705  12.099  -3.385  1.00  0.00    -0.248 NA
ATOM     52  C   UNL     1       9.771  10.034  -3.128  1.00  0.00     0.031 C 
ATOM     53  C   UNL     1       8.256  13.040   1.437  1.00  0.00     0.029 A 
ATOM     54  C   UNL     1       8.962  12.624   0.307  1.00  0.00     0.049 A 
ATOM     55  H   UNL     1      10.838  11.665   0.427  1.00  0.00     0.167 HD
ATOM     56  C   UNL     1       9.235  12.052  -2.101  1.00  0.00     0.074 A 
ATOM     57  C   UNL     1       9.962  10.781  -2.036  1.00  0.00     0.031 C 
ATOM     58  C   UNL     1       8.778  12.873  -1.107  1.00  0.00     0.034 A 
BRANCH  45  59
ATOM     59  C   UNL     1      10.935   9.146   2.038  1.00  0.00     0.023 A 
ATOM     60  C   UNL     1      12.022   9.908   2.521  1.00  0.00     0.012 A 
ATOM     61  C   UNL     1      11.245   7.974   1.313  1.00  0.00     0.148 A 
ATOM     62  C   UNL     1      13.346   9.557   2.241  1.00  0.00     0.002 A 
ATOM     63  C   UNL     1      12.563   7.586   1.106  1.00  0.00     0.091 A 
ATOM     64  F   UNL     1      10.280   7.292   0.692  1.00  0.00    -0.205 F 
ATOM     65  C   UNL     1      13.617   8.391   1.537  1.00  0.00     0.022 A 
BRANCH  63  66
ATOM     66  S   UNL     1      12.969   6.065   0.238  1.00  0.00     0.127 S 
ATOM     67  O   UNL     1      13.443   6.580  -1.043  1.00  0.00    -0.237 OA
ATOM     68  O   UNL     1      14.005   5.498   1.103  1.00  0.00    -0.237 OA
ATOM     69  O   UNL     1      11.733   5.295   0.204  1.00  0.00    -0.744 OA
ENDBRANCH  63  66
ENDBRANCH  45  59
BRANCH  46  70
ATOM     70  C   UNL     1       7.923   9.473  -5.836  1.00  0.00     0.023 A 
ATOM     71  C   UNL     1       8.887   9.946  -6.748  1.00  0.00     0.012 A 
ATOM     72  C   UNL     1       7.393   8.179  -6.049  1.00  0.00     0.148 A 
ATOM     73  C   UNL     1       9.331   9.149  -7.814  1.00  0.00     0.002 A 
ATOM     74  C   UNL     1       7.832   7.394  -7.112  1.00  0.00     0.091 A 
ATOM     75  F   UNL     1       6.529   7.681  -5.155  1.00  0.00    -0.205 F 
ATOM     76  C   UNL     1       8.810   7.871  -7.991  1.00  0.00     0.022 A 
BRANCH  74  77
ATOM     77  S   UNL     1       7.219   5.724  -7.379  1.00  0.00     0.127 S 
ATOM     78  O   UNL     1       6.929   5.735  -8.813  1.00  0.00    -0.237 OA
ATOM     79  O   UNL     1       8.371   4.916  -6.991  1.00  0.00    -0.237 OA
ATOM     80  O   UNL     1       6.041   5.603  -6.529  1.00  0.00    -0.744 OA
ENDBRANCH  74  77
ENDBRANCH  46  70
BRANCH  58  81
ATOM     81  C   UNL     1       7.809  13.977  -1.462  1.00  0.00     0.023 A 
ATOM     82  C   UNL     1       6.520  13.721  -1.980  1.00  0.00     0.012 A 
ATOM     83  C   UNL     1       8.126  15.286  -1.067  1.00  0.00     0.148 A 
ATOM     84  C   UNL     1       5.580  14.747  -2.116  1.00  0.00     0.002 A 
ATOM     85  C   UNL     1       7.175  16.296  -1.163  1.00  0.00     0.091 A 
ATOM     86  F   UNL     1       9.349  15.515  -0.566  1.00  0.00    -0.205 F 
ATOM     87  C   UNL     1       5.903  16.033  -1.694  1.00  0.00     0.022 A 
BRANCH  85  88
ATOM     88  S   UNL     1       7.491  17.941  -0.522  1.00  0.00     0.127 S 
ATOM     89  O   UNL     1       7.680  18.713  -1.748  1.00  0.00    -0.237 OA
ATOM     90  O   UNL     1       6.254  18.239   0.204  1.00  0.00    -0.237 OA
ATOM     91  O   UNL     1       8.666  17.822   0.332  1.00  0.00    -0.744 OA
ENDBRANCH  85  88
ENDBRANCH  58  81
ENDBRANCH  32  33
ENDBRANCH  24  27
ENDBRANCH  22  23
ENDBRANCH   1  22
TORSDOF 16
