REMARK SMILES Cc1cc(Br)cc([N+](=O)[O-])c1OCCC(=O)NCCCNC(=O)c1ccc(-c2c3nc(c(-c4cccc(S(=O)(=O)[O-])c4F)c4ccc([nH]4)c(-c4cccc(S(=O)(=O)[O-])c4F)c4nc(c(-c5cccc(S(=O)(=O)[O-])c5F)c5ccc2[nH]5)C=C4)C=C3)cc1
REMARK SMILES IDX 18 1 17 2 15 3 16 4 14 6 13 7 12 8 11 9 1 10 2 11 3 12 4 13
REMARK SMILES IDX 7 14 5 15 6 16 8 17 9 18 10 19 19 20 20 21 21 22 22 23 23 25
REMARK SMILES IDX 24 26 25 27 86 28 26 29 85 30 27 31 28 32 29 33 79 34 30 35
REMARK SMILES IDX 84 36 78 37 80 38 31 39 83 40 77 41 76 42 32 44 64 45 44 46
REMARK SMILES IDX 63 47 45 48 48 49 62 50 81 51 46 52 47 53 61 55 82 56 49 57
REMARK SMILES IDX 33 58 34 59 42 60 35 61 37 62 43 63 36 64 38 65 39 66 40 67
REMARK SMILES IDX 41 68 65 69 66 70 74 71 67 72 69 73 75 74 68 75 70 76 71 77
REMARK SMILES IDX 72 78 73 79 50 80 51 81 59 82 52 83 54 84 60 85 53 86 55 87
REMARK SMILES IDX 56 88 57 89 58 90
REMARK H PARENT 17 5 21 24 80 43 48 54
REMARK Flexibility Score: inf
ROOT
ATOM      1  C   UNL     1      -2.405   0.821  -2.810  1.00  0.00     0.117 C 
ENDROOT
BRANCH   1   2
ATOM      2  N   UNL     1      -2.658  -0.536  -2.341  1.00  0.00    -0.356 N 
ATOM      3  C   UNL     1      -3.791  -1.111  -1.840  1.00  0.00     0.223 C 
ATOM      4  O   UNL     1      -3.819  -2.341  -1.743  1.00  0.00    -0.275 OA
ATOM      5  H   UNL     1      -1.882  -1.139  -2.394  1.00  0.00     0.163 HD
BRANCH   3   6
ATOM      6  C   UNL     1      -4.991  -0.286  -1.437  1.00  0.00     0.141 C 
BRANCH   6   7
ATOM      7  C   UNL     1      -5.125  -0.021   0.060  1.00  0.00     0.240 C 
BRANCH   7   8
ATOM      8  O   UNL     1      -4.063   0.744   0.592  1.00  0.00    -0.486 OA
BRANCH   8   9
ATOM      9  C   UNL     1      -2.973   0.282   1.265  1.00  0.00     0.200 A 
ATOM     10  C   UNL     1      -3.239  -2.341   1.188  1.00  0.00     0.049 C 
ATOM     11  C   UNL     1      -2.534  -1.041   1.452  1.00  0.00    -0.001 A 
ATOM     12  C   UNL     1      -1.228  -1.251   1.961  1.00  0.00     0.023 A 
ATOM     13  C   UNL     1      -0.398  -0.210   2.356  1.00  0.00     0.025 A 
ATOM     14  C   UNL     1      -2.120   1.327   1.735  1.00  0.00     0.312 A 
ATOM     15  Br  UNL     1       1.334  -0.624   2.977  1.00  0.00    -0.051 Br
ATOM     16  C   UNL     1      -0.847   1.093   2.277  1.00  0.00     0.105 A 
BRANCH  14  17
ATOM     17  N   UNL     1      -2.493   2.734   1.541  1.00  0.00     0.066 N 
ATOM     18  O   UNL     1      -1.623   3.476   1.055  1.00  0.00    -0.258 OA
ATOM     19  O   UNL     1      -3.639   3.088   1.844  1.00  0.00    -0.258 OA
ENDBRANCH  14  17
ENDBRANCH   8   9
ENDBRANCH   7   8
ENDBRANCH   6   7
ENDBRANCH   3   6
ENDBRANCH   1   2
BRANCH   1  20
ATOM     20  C   UNL     1      -1.668   1.719  -1.814  1.00  0.00     0.042 C 
BRANCH  20  21
ATOM     21  C   UNL     1      -0.224   1.320  -1.460  1.00  0.00     0.118 C 
BRANCH  21  22
ATOM     22  N   UNL     1       0.753   2.188  -2.100  1.00  0.00    -0.352 N 
ATOM     23  C   UNL     1       1.617   3.154  -1.635  1.00  0.00     0.251 C 
ATOM     24  H   UNL     1       0.808   2.056  -3.074  1.00  0.00     0.163 HD
ATOM     25  O   UNL     1       2.165   3.851  -2.494  1.00  0.00    -0.269 OA
BRANCH  23  26
ATOM     26  C   UNL     1       1.958   3.414  -0.202  1.00  0.00     0.039 A 
ATOM     27  C   UNL     1       2.258   4.738   0.159  1.00  0.00     0.014 A 
ATOM     28  C   UNL     1       2.189   2.421   0.750  1.00  0.00     0.014 A 
ATOM     29  C   UNL     1       2.773   5.060   1.431  1.00  0.00     0.010 A 
ATOM     30  C   UNL     1       2.656   2.759   2.048  1.00  0.00     0.010 A 
ATOM     31  C   UNL     1       2.973   4.079   2.415  1.00  0.00    -0.014 A 
BRANCH  31  32
ATOM     32  C   UNL     1       3.505   4.450   3.783  1.00  0.00     0.031 A 
ATOM     33  C   UNL     1       4.765   3.828   4.369  1.00  0.00     0.074 A 
ATOM     34  C   UNL     1       2.854   5.356   4.552  1.00  0.00     0.049 A 
ATOM     35  N   UNL     1       5.370   4.091   5.507  1.00  0.00    -0.248 NA
ATOM     36  C   UNL     1       5.416   2.762   3.595  1.00  0.00     0.031 C 
ATOM     37  C   UNL     1       1.585   5.999   4.209  1.00  0.00     0.029 A 
ATOM     38  N   UNL     1       3.162   5.887   5.788  1.00  0.00    -0.354 N 
ATOM     39  C   UNL     1       6.444   3.207   5.599  1.00  0.00     0.074 A 
ATOM     40  C   UNL     1       6.384   2.374   4.416  1.00  0.00     0.031 C 
ATOM     41  C   UNL     1       1.237   6.848   5.189  1.00  0.00     0.029 A 
ATOM     42  C   UNL     1       2.237   6.798   6.253  1.00  0.00     0.049 A 
ATOM     43  H   UNL     1       3.970   5.639   6.293  1.00  0.00     0.167 HD
ATOM     44  C   UNL     1       7.411   3.103   6.549  1.00  0.00     0.034 A 
ATOM     45  C   UNL     1       2.181   7.517   7.396  1.00  0.00     0.034 A 
ATOM     46  C   UNL     1       7.525   3.948   7.714  1.00  0.00     0.049 A 
ATOM     47  C   UNL     1       3.290   7.425   8.412  1.00  0.00     0.074 A 
ATOM     48  C   UNL     1       8.535   3.970   8.664  1.00  0.00     0.029 A 
ATOM     49  N   UNL     1       6.604   4.906   8.100  1.00  0.00    -0.354 N 
ATOM     50  N   UNL     1       4.382   6.703   8.381  1.00  0.00    -0.248 NA
ATOM     51  C   UNL     1       3.179   8.283   9.604  1.00  0.00     0.031 C 
ATOM     52  C   UNL     1       8.206   4.915   9.643  1.00  0.00     0.029 A 
ATOM     53  C   UNL     1       7.015   5.515   9.278  1.00  0.00     0.049 A 
ATOM     54  H   UNL     1       5.778   5.124   7.611  1.00  0.00     0.167 HD
ATOM     55  C   UNL     1       5.104   7.051   9.520  1.00  0.00     0.074 A 
ATOM     56  C   UNL     1       4.337   8.064  10.211  1.00  0.00     0.031 C 
ATOM     57  C   UNL     1       6.292   6.563   9.953  1.00  0.00     0.034 A 
BRANCH  44  58
ATOM     58  C   UNL     1       8.491   2.060   6.351  1.00  0.00     0.023 A 
ATOM     59  C   UNL     1       9.444   2.232   5.325  1.00  0.00     0.012 A 
ATOM     60  C   UNL     1       8.622   0.964   7.230  1.00  0.00     0.148 A 
ATOM     61  C   UNL     1      10.476   1.312   5.146  1.00  0.00     0.002 A 
ATOM     62  C   UNL     1       9.683   0.077   7.076  1.00  0.00     0.091 A 
ATOM     63  F   UNL     1       7.711   0.811   8.202  1.00  0.00    -0.205 F 
ATOM     64  C   UNL     1      10.602   0.241   6.027  1.00  0.00     0.022 A 
BRANCH  62  65
ATOM     65  S   UNL     1       9.991  -1.285   8.209  1.00  0.00     0.127 S 
ATOM     66  O   UNL     1       9.665  -2.440   7.376  1.00  0.00    -0.237 OA
ATOM     67  O   UNL     1      11.414  -1.127   8.504  1.00  0.00    -0.237 OA
ATOM     68  O   UNL     1       9.106  -1.068   9.348  1.00  0.00    -0.744 OA
ENDBRANCH  62  65
ENDBRANCH  44  58
BRANCH  45  69
ATOM     69  C   UNL     1       1.043   8.458   7.628  1.00  0.00     0.023 A 
ATOM     70  C   UNL     1       1.273   9.848   7.616  1.00  0.00     0.012 A 
ATOM     71  C   UNL     1      -0.261   7.982   7.867  1.00  0.00     0.148 A 
ATOM     72  C   UNL     1       0.236  10.745   7.873  1.00  0.00     0.002 A 
ATOM     73  C   UNL     1      -1.301   8.882   8.062  1.00  0.00     0.091 A 
ATOM     74  F   UNL     1      -0.457   6.656   7.892  1.00  0.00    -0.205 F 
ATOM     75  C   UNL     1      -1.053  10.264   8.085  1.00  0.00     0.022 A 
BRANCH  73  76
ATOM     76  S   UNL     1      -3.013   8.362   8.221  1.00  0.00     0.127 S 
ATOM     77  O   UNL     1      -3.301   8.699   9.611  1.00  0.00    -0.237 OA
ATOM     78  O   UNL     1      -3.676   9.207   7.229  1.00  0.00    -0.237 OA
ATOM     79  O   UNL     1      -3.022   6.938   7.903  1.00  0.00    -0.744 OA
ENDBRANCH  73  76
ENDBRANCH  45  69
BRANCH  57  80
ATOM     80  C   UNL     1       6.888   7.151  11.211  1.00  0.00     0.023 A 
ATOM     81  C   UNL     1       6.290   6.906  12.464  1.00  0.00     0.012 A 
ATOM     82  C   UNL     1       8.075   7.910  11.156  1.00  0.00     0.148 A 
ATOM     83  C   UNL     1       6.836   7.443  13.632  1.00  0.00     0.002 A 
ATOM     84  C   UNL     1       8.643   8.398  12.329  1.00  0.00     0.091 A 
ATOM     85  F   UNL     1       8.625   8.151   9.957  1.00  0.00    -0.205 F 
ATOM     86  C   UNL     1       8.016   8.180  13.566  1.00  0.00     0.022 A 
BRANCH  84  87
ATOM     87  S   UNL     1      10.211   9.276  12.350  1.00  0.00     0.127 S 
ATOM     88  O   UNL     1       9.783  10.647  12.621  1.00  0.00    -0.237 OA
ATOM     89  O   UNL     1      10.915   8.628  13.458  1.00  0.00    -0.237 OA
ATOM     90  O   UNL     1      10.812   9.055  11.042  1.00  0.00    -0.744 OA
ENDBRANCH  84  87
ENDBRANCH  57  80
ENDBRANCH  31  32
ENDBRANCH  23  26
ENDBRANCH  21  22
ENDBRANCH  20  21
ENDBRANCH   1  20
TORSDOF 17
