REMARK SMILES COCC[C@@]1(C(=O)NCCCNC(=O)c2ccc(-c3c4nc(c(-c5cccc(S(=O)(=O)[O-])c5F)c5ccc([nH]5)c(-c5cccc(S(=O)(=O)[O-])c5F)c5nc(c(-c6cccc(S(=O)(=O)[O-])c6F)c6ccc3[nH]6)C=C5)C=C4)cc2)CCC[N@@H+](Cc2cccc3c2OC(C)(C)C3)C1
REMARK SMILES IDX 10 1 9 2 8 3 6 4 7 5 5 7 78 8 94 9 79 10 81 11 80 12 4 14
REMARK SMILES IDX 3 15 2 16 1 17 82 18 83 19 84 20 88 21 85 22 87 23 89 24
REMARK SMILES IDX 86 25 93 26 90 27 91 28 92 29 11 30 12 31 13 32 14 34 15 35
REMARK SMILES IDX 16 36 77 37 17 38 76 39 18 40 19 41 20 42 70 43 21 44 75 45
REMARK SMILES IDX 69 46 71 47 22 48 74 49 68 50 67 51 23 53 55 54 35 55 54 56
REMARK SMILES IDX 36 57 39 58 53 59 72 60 37 61 38 62 52 64 73 65 40 66 24 67
REMARK SMILES IDX 25 68 33 69 26 70 28 71 34 72 27 73 29 74 30 75 31 76 32 77
REMARK SMILES IDX 56 78 57 79 65 80 58 81 60 82 66 83 59 84 61 85 62 86 63 87
REMARK SMILES IDX 64 88 41 89 42 90 50 91 43 92 45 93 51 94 44 95 46 96 47 97
REMARK SMILES IDX 48 98 49 99
REMARK H PARENT 8 6 81 13 12 33 71 52 39 63
REMARK Flexibility Score: inf
ROOT
ATOM      1  C   UNL     1      -1.835   2.848   4.666  1.00  0.00     0.042 C 
ENDROOT
BRANCH   1   2
ATOM      2  C   UNL     1      -1.894   1.782   3.591  1.00  0.00     0.117 C 
BRANCH   2   3
ATOM      3  N   UNL     1      -1.123   2.149   2.426  1.00  0.00    -0.355 N 
ATOM      4  C   UNL     1      -0.047   1.612   1.825  1.00  0.00     0.232 C 
ATOM      5  O   UNL     1       0.245   2.150   0.744  1.00  0.00    -0.274 OA
ATOM      6  H   UNL     1      -1.455   2.961   1.979  1.00  0.00     0.163 HD
BRANCH   4   7
ATOM      7  C   UNL     1       0.886   0.521   2.408  1.00  0.00     0.100 C 
ATOM      8  C   UNL     1       1.246  -0.375   1.188  1.00  0.00     0.029 C 
ATOM      9  C   UNL     1       0.371  -0.460   3.502  1.00  0.00     0.279 C 
ATOM     10  C   UNL     1       0.024  -1.195   0.751  1.00  0.00     0.063 C 
ATOM     11  N   UNL     1      -0.802  -1.263   3.101  1.00  0.00    -0.330 N 
ATOM     12  C   UNL     1      -0.520  -2.053   1.899  1.00  0.00     0.262 C 
ATOM     13  H   UNL     1      -1.534  -0.599   2.848  1.00  0.00     0.348 HD
BRANCH   7  14
ATOM     14  C   UNL     1       2.085   1.353   2.997  1.00  0.00     0.051 C 
BRANCH  14  15
ATOM     15  C   UNL     1       3.486   0.736   2.955  1.00  0.00     0.161 C 
BRANCH  15  16
ATOM     16  O   UNL     1       4.390   1.462   2.117  1.00  0.00    -0.385 OA
ATOM     17  C   UNL     1       4.081   1.405   0.732  1.00  0.00     0.194 C 
ENDBRANCH  15  16
ENDBRANCH  14  15
ENDBRANCH   7  14
BRANCH  11  18
ATOM     18  C   UNL     1      -1.436  -2.043   4.220  1.00  0.00     0.303 C 
BRANCH  18  19
ATOM     19  C   UNL     1      -0.609  -3.187   4.782  1.00  0.00     0.049 A 
ATOM     20  C   UNL     1      -0.516  -4.402   4.107  1.00  0.00     0.013 A 
ATOM     21  C   UNL     1       0.389  -2.942   5.698  1.00  0.00     0.132 A 
ATOM     22  C   UNL     1       0.689  -5.120   4.147  1.00  0.00     0.001 A 
ATOM     23  C   UNL     1       1.659  -3.425   5.509  1.00  0.00    -0.001 A 
ATOM     24  O   UNL     1       0.237  -2.389   6.939  1.00  0.00    -0.487 OA
ATOM     25  C   UNL     1       1.828  -4.561   4.751  1.00  0.00     0.008 A 
ATOM     26  C   UNL     1       2.559  -2.541   6.297  1.00  0.00     0.087 C 
ATOM     27  C   UNL     1       1.598  -2.278   7.476  1.00  0.00     0.108 C 
ATOM     28  C   UNL     1       1.988  -3.285   8.581  1.00  0.00     0.057 C 
ATOM     29  C   UNL     1       1.575  -0.871   8.064  1.00  0.00     0.057 C 
ENDBRANCH  18  19
ENDBRANCH  11  18
ENDBRANCH   4   7
ENDBRANCH   2   3
ENDBRANCH   1   2
BRANCH   1  30
ATOM     30  C   UNL     1      -2.527   4.136   4.247  1.00  0.00     0.118 C 
BRANCH  30  31
ATOM     31  N   UNL     1      -3.924   3.911   3.883  1.00  0.00    -0.352 N 
ATOM     32  C   UNL     1      -5.074   4.173   4.587  1.00  0.00     0.251 C 
ATOM     33  H   UNL     1      -4.063   3.510   2.995  1.00  0.00     0.163 HD
ATOM     34  O   UNL     1      -6.127   3.643   4.260  1.00  0.00    -0.269 OA
BRANCH  32  35
ATOM     35  C   UNL     1      -5.027   5.101   5.734  1.00  0.00     0.039 A 
ATOM     36  C   UNL     1      -5.773   4.818   6.880  1.00  0.00     0.014 A 
ATOM     37  C   UNL     1      -4.254   6.261   5.665  1.00  0.00     0.014 A 
ATOM     38  C   UNL     1      -5.689   5.672   7.981  1.00  0.00     0.010 A 
ATOM     39  C   UNL     1      -4.083   7.044   6.796  1.00  0.00     0.010 A 
ATOM     40  C   UNL     1      -4.815   6.771   7.959  1.00  0.00    -0.014 A 
BRANCH  40  41
ATOM     41  C   UNL     1      -4.645   7.652   9.139  1.00  0.00     0.031 A 
ATOM     42  C   UNL     1      -4.953   9.121   9.034  1.00  0.00     0.074 A 
ATOM     43  C   UNL     1      -4.106   7.149  10.266  1.00  0.00     0.049 A 
ATOM     44  N   UNL     1      -4.800  10.059   9.931  1.00  0.00    -0.248 NA
ATOM     45  C   UNL     1      -5.463   9.607   7.741  1.00  0.00     0.031 C 
ATOM     46  C   UNL     1      -3.672   5.763  10.449  1.00  0.00     0.029 A 
ATOM     47  N   UNL     1      -3.799   7.754  11.458  1.00  0.00    -0.354 N 
ATOM     48  C   UNL     1      -5.145  11.247   9.298  1.00  0.00     0.074 A 
ATOM     49  C   UNL     1      -5.480  10.917   7.931  1.00  0.00     0.031 C 
ATOM     50  C   UNL     1      -3.158   5.622  11.680  1.00  0.00     0.029 A 
ATOM     51  C   UNL     1      -3.191   6.913  12.359  1.00  0.00     0.049 A 
ATOM     52  H   UNL     1      -3.995   8.700  11.649  1.00  0.00     0.167 HD
ATOM     53  C   UNL     1      -5.205  12.497   9.815  1.00  0.00     0.034 A 
ATOM     54  C   UNL     1      -2.700   7.157  13.589  1.00  0.00     0.034 A 
ATOM     55  C   UNL     1      -4.909  12.808  11.186  1.00  0.00     0.049 A 
ATOM     56  C   UNL     1      -2.832   8.539  14.165  1.00  0.00     0.074 A 
ATOM     57  C   UNL     1      -5.053  14.016  11.845  1.00  0.00     0.029 A 
ATOM     58  N   UNL     1      -4.388  11.910  12.106  1.00  0.00    -0.354 N 
ATOM     59  N   UNL     1      -3.335   9.616  13.613  1.00  0.00    -0.248 NA
ATOM     60  C   UNL     1      -2.365   8.732  15.544  1.00  0.00     0.031 C 
ATOM     61  C   UNL     1      -4.578  13.858  13.151  1.00  0.00     0.029 A 
ATOM     62  C   UNL     1      -4.180  12.541  13.320  1.00  0.00     0.049 A 
ATOM     63  H   UNL     1      -4.195  10.962  11.922  1.00  0.00     0.167 HD
ATOM     64  C   UNL     1      -3.271  10.609  14.583  1.00  0.00     0.074 A 
ATOM     65  C   UNL     1      -2.700   9.996  15.766  1.00  0.00     0.031 C 
ATOM     66  C   UNL     1      -3.641  11.911  14.499  1.00  0.00     0.034 A 
BRANCH  53  67
ATOM     67  C   UNL     1      -5.633  13.613   8.896  1.00  0.00     0.023 A 
ATOM     68  C   UNL     1      -6.959  13.662   8.417  1.00  0.00     0.012 A 
ATOM     69  C   UNL     1      -4.731  14.630   8.529  1.00  0.00     0.148 A 
ATOM     70  C   UNL     1      -7.365  14.675   7.548  1.00  0.00     0.002 A 
ATOM     71  C   UNL     1      -5.157  15.665   7.705  1.00  0.00     0.091 A 
ATOM     72  F   UNL     1      -3.468  14.556   8.973  1.00  0.00    -0.205 F 
ATOM     73  C   UNL     1      -6.468  15.680   7.201  1.00  0.00     0.022 A 
BRANCH  71  74
ATOM     74  S   UNL     1      -4.101  17.051   7.271  1.00  0.00     0.127 S 
ATOM     75  O   UNL     1      -3.811  16.773   5.866  1.00  0.00    -0.237 OA
ATOM     76  O   UNL     1      -4.987  18.194   7.496  1.00  0.00    -0.237 OA
ATOM     77  O   UNL     1      -2.960  16.983   8.173  1.00  0.00    -0.744 OA
ENDBRANCH  71  74
ENDBRANCH  53  67
BRANCH  54  78
ATOM     78  C   UNL     1      -2.089   6.043  14.366  1.00  0.00     0.023 A 
ATOM     79  C   UNL     1      -2.776   5.506  15.471  1.00  0.00     0.012 A 
ATOM     80  C   UNL     1      -0.866   5.468  13.970  1.00  0.00     0.148 A 
ATOM     81  C   UNL     1      -2.246   4.429  16.181  1.00  0.00     0.002 A 
ATOM     82  C   UNL     1      -0.371   4.359  14.646  1.00  0.00     0.091 A 
ATOM     83  F   UNL     1      -0.228   5.999  12.917  1.00  0.00    -0.205 F 
ATOM     84  C   UNL     1      -1.051   3.848  15.762  1.00  0.00     0.022 A 
BRANCH  82  85
ATOM     85  S   UNL     1       1.082   3.460  14.093  1.00  0.00     0.127 S 
ATOM     86  O   UNL     1       2.018   3.700  15.189  1.00  0.00    -0.237 OA
ATOM     87  O   UNL     1       0.572   2.091  14.006  1.00  0.00    -0.237 OA
ATOM     88  O   UNL     1       1.451   4.047  12.812  1.00  0.00    -0.744 OA
ENDBRANCH  82  85
ENDBRANCH  54  78
BRANCH  66  89
ATOM     89  C   UNL     1      -3.468  12.767  15.727  1.00  0.00     0.023 A 
ATOM     90  C   UNL     1      -2.177  13.149  16.143  1.00  0.00     0.012 A 
ATOM     91  C   UNL     1      -4.592  13.256  16.421  1.00  0.00     0.148 A 
ATOM     92  C   UNL     1      -2.007  13.977  17.251  1.00  0.00     0.002 A 
ATOM     93  C   UNL     1      -4.416  14.124  17.491  1.00  0.00     0.091 A 
ATOM     94  F   UNL     1      -5.811  12.867  16.020  1.00  0.00    -0.205 F 
ATOM     95  C   UNL     1      -3.125  14.475  17.916  1.00  0.00     0.022 A 
BRANCH  93  96
ATOM     96  S   UNL     1      -5.797  14.894  18.344  1.00  0.00     0.127 S 
ATOM     97  O   UNL     1      -5.759  14.219  19.640  1.00  0.00    -0.237 OA
ATOM     98  O   UNL     1      -5.396  16.300  18.376  1.00  0.00    -0.237 OA
ATOM     99  O   UNL     1      -6.976  14.619  17.533  1.00  0.00    -0.744 OA
ENDBRANCH  93  96
ENDBRANCH  66  89
ENDBRANCH  40  41
ENDBRANCH  32  35
ENDBRANCH  30  31
ENDBRANCH   1  30
TORSDOF 18
