REMARK SMILES C[C@@H]1[C@H](C(=O)NCCCNC(=O)c2ccc(-c3c4nc(c(-c5cccc(S(=O)(=O)[O-])c5F)c5ccc([nH]5)c(-c5cccc(S(=O)(=O)[O-])c5F)c5nc(c(-c6cccc(S(=O)(=O)[O-])c6F)c6ccc3[nH]6)C=C5)C=C4)cc2)CCN1C(=O)[C@H]([NH3+])CCS(C)(=O)=O
REMARK SMILES IDX 7 1 6 2 4 3 5 4 3 6 1 7 2 8 78 9 76 10 77 11 79 12 80 13
REMARK SMILES IDX 81 14 83 15 84 16 85 17 86 18 87 19 88 20 82 21 8 25 9 26
REMARK SMILES IDX 10 27 11 28 12 30 13 31 14 32 75 33 15 34 74 35 16 36 17 37
REMARK SMILES IDX 18 38 68 39 19 40 73 41 67 42 69 43 20 44 72 45 66 46 65 47
REMARK SMILES IDX 21 49 53 50 33 51 52 52 34 53 37 54 51 55 70 56 35 57 36 58
REMARK SMILES IDX 50 60 71 61 38 62 22 63 23 64 31 65 24 66 26 67 32 68 25 69
REMARK SMILES IDX 27 70 28 71 29 72 30 73 54 74 55 75 63 76 56 77 58 78 64 79
REMARK SMILES IDX 57 80 59 81 60 82 61 83 62 84 39 85 40 86 48 87 41 88 43 89
REMARK SMILES IDX 49 90 42 91 44 92 45 93 46 94 47 95
REMARK H PARENT 6 5 82 22 82 23 82 24 10 29 69 48 37 59
REMARK Flexibility Score: inf
ROOT
ATOM      1  C   UNL     1       1.744  -6.459  -5.904  1.00  0.00     0.117 C 
ENDROOT
BRANCH   1   2
ATOM      2  N   UNL     1       0.288  -6.436  -5.810  1.00  0.00    -0.356 N 
ATOM      3  C   UNL     1      -0.621  -5.514  -5.402  1.00  0.00     0.225 C 
ATOM      4  O   UNL     1      -1.809  -5.849  -5.490  1.00  0.00    -0.275 OA
ATOM      5  H   UNL     1      -0.128  -7.277  -6.109  1.00  0.00     0.163 HD
BRANCH   3   6
ATOM      6  C   UNL     1      -0.289  -4.134  -4.844  1.00  0.00     0.102 C 
ATOM      7  C   UNL     1       1.119  -5.245  -2.999  1.00  0.00     0.032 C 
ATOM      8  C   UNL     1       0.280  -4.053  -3.415  1.00  0.00     0.094 C 
ATOM      9  N   UNL     1       1.069  -2.812  -3.412  1.00  0.00    -0.334 N 
ATOM     10  C   UNL     1       0.595  -3.245  -5.712  1.00  0.00     0.037 C 
ATOM     11  C   UNL     1       1.204  -2.247  -4.742  1.00  0.00     0.121 C 
BRANCH   9  12
ATOM     12  C   UNL     1       1.623  -2.146  -2.327  1.00  0.00     0.281 C 
ATOM     13  O   UNL     1       2.298  -1.126  -2.491  1.00  0.00    -0.268 OA
BRANCH  12  14
ATOM     14  C   UNL     1       1.283  -2.669  -0.905  1.00  0.00     0.272 C 
BRANCH  14  15
ATOM     15  C   UNL     1       2.502  -2.578   0.026  1.00  0.00     0.091 C 
BRANCH  15  16
ATOM     16  C   UNL     1       2.327  -3.224   1.401  1.00  0.00     0.143 C 
BRANCH  16  17
ATOM     17  S   UNL     1       2.225  -5.010   1.434  1.00  0.00     0.147 S 
ATOM     18  C   UNL     1       3.809  -5.572   0.837  1.00  0.00     0.158 C 
ATOM     19  O   UNL     1       2.086  -5.391   2.824  1.00  0.00    -0.229 OA
ATOM     20  O   UNL     1       1.211  -5.430   0.480  1.00  0.00    -0.229 OA
ENDBRANCH  16  17
ENDBRANCH  15  16
ENDBRANCH  14  15
BRANCH  14  21
ATOM     21  N   UNL     1       0.123  -1.929  -0.368  1.00  0.00    -0.347 N 
ATOM     22  H   UNL     1       0.353  -0.937  -0.301  1.00  0.00     0.345 HD
ATOM     23  H   UNL     1      -0.110  -2.287   0.559  1.00  0.00     0.345 HD
ATOM     24  H   UNL     1      -0.676  -2.051  -0.990  1.00  0.00     0.345 HD
ENDBRANCH  14  21
ENDBRANCH  12  14
ENDBRANCH   9  12
ENDBRANCH   3   6
ENDBRANCH   1   2
BRANCH   1  25
ATOM     25  C   UNL     1       2.405  -7.484  -4.981  1.00  0.00     0.042 C 
BRANCH  25  26
ATOM     26  C   UNL     1       2.074  -8.929  -5.297  1.00  0.00     0.118 C 
BRANCH  26  27
ATOM     27  N   UNL     1       2.861  -9.420  -6.412  1.00  0.00    -0.352 N 
ATOM     28  C   UNL     1       3.966 -10.237  -6.403  1.00  0.00     0.251 C 
ATOM     29  H   UNL     1       2.560  -9.126  -7.303  1.00  0.00     0.163 HD
ATOM     30  O   UNL     1       4.673 -10.295  -7.406  1.00  0.00    -0.269 OA
BRANCH  28  31
ATOM     31  C   UNL     1       4.314 -11.033  -5.200  1.00  0.00     0.039 A 
ATOM     32  C   UNL     1       5.662 -11.219  -4.877  1.00  0.00     0.014 A 
ATOM     33  C   UNL     1       3.329 -11.640  -4.416  1.00  0.00     0.014 A 
ATOM     34  C   UNL     1       6.014 -11.974  -3.754  1.00  0.00     0.010 A 
ATOM     35  C   UNL     1       3.677 -12.301  -3.240  1.00  0.00     0.010 A 
ATOM     36  C   UNL     1       5.024 -12.502  -2.910  1.00  0.00    -0.014 A 
BRANCH  36  37
ATOM     37  C   UNL     1       5.375 -13.290  -1.698  1.00  0.00     0.031 A 
ATOM     38  C   UNL     1       4.923 -14.723  -1.567  1.00  0.00     0.074 A 
ATOM     39  C   UNL     1       6.040 -12.700  -0.684  1.00  0.00     0.049 A 
ATOM     40  N   UNL     1       5.092 -15.553  -0.570  1.00  0.00    -0.248 NA
ATOM     41  C   UNL     1       4.159 -15.290  -2.691  1.00  0.00     0.031 C 
ATOM     42  C   UNL     1       6.470 -11.301  -0.657  1.00  0.00     0.029 A 
ATOM     43  N   UNL     1       6.451 -13.196   0.528  1.00  0.00    -0.354 N 
ATOM     44  C   UNL     1       4.426 -16.720  -0.928  1.00  0.00     0.074 A 
ATOM     45  C   UNL     1       3.816 -16.479  -2.216  1.00  0.00     0.031 C 
ATOM     46  C   UNL     1       7.095 -11.055   0.505  1.00  0.00     0.029 A 
ATOM     47  C   UNL     1       7.077 -12.264   1.323  1.00  0.00     0.049 A 
ATOM     48  H   UNL     1       6.311 -14.131   0.803  1.00  0.00     0.167 HD
ATOM     49  C   UNL     1       4.354 -17.899  -0.264  1.00  0.00     0.034 A 
ATOM     50  C   UNL     1       7.573 -12.367   2.572  1.00  0.00     0.034 A 
ATOM     51  C   UNL     1       4.996 -18.149   0.998  1.00  0.00     0.049 A 
ATOM     52  C   UNL     1       7.503 -13.694   3.278  1.00  0.00     0.074 A 
ATOM     53  C   UNL     1       5.054 -19.332   1.713  1.00  0.00     0.029 A 
ATOM     54  N   UNL     1       5.682 -17.200   1.739  1.00  0.00    -0.354 N 
ATOM     55  N   UNL     1       7.001 -14.829   2.855  1.00  0.00    -0.248 NA
ATOM     56  C   UNL     1       8.099 -13.766   4.620  1.00  0.00     0.031 C 
ATOM     57  C   UNL     1       5.748 -19.090   2.902  1.00  0.00     0.029 A 
ATOM     58  C   UNL     1       6.157 -17.766   2.909  1.00  0.00     0.049 A 
ATOM     59  H   UNL     1       5.813 -16.262   1.472  1.00  0.00     0.167 HD
ATOM     60  C   UNL     1       7.256 -15.758   3.858  1.00  0.00     0.074 A 
ATOM     61  C   UNL     1       7.975 -15.056   4.901  1.00  0.00     0.031 C 
ATOM     62  C   UNL     1       6.916 -17.069   3.916  1.00  0.00     0.034 A 
BRANCH  49  63
ATOM     63  C   UNL     1       3.590 -19.026  -0.913  1.00  0.00     0.023 A 
ATOM     64  C   UNL     1       4.108 -19.647  -2.068  1.00  0.00     0.012 A 
ATOM     65  C   UNL     1       2.392 -19.508  -0.349  1.00  0.00     0.148 A 
ATOM     66  C   UNL     1       3.428 -20.702  -2.675  1.00  0.00     0.002 A 
ATOM     67  C   UNL     1       1.746 -20.593  -0.931  1.00  0.00     0.091 A 
ATOM     68  F   UNL     1       1.905 -18.895   0.739  1.00  0.00    -0.205 F 
ATOM     69  C   UNL     1       2.254 -21.181  -2.101  1.00  0.00     0.022 A 
BRANCH  67  70
ATOM     70  S   UNL     1       0.273 -21.340  -0.224  1.00  0.00     0.127 S 
ATOM     71  O   UNL     1      -0.744 -20.978  -1.210  1.00  0.00    -0.237 OA
ATOM     72  O   UNL     1       0.628 -22.759  -0.207  1.00  0.00    -0.237 OA
ATOM     73  O   UNL     1       0.108 -20.737   1.091  1.00  0.00    -0.744 OA
ENDBRANCH  67  70
ENDBRANCH  49  63
BRANCH  50  74
ATOM     74  C   UNL     1       8.236 -11.193   3.210  1.00  0.00     0.023 A 
ATOM     75  C   UNL     1       9.626 -11.223   3.442  1.00  0.00     0.012 A 
ATOM     76  C   UNL     1       7.508 -10.040   3.561  1.00  0.00     0.148 A 
ATOM     77  C   UNL     1      10.270 -10.142   4.046  1.00  0.00     0.002 A 
ATOM     78  C   UNL     1       8.167  -8.941   4.100  1.00  0.00     0.091 A 
ATOM     79  F   UNL     1       6.185 -10.033   3.346  1.00  0.00    -0.205 F 
ATOM     80  C   UNL     1       9.544  -8.998   4.365  1.00  0.00     0.022 A 
BRANCH  78  81
ATOM     81  S   UNL     1       7.338  -7.372   4.383  1.00  0.00     0.127 S 
ATOM     82  O   UNL     1       7.230  -7.349   5.838  1.00  0.00    -0.237 OA
ATOM     83  O   UNL     1       8.293  -6.417   3.819  1.00  0.00    -0.237 OA
ATOM     84  O   UNL     1       6.085  -7.454   3.644  1.00  0.00    -0.744 OA
ENDBRANCH  78  81
ENDBRANCH  50  74
BRANCH  62  85
ATOM     85  C   UNL     1       7.357 -17.854   5.124  1.00  0.00     0.023 A 
ATOM     86  C   UNL     1       6.746 -17.631   6.373  1.00  0.00     0.012 A 
ATOM     87  C   UNL     1       8.328 -18.869   5.000  1.00  0.00     0.148 A 
ATOM     88  C   UNL     1       7.121 -18.379   7.489  1.00  0.00     0.002 A 
ATOM     89  C   UNL     1       8.657 -19.646   6.103  1.00  0.00     0.091 A 
ATOM     90  F   UNL     1       8.909 -19.055   3.806  1.00  0.00    -0.205 F 
ATOM     91  C   UNL     1       8.066 -19.394   7.351  1.00  0.00     0.022 A 
BRANCH  89  92
ATOM     92  S   UNL     1       9.787 -21.038   5.998  1.00  0.00     0.127 S 
ATOM     93  O   UNL     1      10.946 -20.537   6.734  1.00  0.00    -0.237 OA
ATOM     94  O   UNL     1       9.040 -22.095   6.682  1.00  0.00    -0.237 OA
ATOM     95  O   UNL     1      10.005 -21.274   4.577  1.00  0.00    -0.744 OA
ENDBRANCH  89  92
ENDBRANCH  62  85
ENDBRANCH  36  37
ENDBRANCH  28  31
ENDBRANCH  26  27
ENDBRANCH  25  26
ENDBRANCH   1  25
TORSDOF 19
