REMARK SMILES O=C(Cc1ccc(-c2ccn(C(F)F)c(=O)c2)cc1)NCCCNC(=O)c1ccc(-c2c3nc(c(-c4cccc(S(=O)(=O)[O-])c4F)c4ccc([nH]4)c(-c4cccc(S(=O)(=O)[O-])c4F)c4nc(c(-c5cccc(S(=O)(=O)[O-])c5F)c5ccc2[nH]5)C=C4)C=C3)cc1
REMARK SMILES IDX 22 1 21 2 20 3 1 4 2 5 3 7 4 8 5 9 19 10 6 11 18 12 7 13
REMARK SMILES IDX 8 14 9 15 17 16 10 17 15 18 11 19 16 20 12 21 13 22 14 23
REMARK SMILES IDX 23 24 24 25 25 26 26 28 27 29 28 30 89 31 29 32 88 33 30 34
REMARK SMILES IDX 31 35 32 36 82 37 33 38 87 39 81 40 83 41 34 42 86 43 80 44
REMARK SMILES IDX 79 45 35 47 67 48 47 49 66 50 48 51 51 52 65 53 84 54 49 55
REMARK SMILES IDX 50 56 64 58 85 59 52 60 36 61 37 62 45 63 38 64 40 65 46 66
REMARK SMILES IDX 39 67 41 68 42 69 43 70 44 71 68 72 69 73 77 74 70 75 72 76
REMARK SMILES IDX 78 77 71 78 73 79 74 80 75 81 76 82 53 83 54 84 62 85 55 86
REMARK SMILES IDX 57 87 63 88 56 89 58 90 59 91 60 92 61 93
REMARK H PARENT 20 6 24 27 83 46 51 57
REMARK Flexibility Score: inf
ROOT
ATOM      1  C   UNL     1       2.293  -1.199  -3.286  1.00  0.00     0.042 C 
ENDROOT
BRANCH   1   2
ATOM      2  C   UNL     1       1.974  -1.538  -1.838  1.00  0.00     0.117 C 
BRANCH   2   3
ATOM      3  N   UNL     1       2.637  -0.661  -0.892  1.00  0.00    -0.356 N 
ATOM      4  O   UNL     1       0.727   0.070   0.167  1.00  0.00    -0.275 OA
ATOM      5  C   UNL     1       1.951   0.035   0.084  1.00  0.00     0.224 C 
ATOM      6  H   UNL     1       3.614  -0.558  -0.948  1.00  0.00     0.163 HD
BRANCH   5   7
ATOM      7  C   UNL     1       2.852   0.716   1.100  1.00  0.00     0.135 C 
BRANCH   7   8
ATOM      8  C   UNL     1       3.602  -0.228   2.021  1.00  0.00    -0.039 A 
ATOM      9  C   UNL     1       3.337  -1.605   2.077  1.00  0.00     0.005 A 
ATOM     10  C   UNL     1       4.600   0.293   2.859  1.00  0.00     0.005 A 
ATOM     11  C   UNL     1       4.091  -2.447   2.896  1.00  0.00     0.009 A 
ATOM     12  C   UNL     1       5.345  -0.548   3.692  1.00  0.00     0.009 A 
ATOM     13  C   UNL     1       5.110  -1.927   3.698  1.00  0.00    -0.018 A 
BRANCH  13  14
ATOM     14  C   UNL     1       5.921  -2.825   4.536  1.00  0.00    -0.011 A 
ATOM     15  C   UNL     1       5.836  -2.841   5.982  1.00  0.00     0.027 A 
ATOM     16  C   UNL     1       6.766  -3.669   3.918  1.00  0.00     0.080 A 
ATOM     17  C   UNL     1       6.587  -3.689   6.696  1.00  0.00     0.095 A 
ATOM     18  C   UNL     1       7.605  -4.619   4.697  1.00  0.00     0.255 A 
ATOM     19  N   UNL     1       7.457  -4.565   6.074  1.00  0.00    -0.258 N 
ATOM     20  O   UNL     1       8.355  -5.377   4.091  1.00  0.00    -0.269 OA
BRANCH  19  21
ATOM     21  C   UNL     1       8.262  -5.472   6.849  1.00  0.00     0.451 C 
ATOM     22  F   UNL     1       8.002  -6.762   6.525  1.00  0.00    -0.185 F 
ATOM     23  F   UNL     1       9.584  -5.246   6.652  1.00  0.00    -0.185 F 
ENDBRANCH  19  21
ENDBRANCH  13  14
ENDBRANCH   7   8
ENDBRANCH   5   7
ENDBRANCH   2   3
ENDBRANCH   1   2
BRANCH   1  24
ATOM     24  C   UNL     1       3.769  -1.296  -3.655  1.00  0.00     0.118 C 
BRANCH  24  25
ATOM     25  N   UNL     1       4.304  -2.651  -3.579  1.00  0.00    -0.352 N 
ATOM     26  C   UNL     1       5.013  -3.360  -4.523  1.00  0.00     0.251 C 
ATOM     27  H   UNL     1       4.134  -3.126  -2.733  1.00  0.00     0.163 HD
ATOM     28  O   UNL     1       5.290  -4.540  -4.325  1.00  0.00    -0.269 OA
BRANCH  26  29
ATOM     29  C   UNL     1       5.408  -2.706  -5.790  1.00  0.00     0.039 A 
ATOM     30  C   UNL     1       5.137  -3.352  -7.000  1.00  0.00     0.014 A 
ATOM     31  C   UNL     1       6.006  -1.444  -5.785  1.00  0.00     0.014 A 
ATOM     32  C   UNL     1       5.378  -2.690  -8.207  1.00  0.00     0.010 A 
ATOM     33  C   UNL     1       6.178  -0.760  -6.985  1.00  0.00     0.010 A 
ATOM     34  C   UNL     1       5.853  -1.369  -8.207  1.00  0.00    -0.014 A 
BRANCH  34  35
ATOM     35  C   UNL     1       5.984  -0.579  -9.460  1.00  0.00     0.031 A 
ATOM     36  C   UNL     1       7.330  -0.059  -9.886  1.00  0.00     0.074 A 
ATOM     37  C   UNL     1       4.877  -0.216 -10.138  1.00  0.00     0.049 A 
ATOM     38  N   UNL     1       7.625   0.771 -10.852  1.00  0.00    -0.248 NA
ATOM     39  C   UNL     1       8.493  -0.506  -9.102  1.00  0.00     0.031 C 
ATOM     40  C   UNL     1       3.506  -0.596  -9.787  1.00  0.00     0.029 A 
ATOM     41  N   UNL     1       4.724   0.589 -11.240  1.00  0.00    -0.354 N 
ATOM     42  C   UNL     1       8.996   0.983 -10.764  1.00  0.00     0.074 A 
ATOM     43  C   UNL     1       9.471   0.211  -9.637  1.00  0.00     0.031 C 
ATOM     44  C   UNL     1       2.654  -0.017 -10.648  1.00  0.00     0.029 A 
ATOM     45  C   UNL     1       3.410   0.802 -11.590  1.00  0.00     0.049 A 
ATOM     46  H   UNL     1       5.482   0.978 -11.733  1.00  0.00     0.167 HD
ATOM     47  C   UNL     1       9.791   1.733 -11.563  1.00  0.00     0.034 A 
ATOM     48  C   UNL     1       2.871   1.582 -12.549  1.00  0.00     0.034 A 
ATOM     49  C   UNL     1       9.325   2.454 -12.717  1.00  0.00     0.049 A 
ATOM     50  C   UNL     1       3.782   2.368 -13.453  1.00  0.00     0.074 A 
ATOM     51  C   UNL     1      10.067   3.168 -13.641  1.00  0.00     0.029 A 
ATOM     52  N   UNL     1       7.998   2.553 -13.106  1.00  0.00    -0.354 N 
ATOM     53  N   UNL     1       5.091   2.438 -13.444  1.00  0.00    -0.248 NA
ATOM     54  C   UNL     1       3.147   3.157 -14.519  1.00  0.00     0.031 C 
ATOM     55  C   UNL     1       9.187   3.708 -14.584  1.00  0.00     0.029 A 
ATOM     56  C   UNL     1       7.899   3.316 -14.255  1.00  0.00     0.049 A 
ATOM     57  H   UNL     1       7.239   2.140 -12.634  1.00  0.00     0.167 HD
ATOM     58  C   UNL     1       5.437   3.240 -14.525  1.00  0.00     0.074 A 
ATOM     59  C   UNL     1       4.201   3.625 -15.174  1.00  0.00     0.031 C 
ATOM     60  C   UNL     1       6.668   3.632 -14.934  1.00  0.00     0.034 A 
BRANCH  47  61
ATOM     61  C   UNL     1      11.264   1.766 -11.255  1.00  0.00     0.023 A 
ATOM     62  C   UNL     1      12.053   0.629 -11.524  1.00  0.00     0.012 A 
ATOM     63  C   UNL     1      11.879   2.934 -10.764  1.00  0.00     0.148 A 
ATOM     64  C   UNL     1      13.425   0.642 -11.278  1.00  0.00     0.002 A 
ATOM     65  C   UNL     1      13.255   2.953 -10.562  1.00  0.00     0.091 A 
ATOM     66  F   UNL     1      11.110   3.998 -10.493  1.00  0.00    -0.205 F 
ATOM     67  C   UNL     1      14.027   1.806 -10.809  1.00  0.00     0.022 A 
BRANCH  65  68
ATOM     68  S   UNL     1      14.132   4.429 -10.033  1.00  0.00     0.127 S 
ATOM     69  O   UNL     1      14.442   4.105  -8.641  1.00  0.00    -0.237 OA
ATOM     70  O   UNL     1      15.289   4.440 -10.928  1.00  0.00    -0.237 OA
ATOM     71  O   UNL     1      13.206   5.536 -10.229  1.00  0.00    -0.744 OA
ENDBRANCH  65  68
ENDBRANCH  47  61
BRANCH  48  72
ATOM     72  C   UNL     1       1.394   1.603 -12.747  1.00  0.00     0.023 A 
ATOM     73  C   UNL     1       0.845   0.985 -13.887  1.00  0.00     0.012 A 
ATOM     74  C   UNL     1       0.531   2.196 -11.805  1.00  0.00     0.148 A 
ATOM     75  C   UNL     1      -0.533   0.981 -14.101  1.00  0.00     0.002 A 
ATOM     76  C   UNL     1      -0.845   2.143 -11.998  1.00  0.00     0.091 A 
ATOM     77  F   UNL     1       1.073   2.792 -10.734  1.00  0.00    -0.205 F 
ATOM     78  C   UNL     1      -1.379   1.550 -13.153  1.00  0.00     0.022 A 
BRANCH  76  79
ATOM     79  S   UNL     1      -2.012   2.735 -10.767  1.00  0.00     0.127 S 
ATOM     80  O   UNL     1      -2.505   3.962 -11.386  1.00  0.00    -0.237 OA
ATOM     81  O   UNL     1      -2.980   1.639 -10.713  1.00  0.00    -0.237 OA
ATOM     82  O   UNL     1      -1.235   2.906  -9.546  1.00  0.00    -0.744 OA
ENDBRANCH  76  79
ENDBRANCH  48  72
BRANCH  60  83
ATOM     83  C   UNL     1       6.763   4.484 -16.171  1.00  0.00     0.023 A 
ATOM     84  C   UNL     1       6.414   5.847 -16.112  1.00  0.00     0.012 A 
ATOM     85  C   UNL     1       7.301   3.957 -17.362  1.00  0.00     0.148 A 
ATOM     86  C   UNL     1       6.580   6.669 -17.226  1.00  0.00     0.002 A 
ATOM     87  C   UNL     1       7.506   4.792 -18.454  1.00  0.00     0.091 A 
ATOM     88  F   UNL     1       7.610   2.652 -17.401  1.00  0.00    -0.205 F 
ATOM     89  C   UNL     1       7.139   6.145 -18.391  1.00  0.00     0.022 A 
BRANCH  87  90
ATOM     90  S   UNL     1       8.307   4.228 -19.961  1.00  0.00     0.127 S 
ATOM     91  O   UNL     1       7.187   4.202 -20.901  1.00  0.00    -0.237 OA
ATOM     92  O   UNL     1       9.286   5.288 -20.207  1.00  0.00    -0.237 OA
ATOM     93  O   UNL     1       8.888   2.930 -19.646  1.00  0.00    -0.744 OA
ENDBRANCH  87  90
ENDBRANCH  60  83
ENDBRANCH  34  35
ENDBRANCH  26  29
ENDBRANCH  24  25
ENDBRANCH   1  24
TORSDOF 16
