REMARK SMILES COc1ccc(-c2noc(C[N@H+]3CCCC[C@@H]3C(=O)NCCCNC(=O)c3ccc(-c4c5nc(c(-c6cccc(S(=O)(=O)[O-])c6F)c6ccc([nH]6)c(-c6cccc(S(=O)(=O)[O-])c6F)c6nc(c(-c7cccc(S(=O)(=O)[O-])c7F)c7ccc4[nH]7)C=C6)C=C5)cc3)n2)cc1OC
REMARK SMILES IDX 21 1 20 2 18 3 19 4 17 6 12 7 13 8 14 10 16 11 15 12 11 13
REMARK SMILES IDX 10 14 7 15 8 16 90 17 9 18 6 19 3 20 4 21 92 22 5 23 91 24
REMARK SMILES IDX 2 25 1 26 93 27 94 28 22 29 23 30 24 31 25 32 26 34 27 35
REMARK SMILES IDX 28 36 89 37 29 38 88 39 30 40 31 41 32 42 82 43 33 44 87 45
REMARK SMILES IDX 81 46 83 47 34 48 86 49 80 50 79 51 35 53 67 54 47 55 66 56
REMARK SMILES IDX 48 57 51 58 65 59 84 60 49 61 50 62 64 64 85 65 52 66 36 67
REMARK SMILES IDX 37 68 45 69 38 70 40 71 46 72 39 73 41 74 42 75 43 76 44 77
REMARK SMILES IDX 68 78 69 79 77 80 70 81 72 82 78 83 71 84 73 85 74 86 75 87
REMARK SMILES IDX 76 88 53 89 54 90 62 91 55 92 57 93 63 94 56 95 58 96 59 97
REMARK SMILES IDX 60 98 61 99
REMARK H PARENT 20 5 12 9 24 33 83 52 51 63
REMARK Flexibility Score: inf
ROOT
ATOM      1  C   UNL     1       4.820  10.927   6.972  1.00  0.00     0.118 C 
ENDROOT
BRANCH   1   2
ATOM      2  N   UNL     1       4.242   9.817   7.711  1.00  0.00    -0.351 N 
ATOM      3  C   UNL     1       3.154   9.046   7.424  1.00  0.00     0.278 C 
ATOM      4  O   UNL     1       2.875   8.133   8.207  1.00  0.00    -0.268 OA
ATOM      5  H   UNL     1       4.708   9.586   8.547  1.00  0.00     0.163 HD
BRANCH   3   6
ATOM      6  C   UNL     1       2.329   9.261   6.137  1.00  0.00     0.274 C 
ATOM      7  N   UNL     1       3.201   9.161   4.936  1.00  0.00    -0.317 N 
ATOM      8  C   UNL     1       2.490   9.472   3.692  1.00  0.00     0.263 C 
ATOM      9  H   UNL     1       3.908   9.885   5.060  1.00  0.00     0.349 HD
ATOM     10  C   UNL     1       1.815  10.842   3.758  1.00  0.00     0.062 C 
ATOM     11  C   UNL     1       1.548  10.581   6.224  1.00  0.00     0.076 C 
ATOM     12  C   UNL     1       0.833  10.905   4.920  1.00  0.00     0.012 C 
BRANCH   7  13
ATOM     13  C   UNL     1       3.940   7.877   4.850  1.00  0.00     0.364 C 
BRANCH  13  14
ATOM     14  C   UNL     1       3.134   6.654   4.567  1.00  0.00     0.282 A 
ATOM     15  C   UNL     1       2.142   4.989   3.781  1.00  0.00     0.202 A 
ATOM     16  N   UNL     1       1.604   5.114   5.002  1.00  0.00    -0.057 NA
ATOM     17  N   UNL     1       3.098   5.926   3.476  1.00  0.00    -0.186 NA
ATOM     18  O   UNL     1       2.292   6.204   5.543  1.00  0.00    -0.333 OA
BRANCH  15  19
ATOM     19  C   UNL     1       1.791   3.951   2.837  1.00  0.00     0.027 A 
ATOM     20  C   UNL     1       1.211   2.025   0.893  1.00  0.00     0.160 A 
ATOM     21  C   UNL     1       0.188   2.825   1.425  1.00  0.00     0.051 A 
ATOM     22  C   UNL     1       2.530   2.183   1.337  1.00  0.00     0.161 A 
ATOM     23  C   UNL     1       0.473   3.774   2.410  1.00  0.00     0.016 A 
ATOM     24  C   UNL     1       2.809   3.157   2.298  1.00  0.00     0.062 A 
BRANCH  20  25
ATOM     25  O   UNL     1       0.930   1.179  -0.146  1.00  0.00    -0.493 OA
ATOM     26  C   UNL     1      -0.005   0.163   0.210  1.00  0.00     0.278 C 
ENDBRANCH  20  25
BRANCH  22  27
ATOM     27  O   UNL     1       3.645   1.510   0.916  1.00  0.00    -0.493 OA
ATOM     28  C   UNL     1       3.453   0.207   0.385  1.00  0.00     0.278 C 
ENDBRANCH  22  27
ENDBRANCH  15  19
ENDBRANCH  13  14
ENDBRANCH   7  13
ENDBRANCH   3   6
ENDBRANCH   1   2
BRANCH   1  29
ATOM     29  C   UNL     1       4.655  12.248   7.712  1.00  0.00     0.042 C 
BRANCH  29  30
ATOM     30  C   UNL     1       5.415  12.318   9.029  1.00  0.00     0.118 C 
BRANCH  30  31
ATOM     31  N   UNL     1       6.856  12.237   8.848  1.00  0.00    -0.352 N 
ATOM     32  C   UNL     1       7.846  13.081   9.282  1.00  0.00     0.251 C 
ATOM     33  H   UNL     1       7.168  11.457   8.335  1.00  0.00     0.163 HD
ATOM     34  O   UNL     1       8.991  12.925   8.862  1.00  0.00    -0.269 OA
BRANCH  32  35
ATOM     35  C   UNL     1       7.548  14.176  10.233  1.00  0.00     0.039 A 
ATOM     36  C   UNL     1       8.205  15.399  10.070  1.00  0.00     0.014 A 
ATOM     37  C   UNL     1       6.663  14.000  11.300  1.00  0.00     0.014 A 
ATOM     38  C   UNL     1       7.945  16.450  10.951  1.00  0.00     0.010 A 
ATOM     39  C   UNL     1       6.338  15.075  12.123  1.00  0.00     0.010 A 
ATOM     40  C   UNL     1       6.993  16.304  11.974  1.00  0.00    -0.014 A 
BRANCH  40  41
ATOM     41  C   UNL     1       6.689  17.431  12.892  1.00  0.00     0.031 A 
ATOM     42  C   UNL     1       6.986  17.324  14.363  1.00  0.00     0.074 A 
ATOM     43  C   UNL     1       6.099  18.539  12.404  1.00  0.00     0.049 A 
ATOM     44  N   UNL     1       6.848  18.229  15.298  1.00  0.00    -0.248 NA
ATOM     45  C   UNL     1       7.478  16.027  14.856  1.00  0.00     0.031 C 
ATOM     46  C   UNL     1       5.673  18.727  11.015  1.00  0.00     0.029 A 
ATOM     47  N   UNL     1       5.752  19.715  13.020  1.00  0.00    -0.354 N 
ATOM     48  C   UNL     1       7.207  17.606  16.487  1.00  0.00     0.074 A 
ATOM     49  C   UNL     1       7.522  16.232  16.164  1.00  0.00     0.031 C 
ATOM     50  C   UNL     1       5.156  19.958  10.877  1.00  0.00     0.029 A 
ATOM     51  C   UNL     1       5.198  20.640  12.167  1.00  0.00     0.049 A 
ATOM     52  H   UNL     1       5.888  19.881  13.980  1.00  0.00     0.167 HD
ATOM     53  C   UNL     1       7.305  18.135  17.730  1.00  0.00     0.034 A 
ATOM     54  C   UNL     1       4.793  21.905  12.393  1.00  0.00     0.034 A 
ATOM     55  C   UNL     1       7.032  19.513  18.038  1.00  0.00     0.049 A 
ATOM     56  C   UNL     1       4.971  22.494  13.766  1.00  0.00     0.074 A 
ATOM     57  C   UNL     1       7.185  20.174  19.244  1.00  0.00     0.029 A 
ATOM     58  N   UNL     1       6.545  20.443  17.132  1.00  0.00    -0.354 N 
ATOM     59  N   UNL     1       5.479  21.941  14.841  1.00  0.00    -0.248 NA
ATOM     60  C   UNL     1       4.563  23.894  13.944  1.00  0.00     0.031 C 
ATOM     61  C   UNL     1       6.775  21.502  19.069  1.00  0.00     0.029 A 
ATOM     62  C   UNL     1       6.386  21.671  17.749  1.00  0.00     0.049 A 
ATOM     63  H   UNL     1       6.342  20.256  16.187  1.00  0.00     0.167 HD
ATOM     64  C   UNL     1       5.489  22.935  15.812  1.00  0.00     0.074 A 
ATOM     65  C   UNL     1       4.951  24.129  15.191  1.00  0.00     0.031 C 
ATOM     66  C   UNL     1       5.898  22.864  17.104  1.00  0.00     0.034 A 
BRANCH  53  67
ATOM     67  C   UNL     1       7.787  17.227  18.833  1.00  0.00     0.023 A 
ATOM     68  C   UNL     1       9.132  16.798  18.839  1.00  0.00     0.012 A 
ATOM     69  C   UNL     1       6.930  16.816  19.872  1.00  0.00     0.148 A 
ATOM     70  C   UNL     1       9.601  15.937  19.830  1.00  0.00     0.002 A 
ATOM     71  C   UNL     1       7.418  15.993  20.883  1.00  0.00     0.091 A 
ATOM     72  F   UNL     1       5.649  17.209  19.842  1.00  0.00    -0.205 F 
ATOM     73  C   UNL     1       8.748  15.542  20.856  1.00  0.00     0.022 A 
BRANCH  71  74
ATOM     74  S   UNL     1       6.411  15.501  22.286  1.00  0.00     0.127 S 
ATOM     75  O   UNL     1       6.027  14.141  21.913  1.00  0.00    -0.237 OA
ATOM     76  O   UNL     1       7.361  15.582  23.398  1.00  0.00    -0.237 OA
ATOM     77  O   UNL     1       5.327  16.471  22.352  1.00  0.00    -0.744 OA
ENDBRANCH  71  74
ENDBRANCH  53  67
BRANCH  54  78
ATOM     78  C   UNL     1       4.302  22.733  11.256  1.00  0.00     0.023 A 
ATOM     79  C   UNL     1       5.125  23.759  10.753  1.00  0.00     0.012 A 
ATOM     80  C   UNL     1       3.068  22.471  10.630  1.00  0.00     0.148 A 
ATOM     81  C   UNL     1       4.720  24.526   9.661  1.00  0.00     0.002 A 
ATOM     82  C   UNL     1       2.694  23.206   9.510  1.00  0.00     0.091 A 
ATOM     83  F   UNL     1       2.299  21.494  11.128  1.00  0.00    -0.205 F 
ATOM     84  C   UNL     1       3.511  24.242   9.033  1.00  0.00     0.022 A 
BRANCH  82  85
ATOM     85  S   UNL     1       1.219  22.826   8.556  1.00  0.00     0.127 S 
ATOM     86  O   UNL     1       0.388  24.003   8.811  1.00  0.00    -0.237 OA
ATOM     87  O   UNL     1       1.756  22.736   7.197  1.00  0.00    -0.237 OA
ATOM     88  O   UNL     1       0.714  21.572   9.088  1.00  0.00    -0.744 OA
ENDBRANCH  82  85
ENDBRANCH  54  78
BRANCH  66  89
ATOM     89  C   UNL     1       5.812  24.119  17.932  1.00  0.00     0.023 A 
ATOM     90  C   UNL     1       4.556  24.591  18.362  1.00  0.00     0.012 A 
ATOM     91  C   UNL     1       6.980  24.793  18.340  1.00  0.00     0.148 A 
ATOM     92  C   UNL     1       4.462  25.732  19.157  1.00  0.00     0.002 A 
ATOM     93  C   UNL     1       6.881  25.902  19.172  1.00  0.00     0.091 A 
ATOM     94  F   UNL     1       8.166  24.344  17.903  1.00  0.00    -0.205 F 
ATOM     95  C   UNL     1       5.623  26.380  19.572  1.00  0.00     0.022 A 
BRANCH  93  96
ATOM     96  S   UNL     1       8.331  26.737  19.828  1.00  0.00     0.127 S 
ATOM     97  O   UNL     1       8.399  27.927  18.983  1.00  0.00    -0.237 OA
ATOM     98  O   UNL     1       7.943  26.996  21.215  1.00  0.00    -0.237 OA
ATOM     99  O   UNL     1       9.432  25.794  19.679  1.00  0.00    -0.744 OA
ENDBRANCH  93  96
ENDBRANCH  66  89
ENDBRANCH  40  41
ENDBRANCH  32  35
ENDBRANCH  30  31
ENDBRANCH  29  30
ENDBRANCH   1  29
TORSDOF 18
