REMARK SMILES C[C@@H]1C[C@@H]1NC(=O)Cn1cccc1C(=O)NCCCNC(=O)c1ccc(-c2c3nc(c(-c4cccc(S(=O)(=O)[O-])c4F)c4ccc([nH]4)c(-c4cccc(S(=O)(=O)[O-])c4F)c4nc(c(-c5cccc(S(=O)(=O)[O-])c5F)c5ccc2[nH]5)C=C4)C=C3)cc1
REMARK SMILES IDX 18 1 17 2 16 3 14 4 15 5 13 7 9 8 10 9 11 10 12 11 8 12 6 13
REMARK SMILES IDX 5 14 7 16 4 17 1 18 2 19 3 20 19 21 20 22 21 23 22 25 23 26
REMARK SMILES IDX 24 27 85 28 25 29 84 30 26 31 27 32 28 33 78 34 29 35 83 36
REMARK SMILES IDX 77 37 79 38 30 39 82 40 76 41 75 42 31 44 63 45 43 46 62 47
REMARK SMILES IDX 44 48 47 49 61 50 80 51 45 52 46 53 60 55 81 56 48 57 32 58
REMARK SMILES IDX 33 59 41 60 34 61 36 62 42 63 35 64 37 65 38 66 39 67 40 68
REMARK SMILES IDX 64 69 65 70 73 71 66 72 68 73 74 74 67 75 69 76 70 77 71 78
REMARK SMILES IDX 72 79 49 80 50 81 58 82 51 83 53 84 59 85 52 86 54 87 55 88
REMARK SMILES IDX 56 89 57 90
REMARK H PARENT 16 6 5 15 20 24 79 43 47 54
REMARK Flexibility Score: inf
ROOT
ATOM      1  C   UNL     1       5.583   0.059  -0.567  1.00  0.00     0.042 C 
ENDROOT
BRANCH   1   2
ATOM      2  C   UNL     1       4.542  -0.645   0.279  1.00  0.00     0.118 C 
BRANCH   2   3
ATOM      3  N   UNL     1       4.283  -0.154   1.585  1.00  0.00    -0.351 N 
ATOM      4  C   UNL     1       3.092  -0.133   2.257  1.00  0.00     0.267 C 
ATOM      5  O   UNL     1       3.159   0.385   3.377  1.00  0.00    -0.268 OA
ATOM      6  H   UNL     1       5.057   0.218   2.067  1.00  0.00     0.163 HD
BRANCH   4   7
ATOM      7  C   UNL     1       1.794  -0.623   1.747  1.00  0.00     0.107 A 
ATOM      8  N   UNL     1       1.321  -1.506   0.758  1.00  0.00    -0.334 N 
ATOM      9  C   UNL     1      -0.029  -1.756   1.025  1.00  0.00     0.087 A 
ATOM     10  C   UNL     1      -0.489  -0.883   1.967  1.00  0.00     0.020 A 
ATOM     11  C   UNL     1       0.634  -0.174   2.403  1.00  0.00     0.033 A 
BRANCH   8  12
ATOM     12  C   UNL     1       1.983  -2.418  -0.192  1.00  0.00     0.222 C 
BRANCH  12  13
ATOM     13  C   UNL     1       2.612  -1.944  -1.494  1.00  0.00     0.240 C 
ATOM     14  N   UNL     1       2.203  -0.924  -2.296  1.00  0.00    -0.352 N 
ATOM     15  H   UNL     1       2.928  -0.307  -2.547  1.00  0.00     0.163 HD
ATOM     16  O   UNL     1       3.656  -2.509  -1.866  1.00  0.00    -0.273 OA
BRANCH  14  17
ATOM     17  C   UNL     1       0.938  -0.567  -2.845  1.00  0.00     0.085 C 
ATOM     18  C   UNL     1       0.379   1.241  -1.026  1.00  0.00     0.010 C 
ATOM     19  C   UNL     1       0.054   0.522  -2.290  1.00  0.00     0.010 C 
ATOM     20  C   UNL     1      -0.402  -0.919  -2.309  1.00  0.00     0.030 C 
ENDBRANCH  14  17
ENDBRANCH  12  13
ENDBRANCH   8  12
ENDBRANCH   4   7
ENDBRANCH   2   3
ENDBRANCH   1   2
BRANCH   1  21
ATOM     21  C   UNL     1       7.007  -0.236  -0.155  1.00  0.00     0.118 C 
BRANCH  21  22
ATOM     22  N   UNL     1       7.392  -1.629  -0.365  1.00  0.00    -0.352 N 
ATOM     23  C   UNL     1       8.671  -2.153  -0.418  1.00  0.00     0.251 C 
ATOM     24  H   UNL     1       6.655  -2.271  -0.484  1.00  0.00     0.163 HD
ATOM     25  O   UNL     1       8.861  -3.303  -0.756  1.00  0.00    -0.269 OA
BRANCH  23  26
ATOM     26  C   UNL     1       9.810  -1.257  -0.111  1.00  0.00     0.039 A 
ATOM     27  C   UNL     1      10.903  -1.244  -0.985  1.00  0.00     0.014 A 
ATOM     28  C   UNL     1       9.755  -0.389   0.982  1.00  0.00     0.014 A 
ATOM     29  C   UNL     1      11.890  -0.279  -0.820  1.00  0.00     0.010 A 
ATOM     30  C   UNL     1      10.692   0.617   1.103  1.00  0.00     0.010 A 
ATOM     31  C   UNL     1      11.753   0.677   0.196  1.00  0.00    -0.014 A 
BRANCH  31  32
ATOM     32  C   UNL     1      12.675   1.827   0.257  1.00  0.00     0.031 A 
ATOM     33  C   UNL     1      12.375   2.865  -0.849  1.00  0.00     0.074 A 
ATOM     34  C   UNL     1      13.594   1.782   1.270  1.00  0.00     0.049 A 
ATOM     35  N   UNL     1      13.181   3.650  -1.500  1.00  0.00    -0.248 NA
ATOM     36  C   UNL     1      10.992   2.963  -1.395  1.00  0.00     0.031 C 
ATOM     37  C   UNL     1      13.683   0.691   2.273  1.00  0.00     0.029 A 
ATOM     38  N   UNL     1      14.612   2.611   1.693  1.00  0.00    -0.354 N 
ATOM     39  C   UNL     1      12.382   4.483  -2.332  1.00  0.00     0.074 A 
ATOM     40  C   UNL     1      11.076   3.903  -2.343  1.00  0.00     0.031 C 
ATOM     41  C   UNL     1      14.711   0.890   3.121  1.00  0.00     0.029 A 
ATOM     42  C   UNL     1      15.386   2.124   2.777  1.00  0.00     0.049 A 
ATOM     43  H   UNL     1      14.789   3.482   1.270  1.00  0.00     0.167 HD
ATOM     44  C   UNL     1      12.813   5.693  -2.809  1.00  0.00     0.034 A 
ATOM     45  C   UNL     1      16.521   2.647   3.337  1.00  0.00     0.034 A 
ATOM     46  C   UNL     1      14.100   5.964  -2.256  1.00  0.00     0.049 A 
ATOM     47  C   UNL     1      16.708   3.959   2.706  1.00  0.00     0.074 A 
ATOM     48  C   UNL     1      15.351   5.469  -2.507  1.00  0.00     0.029 A 
ATOM     49  N   UNL     1      14.085   6.603  -1.037  1.00  0.00    -0.354 N 
ATOM     50  N   UNL     1      15.976   5.004   2.955  1.00  0.00    -0.248 NA
ATOM     51  C   UNL     1      17.683   4.091   1.617  1.00  0.00     0.031 C 
ATOM     52  C   UNL     1      15.941   5.433  -1.229  1.00  0.00     0.029 A 
ATOM     53  C   UNL     1      15.127   6.101  -0.304  1.00  0.00     0.049 A 
ATOM     54  H   UNL     1      13.445   7.292  -0.747  1.00  0.00     0.167 HD
ATOM     55  C   UNL     1      16.146   5.745   1.812  1.00  0.00     0.074 A 
ATOM     56  C   UNL     1      17.410   5.336   1.241  1.00  0.00     0.031 C 
ATOM     57  C   UNL     1      15.053   6.189   1.135  1.00  0.00     0.034 A 
BRANCH  44  58
ATOM     58  C   UNL     1      12.169   6.867  -3.521  1.00  0.00     0.023 A 
ATOM     59  C   UNL     1      13.087   7.792  -4.109  1.00  0.00     0.012 A 
ATOM     60  C   UNL     1      10.832   7.282  -3.415  1.00  0.00     0.148 A 
ATOM     61  C   UNL     1      12.739   9.100  -4.437  1.00  0.00     0.002 A 
ATOM     62  C   UNL     1      10.474   8.584  -3.797  1.00  0.00     0.091 A 
ATOM     63  F   UNL     1       9.928   6.459  -2.877  1.00  0.00    -0.205 F 
ATOM     64  C   UNL     1      11.430   9.502  -4.264  1.00  0.00     0.022 A 
BRANCH  62  65
ATOM     65  S   UNL     1       8.787   9.200  -3.717  1.00  0.00     0.127 S 
ATOM     66  O   UNL     1       8.837  10.075  -2.549  1.00  0.00    -0.237 OA
ATOM     67  O   UNL     1       8.661   9.907  -4.995  1.00  0.00    -0.237 OA
ATOM     68  O   UNL     1       7.943   8.018  -3.611  1.00  0.00    -0.744 OA
ENDBRANCH  62  65
ENDBRANCH  44  58
BRANCH  45  69
ATOM     69  C   UNL     1      17.600   2.158   4.275  1.00  0.00     0.023 A 
ATOM     70  C   UNL     1      17.468   1.057   5.133  1.00  0.00     0.012 A 
ATOM     71  C   UNL     1      18.888   2.771   4.251  1.00  0.00     0.148 A 
ATOM     72  C   UNL     1      18.577   0.532   5.828  1.00  0.00     0.002 A 
ATOM     73  C   UNL     1      20.004   2.182   4.832  1.00  0.00     0.091 A 
ATOM     74  F   UNL     1      19.042   3.972   3.686  1.00  0.00    -0.205 F 
ATOM     75  C   UNL     1      19.853   1.060   5.638  1.00  0.00     0.022 A 
BRANCH  73  76
ATOM     76  S   UNL     1      21.675   2.736   4.439  1.00  0.00     0.127 S 
ATOM     77  O   UNL     1      22.240   2.988   5.763  1.00  0.00    -0.237 OA
ATOM     78  O   UNL     1      22.215   1.562   3.752  1.00  0.00    -0.237 OA
ATOM     79  O   UNL     1      21.530   3.914   3.593  1.00  0.00    -0.744 OA
ENDBRANCH  73  76
ENDBRANCH  45  69
BRANCH  57  80
ATOM     80  C   UNL     1      13.801   6.386   1.994  1.00  0.00     0.023 A 
ATOM     81  C   UNL     1      13.915   7.248   3.106  1.00  0.00     0.012 A 
ATOM     82  C   UNL     1      12.574   5.694   1.845  1.00  0.00     0.148 A 
ATOM     83  C   UNL     1      12.883   7.396   4.037  1.00  0.00     0.002 A 
ATOM     84  C   UNL     1      11.543   5.831   2.784  1.00  0.00     0.091 A 
ATOM     85  F   UNL     1      12.413   4.900   0.791  1.00  0.00    -0.205 F 
ATOM     86  C   UNL     1      11.699   6.686   3.880  1.00  0.00     0.022 A 
BRANCH  84  87
ATOM     87  S   UNL     1       9.990   4.907   2.722  1.00  0.00     0.127 S 
ATOM     88  O   UNL     1       9.953   4.263   4.036  1.00  0.00    -0.237 OA
ATOM     89  O   UNL     1       9.004   5.972   2.551  1.00  0.00    -0.237 OA
ATOM     90  O   UNL     1      10.100   3.972   1.609  1.00  0.00    -0.744 OA
ENDBRANCH  84  87
ENDBRANCH  57  80
ENDBRANCH  31  32
ENDBRANCH  23  26
ENDBRANCH  21  22
ENDBRANCH   1  21
TORSDOF 16
