REMARK SMILES COc1c(C(=O)NCCCNC(=O)c2ccc(-c3c4nc(c(-c5cccc(S(=O)(=O)[O-])c5F)c5ccc([nH]5)c(-c5cccc(S(=O)(=O)[O-])c5F)c5nc(c(-c6cccc(S(=O)(=O)[O-])c6F)c6ccc3[nH]6)C=C5)C=C4)cc2)ccc(F)c1F
REMARK SMILES IDX 10 1 9 2 8 3 7 4 5 5 6 6 4 8 3 9 81 10 77 11 79 12 82 13
REMARK SMILES IDX 78 14 80 15 2 16 1 17 11 18 12 19 13 21 14 22 15 23 76 24
REMARK SMILES IDX 16 25 75 26 17 27 18 28 19 29 69 30 20 31 74 32 68 33 70 34
REMARK SMILES IDX 21 35 73 36 67 37 66 38 22 40 54 41 34 42 53 43 35 44 38 45
REMARK SMILES IDX 52 46 71 47 36 48 37 49 51 51 72 52 39 53 23 54 24 55 32 56
REMARK SMILES IDX 25 57 27 58 33 59 26 60 28 61 29 62 30 63 31 64 55 65 56 66
REMARK SMILES IDX 64 67 57 68 59 69 65 70 58 71 60 72 61 73 62 74 63 75 40 76
REMARK SMILES IDX 41 77 49 78 42 79 44 80 50 81 43 82 45 83 46 84 47 85 48 86
REMARK H PARENT 7 7 11 20 70 39 38 50
REMARK Flexibility Score: inf
ROOT
ATOM      1  C   UNL     1       6.695   0.037  -3.356  1.00  0.00     0.118 C 
ENDROOT
BRANCH   1   2
ATOM      2  C   UNL     1       5.627  -0.946  -3.838  1.00  0.00     0.042 C 
BRANCH   2   3
ATOM      3  C   UNL     1       5.267  -1.997  -2.792  1.00  0.00     0.118 C 
BRANCH   3   4
ATOM      4  N   UNL     1       4.575  -1.407  -1.665  1.00  0.00    -0.352 N 
ATOM      5  C   UNL     1       3.275  -1.323  -1.246  1.00  0.00     0.255 C 
ATOM      6  O   UNL     1       3.150  -0.821  -0.129  1.00  0.00    -0.269 OA
ATOM      7  H   UNL     1       5.194  -0.953  -1.047  1.00  0.00     0.163 HD
BRANCH   5   8
ATOM      8  C   UNL     1       2.081  -1.824  -2.011  1.00  0.00     0.085 A 
ATOM      9  C   UNL     1       0.821  -1.900  -1.377  1.00  0.00     0.170 A 
ATOM     10  C   UNL     1      -0.258  -2.541  -2.004  1.00  0.00     0.201 A 
ATOM     11  C   UNL     1       2.147  -2.252  -3.348  1.00  0.00     0.021 A 
ATOM     12  C   UNL     1      -0.125  -3.050  -3.285  1.00  0.00     0.162 A 
ATOM     13  F   UNL     1      -1.435  -2.655  -1.369  1.00  0.00    -0.200 F 
ATOM     14  C   UNL     1       1.064  -2.884  -3.974  1.00  0.00     0.043 A 
ATOM     15  F   UNL     1      -1.149  -3.682  -3.875  1.00  0.00    -0.204 F 
BRANCH   9  16
ATOM     16  O   UNL     1       0.572  -1.402  -0.120  1.00  0.00    -0.493 OA
ATOM     17  C   UNL     1       0.323   0.008  -0.180  1.00  0.00     0.278 C 
ENDBRANCH   9  16
ENDBRANCH   5   8
ENDBRANCH   3   4
ENDBRANCH   2   3
ENDBRANCH   1   2
BRANCH   1  18
ATOM     18  N   UNL     1       7.951  -0.633  -3.030  1.00  0.00    -0.352 N 
ATOM     19  C   UNL     1       9.183  -0.532  -3.628  1.00  0.00     0.251 C 
ATOM     20  H   UNL     1       7.908  -1.251  -2.265  1.00  0.00     0.163 HD
ATOM     21  O   UNL     1      10.051  -1.363  -3.389  1.00  0.00    -0.269 OA
BRANCH  19  22
ATOM     22  C   UNL     1       9.451   0.584  -4.556  1.00  0.00     0.039 A 
ATOM     23  C   UNL     1      10.119   0.335  -5.757  1.00  0.00     0.014 A 
ATOM     24  C   UNL     1       9.045   1.879  -4.226  1.00  0.00     0.014 A 
ATOM     25  C   UNL     1      10.316   1.379  -6.663  1.00  0.00     0.010 A 
ATOM     26  C   UNL     1       9.166   2.896  -5.163  1.00  0.00     0.010 A 
ATOM     27  C   UNL     1       9.807   2.659  -6.388  1.00  0.00    -0.014 A 
BRANCH  27  28
ATOM     28  C   UNL     1       9.911   3.770  -7.366  1.00  0.00     0.031 A 
ATOM     29  C   UNL     1      10.642   5.031  -6.997  1.00  0.00     0.074 A 
ATOM     30  C   UNL     1       9.235   3.693  -8.529  1.00  0.00     0.049 A 
ATOM     31  N   UNL     1      10.734   6.154  -7.658  1.00  0.00    -0.248 NA
ATOM     32  C   UNL     1      11.328   5.043  -5.694  1.00  0.00     0.031 C 
ATOM     33  C   UNL     1       8.420   2.555  -8.959  1.00  0.00     0.029 A 
ATOM     34  N   UNL     1       9.090   4.608  -9.542  1.00  0.00    -0.354 N 
ATOM     35  C   UNL     1      11.438   7.022  -6.832  1.00  0.00     0.074 A 
ATOM     36  C   UNL     1      11.724   6.304  -5.610  1.00  0.00     0.031 C 
ATOM     37  C   UNL     1       7.855   2.842 -10.142  1.00  0.00     0.029 A 
ATOM     38  C   UNL     1       8.232   4.196 -10.535  1.00  0.00     0.049 A 
ATOM     39  H   UNL     1       9.556   5.475  -9.557  1.00  0.00     0.167 HD
ATOM     40  C   UNL     1      11.828   8.296  -7.078  1.00  0.00     0.034 A 
ATOM     41  C   UNL     1       7.780   4.842 -11.627  1.00  0.00     0.034 A 
ATOM     42  C   UNL     1      11.571   8.988  -8.312  1.00  0.00     0.049 A 
ATOM     43  C   UNL     1       8.270   6.236 -11.905  1.00  0.00     0.074 A 
ATOM     44  C   UNL     1      12.017  10.236  -8.706  1.00  0.00     0.029 A 
ATOM     45  N   UNL     1      10.785   8.498  -9.344  1.00  0.00    -0.354 N 
ATOM     46  N   UNL     1       9.071   6.985 -11.187  1.00  0.00    -0.248 NA
ATOM     47  C   UNL     1       7.824   6.861 -13.157  1.00  0.00     0.031 C 
ATOM     48  C   UNL     1      11.466  10.519  -9.960  1.00  0.00     0.029 A 
ATOM     49  C   UNL     1      10.716   9.427 -10.368  1.00  0.00     0.049 A 
ATOM     50  H   UNL     1      10.341   7.620  -9.348  1.00  0.00     0.167 HD
ATOM     51  C   UNL     1       9.256   8.154 -11.916  1.00  0.00     0.074 A 
ATOM     52  C   UNL     1       8.493   8.006 -13.139  1.00  0.00     0.031 C 
ATOM     53  C   UNL     1       9.987   9.251 -11.599  1.00  0.00     0.034 A 
BRANCH  40  54
ATOM     54  C   UNL     1      12.596   9.012  -5.997  1.00  0.00     0.023 A 
ATOM     55  C   UNL     1      13.903   8.597  -5.667  1.00  0.00     0.012 A 
ATOM     56  C   UNL     1      12.037  10.120  -5.330  1.00  0.00     0.148 A 
ATOM     57  C   UNL     1      14.621   9.239  -4.658  1.00  0.00     0.002 A 
ATOM     58  C   UNL     1      12.779  10.788  -4.363  1.00  0.00     0.091 A 
ATOM     59  F   UNL     1      10.786  10.489  -5.639  1.00  0.00    -0.205 F 
ATOM     60  C   UNL     1      14.063  10.339  -4.014  1.00  0.00     0.022 A 
BRANCH  58  61
ATOM     61  S   UNL     1      12.183  12.269  -3.540  1.00  0.00     0.127 S 
ATOM     62  O   UNL     1      11.906  11.767  -2.195  1.00  0.00    -0.237 OA
ATOM     63  O   UNL     1      13.340  13.159  -3.632  1.00  0.00    -0.237 OA
ATOM     64  O   UNL     1      11.019  12.707  -4.297  1.00  0.00    -0.744 OA
ENDBRANCH  58  61
ENDBRANCH  40  54
BRANCH  41  65
ATOM     65  C   UNL     1       6.850   4.147 -12.559  1.00  0.00     0.023 A 
ATOM     66  C   UNL     1       7.313   3.730 -13.822  1.00  0.00     0.012 A 
ATOM     67  C   UNL     1       5.529   3.843 -12.176  1.00  0.00     0.148 A 
ATOM     68  C   UNL     1       6.469   3.046 -14.697  1.00  0.00     0.002 A 
ATOM     69  C   UNL     1       4.713   3.110 -13.028  1.00  0.00     0.091 A 
ATOM     70  F   UNL     1       5.109   4.251 -10.970  1.00  0.00    -0.205 F 
ATOM     71  C   UNL     1       5.174   2.726 -14.297  1.00  0.00     0.022 A 
BRANCH  69  72
ATOM     72  S   UNL     1       3.083   2.530 -12.543  1.00  0.00     0.127 S 
ATOM     73  O   UNL     1       2.217   3.276 -13.452  1.00  0.00    -0.237 OA
ATOM     74  O   UNL     1       3.182   1.096 -12.821  1.00  0.00    -0.237 OA
ATOM     75  O   UNL     1       2.948   2.860 -11.131  1.00  0.00    -0.744 OA
ENDBRANCH  69  72
ENDBRANCH  41  65
BRANCH  53  76
ATOM     76  C   UNL     1      10.045  10.370 -12.605  1.00  0.00     0.023 A 
ATOM     77  C   UNL     1       8.919  11.188 -12.822  1.00  0.00     0.012 A 
ATOM     78  C   UNL     1      11.251  10.662 -13.273  1.00  0.00     0.148 A 
ATOM     79  C   UNL     1       8.984  12.259 -13.712  1.00  0.00     0.002 A 
ATOM     80  C   UNL     1      11.324  11.763 -14.116  1.00  0.00     0.091 A 
ATOM     81  F   UNL     1      12.306   9.860 -13.067  1.00  0.00    -0.205 F 
ATOM     82  C   UNL     1      10.188  12.555 -14.348  1.00  0.00     0.022 A 
BRANCH  80  83
ATOM     83  S   UNL     1      12.857  12.279 -14.896  1.00  0.00     0.127 S 
ATOM     84  O   UNL     1      12.600  11.957 -16.299  1.00  0.00    -0.237 OA
ATOM     85  O   UNL     1      12.890  13.710 -14.595  1.00  0.00    -0.237 OA
ATOM     86  O   UNL     1      13.914  11.502 -14.262  1.00  0.00    -0.744 OA
ENDBRANCH  80  83
ENDBRANCH  53  76
ENDBRANCH  27  28
ENDBRANCH  19  22
ENDBRANCH   1  18
TORSDOF 14
