REMARK SMILES COc1cccc(-c2c([C@H]3c4ccccc4C(=O)N3CC(=O)NCCCNC(=O)c3ccc(-c4c5nc(c(-c6cccc(S(=O)(=O)[O-])c6F)c6ccc([nH]6)c(-c6cccc(S(=O)(=O)[O-])c6F)c6nc(c(-c7cccc(S(=O)(=O)[O-])c7F)c7ccc4[nH]7)C=C6)C=C5)cc3)c3ccccc3n2C)c1
REMARK SMILES IDX 24 1 23 2 21 3 22 4 20 6 19 7 10 8 11 9 12 10 16 11 17 12
REMARK SMILES IDX 13 13 15 14 18 15 14 16 9 17 8 18 99 19 93 20 98 21 100 22
REMARK SMILES IDX 94 23 97 24 95 25 96 26 7 27 3 28 4 29 101 30 5 31 6 32 2 33
REMARK SMILES IDX 1 34 25 35 26 36 27 37 28 38 29 40 30 41 31 42 92 43 32 44
REMARK SMILES IDX 91 45 33 46 34 47 35 48 85 49 36 50 90 51 84 52 86 53 37 54
REMARK SMILES IDX 89 55 83 56 82 57 38 59 70 60 50 61 69 62 51 63 54 64 68 65
REMARK SMILES IDX 87 66 52 67 53 68 67 70 88 71 55 72 39 73 40 74 48 75 41 76
REMARK SMILES IDX 43 77 49 78 42 79 44 80 45 81 46 82 47 83 71 84 72 85 80 86
REMARK SMILES IDX 73 87 75 88 81 89 74 90 76 91 77 92 78 93 79 94 56 95 57 96
REMARK SMILES IDX 65 97 58 98 60 99 66 100 59 101 61 102 62 103 63 104 64 105
REMARK H PARENT 23 5 27 39 86 58 54 69
REMARK Flexibility Score: inf
ROOT
ATOM      1  C   UNL     1       6.732   2.951  -1.207  1.00  0.00     0.117 C 
ENDROOT
BRANCH   1   2
ATOM      2  N   UNL     1       7.486   1.856  -0.621  1.00  0.00    -0.354 N 
ATOM      3  C   UNL     1       7.122   0.539  -0.610  1.00  0.00     0.239 C 
ATOM      4  O   UNL     1       7.643  -0.224   0.205  1.00  0.00    -0.273 OA
ATOM      5  H   UNL     1       8.341   2.085  -0.191  1.00  0.00     0.163 HD
BRANCH   3   6
ATOM      6  C   UNL     1       6.120   0.042  -1.641  1.00  0.00     0.220 C 
BRANCH   6   7
ATOM      7  N   UNL     1       4.708  -0.084  -1.272  1.00  0.00    -0.318 N 
ATOM      8  C   UNL     1       4.121  -1.394  -1.499  1.00  0.00     0.150 C 
ATOM      9  C   UNL     1       3.534  -1.167  -2.873  1.00  0.00    -0.008 A 
ATOM     10  C   UNL     1       3.652  -1.923  -4.028  1.00  0.00     0.007 A 
ATOM     11  C   UNL     1       3.198   0.181  -2.988  1.00  0.00     0.045 A 
ATOM     12  C   UNL     1       3.850   0.864  -1.870  1.00  0.00     0.255 C 
ATOM     13  C   UNL     1       3.396  -1.304  -5.263  1.00  0.00     0.000 A 
ATOM     14  C   UNL     1       2.890   0.807  -4.184  1.00  0.00     0.014 A 
ATOM     15  O   UNL     1       3.837   2.075  -1.769  1.00  0.00    -0.269 OA
ATOM     16  C   UNL     1       2.999   0.044  -5.340  1.00  0.00     0.001 A 
BRANCH   8  17
ATOM     17  C   UNL     1       2.975  -1.721  -0.554  1.00  0.00     0.013 A 
ATOM     18  C   UNL     1       2.231  -2.909  -0.591  1.00  0.00     0.055 A 
ATOM     19  N   UNL     1       1.141  -2.736   0.238  1.00  0.00    -0.343 N 
ATOM     20  C   UNL     1       2.513  -1.012   0.615  1.00  0.00     0.006 A 
ATOM     21  C   UNL     1       1.359  -1.657   1.073  1.00  0.00     0.049 A 
ATOM     22  C   UNL     1      -0.049  -3.559   0.255  1.00  0.00     0.150 C 
ATOM     23  C   UNL     1       2.963   0.121   1.333  1.00  0.00     0.011 A 
ATOM     24  C   UNL     1       0.631  -1.183   2.183  1.00  0.00     0.027 A 
ATOM     25  C   UNL     1       2.257   0.585   2.449  1.00  0.00     0.001 A 
ATOM     26  C   UNL     1       1.099  -0.056   2.861  1.00  0.00     0.002 A 
BRANCH  18  27
ATOM     27  C   UNL     1       2.577  -4.106  -1.365  1.00  0.00     0.002 A 
ATOM     28  C   UNL     1       4.429  -5.488  -2.135  1.00  0.00     0.119 A 
ATOM     29  C   UNL     1       3.613  -5.988  -3.147  1.00  0.00     0.046 A 
ATOM     30  C   UNL     1       3.881  -4.614  -1.203  1.00  0.00     0.056 A 
ATOM     31  C   UNL     1       2.281  -5.575  -3.255  1.00  0.00     0.005 A 
ATOM     32  C   UNL     1       1.768  -4.614  -2.379  1.00  0.00     0.010 A 
BRANCH  28  33
ATOM     33  O   UNL     1       5.744  -5.868  -2.179  1.00  0.00    -0.497 OA
ATOM     34  C   UNL     1       6.658  -5.059  -1.437  1.00  0.00     0.278 C 
ENDBRANCH  28  33
ENDBRANCH  18  27
ENDBRANCH   8  17
ENDBRANCH   6   7
ENDBRANCH   3   6
ENDBRANCH   1   2
BRANCH   1  35
ATOM     35  C   UNL     1       5.644   3.398  -0.243  1.00  0.00     0.042 C 
BRANCH  35  36
ATOM     36  C   UNL     1       6.186   4.204   0.916  1.00  0.00     0.118 C 
BRANCH  36  37
ATOM     37  N   UNL     1       6.414   5.580   0.507  1.00  0.00    -0.352 N 
ATOM     38  C   UNL     1       5.546   6.644   0.535  1.00  0.00     0.251 C 
ATOM     39  H   UNL     1       7.315   5.776   0.163  1.00  0.00     0.163 HD
ATOM     40  O   UNL     1       5.757   7.594  -0.216  1.00  0.00    -0.269 OA
BRANCH  38  41
ATOM     41  C   UNL     1       4.388   6.675   1.464  1.00  0.00     0.039 A 
ATOM     42  C   UNL     1       3.262   7.429   1.117  1.00  0.00     0.014 A 
ATOM     43  C   UNL     1       4.442   6.071   2.723  1.00  0.00     0.014 A 
ATOM     44  C   UNL     1       2.213   7.586   2.030  1.00  0.00     0.010 A 
ATOM     45  C   UNL     1       3.351   6.127   3.582  1.00  0.00     0.010 A 
ATOM     46  C   UNL     1       2.253   6.938   3.274  1.00  0.00    -0.014 A 
BRANCH  46  47
ATOM     47  C   UNL     1       1.213   7.165   4.309  1.00  0.00     0.031 A 
ATOM     48  C   UNL     1       1.595   7.785   5.632  1.00  0.00     0.074 A 
ATOM     49  C   UNL     1      -0.050   6.749   4.098  1.00  0.00     0.049 A 
ATOM     50  N   UNL     1       0.853   8.009   6.685  1.00  0.00    -0.248 NA
ATOM     51  C   UNL     1       3.008   8.166   5.810  1.00  0.00     0.031 C 
ATOM     52  C   UNL     1      -0.522   6.054   2.900  1.00  0.00     0.029 A 
ATOM     53  N   UNL     1      -1.160   6.826   4.899  1.00  0.00    -0.354 N 
ATOM     54  C   UNL     1       1.714   8.501   7.660  1.00  0.00     0.074 A 
ATOM     55  C   UNL     1       3.041   8.509   7.089  1.00  0.00     0.031 C 
ATOM     56  C   UNL     1      -1.827   5.771   3.043  1.00  0.00     0.029 A 
ATOM     57  C   UNL     1      -2.278   6.247   4.347  1.00  0.00     0.049 A 
ATOM     58  H   UNL     1      -1.157   7.255   5.786  1.00  0.00     0.167 HD
ATOM     59  C   UNL     1       1.425   8.945   8.907  1.00  0.00     0.034 A 
ATOM     60  C   UNL     1      -3.526   6.119   4.837  1.00  0.00     0.034 A 
ATOM     61  C   UNL     1       0.092   9.017   9.438  1.00  0.00     0.049 A 
ATOM     62  C   UNL     1      -3.846   6.713   6.182  1.00  0.00     0.074 A 
ATOM     63  C   UNL     1      -0.329   9.562  10.637  1.00  0.00     0.029 A 
ATOM     64  N   UNL     1      -1.039   8.535   8.796  1.00  0.00    -0.354 N 
ATOM     65  N   UNL     1      -3.051   7.334   7.020  1.00  0.00    -0.248 NA
ATOM     66  C   UNL     1      -5.243   6.627   6.633  1.00  0.00     0.031 C 
ATOM     67  C   UNL     1      -1.717   9.401  10.725  1.00  0.00     0.029 A 
ATOM     68  C   UNL     1      -2.159   8.765   9.575  1.00  0.00     0.049 A 
ATOM     69  H   UNL     1      -1.044   8.093   7.917  1.00  0.00     0.167 HD
ATOM     70  C   UNL     1      -3.852   7.736   8.082  1.00  0.00     0.074 A 
ATOM     71  C   UNL     1      -5.202   7.310   7.769  1.00  0.00     0.031 C 
ATOM     72  C   UNL     1      -3.502   8.381   9.222  1.00  0.00     0.034 A 
BRANCH  59  73
ATOM     73  C   UNL     1       2.563   9.456   9.751  1.00  0.00     0.023 A 
ATOM     74  C   UNL     1       3.171  10.686   9.426  1.00  0.00     0.012 A 
ATOM     75  C   UNL     1       3.005   8.748  10.886  1.00  0.00     0.148 A 
ATOM     76  C   UNL     1       4.224  11.186  10.191  1.00  0.00     0.002 A 
ATOM     77  C   UNL     1       4.028   9.274  11.670  1.00  0.00     0.091 A 
ATOM     78  F   UNL     1       2.436   7.568  11.169  1.00  0.00    -0.205 F 
ATOM     79  C   UNL     1       4.645  10.485  11.318  1.00  0.00     0.022 A 
BRANCH  77  80
ATOM     80  S   UNL     1       4.586   8.482  13.183  1.00  0.00     0.127 S 
ATOM     81  O   UNL     1       5.847   7.879  12.754  1.00  0.00    -0.237 OA
ATOM     82  O   UNL     1       4.734   9.618  14.094  1.00  0.00    -0.237 OA
ATOM     83  O   UNL     1       3.533   7.547  13.553  1.00  0.00    -0.744 OA
ENDBRANCH  77  80
ENDBRANCH  59  73
BRANCH  60  84
ATOM     84  C   UNL     1      -4.582   5.484   3.999  1.00  0.00     0.023 A 
ATOM     85  C   UNL     1      -5.574   6.294   3.416  1.00  0.00     0.012 A 
ATOM     86  C   UNL     1      -4.574   4.101   3.727  1.00  0.00     0.148 A 
ATOM     87  C   UNL     1      -6.553   5.738   2.593  1.00  0.00     0.002 A 
ATOM     88  C   UNL     1      -5.524   3.561   2.868  1.00  0.00     0.091 A 
ATOM     89  F   UNL     1      -3.627   3.346   4.302  1.00  0.00    -0.205 F 
ATOM     90  C   UNL     1      -6.522   4.375   2.310  1.00  0.00     0.022 A 
BRANCH  88  91
ATOM     91  S   UNL     1      -5.489   1.840   2.349  1.00  0.00     0.127 S 
ATOM     92  O   UNL     1      -6.641   1.290   3.060  1.00  0.00    -0.237 OA
ATOM     93  O   UNL     1      -5.659   1.955   0.900  1.00  0.00    -0.237 OA
ATOM     94  O   UNL     1      -4.189   1.330   2.763  1.00  0.00    -0.744 OA
ENDBRANCH  88  91
ENDBRANCH  60  84
BRANCH  72  95
ATOM     95  C   UNL     1      -4.591   8.682  10.216  1.00  0.00     0.023 A 
ATOM     96  C   UNL     1      -5.117   7.639  11.003  1.00  0.00     0.012 A 
ATOM     97  C   UNL     1      -5.032  10.002  10.431  1.00  0.00     0.148 A 
ATOM     98  C   UNL     1      -6.087   7.901  11.970  1.00  0.00     0.002 A 
ATOM     99  C   UNL     1      -5.967  10.262  11.426  1.00  0.00     0.091 A 
ATOM    100  F   UNL     1      -4.533  10.979   9.658  1.00  0.00    -0.205 F 
ATOM    101  C   UNL     1      -6.502   9.212  12.189  1.00  0.00     0.022 A 
BRANCH  99 102
ATOM    102  S   UNL     1      -6.485  11.933  11.836  1.00  0.00     0.127 S 
ATOM    103  O   UNL     1      -7.793  12.008  11.187  1.00  0.00    -0.237 OA
ATOM    104  O   UNL     1      -6.532  11.899  13.298  1.00  0.00    -0.237 OA
ATOM    105  O   UNL     1      -5.459  12.811  11.290  1.00  0.00    -0.744 OA
ENDBRANCH  99 102
ENDBRANCH  72  95
ENDBRANCH  46  47
ENDBRANCH  38  41
ENDBRANCH  36  37
ENDBRANCH  35  36
ENDBRANCH   1  35
TORSDOF 17
