REMARK SMILES C[C@@H](NC1=[NH+]CCC1)C(=O)NCCCNC(=O)c1ccc(-c2c3nc(c(-c4cccc(S(=O)(=O)[O-])c4F)c4ccc([nH]4)c(-c4cccc(S(=O)(=O)[O-])c4F)c4nc(c(-c5cccc(S(=O)(=O)[O-])c5F)c5ccc2[nH]5)C=C4)C=C3)cc1
REMARK SMILES IDX 14 1 13 2 12 3 11 4 9 5 10 6 2 8 1 9 3 10 4 11 5 13 8 14
REMARK SMILES IDX 6 15 7 17 15 18 16 19 17 21 18 22 19 23 80 24 20 25 79 26
REMARK SMILES IDX 21 27 22 28 23 29 73 30 24 31 78 32 72 33 74 34 25 35 77 36
REMARK SMILES IDX 71 37 70 38 26 40 58 41 38 42 57 43 39 44 42 45 56 46 75 47
REMARK SMILES IDX 40 48 41 49 55 51 76 52 43 53 27 54 28 55 36 56 29 57 31 58
REMARK SMILES IDX 37 59 30 60 32 61 33 62 34 63 35 64 59 65 60 66 68 67 61 68
REMARK SMILES IDX 63 69 69 70 62 71 64 72 65 73 66 74 67 75 44 76 45 77 53 78
REMARK SMILES IDX 46 79 48 80 54 81 47 82 49 83 50 84 51 85 52 86
REMARK H PARENT 11 7 3 12 5 16 15 20 74 39 42 50
REMARK Flexibility Score: inf
ROOT
ATOM      1  C   UNL     1      -2.878  -2.860   0.938  1.00  0.00     0.118 C 
ENDROOT
BRANCH   1   2
ATOM      2  C   UNL     1      -1.395  -2.593   0.742  1.00  0.00     0.042 C 
BRANCH   2   3
ATOM      3  C   UNL     1      -1.076  -1.966  -0.600  1.00  0.00     0.118 C 
BRANCH   3   4
ATOM      4  N   UNL     1      -1.615  -0.620  -0.714  1.00  0.00    -0.352 N 
ATOM      5  C   UNL     1      -1.010   0.529  -1.130  1.00  0.00     0.264 C 
ATOM      6  O   UNL     1      -1.698   1.554  -1.175  1.00  0.00    -0.270 OA
ATOM      7  H   UNL     1      -2.559  -0.524  -0.451  1.00  0.00     0.163 HD
BRANCH   5   8
ATOM      8  C   UNL     1       0.477   0.564  -1.522  1.00  0.00     0.258 C 
ATOM      9  C   UNL     1       1.329   0.456  -0.255  1.00  0.00     0.069 C 
BRANCH   8  10
ATOM     10  N   UNL     1       0.867  -0.465  -2.490  1.00  0.00    -0.267 N 
ATOM     11  C   UNL     1       0.055  -1.111  -3.375  1.00  0.00     0.243 C 
ATOM     12  H   UNL     1       1.818  -0.717  -2.502  1.00  0.00     0.305 HD
ATOM     13  N   UNL     1       0.249  -2.377  -3.610  1.00  0.00    -0.279 N 
ATOM     14  C   UNL     1      -1.089  -0.484  -4.122  1.00  0.00     0.131 C 
ATOM     15  C   UNL     1      -0.875  -2.807  -4.466  1.00  0.00     0.234 C 
ATOM     16  H   UNL     1       0.993  -2.934  -3.284  1.00  0.00     0.304 HD
ATOM     17  C   UNL     1      -1.929  -1.720  -4.339  1.00  0.00     0.058 C 
ENDBRANCH   8  10
ENDBRANCH   5   8
ENDBRANCH   3   4
ENDBRANCH   2   3
ENDBRANCH   1   2
BRANCH   1  18
ATOM     18  N   UNL     1      -3.412  -3.827  -0.014  1.00  0.00    -0.352 N 
ATOM     19  C   UNL     1      -4.080  -5.003   0.225  1.00  0.00     0.251 C 
ATOM     20  H   UNL     1      -3.274  -3.606  -0.964  1.00  0.00     0.163 HD
ATOM     21  O   UNL     1      -4.312  -5.777  -0.701  1.00  0.00    -0.269 OA
BRANCH  19  22
ATOM     22  C   UNL     1      -4.497  -5.337   1.601  1.00  0.00     0.039 A 
ATOM     23  C   UNL     1      -4.296  -6.634   2.076  1.00  0.00     0.014 A 
ATOM     24  C   UNL     1      -5.059  -4.362   2.429  1.00  0.00     0.014 A 
ATOM     25  C   UNL     1      -4.606  -6.934   3.403  1.00  0.00     0.010 A 
ATOM     26  C   UNL     1      -5.263  -4.634   3.775  1.00  0.00     0.010 A 
ATOM     27  C   UNL     1      -5.058  -5.928   4.273  1.00  0.00    -0.014 A 
BRANCH  27  28
ATOM     28  C   UNL     1      -5.334  -6.211   5.703  1.00  0.00     0.031 A 
ATOM     29  C   UNL     1      -6.718  -6.004   6.260  1.00  0.00     0.074 A 
ATOM     30  C   UNL     1      -4.325  -6.582   6.516  1.00  0.00     0.049 A 
ATOM     31  N   UNL     1      -7.145  -6.164   7.485  1.00  0.00    -0.248 NA
ATOM     32  C   UNL     1      -7.752  -5.523   5.326  1.00  0.00     0.031 C 
ATOM     33  C   UNL     1      -2.924  -6.731   6.114  1.00  0.00     0.029 A 
ATOM     34  N   UNL     1      -4.319  -6.881   7.854  1.00  0.00    -0.354 N 
ATOM     35  C   UNL     1      -8.478  -5.772   7.477  1.00  0.00     0.074 A 
ATOM     36  C   UNL     1      -8.779  -5.322   6.137  1.00  0.00     0.031 C 
ATOM     37  C   UNL     1      -2.199  -7.108   7.178  1.00  0.00     0.029 A 
ATOM     38  C   UNL     1      -3.072  -7.196   8.344  1.00  0.00     0.049 A 
ATOM     39  H   UNL     1      -5.130  -6.872   8.413  1.00  0.00     0.167 HD
ATOM     40  C   UNL     1      -9.382  -5.813   8.484  1.00  0.00     0.034 A 
ATOM     41  C   UNL     1      -2.678  -7.514   9.592  1.00  0.00     0.034 A 
ATOM     42  C   UNL     1      -9.088  -6.299   9.805  1.00  0.00     0.049 A 
ATOM     43  C   UNL     1      -3.711  -7.596  10.682  1.00  0.00     0.074 A 
ATOM     44  C   UNL     1      -9.951  -6.464  10.872  1.00  0.00     0.029 A 
ATOM     45  N   UNL     1      -7.832  -6.690  10.242  1.00  0.00    -0.354 N 
ATOM     46  N   UNL     1      -5.001  -7.372  10.617  1.00  0.00    -0.248 NA
ATOM     47  C   UNL     1      -3.240  -8.013  12.011  1.00  0.00     0.031 C 
ATOM     48  C   UNL     1      -9.210  -6.925  11.965  1.00  0.00     0.029 A 
ATOM     49  C   UNL     1      -7.893  -7.086  11.566  1.00  0.00     0.049 A 
ATOM     50  H   UNL     1      -7.016  -6.686   9.691  1.00  0.00     0.167 HD
ATOM     51  C   UNL     1      -5.503  -7.660  11.881  1.00  0.00     0.074 A 
ATOM     52  C   UNL     1      -4.379  -8.096  12.685  1.00  0.00     0.031 C 
ATOM     53  C   UNL     1      -6.775  -7.563  12.339  1.00  0.00     0.034 A 
BRANCH  40  54
ATOM     54  C   UNL     1     -10.788  -5.362   8.182  1.00  0.00     0.023 A 
ATOM     55  C   UNL     1     -11.605  -6.139   7.335  1.00  0.00     0.012 A 
ATOM     56  C   UNL     1     -11.318  -4.200   8.775  1.00  0.00     0.148 A 
ATOM     57  C   UNL     1     -12.913  -5.747   7.051  1.00  0.00     0.002 A 
ATOM     58  C   UNL     1     -12.639  -3.842   8.527  1.00  0.00     0.091 A 
ATOM     59  F   UNL     1     -10.521  -3.461   9.560  1.00  0.00    -0.205 F 
ATOM     60  C   UNL     1     -13.432  -4.606   7.656  1.00  0.00     0.022 A 
BRANCH  58  61
ATOM     61  S   UNL     1     -13.428  -2.439   9.322  1.00  0.00     0.127 S 
ATOM     62  O   UNL     1     -13.604  -1.522   8.196  1.00  0.00    -0.237 OA
ATOM     63  O   UNL     1     -14.668  -3.030   9.826  1.00  0.00    -0.237 OA
ATOM     64  O   UNL     1     -12.506  -1.988  10.355  1.00  0.00    -0.744 OA
ENDBRANCH  58  61
ENDBRANCH  40  54
BRANCH  41  65
ATOM     65  C   UNL     1      -1.250  -7.844   9.862  1.00  0.00     0.023 A 
ATOM     66  C   UNL     1      -0.891  -9.169  10.180  1.00  0.00     0.012 A 
ATOM     67  C   UNL     1      -0.245  -6.860   9.788  1.00  0.00     0.148 A 
ATOM     68  C   UNL     1       0.436  -9.500  10.457  1.00  0.00     0.002 A 
ATOM     69  C   UNL     1       1.082  -7.208  10.009  1.00  0.00     0.091 A 
ATOM     70  F   UNL     1      -0.608  -5.604   9.491  1.00  0.00    -0.205 F 
ATOM     71  C   UNL     1       1.423  -8.523  10.363  1.00  0.00     0.022 A 
BRANCH  69  72
ATOM     72  S   UNL     1       2.433  -6.047   9.780  1.00  0.00     0.127 S 
ATOM     73  O   UNL     1       2.893  -5.850  11.153  1.00  0.00    -0.237 OA
ATOM     74  O   UNL     1       3.345  -6.810   8.927  1.00  0.00    -0.237 OA
ATOM     75  O   UNL     1       1.845  -4.880   9.137  1.00  0.00    -0.744 OA
ENDBRANCH  69  72
ENDBRANCH  41  65
BRANCH  53  76
ATOM     76  C   UNL     1      -7.036  -7.979  13.763  1.00  0.00     0.023 A 
ATOM     77  C   UNL     1      -6.561  -7.190  14.830  1.00  0.00     0.012 A 
ATOM     78  C   UNL     1      -7.804  -9.127  14.041  1.00  0.00     0.148 A 
ATOM     79  C   UNL     1      -6.809  -7.562  16.151  1.00  0.00     0.002 A 
ATOM     80  C   UNL     1      -8.095  -9.460  15.358  1.00  0.00     0.091 A 
ATOM     81  F   UNL     1      -8.233  -9.875  13.014  1.00  0.00    -0.205 F 
ATOM     82  C   UNL     1      -7.585  -8.688  16.415  1.00  0.00     0.022 A 
BRANCH  80  83
ATOM     83  S   UNL     1      -9.169 -10.834  15.788  1.00  0.00     0.127 S 
ATOM     84  O   UNL     1      -8.213 -11.807  16.313  1.00  0.00    -0.237 OA
ATOM     85  O   UNL     1     -10.048 -10.237  16.794  1.00  0.00    -0.237 OA
ATOM     86  O   UNL     1      -9.841 -11.219  14.554  1.00  0.00    -0.744 OA
ENDBRANCH  80  83
ENDBRANCH  53  76
ENDBRANCH  27  28
ENDBRANCH  19  22
ENDBRANCH   1  18
TORSDOF 14
