REMARK SMILES O=C(CC[C@@]1(c2ccccc2)NC(=O)N(CC(=O)Nc2cccc(F)c2)C1=O)NCCCNC(=O)c1ccc(-c2c3nc(c(-c4cccc(S(=O)(=O)[O-])c4F)c4ccc([nH]4)c(-c4cccc(S(=O)(=O)[O-])c4F)c4nc(c(-c5cccc(S(=O)(=O)[O-])c5F)c5ccc2[nH]5)C=C4)C=C3)cc1
REMARK SMILES IDX 30 1 29 2 1 3 2 4 3 6 4 7 5 8 12 9 27 10 13 11 15 13 28 14
REMARK SMILES IDX 14 15 6 16 7 17 11 18 8 19 10 20 9 21 16 22 17 23 18 24
REMARK SMILES IDX 19 25 20 27 21 28 26 29 22 30 24 31 23 32 25 33 31 34 32 35
REMARK SMILES IDX 33 36 34 37 35 39 36 40 37 41 98 42 38 43 97 44 39 45 40 46
REMARK SMILES IDX 41 47 91 48 42 49 96 50 90 51 92 52 43 53 95 54 89 55 88 56
REMARK SMILES IDX 44 58 76 59 56 60 75 61 57 62 60 63 74 64 93 65 58 66 59 67
REMARK SMILES IDX 73 69 94 70 61 71 45 72 46 73 54 74 47 75 49 76 55 77 48 78
REMARK SMILES IDX 50 79 51 80 52 81 53 82 77 83 78 84 86 85 79 86 81 87 87 88
REMARK SMILES IDX 80 89 82 90 83 91 84 92 85 93 62 94 63 95 71 96 64 97 66 98
REMARK SMILES IDX 72 99 65 100 67 101 68 102 69 103 70 104
REMARK H PARENT 29 5 12 12 19 26 33 38 92 57 60 68
REMARK Flexibility Score: inf
ROOT
ATOM      1  C   UNL     1       8.347  -0.354  -0.998  1.00  0.00     0.117 C 
ENDROOT
BRANCH   1   2
ATOM      2  N   UNL     1       6.929  -0.785  -1.421  1.00  0.00    -0.356 N 
ATOM      3  O   UNL     1       5.681   0.562  -2.911  1.00  0.00    -0.275 OA
ATOM      4  C   UNL     1       5.841  -0.423  -2.203  1.00  0.00     0.220 C 
ATOM      5  H   UNL     1       6.715  -1.633  -0.969  1.00  0.00     0.163 HD
BRANCH   4   6
ATOM      6  C   UNL     1       4.586  -1.263  -2.158  1.00  0.00     0.103 C 
BRANCH   6   7
ATOM      7  C   UNL     1       4.262  -1.931  -0.843  1.00  0.00     0.053 C 
BRANCH   7   8
ATOM      8  C   UNL     1       4.198  -0.981   0.402  1.00  0.00     0.147 C 
ATOM      9  N   UNL     1       5.517  -0.904   0.992  1.00  0.00    -0.319 N 
ATOM     10  C   UNL     1       4.113   0.536  -0.036  1.00  0.00     0.261 C 
ATOM     11  C   UNL     1       6.080   0.336   0.847  1.00  0.00     0.325 C 
ATOM     12  H   UNL     1       5.959  -1.657   1.447  1.00  0.00     0.166 HD
ATOM     13  N   UNL     1       5.403   1.052  -0.072  1.00  0.00    -0.252 N 
ATOM     14  O   UNL     1       3.095   1.098  -0.408  1.00  0.00    -0.271 OA
ATOM     15  O   UNL     1       7.085   0.641   1.503  1.00  0.00    -0.248 OA
BRANCH   8  16
ATOM     16  C   UNL     1       3.214  -1.524   1.455  1.00  0.00    -0.013 A 
ATOM     17  C   UNL     1       3.568  -1.598   2.821  1.00  0.00     0.007 A 
ATOM     18  C   UNL     1       1.984  -2.110   1.095  1.00  0.00     0.007 A 
ATOM     19  C   UNL     1       2.778  -2.277   3.754  1.00  0.00     0.000 A 
ATOM     20  C   UNL     1       1.197  -2.801   2.027  1.00  0.00     0.000 A 
ATOM     21  C   UNL     1       1.598  -2.891   3.354  1.00  0.00     0.000 A 
ENDBRANCH   8  16
BRANCH  13  22
ATOM     22  C   UNL     1       5.911   2.249  -0.870  1.00  0.00     0.230 C 
BRANCH  22  23
ATOM     23  C   UNL     1       6.587   2.710  -2.393  1.00  0.00     0.244 C 
ATOM     24  O   UNL     1       6.354   3.926  -2.629  1.00  0.00    -0.273 OA
ATOM     25  N   UNL     1       7.523   2.267  -3.333  1.00  0.00    -0.324 N 
ATOM     26  H   UNL     1       7.743   3.042  -3.899  1.00  0.00     0.170 HD
BRANCH  25  27
ATOM     27  C   UNL     1       8.311   1.149  -3.830  1.00  0.00     0.044 A 
ATOM     28  C   UNL     1       9.689   1.386  -4.007  1.00  0.00     0.026 A 
ATOM     29  C   UNL     1       7.898  -0.137  -4.199  1.00  0.00     0.065 A 
ATOM     30  C   UNL     1      10.611   0.339  -4.236  1.00  0.00     0.005 A 
ATOM     31  C   UNL     1       8.807  -1.192  -4.383  1.00  0.00     0.125 A 
ATOM     32  C   UNL     1      10.170  -0.973  -4.357  1.00  0.00     0.039 A 
ATOM     33  F   UNL     1       8.348  -2.446  -4.521  1.00  0.00    -0.207 F 
ENDBRANCH  25  27
ENDBRANCH  22  23
ENDBRANCH  13  22
ENDBRANCH   7   8
ENDBRANCH   6   7
ENDBRANCH   4   6
ENDBRANCH   1   2
BRANCH   1  34
ATOM     34  C   UNL     1       9.091   1.029  -0.874  1.00  0.00     0.042 C 
BRANCH  34  35
ATOM     35  C   UNL     1       9.278   1.919   0.371  1.00  0.00     0.118 C 
BRANCH  35  36
ATOM     36  N   UNL     1       9.835   1.294   1.542  1.00  0.00    -0.352 N 
ATOM     37  C   UNL     1      10.201   1.911   2.717  1.00  0.00     0.251 C 
ATOM     38  H   UNL     1       9.968   0.320   1.498  1.00  0.00     0.163 HD
ATOM     39  O   UNL     1      10.693   1.248   3.626  1.00  0.00    -0.269 OA
BRANCH  37  40
ATOM     40  C   UNL     1      10.048   3.381   2.887  1.00  0.00     0.039 A 
ATOM     41  C   UNL     1      11.188   4.138   3.176  1.00  0.00     0.014 A 
ATOM     42  C   UNL     1       8.793   4.001   2.870  1.00  0.00     0.014 A 
ATOM     43  C   UNL     1      11.075   5.510   3.435  1.00  0.00     0.010 A 
ATOM     44  C   UNL     1       8.687   5.383   3.096  1.00  0.00     0.010 A 
ATOM     45  C   UNL     1       9.825   6.149   3.399  1.00  0.00    -0.014 A 
BRANCH  45  46
ATOM     46  C   UNL     1       9.724   7.607   3.704  1.00  0.00     0.031 A 
ATOM     47  C   UNL     1       9.068   8.084   4.976  1.00  0.00     0.074 A 
ATOM     48  C   UNL     1      10.224   8.510   2.836  1.00  0.00     0.049 A 
ATOM     49  N   UNL     1       8.963   9.303   5.444  1.00  0.00    -0.248 NA
ATOM     50  C   UNL     1       8.438   7.062   5.826  1.00  0.00     0.031 C 
ATOM     51  C   UNL     1      10.824   8.187   1.541  1.00  0.00     0.029 A 
ATOM     52  N   UNL     1      10.299   9.881   2.903  1.00  0.00    -0.354 N 
ATOM     53  C   UNL     1       8.239   9.198   6.628  1.00  0.00     0.074 A 
ATOM     54  C   UNL     1       7.904   7.800   6.790  1.00  0.00     0.031 C 
ATOM     55  C   UNL     1      11.213   9.323   0.940  1.00  0.00     0.029 A 
ATOM     56  C   UNL     1      10.880  10.458   1.797  1.00  0.00     0.049 A 
ATOM     57  H   UNL     1       9.969  10.401   3.671  1.00  0.00     0.167 HD
ATOM     58  C   UNL     1       7.906  10.169   7.514  1.00  0.00     0.034 A 
ATOM     59  C   UNL     1      11.122  11.753   1.506  1.00  0.00     0.034 A 
ATOM     60  C   UNL     1       8.266  11.555   7.366  1.00  0.00     0.049 A 
ATOM     61  C   UNL     1      10.776  12.809   2.524  1.00  0.00     0.074 A 
ATOM     62  C   UNL     1       8.047  12.602   8.245  1.00  0.00     0.029 A 
ATOM     63  N   UNL     1       8.909  12.092   6.261  1.00  0.00    -0.354 N 
ATOM     64  N   UNL     1      10.248  12.665   3.715  1.00  0.00    -0.248 NA
ATOM     65  C   UNL     1      11.097  14.201   2.175  1.00  0.00     0.031 C 
ATOM     66  C   UNL     1       8.535  13.775   7.660  1.00  0.00     0.029 A 
ATOM     67  C   UNL     1       9.083  13.455   6.428  1.00  0.00     0.049 A 
ATOM     68  H   UNL     1       9.199  11.578   5.473  1.00  0.00     0.167 HD
ATOM     69  C   UNL     1      10.200  13.940   4.269  1.00  0.00     0.074 A 
ATOM     70  C   UNL     1      10.779  14.840   3.293  1.00  0.00     0.031 C 
ATOM     71  C   UNL     1       9.706  14.333   5.470  1.00  0.00     0.034 A 
BRANCH  58  72
ATOM     72  C   UNL     1       7.152   9.758   8.755  1.00  0.00     0.023 A 
ATOM     73  C   UNL     1       7.817   9.023   9.759  1.00  0.00     0.012 A 
ATOM     74  C   UNL     1       5.810  10.139   8.956  1.00  0.00     0.148 A 
ATOM     75  C   UNL     1       7.149   8.638  10.921  1.00  0.00     0.002 A 
ATOM     76  C   UNL     1       5.164   9.789  10.137  1.00  0.00     0.091 A 
ATOM     77  F   UNL     1       5.189  10.827   7.988  1.00  0.00    -0.205 F 
ATOM     78  C   UNL     1       5.827   9.027  11.113  1.00  0.00     0.022 A 
BRANCH  76  79
ATOM     79  S   UNL     1       3.485  10.305  10.517  1.00  0.00     0.127 S 
ATOM     80  O   UNL     1       2.757   9.040  10.417  1.00  0.00    -0.237 OA
ATOM     81  O   UNL     1       3.622  10.821  11.879  1.00  0.00    -0.237 OA
ATOM     82  O   UNL     1       3.136  11.307   9.520  1.00  0.00    -0.744 OA
ENDBRANCH  76  79
ENDBRANCH  58  72
BRANCH  59  83
ATOM     83  C   UNL     1      11.793  12.118   0.224  1.00  0.00     0.023 A 
ATOM     84  C   UNL     1      13.110  12.617   0.246  1.00  0.00     0.012 A 
ATOM     85  C   UNL     1      11.145  11.952  -1.016  1.00  0.00     0.148 A 
ATOM     86  C   UNL     1      13.758  12.973  -0.938  1.00  0.00     0.002 A 
ATOM     87  C   UNL     1      11.816  12.255  -2.196  1.00  0.00     0.091 A 
ATOM     88  F   UNL     1       9.886  11.491  -1.018  1.00  0.00    -0.205 F 
ATOM     89  C   UNL     1      13.116  12.782  -2.158  1.00  0.00     0.022 A 
BRANCH  87  90
ATOM     90  S   UNL     1      11.118  11.918  -3.817  1.00  0.00     0.127 S 
ATOM     91  O   UNL     1      10.834  13.264  -4.306  1.00  0.00    -0.237 OA
ATOM     92  O   UNL     1      12.228  11.239  -4.488  1.00  0.00    -0.237 OA
ATOM     93  O   UNL     1       9.957  11.072  -3.575  1.00  0.00    -0.744 OA
ENDBRANCH  87  90
ENDBRANCH  59  83
BRANCH  71  94
ATOM     94  C   UNL     1       9.786  15.798   5.814  1.00  0.00     0.023 A 
ATOM     95  C   UNL     1       8.939  16.717   5.164  1.00  0.00     0.012 A 
ATOM     96  C   UNL     1      10.644  16.252   6.836  1.00  0.00     0.148 A 
ATOM     97  C   UNL     1       8.966  18.069   5.504  1.00  0.00     0.002 A 
ATOM     98  C   UNL     1      10.630  17.592   7.203  1.00  0.00     0.091 A 
ATOM     99  F   UNL     1      11.457  15.366   7.430  1.00  0.00    -0.205 F 
ATOM    100  C   UNL     1       9.801  18.504   6.530  1.00  0.00     0.022 A 
BRANCH  98 101
ATOM    101  S   UNL     1      11.599  18.225   8.578  1.00  0.00     0.127 S 
ATOM    102  O   UNL     1      12.641  18.981   7.885  1.00  0.00    -0.237 OA
ATOM    103  O   UNL     1      10.623  19.047   9.294  1.00  0.00    -0.237 OA
ATOM    104  O   UNL     1      12.060  17.056   9.315  1.00  0.00    -0.744 OA
ENDBRANCH  98 101
ENDBRANCH  71  94
ENDBRANCH  45  46
ENDBRANCH  37  40
ENDBRANCH  35  36
ENDBRANCH  34  35
ENDBRANCH   1  34
TORSDOF 19
