REMARK SMILES Cc1n[nH]c(C(=O)N2CCCC[C@H]2CCC(=O)NCCCNC(=O)c2ccc(-c3c4nc(c(-c5cccc(S(=O)(=O)[O-])c5F)c5ccc([nH]5)c(-c5cccc(S(=O)(=O)[O-])c5F)c5nc(c(-c6cccc(S(=O)(=O)[O-])c6F)c6ccc3[nH]6)C=C5)C=C4)cc2)n1
REMARK SMILES IDX 19 1 18 2 16 3 17 4 15 6 14 7 13 8 8 9 9 10 10 11 12 12
REMARK SMILES IDX 11 13 6 14 7 15 5 16 1 17 2 18 3 19 88 20 4 21 20 23 21 24
REMARK SMILES IDX 22 25 23 26 24 28 25 29 26 30 87 31 27 32 86 33 28 34 29 35
REMARK SMILES IDX 30 36 80 37 31 38 85 39 79 40 81 41 32 42 84 43 78 44 77 45
REMARK SMILES IDX 33 47 65 48 45 49 64 50 46 51 49 52 63 53 82 54 47 55 48 56
REMARK SMILES IDX 62 58 83 59 50 60 34 61 35 62 43 63 36 64 38 65 44 66 37 67
REMARK SMILES IDX 39 68 40 69 41 70 42 71 66 72 67 73 75 74 68 75 70 76 76 77
REMARK SMILES IDX 69 78 71 79 72 80 73 81 74 82 51 83 52 84 60 85 53 86 55 87
REMARK SMILES IDX 61 88 54 89 56 90 57 91 58 92 59 93
REMARK H PARENT 18 5 4 22 22 27 81 46 49 57
REMARK Flexibility Score: inf
ROOT
ATOM      1  C   UNL     1       2.549   5.156   5.105  1.00  0.00     0.117 C 
ENDROOT
BRANCH   1   2
ATOM      2  N   UNL     1       1.616   5.979   5.877  1.00  0.00    -0.356 N 
ATOM      3  C   UNL     1       0.314   5.799   6.249  1.00  0.00     0.220 C 
ATOM      4  O   UNL     1      -0.153   6.549   7.107  1.00  0.00    -0.275 OA
ATOM      5  H   UNL     1       2.002   6.830   6.188  1.00  0.00     0.163 HD
BRANCH   3   6
ATOM      6  C   UNL     1      -0.569   4.752   5.588  1.00  0.00     0.102 C 
BRANCH   6   7
ATOM      7  C   UNL     1      -1.387   5.260   4.373  1.00  0.00     0.035 C 
BRANCH   7   8
ATOM      8  C   UNL     1      -0.495   5.962   3.336  1.00  0.00     0.086 C 
ATOM      9  N   UNL     1      -0.802   5.722   1.912  1.00  0.00    -0.333 N 
ATOM     10  C   UNL     1      -1.451   6.822   1.201  1.00  0.00     0.120 C 
ATOM     11  C   UNL     1      -0.659   8.114   1.347  1.00  0.00     0.022 C 
ATOM     12  C   UNL     1      -0.252   7.450   3.732  1.00  0.00     0.025 C 
ATOM     13  C   UNL     1      -0.732   8.545   2.793  1.00  0.00     0.004 C 
BRANCH   9  14
ATOM     14  C   UNL     1       0.125   4.998   1.116  1.00  0.00     0.291 C 
ATOM     15  O   UNL     1       0.812   5.584   0.279  1.00  0.00    -0.265 OA
BRANCH  14  16
ATOM     16  C   UNL     1       0.161   3.551   1.254  1.00  0.00     0.214 A 
ATOM     17  C   UNL     1       1.006   0.303   0.124  1.00  0.00     0.092 C 
ATOM     18  C   UNL     1       0.509   1.497   0.839  1.00  0.00     0.148 A 
ATOM     19  N   UNL     1      -0.449   1.450   1.771  1.00  0.00    -0.159 NA
ATOM     20  N   UNL     1       0.941   2.757   0.535  1.00  0.00    -0.207 NA
ATOM     21  N   UNL     1      -0.665   2.760   1.993  1.00  0.00    -0.255 N 
ATOM     22  H   UNL     1      -1.343   3.107   2.617  1.00  0.00     0.192 HD
ENDBRANCH  14  16
ENDBRANCH   9  14
ENDBRANCH   7   8
ENDBRANCH   6   7
ENDBRANCH   3   6
ENDBRANCH   1   2
BRANCH   1  23
ATOM     23  C   UNL     1       3.044   5.731   3.762  1.00  0.00     0.042 C 
BRANCH  23  24
ATOM     24  C   UNL     1       3.580   7.148   3.828  1.00  0.00     0.118 C 
BRANCH  24  25
ATOM     25  N   UNL     1       5.008   7.204   4.086  1.00  0.00    -0.352 N 
ATOM     26  C   UNL     1       5.860   8.274   3.892  1.00  0.00     0.251 C 
ATOM     27  H   UNL     1       5.418   6.382   4.441  1.00  0.00     0.163 HD
ATOM     28  O   UNL     1       7.063   8.077   3.809  1.00  0.00    -0.269 OA
BRANCH  26  29
ATOM     29  C   UNL     1       5.316   9.650   3.796  1.00  0.00     0.039 A 
ATOM     30  C   UNL     1       6.003  10.622   3.062  1.00  0.00     0.014 A 
ATOM     31  C   UNL     1       4.157   9.995   4.490  1.00  0.00     0.014 A 
ATOM     32  C   UNL     1       5.512  11.925   3.033  1.00  0.00     0.010 A 
ATOM     33  C   UNL     1       3.594  11.238   4.345  1.00  0.00     0.010 A 
ATOM     34  C   UNL     1       4.309  12.226   3.688  1.00  0.00    -0.014 A 
BRANCH  34  35
ATOM     35  C   UNL     1       3.734  13.562   3.614  1.00  0.00     0.031 A 
ATOM     36  C   UNL     1       3.493  14.034   2.228  1.00  0.00     0.074 A 
ATOM     37  C   UNL     1       3.269  14.230   4.694  1.00  0.00     0.049 A 
ATOM     38  N   UNL     1       4.101  14.988   1.606  1.00  0.00    -0.248 NA
ATOM     39  C   UNL     1       2.580  13.249   1.382  1.00  0.00     0.031 C 
ATOM     40  C   UNL     1       3.148  13.739   6.074  1.00  0.00     0.029 A 
ATOM     41  N   UNL     1       2.663  15.447   4.757  1.00  0.00    -0.354 N 
ATOM     42  C   UNL     1       3.455  15.090   0.377  1.00  0.00     0.074 A 
ATOM     43  C   UNL     1       2.702  13.876   0.211  1.00  0.00     0.031 C 
ATOM     44  C   UNL     1       2.287  14.524   6.757  1.00  0.00     0.029 A 
ATOM     45  C   UNL     1       1.941  15.662   5.929  1.00  0.00     0.049 A 
ATOM     46  H   UNL     1       2.729  16.117   4.038  1.00  0.00     0.167 HD
ATOM     47  C   UNL     1       3.357  16.286  -0.265  1.00  0.00     0.034 A 
ATOM     48  C   UNL     1       1.082  16.680   6.179  1.00  0.00     0.034 A 
ATOM     49  C   UNL     1       4.291  17.250   0.261  1.00  0.00     0.049 A 
ATOM     50  C   UNL     1       1.404  17.764   5.226  1.00  0.00     0.074 A 
ATOM     51  C   UNL     1       5.661  17.295   0.429  1.00  0.00     0.029 A 
ATOM     52  N   UNL     1       3.777  18.219   1.087  1.00  0.00    -0.354 N 
ATOM     53  N   UNL     1       2.518  18.439   5.249  1.00  0.00    -0.248 NA
ATOM     54  C   UNL     1       0.656  17.828   3.984  1.00  0.00     0.031 C 
ATOM     55  C   UNL     1       5.856  17.950   1.681  1.00  0.00     0.029 A 
ATOM     56  C   UNL     1       4.605  18.330   2.172  1.00  0.00     0.049 A 
ATOM     57  H   UNL     1       2.959  18.742   0.927  1.00  0.00     0.167 HD
ATOM     58  C   UNL     1       2.841  18.608   3.910  1.00  0.00     0.074 A 
ATOM     59  C   UNL     1       1.601  18.334   3.187  1.00  0.00     0.031 C 
ATOM     60  C   UNL     1       4.145  18.663   3.504  1.00  0.00     0.034 A 
BRANCH  47  61
ATOM     61  C   UNL     1       2.163  16.706  -1.091  1.00  0.00     0.023 A 
ATOM     62  C   UNL     1       2.280  17.887  -1.856  1.00  0.00     0.012 A 
ATOM     63  C   UNL     1       0.865  16.161  -0.952  1.00  0.00     0.148 A 
ATOM     64  C   UNL     1       1.161  18.507  -2.422  1.00  0.00     0.002 A 
ATOM     65  C   UNL     1      -0.228  16.726  -1.596  1.00  0.00     0.091 A 
ATOM     66  F   UNL     1       0.640  15.175  -0.078  1.00  0.00    -0.205 F 
ATOM     67  C   UNL     1      -0.093  17.919  -2.306  1.00  0.00     0.022 A 
BRANCH  65  68
ATOM     68  S   UNL     1      -1.851  15.958  -1.530  1.00  0.00     0.127 S 
ATOM     69  O   UNL     1      -2.552  16.833  -0.597  1.00  0.00    -0.237 OA
ATOM     70  O   UNL     1      -2.287  16.058  -2.924  1.00  0.00    -0.237 OA
ATOM     71  O   UNL     1      -1.615  14.591  -1.080  1.00  0.00    -0.744 OA
ENDBRANCH  65  68
ENDBRANCH  47  61
BRANCH  48  72
ATOM     72  C   UNL     1      -0.141  16.721   7.012  1.00  0.00     0.023 A 
ATOM     73  C   UNL     1      -0.641  17.966   7.447  1.00  0.00     0.012 A 
ATOM     74  C   UNL     1      -0.977  15.589   7.125  1.00  0.00     0.148 A 
ATOM     75  C   UNL     1      -1.948  18.088   7.934  1.00  0.00     0.002 A 
ATOM     76  C   UNL     1      -2.276  15.715   7.611  1.00  0.00     0.091 A 
ATOM     77  F   UNL     1      -0.532  14.412   6.666  1.00  0.00    -0.205 F 
ATOM     78  C   UNL     1      -2.769  16.966   8.004  1.00  0.00     0.022 A 
BRANCH  76  79
ATOM     79  S   UNL     1      -3.409  14.321   7.701  1.00  0.00     0.127 S 
ATOM     80  O   UNL     1      -3.915  14.430   9.070  1.00  0.00    -0.237 OA
ATOM     81  O   UNL     1      -4.379  14.654   6.662  1.00  0.00    -0.237 OA
ATOM     82  O   UNL     1      -2.600  13.135   7.453  1.00  0.00    -0.744 OA
ENDBRANCH  76  79
ENDBRANCH  48  72
BRANCH  60  83
ATOM     83  C   UNL     1       5.209  18.838   4.563  1.00  0.00     0.023 A 
ATOM     84  C   UNL     1       5.418  17.902   5.599  1.00  0.00     0.012 A 
ATOM     85  C   UNL     1       6.113  19.905   4.427  1.00  0.00     0.148 A 
ATOM     86  C   UNL     1       6.481  18.048   6.497  1.00  0.00     0.002 A 
ATOM     87  C   UNL     1       7.196  20.021   5.291  1.00  0.00     0.091 A 
ATOM     88  F   UNL     1       5.907  20.788   3.438  1.00  0.00    -0.205 F 
ATOM     89  C   UNL     1       7.378  19.102   6.335  1.00  0.00     0.022 A 
BRANCH  87  90
ATOM     90  S   UNL     1       8.444  21.288   5.056  1.00  0.00     0.127 S 
ATOM     91  O   UNL     1       8.084  22.266   6.079  1.00  0.00    -0.237 OA
ATOM     92  O   UNL     1       9.688  20.560   5.317  1.00  0.00    -0.237 OA
ATOM     93  O   UNL     1       8.301  21.736   3.676  1.00  0.00    -0.744 OA
ENDBRANCH  87  90
ENDBRANCH  60  83
ENDBRANCH  34  35
ENDBRANCH  26  29
ENDBRANCH  24  25
ENDBRANCH  23  24
ENDBRANCH   1  23
TORSDOF 17
