REMARK SMILES CC(C)Cc1ccc(S(=O)(=O)Nc2cnc(N3CCCC3)c(C(=O)NCCCNC(=O)c3ccc(-c4c5nc(c(-c6cccc(S(=O)(=O)[O-])c6F)c6ccc([nH]6)c(-c6cccc(S(=O)(=O)[O-])c6F)c6nc(c(-c7cccc(S(=O)(=O)[O-])c7F)c7ccc4[nH]7)C=C6)C=C5)cc3)c2)cc1
REMARK SMILES IDX 26 1 25 2 23 3 24 4 22 6 13 7 14 8 95 9 15 10 16 11 12 12
REMARK SMILES IDX 9 14 10 15 11 16 8 17 5 18 6 19 97 20 7 21 96 22 4 23 2 24
REMARK SMILES IDX 1 25 3 26 17 27 18 28 21 29 19 30 20 31 27 32 28 33 29 34
REMARK SMILES IDX 30 35 31 37 32 38 33 39 94 40 34 41 93 42 35 43 36 44 37 45
REMARK SMILES IDX 87 46 38 47 92 48 86 49 88 50 39 51 91 52 85 53 84 54 40 56
REMARK SMILES IDX 72 57 52 58 71 59 53 60 56 61 70 62 89 63 54 64 55 65 69 67
REMARK SMILES IDX 90 68 57 69 41 70 42 71 50 72 43 73 45 74 51 75 44 76 46 77
REMARK SMILES IDX 47 78 48 79 49 80 73 81 74 82 82 83 75 84 77 85 83 86 76 87
REMARK SMILES IDX 78 88 79 89 80 90 81 91 58 92 59 93 67 94 60 95 62 96 68 97
REMARK SMILES IDX 61 98 63 99 64 100 65 101 66 102
REMARK H PARENT 25 5 12 13 29 36 88 55 56 66
REMARK Flexibility Score: inf
ROOT
ATOM      1  C   UNL     1      -2.021  -3.491   3.355  1.00  0.00     0.118 C 
ENDROOT
BRANCH   1   2
ATOM      2  N   UNL     1      -0.803  -3.605   4.123  1.00  0.00    -0.352 N 
ATOM      3  C   UNL     1       0.317  -4.391   4.043  1.00  0.00     0.255 C 
ATOM      4  O   UNL     1       1.082  -4.252   4.994  1.00  0.00    -0.269 OA
ATOM      5  H   UNL     1      -0.769  -2.974   4.878  1.00  0.00     0.163 HD
BRANCH   3   6
ATOM      6  C   UNL     1       0.620  -5.289   2.876  1.00  0.00     0.084 A 
ATOM      7  C   UNL     1      -0.141  -6.348   0.845  1.00  0.00     0.068 A 
ATOM      8  C   UNL     1       1.186  -6.486   0.479  1.00  0.00     0.140 A 
ATOM      9  C   UNL     1      -0.415  -5.857   2.112  1.00  0.00     0.046 A 
ATOM     10  N   UNL     1       2.217  -6.058   1.233  1.00  0.00    -0.236 NA
ATOM     11  C   UNL     1       1.950  -5.452   2.422  1.00  0.00     0.141 A 
BRANCH   7  12
ATOM     12  N   UNL     1      -1.144  -6.689  -0.119  1.00  0.00    -0.278 N 
ATOM     13  H   UNL     1      -1.136  -7.580  -0.538  1.00  0.00     0.180 HD
BRANCH  12  14
ATOM     14  S   UNL     1      -2.357  -5.561  -0.550  1.00  0.00     0.261 S 
ATOM     15  O   UNL     1      -3.391  -5.775   0.447  1.00  0.00    -0.201 OA
ATOM     16  O   UNL     1      -2.632  -5.747  -1.954  1.00  0.00    -0.201 OA
BRANCH  14  17
ATOM     17  C   UNL     1      -1.821  -3.876  -0.336  1.00  0.00     0.087 A 
ATOM     18  C   UNL     1      -1.101  -1.270   0.479  1.00  0.00    -0.048 A 
ATOM     19  C   UNL     1      -2.450  -1.623   0.319  1.00  0.00     0.005 A 
ATOM     20  C   UNL     1      -0.128  -2.226   0.158  1.00  0.00     0.005 A 
ATOM     21  C   UNL     1      -2.811  -2.919  -0.067  1.00  0.00     0.022 A 
ATOM     22  C   UNL     1      -0.483  -3.501  -0.301  1.00  0.00     0.022 A 
BRANCH  18  23
ATOM     23  C   UNL     1      -0.788   0.104   1.042  1.00  0.00     0.038 C 
BRANCH  23  24
ATOM     24  C   UNL     1       0.690   0.531   1.187  1.00  0.00    -0.013 C 
ATOM     25  C   UNL     1       1.360   0.776  -0.168  1.00  0.00     0.008 C 
ATOM     26  C   UNL     1       0.783   1.815   2.021  1.00  0.00     0.008 C 
ENDBRANCH  23  24
ENDBRANCH  18  23
ENDBRANCH  14  17
ENDBRANCH  12  14
ENDBRANCH   7  12
BRANCH  11  27
ATOM     27  N   UNL     1       3.045  -4.975   3.081  1.00  0.00    -0.356 N 
ATOM     28  C   UNL     1       3.510  -5.525   4.344  1.00  0.00     0.118 C 
ATOM     29  C   UNL     1       4.122  -4.283   2.393  1.00  0.00     0.118 C 
ATOM     30  C   UNL     1       4.479  -4.436   4.788  1.00  0.00     0.023 C 
ATOM     31  C   UNL     1       5.185  -4.077   3.483  1.00  0.00     0.023 C 
ENDBRANCH  11  27
ENDBRANCH   3   6
ENDBRANCH   1   2
BRANCH   1  32
ATOM     32  C   UNL     1      -3.155  -4.264   4.016  1.00  0.00     0.042 C 
BRANCH  32  33
ATOM     33  C   UNL     1      -3.557  -3.674   5.361  1.00  0.00     0.118 C 
BRANCH  33  34
ATOM     34  N   UNL     1      -4.121  -2.339   5.220  1.00  0.00    -0.352 N 
ATOM     35  C   UNL     1      -5.317  -1.853   5.679  1.00  0.00     0.251 C 
ATOM     36  H   UNL     1      -3.565  -1.695   4.725  1.00  0.00     0.163 HD
ATOM     37  O   UNL     1      -5.727  -0.769   5.274  1.00  0.00    -0.269 OA
BRANCH  35  38
ATOM     38  C   UNL     1      -6.104  -2.634   6.655  1.00  0.00     0.039 A 
ATOM     39  C   UNL     1      -7.493  -2.689   6.516  1.00  0.00     0.014 A 
ATOM     40  C   UNL     1      -5.476  -3.278   7.726  1.00  0.00     0.014 A 
ATOM     41  C   UNL     1      -8.251  -3.408   7.441  1.00  0.00     0.010 A 
ATOM     42  C   UNL     1      -6.224  -4.058   8.599  1.00  0.00     0.010 A 
ATOM     43  C   UNL     1      -7.620  -4.102   8.485  1.00  0.00    -0.014 A 
BRANCH  43  44
ATOM     44  C   UNL     1      -8.406  -4.836   9.504  1.00  0.00     0.031 A 
ATOM     45  C   UNL     1      -8.376  -4.384  10.939  1.00  0.00     0.074 A 
ATOM     46  C   UNL     1      -9.065  -5.957   9.159  1.00  0.00     0.049 A 
ATOM     47  N   UNL     1      -8.956  -4.915  11.983  1.00  0.00    -0.248 NA
ATOM     48  C   UNL     1      -7.552  -3.203  11.248  1.00  0.00     0.031 C 
ATOM     49  C   UNL     1      -9.070  -6.558   7.824  1.00  0.00     0.029 A 
ATOM     50  N   UNL     1      -9.830  -6.809   9.913  1.00  0.00    -0.354 N 
ATOM     51  C   UNL     1      -8.527  -4.170  13.074  1.00  0.00     0.074 A 
ATOM     52  C   UNL     1      -7.610  -3.171  12.571  1.00  0.00     0.031 C 
ATOM     53  C   UNL     1      -9.800  -7.685   7.855  1.00  0.00     0.029 A 
ATOM     54  C   UNL     1     -10.308  -7.888   9.209  1.00  0.00     0.049 A 
ATOM     55  H   UNL     1     -10.019  -6.662  10.868  1.00  0.00     0.167 HD
ATOM     56  C   UNL     1      -8.892  -4.279  14.373  1.00  0.00     0.034 A 
ATOM     57  C   UNL     1     -11.080  -8.917   9.608  1.00  0.00     0.034 A 
ATOM     58  C   UNL     1      -9.870  -5.217  14.850  1.00  0.00     0.049 A 
ATOM     59  C   UNL     1     -11.591  -8.935  11.023  1.00  0.00     0.074 A 
ATOM     60  C   UNL     1     -10.409  -5.332  16.119  1.00  0.00     0.029 A 
ATOM     61  N   UNL     1     -10.463  -6.197  14.071  1.00  0.00    -0.354 N 
ATOM     62  N   UNL     1     -11.327  -8.104  12.003  1.00  0.00    -0.248 NA
ATOM     63  C   UNL     1     -12.546  -9.995  11.374  1.00  0.00     0.031 C 
ATOM     64  C   UNL     1     -11.335  -6.381  16.103  1.00  0.00     0.029 A 
ATOM     65  C   UNL     1     -11.371  -6.918  14.825  1.00  0.00     0.049 A 
ATOM     66  H   UNL     1     -10.268  -6.357  13.119  1.00  0.00     0.167 HD
ATOM     67  C   UNL     1     -12.103  -8.522  13.078  1.00  0.00     0.074 A 
ATOM     68  C   UNL     1     -12.865  -9.667  12.620  1.00  0.00     0.031 C 
ATOM     69  C   UNL     1     -12.165  -8.016  14.335  1.00  0.00     0.034 A 
BRANCH  56  70
ATOM     70  C   UNL     1      -8.287  -3.301  15.345  1.00  0.00     0.023 A 
ATOM     71  C   UNL     1      -8.698  -1.952  15.312  1.00  0.00     0.012 A 
ATOM     72  C   UNL     1      -7.328  -3.706  16.292  1.00  0.00     0.148 A 
ATOM     73  C   UNL     1      -8.133  -1.014  16.176  1.00  0.00     0.002 A 
ATOM     74  C   UNL     1      -6.799  -2.772  17.177  1.00  0.00     0.091 A 
ATOM     75  F   UNL     1      -6.922  -4.984  16.293  1.00  0.00    -0.205 F 
ATOM     76  C   UNL     1      -7.191  -1.426  17.114  1.00  0.00     0.022 A 
BRANCH  74  77
ATOM     77  S   UNL     1      -5.633  -3.243  18.461  1.00  0.00     0.127 S 
ATOM     78  O   UNL     1      -4.351  -2.960  17.819  1.00  0.00    -0.237 OA
ATOM     79  O   UNL     1      -5.978  -2.332  19.555  1.00  0.00    -0.237 OA
ATOM     80  O   UNL     1      -5.913  -4.644  18.741  1.00  0.00    -0.744 OA
ENDBRANCH  74  77
ENDBRANCH  56  70
BRANCH  57  81
ATOM     81  C   UNL     1     -11.500  -9.940   8.611  1.00  0.00     0.023 A 
ATOM     82  C   UNL     1     -12.816  -9.911   8.112  1.00  0.00     0.012 A 
ATOM     83  C   UNL     1     -10.586 -10.877   8.092  1.00  0.00     0.148 A 
ATOM     84  C   UNL     1     -13.221 -10.810   7.125  1.00  0.00     0.002 A 
ATOM     85  C   UNL     1     -10.982 -11.738   7.075  1.00  0.00     0.091 A 
ATOM     86  F   UNL     1      -9.340 -10.891   8.587  1.00  0.00    -0.205 F 
ATOM     87  C   UNL     1     -12.303 -11.714   6.598  1.00  0.00     0.022 A 
BRANCH  85  88
ATOM     88  S   UNL     1      -9.833 -12.842   6.244  1.00  0.00     0.127 S 
ATOM     89  O   UNL     1     -10.255 -14.146   6.747  1.00  0.00    -0.237 OA
ATOM     90  O   UNL     1     -10.142 -12.596   4.834  1.00  0.00    -0.237 OA
ATOM     91  O   UNL     1      -8.505 -12.404   6.650  1.00  0.00    -0.744 OA
ENDBRANCH  85  88
ENDBRANCH  57  81
BRANCH  69  92
ATOM     92  C   UNL     1     -13.097  -8.683  15.309  1.00  0.00     0.023 A 
ATOM     93  C   UNL     1     -12.733  -9.918  15.879  1.00  0.00     0.012 A 
ATOM     94  C   UNL     1     -14.286  -8.053  15.722  1.00  0.00     0.148 A 
ATOM     95  C   UNL     1     -13.550 -10.527  16.831  1.00  0.00     0.002 A 
ATOM     96  C   UNL     1     -15.076  -8.647  16.700  1.00  0.00     0.091 A 
ATOM     97  F   UNL     1     -14.630  -6.889  15.150  1.00  0.00    -0.205 F 
ATOM     98  C   UNL     1     -14.714  -9.886  17.250  1.00  0.00     0.022 A 
BRANCH  96  99
ATOM     99  S   UNL     1     -16.541  -7.833  17.349  1.00  0.00     0.127 S 
ATOM    100  O   UNL     1     -17.601  -8.435  16.544  1.00  0.00    -0.237 OA
ATOM    101  O   UNL     1     -16.538  -8.242  18.755  1.00  0.00    -0.237 OA
ATOM    102  O   UNL     1     -16.316  -6.409  17.144  1.00  0.00    -0.744 OA
ENDBRANCH  96  99
ENDBRANCH  69  92
ENDBRANCH  43  44
ENDBRANCH  35  38
ENDBRANCH  33  34
ENDBRANCH  32  33
ENDBRANCH   1  32
TORSDOF 19
