REMARK SMILES O=C(NCCCNC(=O)[C@@H]1O[C@H](OC(=O)c2cccnc2)[C@@H](O)[C@H](O)[C@H]1O)c1ccc(-c2c3nc(c(-c4cccc(S(=O)(=O)[O-])c4F)c4ccc([nH]4)c(-c4cccc(S(=O)(=O)[O-])c4F)c4nc(c(-c5cccc(S(=O)(=O)[O-])c5F)c5ccc2[nH]5)C=C4)C=C3)cc1
REMARK SMILES IDX 5 1 4 2 3 3 1 4 2 5 28 7 29 8 90 9 30 10 89 11 31 12 32 13
REMARK SMILES IDX 33 14 83 15 34 16 88 17 82 18 84 19 35 20 87 21 81 22 80 23
REMARK SMILES IDX 36 25 68 26 48 27 67 28 49 29 52 30 66 31 85 32 50 33 51 34
REMARK SMILES IDX 65 36 86 37 53 38 37 39 38 40 46 41 39 42 41 43 47 44 40 45
REMARK SMILES IDX 42 46 43 47 44 48 45 49 69 50 70 51 78 52 71 53 73 54 79 55
REMARK SMILES IDX 72 56 74 57 75 58 76 59 77 60 54 61 55 62 63 63 56 64 58 65
REMARK SMILES IDX 64 66 57 67 59 68 60 69 61 70 62 71 6 72 7 73 8 74 9 76
REMARK SMILES IDX 10 77 11 78 26 79 12 80 24 81 22 82 27 83 13 85 14 86 15 87
REMARK SMILES IDX 16 88 17 89 21 90 18 91 20 92 19 93 25 94 23 96
REMARK H PARENT 3 6 84 24 52 35 7 75 27 84 25 95 23 97
REMARK Flexibility Score: inf
ROOT
ATOM      1  C   UNL     1       7.282   3.337   0.224  1.00  0.00     0.042 C 
ENDROOT
BRANCH   1   2
ATOM      2  C   UNL     1       8.668   3.011  -0.316  1.00  0.00     0.118 C 
BRANCH   2   3
ATOM      3  N   UNL     1       8.864   1.579  -0.494  1.00  0.00    -0.352 N 
ATOM      4  O   UNL     1       8.999  -0.355  -1.626  1.00  0.00    -0.269 OA
ATOM      5  C   UNL     1       9.107   0.868  -1.643  1.00  0.00     0.251 C 
ATOM      6  H   UNL     1       8.814   1.042   0.329  1.00  0.00     0.163 HD
BRANCH   5   7
ATOM      7  C   UNL     1       9.490   1.575  -2.883  1.00  0.00     0.039 A 
ATOM      8  C   UNL     1      10.397   2.638  -2.841  1.00  0.00     0.014 A 
ATOM      9  C   UNL     1       8.976   1.139  -4.107  1.00  0.00     0.014 A 
ATOM     10  C   UNL     1      10.701   3.338  -4.002  1.00  0.00     0.010 A 
ATOM     11  C   UNL     1       9.353   1.788  -5.286  1.00  0.00     0.010 A 
ATOM     12  C   UNL     1      10.213   2.897  -5.241  1.00  0.00    -0.014 A 
BRANCH  12  13
ATOM     13  C   UNL     1      10.732   3.515  -6.485  1.00  0.00     0.031 A 
ATOM     14  C   UNL     1       9.834   4.258  -7.429  1.00  0.00     0.074 A 
ATOM     15  C   UNL     1      12.041   3.353  -6.770  1.00  0.00     0.049 A 
ATOM     16  N   UNL     1      10.136   4.821  -8.570  1.00  0.00    -0.248 NA
ATOM     17  C   UNL     1       8.415   4.383  -7.056  1.00  0.00     0.031 C 
ATOM     18  C   UNL     1      12.995   2.604  -5.945  1.00  0.00     0.029 A 
ATOM     19  N   UNL     1      12.792   3.781  -7.834  1.00  0.00    -0.354 N 
ATOM     20  C   UNL     1       8.945   5.325  -9.076  1.00  0.00     0.074 A 
ATOM     21  C   UNL     1       7.912   5.012  -8.111  1.00  0.00     0.031 C 
ATOM     22  C   UNL     1      14.198   2.622  -6.533  1.00  0.00     0.029 A 
ATOM     23  C   UNL     1      14.090   3.327  -7.804  1.00  0.00     0.049 A 
ATOM     24  H   UNL     1      12.437   4.357  -8.550  1.00  0.00     0.167 HD
ATOM     25  C   UNL     1       8.741   5.991 -10.237  1.00  0.00     0.034 A 
ATOM     26  C   UNL     1      15.075   3.423  -8.716  1.00  0.00     0.034 A 
ATOM     27  C   UNL     1       9.785   6.329 -11.169  1.00  0.00     0.049 A 
ATOM     28  C   UNL     1      14.810   4.171  -9.990  1.00  0.00     0.074 A 
ATOM     29  C   UNL     1       9.694   7.098 -12.316  1.00  0.00     0.029 A 
ATOM     30  N   UNL     1      11.099   5.897 -11.082  1.00  0.00    -0.354 N 
ATOM     31  N   UNL     1      13.721   4.795 -10.366  1.00  0.00    -0.248 NA
ATOM     32  C   UNL     1      15.913   4.247 -10.957  1.00  0.00     0.031 C 
ATOM     33  C   UNL     1      10.940   7.091 -12.948  1.00  0.00     0.029 A 
ATOM     34  C   UNL     1      11.818   6.349 -12.176  1.00  0.00     0.049 A 
ATOM     35  H   UNL     1      11.467   5.351 -10.351  1.00  0.00     0.167 HD
ATOM     36  C   UNL     1      14.012   5.351 -11.605  1.00  0.00     0.074 A 
ATOM     37  C   UNL     1      15.392   5.023 -11.897  1.00  0.00     0.031 C 
ATOM     38  C   UNL     1      13.202   6.050 -12.437  1.00  0.00     0.034 A 
BRANCH  25  39
ATOM     39  C   UNL     1       7.341   6.426 -10.583  1.00  0.00     0.023 A 
ATOM     40  C   UNL     1       6.767   7.532  -9.926  1.00  0.00     0.012 A 
ATOM     41  C   UNL     1       6.652   5.820 -11.653  1.00  0.00     0.148 A 
ATOM     42  C   UNL     1       5.522   8.022 -10.322  1.00  0.00     0.002 A 
ATOM     43  C   UNL     1       5.431   6.338 -12.067  1.00  0.00     0.091 A 
ATOM     44  F   UNL     1       7.211   4.760 -12.253  1.00  0.00    -0.205 F 
ATOM     45  C   UNL     1       4.862   7.435 -11.399  1.00  0.00     0.022 A 
BRANCH  43  46
ATOM     46  S   UNL     1       4.538   5.705 -13.492  1.00  0.00     0.127 S 
ATOM     47  O   UNL     1       3.340   5.149 -12.865  1.00  0.00    -0.237 OA
ATOM     48  O   UNL     1       4.308   6.921 -14.273  1.00  0.00    -0.237 OA
ATOM     49  O   UNL     1       5.418   4.731 -14.121  1.00  0.00    -0.744 OA
ENDBRANCH  43  46
ENDBRANCH  25  39
BRANCH  26  50
ATOM     50  C   UNL     1      16.394   2.780  -8.460  1.00  0.00     0.023 A 
ATOM     51  C   UNL     1      17.539   3.578  -8.280  1.00  0.00     0.012 A 
ATOM     52  C   UNL     1      16.514   1.378  -8.383  1.00  0.00     0.148 A 
ATOM     53  C   UNL     1      18.786   2.990  -8.068  1.00  0.00     0.002 A 
ATOM     54  C   UNL     1      17.747   0.801  -8.108  1.00  0.00     0.091 A 
ATOM     55  F   UNL     1      15.415   0.633  -8.573  1.00  0.00    -0.205 F 
ATOM     56  C   UNL     1      18.889   1.604  -7.971  1.00  0.00     0.022 A 
BRANCH  54  57
ATOM     57  S   UNL     1      17.933  -0.962  -7.827  1.00  0.00     0.127 S 
ATOM     58  O   UNL     1      18.556  -1.400  -9.073  1.00  0.00    -0.237 OA
ATOM     59  O   UNL     1      18.811  -0.993  -6.655  1.00  0.00    -0.237 OA
ATOM     60  O   UNL     1      16.588  -1.461  -7.575  1.00  0.00    -0.744 OA
ENDBRANCH  54  57
ENDBRANCH  26  50
BRANCH  38  61
ATOM     61  C   UNL     1      13.787   6.519 -13.742  1.00  0.00     0.023 A 
ATOM     62  C   UNL     1      14.044   5.584 -14.764  1.00  0.00     0.012 A 
ATOM     63  C   UNL     1      14.010   7.888 -13.981  1.00  0.00     0.148 A 
ATOM     64  C   UNL     1      14.543   6.003 -15.996  1.00  0.00     0.002 A 
ATOM     65  C   UNL     1      14.459   8.303 -15.229  1.00  0.00     0.091 A 
ATOM     66  F   UNL     1      13.771   8.758 -12.989  1.00  0.00    -0.205 F 
ATOM     67  C   UNL     1      14.738   7.362 -16.233  1.00  0.00     0.022 A 
BRANCH  65  68
ATOM     68  S   UNL     1      14.651  10.036 -15.660  1.00  0.00     0.127 S 
ATOM     69  O   UNL     1      16.100  10.143 -15.825  1.00  0.00    -0.237 OA
ATOM     70  O   UNL     1      13.887  10.130 -16.904  1.00  0.00    -0.237 OA
ATOM     71  O   UNL     1      14.097  10.795 -14.547  1.00  0.00    -0.744 OA
ENDBRANCH  65  68
ENDBRANCH  38  61
ENDBRANCH  12  13
ENDBRANCH   5   7
ENDBRANCH   2   3
ENDBRANCH   1   2
BRANCH   1  72
ATOM     72  C   UNL     1       7.026   2.764   1.613  1.00  0.00     0.117 C 
BRANCH  72  73
ATOM     73  N   UNL     1       7.912   3.341   2.609  1.00  0.00    -0.354 N 
ATOM     74  C   UNL     1       7.665   4.388   3.460  1.00  0.00     0.252 C 
ATOM     75  H   UNL     1       8.803   2.928   2.682  1.00  0.00     0.163 HD
ATOM     76  O   UNL     1       8.601   4.824   4.128  1.00  0.00    -0.272 OA
BRANCH  74  77
ATOM     77  C   UNL     1       6.226   4.921   3.544  1.00  0.00     0.242 C 
ATOM     78  O   UNL     1       5.916   5.467   2.262  1.00  0.00    -0.324 OA
ATOM     79  C   UNL     1       6.064   5.961   4.660  1.00  0.00     0.184 C 
ATOM     80  C   UNL     1       4.613   6.017   2.142  1.00  0.00     0.343 C 
ATOM     81  C   UNL     1       4.650   6.563   4.585  1.00  0.00     0.181 C 
ATOM     82  C   UNL     1       4.320   7.106   3.191  1.00  0.00     0.214 C 
BRANCH  79  83
ATOM     83  O   UNL     1       6.252   5.361   5.951  1.00  0.00    -0.387 OA
ATOM     84  H   UNL     1       5.588   4.667   6.085  1.00  0.00     0.211 HD
ENDBRANCH  79  83
BRANCH  80  85
ATOM     85  O   UNL     1       4.373   6.495   0.805  1.00  0.00    -0.429 OA
BRANCH  85  86
ATOM     86  C   UNL     1       5.251   7.403   0.328  1.00  0.00     0.342 C 
ATOM     87  O   UNL     1       6.221   7.870   0.910  1.00  0.00    -0.246 OA
BRANCH  86  88
ATOM     88  C   UNL     1       4.909   7.738  -1.060  1.00  0.00     0.078 A 
ATOM     89  C   UNL     1       3.592   7.869  -1.505  1.00  0.00     0.019 A 
ATOM     90  C   UNL     1       5.938   7.970  -1.960  1.00  0.00     0.126 A 
ATOM     91  C   UNL     1       3.359   8.220  -2.834  1.00  0.00     0.021 A 
ATOM     92  N   UNL     1       5.735   8.300  -3.257  1.00  0.00    -0.264 NA
ATOM     93  C   UNL     1       4.452   8.418  -3.665  1.00  0.00     0.111 A 
ENDBRANCH  86  88
ENDBRANCH  85  86
ENDBRANCH  80  85
BRANCH  81  94
ATOM     94  O   UNL     1       4.468   7.584   5.574  1.00  0.00    -0.387 OA
ATOM     95  H   UNL     1       5.081   8.315   5.401  1.00  0.00     0.211 HD
ENDBRANCH  81  94
BRANCH  82  96
ATOM     96  O   UNL     1       2.938   7.499   3.102  1.00  0.00    -0.384 OA
ATOM     97  H   UNL     1       2.372   6.729   3.266  1.00  0.00     0.211 HD
ENDBRANCH  82  96
ENDBRANCH  74  77
ENDBRANCH  72  73
ENDBRANCH   1  72
TORSDOF 19
