REMARK SMILES C[C@@H](C(=O)NCCCNC(=O)c1ccc(-c2c3nc(c(-c4cccc(S(=O)(=O)[O-])c4F)c4ccc([nH]4)c(-c4cccc(S(=O)(=O)[O-])c4F)c4nc(c(-c5cccc(S(=O)(=O)[O-])c5F)c5ccc2[nH]5)C=C4)C=C3)cc1)c1ccc(N[C@H]2CCC[C@@H]2O)cc1F
REMARK SMILES IDX 6 1 5 2 3 3 4 4 2 6 1 7 75 8 76 9 87 10 77 11 86 12 88 13
REMARK SMILES IDX 78 14 79 15 80 17 81 18 84 19 82 20 83 21 85 22 7 24 8 25
REMARK SMILES IDX 9 26 10 27 11 29 12 30 13 31 74 32 14 33 73 34 15 35 16 36
REMARK SMILES IDX 17 37 67 38 18 39 72 40 66 41 68 42 19 43 71 44 65 45 64 46
REMARK SMILES IDX 20 48 52 49 32 50 51 51 33 52 36 53 50 54 69 55 34 56 35 57
REMARK SMILES IDX 49 59 70 60 37 61 21 62 22 63 30 64 23 65 25 66 31 67 24 68
REMARK SMILES IDX 26 69 27 70 28 71 29 72 53 73 54 74 62 75 55 76 57 77 63 78
REMARK SMILES IDX 56 79 58 80 59 81 60 82 61 83 38 84 39 85 47 86 40 87 42 88
REMARK SMILES IDX 48 89 41 90 43 91 44 92 45 93 46 94
REMARK H PARENT 5 5 79 16 85 23 9 28 68 47 36 58
REMARK Flexibility Score: inf
ROOT
ATOM      1  C   UNL     1       3.611  -0.229   1.872  1.00  0.00     0.117 C 
ENDROOT
BRANCH   1   2
ATOM      2  N   UNL     1       2.585   0.511   2.575  1.00  0.00    -0.356 N 
ATOM      3  C   UNL     1       1.243   0.592   2.367  1.00  0.00     0.227 C 
ATOM      4  O   UNL     1       0.631   1.339   3.135  1.00  0.00    -0.274 OA
ATOM      5  H   UNL     1       2.914   1.047   3.332  1.00  0.00     0.163 HD
BRANCH   3   6
ATOM      6  C   UNL     1       0.560  -0.250   1.271  1.00  0.00     0.108 C 
ATOM      7  C   UNL     1       0.954   0.168  -0.148  1.00  0.00     0.023 C 
BRANCH   6   8
ATOM      8  C   UNL     1      -0.958  -0.204   1.372  1.00  0.00     0.000 A 
ATOM      9  C   UNL     1      -1.644   1.014   1.374  1.00  0.00     0.009 A 
ATOM     10  C   UNL     1      -1.716  -1.371   1.427  1.00  0.00     0.129 A 
ATOM     11  C   UNL     1      -3.036   1.052   1.469  1.00  0.00     0.026 A 
ATOM     12  C   UNL     1      -3.111  -1.329   1.490  1.00  0.00     0.065 A 
ATOM     13  F   UNL     1      -1.110  -2.567   1.406  1.00  0.00    -0.207 F 
ATOM     14  C   UNL     1      -3.804  -0.112   1.519  1.00  0.00     0.037 A 
BRANCH  14  15
ATOM     15  N   UNL     1      -5.183  -0.125   1.568  1.00  0.00    -0.380 N 
ATOM     16  H   UNL     1      -5.602  -1.016   1.556  1.00  0.00     0.160 HD
BRANCH  15  17
ATOM     17  C   UNL     1      -6.103   1.007   1.637  1.00  0.00     0.107 C 
ATOM     18  C   UNL     1      -5.935   1.885   2.882  1.00  0.00     0.027 C 
ATOM     19  C   UNL     1      -6.050   1.954   0.425  1.00  0.00     0.136 C 
ATOM     20  C   UNL     1      -5.981   3.330   2.380  1.00  0.00     0.005 C 
ATOM     21  C   UNL     1      -6.597   3.257   0.989  1.00  0.00     0.034 C 
BRANCH  19  22
ATOM     22  O   UNL     1      -6.855   1.479  -0.647  1.00  0.00    -0.391 OA
ATOM     23  H   UNL     1      -7.769   1.369  -0.341  1.00  0.00     0.211 HD
ENDBRANCH  19  22
ENDBRANCH  15  17
ENDBRANCH  14  15
ENDBRANCH   6   8
ENDBRANCH   3   6
ENDBRANCH   1   2
BRANCH   1  24
ATOM     24  C   UNL     1       4.437   0.674   0.961  1.00  0.00     0.042 C 
BRANCH  24  25
ATOM     25  C   UNL     1       5.127   1.829   1.681  1.00  0.00     0.118 C 
BRANCH  25  26
ATOM     26  N   UNL     1       6.115   1.379   2.652  1.00  0.00    -0.352 N 
ATOM     27  C   UNL     1       7.465   1.633   2.698  1.00  0.00     0.251 C 
ATOM     28  H   UNL     1       5.767   0.812   3.378  1.00  0.00     0.163 HD
ATOM     29  O   UNL     1       8.179   1.027   3.492  1.00  0.00    -0.269 OA
BRANCH  27  30
ATOM     30  C   UNL     1       8.054   2.624   1.774  1.00  0.00     0.039 A 
ATOM     31  C   UNL     1       9.203   2.288   1.053  1.00  0.00     0.014 A 
ATOM     32  C   UNL     1       7.457   3.876   1.612  1.00  0.00     0.014 A 
ATOM     33  C   UNL     1       9.713   3.184   0.110  1.00  0.00     0.010 A 
ATOM     34  C   UNL     1       7.923   4.734   0.623  1.00  0.00     0.010 A 
ATOM     35  C   UNL     1       9.056   4.399  -0.137  1.00  0.00    -0.014 A 
BRANCH  35  36
ATOM     36  C   UNL     1       9.512   5.352  -1.179  1.00  0.00     0.031 A 
ATOM     37  C   UNL     1       9.931   6.739  -0.783  1.00  0.00     0.074 A 
ATOM     38  C   UNL     1       9.402   5.024  -2.481  1.00  0.00     0.049 A 
ATOM     39  N   UNL     1      10.168   7.779  -1.537  1.00  0.00    -0.248 NA
ATOM     40  C   UNL     1      10.058   7.000   0.661  1.00  0.00     0.031 C 
ATOM     41  C   UNL     1       8.937   3.733  -2.992  1.00  0.00     0.029 A 
ATOM     42  N   UNL     1       9.619   5.771  -3.613  1.00  0.00    -0.354 N 
ATOM     43  C   UNL     1      10.414   8.831  -0.663  1.00  0.00     0.074 A 
ATOM     44  C   UNL     1      10.275   8.307   0.679  1.00  0.00     0.031 C 
ATOM     45  C   UNL     1       8.877   3.787  -4.332  1.00  0.00     0.029 A 
ATOM     46  C   UNL     1       9.263   5.125  -4.773  1.00  0.00     0.049 A 
ATOM     47  H   UNL     1       9.994   6.682  -3.595  1.00  0.00     0.167 HD
ATOM     48  C   UNL     1      10.748  10.111  -0.950  1.00  0.00     0.034 A 
ATOM     49  C   UNL     1       9.223   5.565  -6.047  1.00  0.00     0.034 A 
ATOM     50  C   UNL     1      10.938  10.610  -2.284  1.00  0.00     0.049 A 
ATOM     51  C   UNL     1       9.657   6.973  -6.349  1.00  0.00     0.074 A 
ATOM     52  C   UNL     1      11.376  11.860  -2.681  1.00  0.00     0.029 A 
ATOM     53  N   UNL     1      10.698   9.882  -3.440  1.00  0.00    -0.354 N 
ATOM     54  N   UNL     1      10.035   7.913  -5.518  1.00  0.00    -0.248 NA
ATOM     55  C   UNL     1       9.694   7.373  -7.764  1.00  0.00     0.031 C 
ATOM     56  C   UNL     1      11.387  11.893  -4.079  1.00  0.00     0.029 A 
ATOM     57  C   UNL     1      10.975  10.656  -4.552  1.00  0.00     0.049 A 
ATOM     58  H   UNL     1      10.378   8.952  -3.465  1.00  0.00     0.167 HD
ATOM     59  C   UNL     1      10.390   9.002  -6.305  1.00  0.00     0.074 A 
ATOM     60  C   UNL     1      10.191   8.602  -7.683  1.00  0.00     0.031 C 
ATOM     61  C   UNL     1      10.832  10.224  -5.920  1.00  0.00     0.034 A 
BRANCH  48  62
ATOM     62  C   UNL     1      10.974  11.045   0.210  1.00  0.00     0.023 A 
ATOM     63  C   UNL     1      12.111  10.878   1.027  1.00  0.00     0.012 A 
ATOM     64  C   UNL     1      10.080  12.100   0.479  1.00  0.00     0.148 A 
ATOM     65  C   UNL     1      12.329  11.713   2.123  1.00  0.00     0.002 A 
ATOM     66  C   UNL     1      10.330  12.957   1.546  1.00  0.00     0.091 A 
ATOM     67  F   UNL     1       8.991  12.232  -0.290  1.00  0.00    -0.205 F 
ATOM     68  C   UNL     1      11.444  12.757   2.376  1.00  0.00     0.022 A 
BRANCH  66  69
ATOM     69  S   UNL     1       9.286  14.377   1.894  1.00  0.00     0.127 S 
ATOM     70  O   UNL     1       8.464  13.878   2.995  1.00  0.00    -0.237 OA
ATOM     71  O   UNL     1      10.263  15.398   2.278  1.00  0.00    -0.237 OA
ATOM     72  O   UNL     1       8.580  14.660   0.652  1.00  0.00    -0.744 OA
ENDBRANCH  66  69
ENDBRANCH  48  62
BRANCH  49  73
ATOM     73  C   UNL     1       8.805   4.630  -7.128  1.00  0.00     0.023 A 
ATOM     74  C   UNL     1       9.776   4.111  -8.005  1.00  0.00     0.012 A 
ATOM     75  C   UNL     1       7.471   4.191  -7.241  1.00  0.00     0.148 A 
ATOM     76  C   UNL     1       9.425   3.183  -8.986  1.00  0.00     0.002 A 
ATOM     77  C   UNL     1       7.138   3.226  -8.185  1.00  0.00     0.091 A 
ATOM     78  F   UNL     1       6.562   4.702  -6.399  1.00  0.00    -0.205 F 
ATOM     79  C   UNL     1       8.110   2.732  -9.068  1.00  0.00     0.022 A 
BRANCH  77  80
ATOM     80  S   UNL     1       5.505   2.481  -8.273  1.00  0.00     0.127 S 
ATOM     81  O   UNL     1       5.022   2.969  -9.563  1.00  0.00    -0.237 OA
ATOM     82  O   UNL     1       5.824   1.054  -8.233  1.00  0.00    -0.237 OA
ATOM     83  O   UNL     1       4.784   2.968  -7.105  1.00  0.00    -0.744 OA
ENDBRANCH  77  80
ENDBRANCH  49  73
BRANCH  61  84
ATOM     84  C   UNL     1      11.183  11.221  -6.992  1.00  0.00     0.023 A 
ATOM     85  C   UNL     1      10.158  11.893  -7.685  1.00  0.00     0.012 A 
ATOM     86  C   UNL     1      12.527  11.578  -7.221  1.00  0.00     0.148 A 
ATOM     87  C   UNL     1      10.467  12.899  -8.601  1.00  0.00     0.002 A 
ATOM     88  C   UNL     1      12.824  12.611  -8.101  1.00  0.00     0.091 A 
ATOM     89  F   UNL     1      13.485  10.911  -6.561  1.00  0.00    -0.205 F 
ATOM     90  C   UNL     1      11.796  13.267  -8.797  1.00  0.00     0.022 A 
BRANCH  88  91
ATOM     91  S   UNL     1      14.497  13.220  -8.344  1.00  0.00     0.127 S 
ATOM     92  O   UNL     1      14.781  12.772  -9.706  1.00  0.00    -0.237 OA
ATOM     93  O   UNL     1      14.324  14.665  -8.200  1.00  0.00    -0.237 OA
ATOM     94  O   UNL     1      15.307  12.601  -7.303  1.00  0.00    -0.744 OA
ENDBRANCH  88  91
ENDBRANCH  61  84
ENDBRANCH  35  36
ENDBRANCH  27  30
ENDBRANCH  25  26
ENDBRANCH  24  25
ENDBRANCH   1  24
TORSDOF 17
