REMARK SMILES C[C@H]1[C@H](C(=O)NCCCNC(=O)c2ccc(-c3c4nc(c(-c5cccc(S(=O)(=O)[O-])c5F)c5ccc([nH]5)c(-c5cccc(S(=O)(=O)[O-])c5F)c5nc(c(-c6cccc(S(=O)(=O)[O-])c6F)c6ccc3[nH]6)C=C5)C=C4)cc2)CCN1C(=O)Cc1csc(N)n1
REMARK SMILES IDX 7 1 6 2 4 3 5 4 3 6 1 7 2 8 78 9 76 10 77 11 79 12 80 13
REMARK SMILES IDX 81 14 82 15 83 16 87 17 84 18 85 19 86 20 8 23 9 24 10 25
REMARK SMILES IDX 11 26 12 28 13 29 14 30 75 31 15 32 74 33 16 34 17 35 18 36
REMARK SMILES IDX 68 37 19 38 73 39 67 40 69 41 20 42 72 43 66 44 65 45 21 47
REMARK SMILES IDX 53 48 33 49 52 50 34 51 37 52 51 53 70 54 35 55 36 56 50 58
REMARK SMILES IDX 71 59 38 60 22 61 23 62 31 63 24 64 26 65 32 66 25 67 27 68
REMARK SMILES IDX 28 69 29 70 30 71 54 72 55 73 63 74 56 75 58 76 64 77 57 78
REMARK SMILES IDX 59 79 60 80 61 81 62 82 39 83 40 84 48 85 41 86 43 87 49 88
REMARK SMILES IDX 42 89 44 90 45 91 46 92 47 93
REMARK H PARENT 6 5 86 21 86 22 10 27 69 46 37 57
REMARK Flexibility Score: inf
ROOT
ATOM      1  C   UNL     1      -1.102   0.512   2.877  1.00  0.00     0.117 C 
ENDROOT
BRANCH   1   2
ATOM      2  N   UNL     1      -0.625   1.794   2.392  1.00  0.00    -0.356 N 
ATOM      3  C   UNL     1      -0.248   2.203   1.156  1.00  0.00     0.225 C 
ATOM      4  O   UNL     1       0.133   3.373   1.044  1.00  0.00    -0.275 OA
ATOM      5  H   UNL     1      -0.563   2.490   3.085  1.00  0.00     0.163 HD
BRANCH   3   6
ATOM      6  C   UNL     1      -0.262   1.297  -0.062  1.00  0.00     0.102 C 
ATOM      7  C   UNL     1       1.704   0.270  -1.212  1.00  0.00     0.032 C 
ATOM      8  C   UNL     1       0.782   0.171   0.012  1.00  0.00     0.094 C 
ATOM      9  N   UNL     1       0.004  -1.064  -0.030  1.00  0.00    -0.339 N 
ATOM     10  C   UNL     1      -1.608   0.638  -0.376  1.00  0.00     0.037 C 
ATOM     11  C   UNL     1      -1.297  -0.832  -0.625  1.00  0.00     0.120 C 
BRANCH   9  12
ATOM     12  C   UNL     1       0.385  -2.348   0.329  1.00  0.00     0.228 C 
ATOM     13  O   UNL     1      -0.357  -3.302   0.069  1.00  0.00    -0.274 OA
BRANCH  12  14
ATOM     14  C   UNL     1       1.613  -2.559   1.206  1.00  0.00     0.157 C 
BRANCH  14  15
ATOM     15  C   UNL     1       2.933  -2.288   0.568  1.00  0.00     0.063 A 
ATOM     16  C   UNL     1       3.851  -1.333   0.970  1.00  0.00     0.093 A 
ATOM     17  N   UNL     1       3.361  -3.077  -0.489  1.00  0.00    -0.225 NA
ATOM     18  S   UNL     1       5.247  -1.401  -0.018  1.00  0.00    -0.106 S 
ATOM     19  C   UNL     1       4.570  -2.734  -0.859  1.00  0.00     0.180 A 
BRANCH  19  20
ATOM     20  N   UNL     1       5.253  -3.366  -1.819  1.00  0.00    -0.375 N 
ATOM     21  H   UNL     1       6.160  -3.067  -2.057  1.00  0.00     0.159 HD
ATOM     22  H   UNL     1       4.848  -4.132  -2.288  1.00  0.00     0.159 HD
ENDBRANCH  19  20
ENDBRANCH  14  15
ENDBRANCH  12  14
ENDBRANCH   9  12
ENDBRANCH   3   6
ENDBRANCH   1   2
BRANCH   1  23
ATOM     23  C   UNL     1      -0.178  -0.084   3.928  1.00  0.00     0.042 C 
BRANCH  23  24
ATOM     24  C   UNL     1      -0.092   0.724   5.216  1.00  0.00     0.118 C 
BRANCH  24  25
ATOM     25  N   UNL     1      -1.379   0.857   5.887  1.00  0.00    -0.352 N 
ATOM     26  C   UNL     1      -1.773   0.444   7.133  1.00  0.00     0.251 C 
ATOM     27  H   UNL     1      -2.075   1.315   5.362  1.00  0.00     0.163 HD
ATOM     28  O   UNL     1      -2.968   0.491   7.432  1.00  0.00    -0.269 OA
BRANCH  26  29
ATOM     29  C   UNL     1      -0.787  -0.066   8.109  1.00  0.00     0.039 A 
ATOM     30  C   UNL     1      -1.127  -1.167   8.900  1.00  0.00     0.014 A 
ATOM     31  C   UNL     1       0.460   0.545   8.265  1.00  0.00     0.014 A 
ATOM     32  C   UNL     1      -0.195  -1.688   9.800  1.00  0.00     0.010 A 
ATOM     33  C   UNL     1       1.419  -0.032   9.093  1.00  0.00     0.010 A 
ATOM     34  C   UNL     1       1.100  -1.148   9.878  1.00  0.00    -0.014 A 
BRANCH  34  35
ATOM     35  C   UNL     1       2.129  -1.748  10.766  1.00  0.00     0.031 A 
ATOM     36  C   UNL     1       2.742  -0.945  11.882  1.00  0.00     0.074 A 
ATOM     37  C   UNL     1       2.567  -2.998  10.518  1.00  0.00     0.049 A 
ATOM     38  N   UNL     1       3.671  -1.295  12.734  1.00  0.00    -0.248 NA
ATOM     39  C   UNL     1       2.274   0.442  12.045  1.00  0.00     0.031 C 
ATOM     40  C   UNL     1       2.121  -3.847   9.411  1.00  0.00     0.029 A 
ATOM     41  N   UNL     1       3.503  -3.765  11.166  1.00  0.00    -0.354 N 
ATOM     42  C   UNL     1       3.918  -0.170  13.512  1.00  0.00     0.074 A 
ATOM     43  C   UNL     1       3.074   0.888  13.002  1.00  0.00     0.031 C 
ATOM     44  C   UNL     1       2.776  -5.018   9.461  1.00  0.00     0.029 A 
ATOM     45  C   UNL     1       3.708  -4.994  10.584  1.00  0.00     0.049 A 
ATOM     46  H   UNL     1       3.982  -3.464  11.972  1.00  0.00     0.167 HD
ATOM     47  C   UNL     1       4.745  -0.036  14.577  1.00  0.00     0.034 A 
ATOM     48  C   UNL     1       4.557  -5.988  10.910  1.00  0.00     0.034 A 
ATOM     49  C   UNL     1       5.559  -1.100  15.102  1.00  0.00     0.049 A 
ATOM     50  C   UNL     1       5.433  -5.832  12.121  1.00  0.00     0.074 A 
ATOM     51  C   UNL     1       6.369  -1.090  16.225  1.00  0.00     0.029 A 
ATOM     52  N   UNL     1       5.676  -2.361  14.538  1.00  0.00    -0.354 N 
ATOM     53  N   UNL     1       5.533  -4.815  12.942  1.00  0.00    -0.248 NA
ATOM     54  C   UNL     1       6.283  -6.977  12.477  1.00  0.00     0.031 C 
ATOM     55  C   UNL     1       6.996  -2.337  16.323  1.00  0.00     0.029 A 
ATOM     56  C   UNL     1       6.550  -3.135  15.282  1.00  0.00     0.049 A 
ATOM     57  H   UNL     1       5.205  -2.662  13.727  1.00  0.00     0.167 HD
ATOM     58  C   UNL     1       6.433  -5.206  13.927  1.00  0.00     0.074 A 
ATOM     59  C   UNL     1       6.826  -6.565  13.614  1.00  0.00     0.031 C 
ATOM     60  C   UNL     1       6.903  -4.500  14.984  1.00  0.00     0.034 A 
BRANCH  47  61
ATOM     61  C   UNL     1       4.770   1.299  15.278  1.00  0.00     0.023 A 
ATOM     62  C   UNL     1       3.646   1.714  16.023  1.00  0.00     0.012 A 
ATOM     63  C   UNL     1       5.915   2.118  15.245  1.00  0.00     0.148 A 
ATOM     64  C   UNL     1       3.645   2.938  16.689  1.00  0.00     0.002 A 
ATOM     65  C   UNL     1       5.925   3.316  15.952  1.00  0.00     0.091 A 
ATOM     66  F   UNL     1       6.967   1.719  14.517  1.00  0.00    -0.205 F 
ATOM     67  C   UNL     1       4.787   3.734  16.662  1.00  0.00     0.022 A 
BRANCH  65  68
ATOM     68  S   UNL     1       7.373   4.375  16.048  1.00  0.00     0.127 S 
ATOM     69  O   UNL     1       6.952   5.522  15.245  1.00  0.00    -0.237 OA
ATOM     70  O   UNL     1       7.467   4.637  17.484  1.00  0.00    -0.237 OA
ATOM     71  O   UNL     1       8.475   3.599  15.498  1.00  0.00    -0.744 OA
ENDBRANCH  65  68
ENDBRANCH  47  61
BRANCH  48  72
ATOM     72  C   UNL     1       4.574  -7.241  10.104  1.00  0.00     0.023 A 
ATOM     73  C   UNL     1       4.072  -8.434  10.660  1.00  0.00     0.012 A 
ATOM     74  C   UNL     1       5.054  -7.248   8.781  1.00  0.00     0.148 A 
ATOM     75  C   UNL     1       4.077  -9.619   9.923  1.00  0.00     0.002 A 
ATOM     76  C   UNL     1       5.003  -8.418   8.033  1.00  0.00     0.091 A 
ATOM     77  F   UNL     1       5.537  -6.105   8.275  1.00  0.00    -0.205 F 
ATOM     78  C   UNL     1       4.532  -9.609   8.607  1.00  0.00     0.022 A 
BRANCH  76  79
ATOM     79  S   UNL     1       5.440  -8.465   6.291  1.00  0.00     0.127 S 
ATOM     80  O   UNL     1       6.678  -9.240   6.315  1.00  0.00    -0.237 OA
ATOM     81  O   UNL     1       4.288  -9.157   5.712  1.00  0.00    -0.237 OA
ATOM     82  O   UNL     1       5.572  -7.073   5.883  1.00  0.00    -0.744 OA
ENDBRANCH  76  79
ENDBRANCH  48  72
BRANCH  60  83
ATOM     83  C   UNL     1       7.876  -5.192  15.904  1.00  0.00     0.023 A 
ATOM     84  C   UNL     1       9.187  -5.465  15.464  1.00  0.00     0.012 A 
ATOM     85  C   UNL     1       7.507  -5.525  17.222  1.00  0.00     0.148 A 
ATOM     86  C   UNL     1      10.101  -6.096  16.307  1.00  0.00     0.002 A 
ATOM     87  C   UNL     1       8.439  -6.106  18.073  1.00  0.00     0.091 A 
ATOM     88  F   UNL     1       6.250  -5.275  17.617  1.00  0.00    -0.205 F 
ATOM     89  C   UNL     1       9.731  -6.407  17.613  1.00  0.00     0.022 A 
BRANCH  87  90
ATOM     90  S   UNL     1       8.081  -6.451  19.799  1.00  0.00     0.127 S 
ATOM     91  O   UNL     1       7.960  -7.908  19.793  1.00  0.00    -0.237 OA
ATOM     92  O   UNL     1       9.277  -5.942  20.472  1.00  0.00    -0.237 OA
ATOM     93  O   UNL     1       6.858  -5.722  20.108  1.00  0.00    -0.744 OA
ENDBRANCH  87  90
ENDBRANCH  60  83
ENDBRANCH  34  35
ENDBRANCH  26  29
ENDBRANCH  24  25
ENDBRANCH  23  24
ENDBRANCH   1  23
TORSDOF 17
