REMARK SMILES CC(=O)N[C@H](CC(=O)NCC(=O)NCCCNC(=O)c1ccc(-c2c3nc(c(-c4cccc(S(=O)(=O)[O-])c4F)c4ccc([nH]4)c(-c4cccc(S(=O)(=O)[O-])c4F)c4nc(c(-c5cccc(S(=O)(=O)[O-])c5F)c5ccc2[nH]5)C=C4)C=C3)cc1)c1cccs1
REMARK SMILES IDX 14 1 13 2 11 3 12 4 10 6 9 7 7 8 8 9 6 11 5 12 4 13 1 14
REMARK SMILES IDX 2 15 3 16 83 18 84 19 87 20 85 21 86 22 15 23 16 24 17 25
REMARK SMILES IDX 18 26 19 28 20 29 21 30 82 31 22 32 81 33 23 34 24 35 25 36
REMARK SMILES IDX 75 37 26 38 80 39 74 40 76 41 27 42 79 43 73 44 72 45 28 47
REMARK SMILES IDX 60 48 40 49 59 50 41 51 44 52 58 53 77 54 42 55 43 56 57 58
REMARK SMILES IDX 78 59 45 60 29 61 30 62 38 63 31 64 33 65 39 66 32 67 34 68
REMARK SMILES IDX 35 69 36 70 37 71 61 72 62 73 70 74 63 75 65 76 71 77 64 78
REMARK SMILES IDX 66 79 67 80 68 81 69 82 46 83 47 84 55 85 48 86 50 87 56 88
REMARK SMILES IDX 49 89 51 90 52 91 53 92 54 93
REMARK H PARENT 13 5 9 10 4 17 17 27 76 46 44 57
REMARK Flexibility Score: inf
ROOT
ATOM      1  C   UNL     1       0.991  -1.569   2.787  1.00  0.00     0.117 C 
ENDROOT
BRANCH   1   2
ATOM      2  N   UNL     1       1.253  -2.378   1.622  1.00  0.00    -0.355 N 
ATOM      3  C   UNL     1       1.555  -1.939   0.361  1.00  0.00     0.239 C 
ATOM      4  O   UNL     1       2.097  -2.728  -0.416  1.00  0.00    -0.273 OA
ATOM      5  H   UNL     1       1.211  -3.354   1.747  1.00  0.00     0.163 HD
BRANCH   3   6
ATOM      6  C   UNL     1       1.390  -0.451  -0.001  1.00  0.00     0.216 C 
BRANCH   6   7
ATOM      7  N   UNL     1       0.113   0.107   0.422  1.00  0.00    -0.347 N 
ATOM      8  C   UNL     1      -0.195   1.254   1.090  1.00  0.00     0.222 C 
ATOM      9  O   UNL     1      -1.366   1.416   1.429  1.00  0.00    -0.275 OA
ATOM     10  H   UNL     1      -0.668  -0.443   0.183  1.00  0.00     0.164 HD
BRANCH   8  11
ATOM     11  C   UNL     1       0.854   2.319   1.354  1.00  0.00     0.130 C 
BRANCH  11  12
ATOM     12  C   UNL     1       1.797   2.033   2.532  1.00  0.00     0.131 C 
BRANCH  12  13
ATOM     13  N   UNL     1       2.940   2.940   2.662  1.00  0.00    -0.348 N 
ATOM     14  C   UNL     1       3.889   2.780   0.377  1.00  0.00     0.114 C 
ATOM     15  C   UNL     1       3.993   3.156   1.827  1.00  0.00     0.217 C 
ATOM     16  O   UNL     1       5.008   3.694   2.267  1.00  0.00    -0.275 OA
ATOM     17  H   UNL     1       2.947   3.481   3.485  1.00  0.00     0.164 HD
ENDBRANCH  12  13
BRANCH  12  18
ATOM     18  C   UNL     1       1.111   2.012   3.894  1.00  0.00     0.027 A 
ATOM     19  C   UNL     1       1.289   1.103   4.926  1.00  0.00     0.017 A 
ATOM     20  S   UNL     1       0.016   3.249   4.372  1.00  0.00    -0.147 S 
ATOM     21  C   UNL     1       0.436   1.351   6.041  1.00  0.00     0.012 A 
ATOM     22  C   UNL     1      -0.317   2.488   5.864  1.00  0.00     0.065 A 
ENDBRANCH  12  18
ENDBRANCH  11  12
ENDBRANCH   8  11
ENDBRANCH   6   7
ENDBRANCH   3   6
ENDBRANCH   1   2
BRANCH   1  23
ATOM     23  C   UNL     1      -0.388  -1.762   3.386  1.00  0.00     0.042 C 
BRANCH  23  24
ATOM     24  C   UNL     1      -0.416  -2.857   4.436  1.00  0.00     0.118 C 
BRANCH  24  25
ATOM     25  N   UNL     1       0.455  -2.576   5.577  1.00  0.00    -0.352 N 
ATOM     26  C   UNL     1       0.173  -2.505   6.918  1.00  0.00     0.251 C 
ATOM     27  H   UNL     1       1.398  -2.410   5.346  1.00  0.00     0.163 HD
ATOM     28  O   UNL     1       1.031  -2.065   7.686  1.00  0.00    -0.269 OA
BRANCH  26  29
ATOM     29  C   UNL     1      -1.142  -2.934   7.434  1.00  0.00     0.039 A 
ATOM     30  C   UNL     1      -1.707  -2.256   8.517  1.00  0.00     0.014 A 
ATOM     31  C   UNL     1      -1.819  -4.009   6.857  1.00  0.00     0.014 A 
ATOM     32  C   UNL     1      -2.974  -2.620   8.974  1.00  0.00     0.010 A 
ATOM     33  C   UNL     1      -3.130  -4.277   7.221  1.00  0.00     0.010 A 
ATOM     34  C   UNL     1      -3.712  -3.612   8.305  1.00  0.00    -0.014 A 
BRANCH  34  35
ATOM     35  C   UNL     1      -5.079  -3.993   8.739  1.00  0.00     0.031 A 
ATOM     36  C   UNL     1      -5.375  -5.417   9.135  1.00  0.00     0.074 A 
ATOM     37  C   UNL     1      -6.069  -3.080   8.698  1.00  0.00     0.049 A 
ATOM     38  N   UNL     1      -6.511  -5.951   9.502  1.00  0.00    -0.248 NA
ATOM     39  C   UNL     1      -4.260  -6.380   9.074  1.00  0.00     0.031 C 
ATOM     40  C   UNL     1      -5.929  -1.696   8.235  1.00  0.00     0.029 A 
ATOM     41  N   UNL     1      -7.394  -3.184   9.033  1.00  0.00    -0.354 N 
ATOM     42  C   UNL     1      -6.256  -7.307   9.672  1.00  0.00     0.074 A 
ATOM     43  C   UNL     1      -4.874  -7.527   9.316  1.00  0.00     0.031 C 
ATOM     44  C   UNL     1      -7.114  -1.075   8.338  1.00  0.00     0.029 A 
ATOM     45  C   UNL     1      -8.104  -2.021   8.841  1.00  0.00     0.049 A 
ATOM     46  H   UNL     1      -7.800  -4.012   9.378  1.00  0.00     0.167 HD
ATOM     47  C   UNL     1      -7.085  -8.279  10.121  1.00  0.00     0.034 A 
ATOM     48  C   UNL     1      -9.407  -1.751   9.047  1.00  0.00     0.034 A 
ATOM     49  C   UNL     1      -8.444  -8.043  10.523  1.00  0.00     0.049 A 
ATOM     50  C   UNL     1     -10.292  -2.831   9.607  1.00  0.00     0.074 A 
ATOM     51  C   UNL     1      -9.343  -8.934  11.082  1.00  0.00     0.029 A 
ATOM     52  N   UNL     1      -9.104  -6.830  10.403  1.00  0.00    -0.354 N 
ATOM     53  N   UNL     1      -9.990  -4.069   9.915  1.00  0.00    -0.248 NA
ATOM     54  C   UNL     1     -11.687  -2.464   9.888  1.00  0.00     0.031 C 
ATOM     55  C   UNL     1     -10.557  -8.265  11.273  1.00  0.00     0.029 A 
ATOM     56  C   UNL     1     -10.401  -6.948  10.870  1.00  0.00     0.049 A 
ATOM     57  H   UNL     1      -8.707  -6.005  10.040  1.00  0.00     0.167 HD
ATOM     58  C   UNL     1     -11.145  -4.618  10.460  1.00  0.00     0.074 A 
ATOM     59  C   UNL     1     -12.142  -3.567  10.464  1.00  0.00     0.031 C 
ATOM     60  C   UNL     1     -11.366  -5.880  10.907  1.00  0.00     0.034 A 
BRANCH  47  61
ATOM     61  C   UNL     1      -6.526  -9.673  10.252  1.00  0.00     0.023 A 
ATOM     62  C   UNL     1      -5.554  -9.948  11.238  1.00  0.00     0.012 A 
ATOM     63  C   UNL     1      -6.995 -10.721   9.437  1.00  0.00     0.148 A 
ATOM     64  C   UNL     1      -5.027 -11.231  11.381  1.00  0.00     0.002 A 
ATOM     65  C   UNL     1      -6.503 -12.008   9.621  1.00  0.00     0.091 A 
ATOM     66  F   UNL     1      -7.902 -10.439   8.491  1.00  0.00    -0.205 F 
ATOM     67  C   UNL     1      -5.511 -12.262  10.581  1.00  0.00     0.022 A 
BRANCH  65  68
ATOM     68  S   UNL     1      -7.119 -13.423   8.701  1.00  0.00     0.127 S 
ATOM     69  O   UNL     1      -5.964 -13.759   7.870  1.00  0.00    -0.237 OA
ATOM     70  O   UNL     1      -7.402 -14.382   9.768  1.00  0.00    -0.237 OA
ATOM     71  O   UNL     1      -8.292 -12.953   7.977  1.00  0.00    -0.744 OA
ENDBRANCH  65  68
ENDBRANCH  47  61
BRANCH  48  72
ATOM     72  C   UNL     1      -9.935  -0.380   8.795  1.00  0.00     0.023 A 
ATOM     73  C   UNL     1     -10.325   0.425   9.884  1.00  0.00     0.012 A 
ATOM     74  C   UNL     1     -10.032   0.138   7.489  1.00  0.00     0.148 A 
ATOM     75  C   UNL     1     -10.838   1.705   9.675  1.00  0.00     0.002 A 
ATOM     76  C   UNL     1     -10.491   1.435   7.292  1.00  0.00     0.091 A 
ATOM     77  F   UNL     1      -9.662  -0.646   6.467  1.00  0.00    -0.205 F 
ATOM     78  C   UNL     1     -10.913   2.213   8.381  1.00  0.00     0.022 A 
BRANCH  76  79
ATOM     79  S   UNL     1     -10.499   2.219   5.676  1.00  0.00     0.127 S 
ATOM     80  O   UNL     1     -11.930   2.320   5.401  1.00  0.00    -0.237 OA
ATOM     81  O   UNL     1      -9.834   3.492   5.957  1.00  0.00    -0.237 OA
ATOM     82  O   UNL     1      -9.748   1.327   4.803  1.00  0.00    -0.744 OA
ENDBRANCH  76  79
ENDBRANCH  48  72
BRANCH  60  83
ATOM     83  C   UNL     1     -12.726  -6.184  11.479  1.00  0.00     0.023 A 
ATOM     84  C   UNL     1     -13.851  -6.245  10.633  1.00  0.00     0.012 A 
ATOM     85  C   UNL     1     -12.877  -6.459  12.852  1.00  0.00     0.148 A 
ATOM     86  C   UNL     1     -15.113  -6.527  11.153  1.00  0.00     0.002 A 
ATOM     87  C   UNL     1     -14.128  -6.795  13.354  1.00  0.00     0.091 A 
ATOM     88  F   UNL     1     -11.798  -6.379  13.644  1.00  0.00    -0.205 F 
ATOM     89  C   UNL     1     -15.250  -6.813  12.509  1.00  0.00     0.022 A 
BRANCH  87  90
ATOM     90  S   UNL     1     -14.377  -7.277  15.065  1.00  0.00     0.127 S 
ATOM     91  O   UNL     1     -15.047  -6.098  15.612  1.00  0.00    -0.237 OA
ATOM     92  O   UNL     1     -15.231  -8.458  14.934  1.00  0.00    -0.237 OA
ATOM     93  O   UNL     1     -13.051  -7.549  15.602  1.00  0.00    -0.744 OA
ENDBRANCH  87  90
ENDBRANCH  60  83
ENDBRANCH  34  35
ENDBRANCH  26  29
ENDBRANCH  24  25
ENDBRANCH  23  24
ENDBRANCH   1  23
TORSDOF 18
