REMARK SMILES C[NH+]1CCC([N@@H+](C)CCC(=O)NCCCNC(=O)c2ccc(-c3c4nc(c(-c5cccc(S(=O)(=O)[O-])c5F)c5ccc([nH]5)c(-c5cccc(S(=O)(=O)[O-])c5F)c5nc(c(-c6cccc(S(=O)(=O)[O-])c6F)c6ccc3[nH]6)C=C5)C=C4)cc2)CC1
REMARK SMILES IDX 14 1 13 2 12 3 10 4 11 5 9 7 8 8 6 9 7 10 5 12 1 13 2 14
REMARK SMILES IDX 3 15 83 16 4 18 82 19 15 20 16 21 17 22 18 24 19 25 20 26
REMARK SMILES IDX 81 27 21 28 80 29 22 30 23 31 24 32 74 33 25 34 79 35 73 36
REMARK SMILES IDX 75 37 26 38 78 39 72 40 71 41 27 43 59 44 39 45 58 46 40 47
REMARK SMILES IDX 43 48 57 49 76 50 41 51 42 52 56 54 77 55 44 56 28 57 29 58
REMARK SMILES IDX 37 59 30 60 32 61 38 62 31 63 33 64 34 65 35 66 36 67 60 68
REMARK SMILES IDX 61 69 69 70 62 71 64 72 70 73 63 74 65 75 66 76 67 77 68 78
REMARK SMILES IDX 45 79 46 80 54 81 47 82 49 83 55 84 48 85 50 86 51 87 52 88
REMARK SMILES IDX 53 89
REMARK H PARENT 12 6 6 11 2 17 16 23 75 42 43 53
REMARK Flexibility Score: inf
ROOT
ATOM      1  C   UNL     1       1.421  -0.560  -1.913  1.00  0.00     0.042 C 
ENDROOT
BRANCH   1   2
ATOM      2  C   UNL     1       0.879   0.535  -0.831  1.00  0.00     0.117 C 
BRANCH   2   3
ATOM      3  N   UNL     1       0.860   0.586   1.163  1.00  0.00    -0.356 N 
ATOM      4  C   UNL     1       1.270   0.696   2.488  1.00  0.00     0.225 C 
ATOM      5  O   UNL     1       0.353   0.614   3.324  1.00  0.00    -0.275 OA
ATOM      6  H   UNL     1      -0.099   0.419   1.312  1.00  0.00     0.163 HD
BRANCH   4   7
ATOM      7  C   UNL     1       2.654   0.999   3.039  1.00  0.00     0.161 C 
BRANCH   7   8
ATOM      8  C   UNL     1       3.815   0.242   2.448  1.00  0.00     0.272 C 
BRANCH   8   9
ATOM      9  N   UNL     1       4.032   0.555   1.049  1.00  0.00    -0.334 N 
ATOM     10  C   UNL     1       4.837   1.749   0.838  1.00  0.00     0.332 C 
ATOM     11  H   UNL     1       4.591  -0.202   0.656  1.00  0.00     0.348 HD
BRANCH   9  12
ATOM     12  C   UNL     1       2.753   0.594   0.327  1.00  0.00     0.195 C 
ATOM     13  C   UNL     1      -2.373   0.521  -0.228  1.00  0.00     0.332 C 
ATOM     14  N   UNL     1      -1.116   0.554   0.508  1.00  0.00    -0.337 N 
ATOM     15  C   UNL     1      -0.214   2.157   0.301  1.00  0.00     0.268 C 
ATOM     16  C   UNL     1      -0.183  -1.042   0.374  1.00  0.00     0.268 C 
ATOM     17  H   UNL     1      -1.302   0.579   1.510  1.00  0.00     0.347 HD
ATOM     18  C   UNL     1       1.732   2.272   0.398  1.00  0.00     0.126 C 
ATOM     19  C   UNL     1       1.765  -1.092   0.538  1.00  0.00     0.126 C 
ENDBRANCH   9  12
ENDBRANCH   8   9
ENDBRANCH   7   8
ENDBRANCH   4   7
ENDBRANCH   2   3
ENDBRANCH   1   2
BRANCH   1  20
ATOM     20  C   UNL     1       0.654  -0.467  -3.235  1.00  0.00     0.118 C 
BRANCH  20  21
ATOM     21  N   UNL     1       0.605   0.822  -3.907  1.00  0.00    -0.352 N 
ATOM     22  C   UNL     1       0.166   1.029  -5.205  1.00  0.00     0.251 C 
ATOM     23  H   UNL     1       0.907   1.609  -3.399  1.00  0.00     0.163 HD
ATOM     24  O   UNL     1       0.160   2.142  -5.709  1.00  0.00    -0.269 OA
BRANCH  22  25
ATOM     25  C   UNL     1      -0.223  -0.170  -5.987  1.00  0.00     0.039 A 
ATOM     26  C   UNL     1       0.540  -0.520  -7.102  1.00  0.00     0.014 A 
ATOM     27  C   UNL     1      -1.177  -1.048  -5.472  1.00  0.00     0.014 A 
ATOM     28  C   UNL     1       0.425  -1.810  -7.629  1.00  0.00     0.010 A 
ATOM     29  C   UNL     1      -1.199  -2.362  -5.922  1.00  0.00     0.010 A 
ATOM     30  C   UNL     1      -0.393  -2.763  -7.000  1.00  0.00    -0.014 A 
BRANCH  30  31
ATOM     31  C   UNL     1      -0.416  -4.188  -7.428  1.00  0.00     0.031 A 
ATOM     32  C   UNL     1      -1.722  -4.828  -7.821  1.00  0.00     0.074 A 
ATOM     33  C   UNL     1       0.701  -4.942  -7.344  1.00  0.00     0.049 A 
ATOM     34  N   UNL     1      -1.980  -6.081  -8.088  1.00  0.00    -0.248 NA
ATOM     35  C   UNL     1      -2.907  -3.953  -7.862  1.00  0.00     0.031 C 
ATOM     36  C   UNL     1       2.008  -4.481  -6.867  1.00  0.00     0.029 A 
ATOM     37  N   UNL     1       0.910  -6.268  -7.636  1.00  0.00    -0.354 N 
ATOM     38  C   UNL     1      -3.358  -6.155  -8.252  1.00  0.00     0.074 A 
ATOM     39  C   UNL     1      -3.886  -4.830  -8.019  1.00  0.00     0.031 C 
ATOM     40  C   UNL     1       2.885  -5.498  -6.925  1.00  0.00     0.029 A 
ATOM     41  C   UNL     1       2.203  -6.689  -7.421  1.00  0.00     0.049 A 
ATOM     42  H   UNL     1       0.200  -6.863  -7.969  1.00  0.00     0.167 HD
ATOM     43  C   UNL     1      -4.117  -7.218  -8.608  1.00  0.00     0.034 A 
ATOM     44  C   UNL     1       2.777  -7.893  -7.619  1.00  0.00     0.034 A 
ATOM     45  C   UNL     1      -3.578  -8.500  -8.965  1.00  0.00     0.049 A 
ATOM     46  C   UNL     1       1.942  -9.014  -8.179  1.00  0.00     0.074 A 
ATOM     47  C   UNL     1      -4.244  -9.609  -9.454  1.00  0.00     0.029 A 
ATOM     48  N   UNL     1      -2.234  -8.831  -8.903  1.00  0.00    -0.354 N 
ATOM     49  N   UNL     1       0.665  -9.020  -8.476  1.00  0.00    -0.248 NA
ATOM     50  C   UNL     1       2.632 -10.279  -8.474  1.00  0.00     0.031 C 
ATOM     51  C   UNL     1      -3.296 -10.605  -9.712  1.00  0.00     0.029 A 
ATOM     52  C   UNL     1      -2.043 -10.117  -9.373  1.00  0.00     0.049 A 
ATOM     53  H   UNL     1      -1.520  -8.238  -8.574  1.00  0.00     0.167 HD
ATOM     54  C   UNL     1       0.407 -10.270  -9.026  1.00  0.00     0.074 A 
ATOM     55  C   UNL     1       1.663 -10.990  -9.038  1.00  0.00     0.031 C 
ATOM     56  C   UNL     1      -0.770 -10.783  -9.461  1.00  0.00     0.034 A 
BRANCH  43  57
ATOM     57  C   UNL     1      -5.601  -7.001  -8.727  1.00  0.00     0.023 A 
ATOM     58  C   UNL     1      -6.101  -6.260  -9.818  1.00  0.00     0.012 A 
ATOM     59  C   UNL     1      -6.499  -7.540  -7.787  1.00  0.00     0.148 A 
ATOM     60  C   UNL     1      -7.468  -6.021  -9.947  1.00  0.00     0.002 A 
ATOM     61  C   UNL     1      -7.865  -7.332  -7.946  1.00  0.00     0.091 A 
ATOM     62  F   UNL     1      -6.005  -8.219  -6.741  1.00  0.00    -0.205 F 
ATOM     63  C   UNL     1      -8.349  -6.564  -9.017  1.00  0.00     0.022 A 
BRANCH  61  64
ATOM     64  S   UNL     1      -9.078  -8.054  -6.834  1.00  0.00     0.127 S 
ATOM     65  O   UNL     1      -9.392  -6.924  -5.963  1.00  0.00    -0.237 OA
ATOM     66  O   UNL     1     -10.155  -8.436  -7.750  1.00  0.00    -0.237 OA
ATOM     67  O   UNL     1      -8.405  -9.178  -6.198  1.00  0.00    -0.744 OA
ENDBRANCH  61  64
ENDBRANCH  43  57
BRANCH  44  68
ATOM     68  C   UNL     1       4.244  -8.064  -7.410  1.00  0.00     0.023 A 
ATOM     69  C   UNL     1       5.081  -8.166  -8.540  1.00  0.00     0.012 A 
ATOM     70  C   UNL     1       4.819  -8.091  -6.127  1.00  0.00     0.148 A 
ATOM     71  C   UNL     1       6.460  -8.321  -8.395  1.00  0.00     0.002 A 
ATOM     72  C   UNL     1       6.201  -8.200  -5.990  1.00  0.00     0.091 A 
ATOM     73  F   UNL     1       4.009  -8.008  -5.062  1.00  0.00    -0.205 F 
ATOM     74  C   UNL     1       7.021  -8.329  -7.122  1.00  0.00     0.022 A 
BRANCH  72  75
ATOM     75  S   UNL     1       7.009  -8.092  -4.388  1.00  0.00     0.127 S 
ATOM     76  O   UNL     1       7.243  -9.498  -4.074  1.00  0.00    -0.237 OA
ATOM     77  O   UNL     1       8.214  -7.321  -4.699  1.00  0.00    -0.237 OA
ATOM     78  O   UNL     1       6.061  -7.391  -3.533  1.00  0.00    -0.744 OA
ENDBRANCH  72  75
ENDBRANCH  44  68
BRANCH  56  79
ATOM     79  C   UNL     1      -0.764 -12.173 -10.030  1.00  0.00     0.023 A 
ATOM     80  C   UNL     1      -0.727 -13.277  -9.158  1.00  0.00     0.012 A 
ATOM     81  C   UNL     1      -0.913 -12.384 -11.415  1.00  0.00     0.148 A 
ATOM     82  C   UNL     1      -0.827 -14.575  -9.657  1.00  0.00     0.002 A 
ATOM     83  C   UNL     1      -1.048 -13.679 -11.902  1.00  0.00     0.091 A 
ATOM     84  F   UNL     1      -0.921 -11.318 -12.229  1.00  0.00    -0.205 F 
ATOM     85  C   UNL     1      -1.001 -14.775 -11.025  1.00  0.00     0.022 A 
BRANCH  83  86
ATOM     86  S   UNL     1      -1.365 -14.012 -13.639  1.00  0.00     0.127 S 
ATOM     87  O   UNL     1      -0.036 -14.384 -14.119  1.00  0.00    -0.237 OA
ATOM     88  O   UNL     1      -2.324 -15.117 -13.580  1.00  0.00    -0.237 OA
ATOM     89  O   UNL     1      -1.911 -12.775 -14.183  1.00  0.00    -0.744 OA
ENDBRANCH  83  86
ENDBRANCH  56  79
ENDBRANCH  30  31
ENDBRANCH  22  25
ENDBRANCH  20  21
ENDBRANCH   1  20
TORSDOF 16
