REMARK SMILES COc1cc(/C=C2/CCc3c2nc2ccccc2c3C(=O)NCCCNC(=O)c2ccc(-c3c4nc(c(-c5cccc(S(=O)(=O)[O-])c5F)c5ccc([nH]5)c(-c5cccc(S(=O)(=O)[O-])c5F)c5nc(c(-c6cccc(S(=O)(=O)[O-])c6F)c6ccc3[nH]6)C=C5)C=C4)cc2)cc(Br)c1O
REMARK SMILES IDX 24 1 23 2 22 3 20 4 21 5 19 7 6 8 7 9 8 10 11 11 9 12 10 13
REMARK SMILES IDX 12 14 13 15 18 16 14 17 17 18 15 19 16 20 5 21 3 22 4 23
REMARK SMILES IDX 95 24 93 25 92 26 94 27 2 28 1 29 96 30 25 32 26 33 27 34
REMARK SMILES IDX 28 36 29 37 30 38 91 39 31 40 90 41 32 42 33 43 34 44 84 45
REMARK SMILES IDX 35 46 89 47 83 48 85 49 36 50 88 51 82 52 81 53 37 55 69 56
REMARK SMILES IDX 49 57 68 58 50 59 53 60 67 61 86 62 51 63 52 64 66 66 87 67
REMARK SMILES IDX 54 68 38 69 39 70 47 71 40 72 42 73 48 74 41 75 43 76 44 77
REMARK SMILES IDX 45 78 46 79 70 80 71 81 79 82 72 83 74 84 80 85 73 86 75 87
REMARK SMILES IDX 76 88 77 89 78 90 55 91 56 92 64 93 57 94 59 95 65 96 58 97
REMARK SMILES IDX 60 98 61 99 62 100 63 101
REMARK H PARENT 22 6 96 31 26 35 85 54 53 65
REMARK Flexibility Score: inf
ROOT
ATOM      1  C   UNL     1      -1.946   8.704   1.312  1.00  0.00     0.042 C 
ENDROOT
BRANCH   1   2
ATOM      2  C   UNL     1      -1.146   7.667   2.085  1.00  0.00     0.118 C 
BRANCH   2   3
ATOM      3  N   UNL     1      -1.859   6.682   2.875  1.00  0.00    -0.352 N 
ATOM      4  C   UNL     1      -1.457   5.445   3.351  1.00  0.00     0.252 C 
ATOM      5  O   UNL     1      -2.139   4.946   4.247  1.00  0.00    -0.269 OA
ATOM      6  H   UNL     1      -2.781   6.934   3.111  1.00  0.00     0.163 HD
BRANCH   4   7
ATOM      7  C   UNL     1      -0.319   4.659   2.775  1.00  0.00     0.054 A 
ATOM      8  C   UNL     1       1.818   5.456  -0.832  1.00  0.00     0.014 C 
ATOM      9  C   UNL     1       1.983   5.566   0.505  1.00  0.00    -0.021 C 
ATOM     10  C   UNL     1       2.084   6.870   1.271  1.00  0.00     0.042 C 
ATOM     11  C   UNL     1       1.651   4.536   1.519  1.00  0.00     0.071 A 
ATOM     12  C   UNL     1       1.608   6.511   2.689  1.00  0.00     0.043 C 
ATOM     13  C   UNL     1       0.906   5.220   2.454  1.00  0.00    -0.008 A 
ATOM     14  N   UNL     1       1.585   3.229   1.294  1.00  0.00    -0.248 NA
ATOM     15  C   UNL     1       0.549   2.587   1.829  1.00  0.00     0.072 A 
ATOM     16  C   UNL     1      -0.521   3.261   2.465  1.00  0.00     0.013 A 
ATOM     17  C   UNL     1       0.509   1.213   1.642  1.00  0.00     0.029 A 
ATOM     18  C   UNL     1      -1.690   2.485   2.705  1.00  0.00     0.011 A 
ATOM     19  C   UNL     1      -0.622   0.464   1.941  1.00  0.00     0.002 A 
ATOM     20  C   UNL     1      -1.741   1.111   2.437  1.00  0.00     0.001 A 
BRANCH   8  21
ATOM     21  C   UNL     1       2.034   4.179  -1.525  1.00  0.00    -0.020 A 
ATOM     22  C   UNL     1       1.654   1.784  -1.739  1.00  0.00     0.162 A 
ATOM     23  C   UNL     1       1.154   3.087  -1.548  1.00  0.00     0.058 A 
ATOM     24  C   UNL     1       3.033   1.622  -1.930  1.00  0.00     0.172 A 
ATOM     25  C   UNL     1       3.859   2.738  -2.106  1.00  0.00     0.064 A 
ATOM     26  C   UNL     1       3.356   4.013  -1.934  1.00  0.00     0.028 A 
ATOM     27  Br  UNL     1       5.717   2.555  -2.434  1.00  0.00    -0.047 Br
BRANCH  22  28
ATOM     28  O   UNL     1       0.709   0.796  -1.608  1.00  0.00    -0.493 OA
ATOM     29  C   UNL     1       1.155  -0.555  -1.599  1.00  0.00     0.278 C 
ENDBRANCH  22  28
BRANCH  24  30
ATOM     30  O   UNL     1       3.626   0.389  -1.843  1.00  0.00    -0.503 OA
ATOM     31  H   UNL     1       3.099  -0.377  -1.725  1.00  0.00     0.293 HD
ENDBRANCH  24  30
ENDBRANCH   8  21
ENDBRANCH   4   7
ENDBRANCH   2   3
ENDBRANCH   1   2
BRANCH   1  32
ATOM     32  C   UNL     1      -2.840   9.583   2.173  1.00  0.00     0.118 C 
BRANCH  32  33
ATOM     33  N   UNL     1      -2.129  10.486   3.073  1.00  0.00    -0.352 N 
ATOM     34  C   UNL     1      -1.531  11.718   2.928  1.00  0.00     0.251 C 
ATOM     35  H   UNL     1      -2.062  10.136   3.991  1.00  0.00     0.163 HD
ATOM     36  O   UNL     1      -0.955  12.189   3.909  1.00  0.00    -0.269 OA
BRANCH  34  37
ATOM     37  C   UNL     1      -1.494  12.463   1.642  1.00  0.00     0.039 A 
ATOM     38  C   UNL     1      -2.503  12.375   0.693  1.00  0.00     0.014 A 
ATOM     39  C   UNL     1      -0.414  13.325   1.387  1.00  0.00     0.014 A 
ATOM     40  C   UNL     1      -2.344  12.954  -0.563  1.00  0.00     0.010 A 
ATOM     41  C   UNL     1      -0.316  14.014   0.167  1.00  0.00     0.010 A 
ATOM     42  C   UNL     1      -1.256  13.792  -0.848  1.00  0.00    -0.014 A 
BRANCH  42  43
ATOM     43  C   UNL     1      -1.157  14.417  -2.199  1.00  0.00     0.031 A 
ATOM     44  C   UNL     1       0.042  14.184  -3.085  1.00  0.00     0.074 A 
ATOM     45  C   UNL     1      -2.197  15.138  -2.671  1.00  0.00     0.049 A 
ATOM     46  N   UNL     1       0.260  14.622  -4.299  1.00  0.00    -0.248 NA
ATOM     47  C   UNL     1       1.141  13.366  -2.545  1.00  0.00     0.031 C 
ATOM     48  C   UNL     1      -3.407  15.465  -1.911  1.00  0.00     0.029 A 
ATOM     49  N   UNL     1      -2.430  15.689  -3.907  1.00  0.00    -0.354 N 
ATOM     50  C   UNL     1       1.535  14.190  -4.641  1.00  0.00     0.074 A 
ATOM     51  C   UNL     1       2.045  13.444  -3.513  1.00  0.00     0.031 C 
ATOM     52  C   UNL     1      -4.289  16.067  -2.720  1.00  0.00     0.029 A 
ATOM     53  C   UNL     1      -3.681  16.248  -4.034  1.00  0.00     0.049 A 
ATOM     54  H   UNL     1      -1.765  15.684  -4.633  1.00  0.00     0.167 HD
ATOM     55  C   UNL     1       2.215  14.381  -5.796  1.00  0.00     0.034 A 
ATOM     56  C   UNL     1      -4.280  16.848  -5.081  1.00  0.00     0.034 A 
ATOM     57  C   UNL     1       1.683  15.049  -6.953  1.00  0.00     0.049 A 
ATOM     58  C   UNL     1      -3.523  17.004  -6.366  1.00  0.00     0.074 A 
ATOM     59  C   UNL     1       2.289  15.251  -8.181  1.00  0.00     0.029 A 
ATOM     60  N   UNL     1       0.417  15.604  -7.034  1.00  0.00    -0.354 N 
ATOM     61  N   UNL     1      -2.333  16.552  -6.674  1.00  0.00    -0.248 NA
ATOM     62  C   UNL     1      -4.183  17.757  -7.441  1.00  0.00     0.031 C 
ATOM     63  C   UNL     1       1.386  15.926  -9.008  1.00  0.00     0.029 A 
ATOM     64  C   UNL     1       0.220  16.145  -8.293  1.00  0.00     0.049 A 
ATOM     65  H   UNL     1      -0.245  15.613  -6.305  1.00  0.00     0.167 HD
ATOM     66  C   UNL     1      -2.093  16.976  -7.974  1.00  0.00     0.074 A 
ATOM     67  C   UNL     1      -3.277  17.688  -8.410  1.00  0.00     0.031 C 
ATOM     68  C   UNL     1      -0.977  16.818  -8.724  1.00  0.00     0.034 A 
BRANCH  55  69
ATOM     69  C   UNL     1       3.606  13.818  -5.900  1.00  0.00     0.023 A 
ATOM     70  C   UNL     1       3.777  12.456  -6.213  1.00  0.00     0.012 A 
ATOM     71  C   UNL     1       4.734  14.654  -5.786  1.00  0.00     0.148 A 
ATOM     72  C   UNL     1       5.054  11.930  -6.404  1.00  0.00     0.002 A 
ATOM     73  C   UNL     1       6.002  14.128  -6.005  1.00  0.00     0.091 A 
ATOM     74  F   UNL     1       4.544  15.943  -5.474  1.00  0.00    -0.205 F 
ATOM     75  C   UNL     1       6.164  12.766  -6.310  1.00  0.00     0.022 A 
BRANCH  73  76
ATOM     76  S   UNL     1       7.494  15.128  -5.957  1.00  0.00     0.127 S 
ATOM     77  O   UNL     1       8.175  14.583  -4.782  1.00  0.00    -0.237 OA
ATOM     78  O   UNL     1       8.125  14.798  -7.235  1.00  0.00    -0.237 OA
ATOM     79  O   UNL     1       7.051  16.509  -5.832  1.00  0.00    -0.744 OA
ENDBRANCH  73  76
ENDBRANCH  55  69
BRANCH  56  80
ATOM     80  C   UNL     1      -5.689  17.312  -4.948  1.00  0.00     0.023 A 
ATOM     81  C   UNL     1      -6.715  16.597  -5.595  1.00  0.00     0.012 A 
ATOM     82  C   UNL     1      -6.023  18.391  -4.106  1.00  0.00     0.148 A 
ATOM     83  C   UNL     1      -8.052  16.946  -5.400  1.00  0.00     0.002 A 
ATOM     84  C   UNL     1      -7.359  18.697  -3.874  1.00  0.00     0.091 A 
ATOM     85  F   UNL     1      -5.027  19.067  -3.518  1.00  0.00    -0.205 F 
ATOM     86  C   UNL     1      -8.374  17.983  -4.528  1.00  0.00     0.022 A 
BRANCH  84  87
ATOM     87  S   UNL     1      -7.861  19.916  -2.653  1.00  0.00     0.127 S 
ATOM     88  O   UNL     1      -8.417  20.973  -3.503  1.00  0.00    -0.237 OA
ATOM     89  O   UNL     1      -8.857  19.168  -1.878  1.00  0.00    -0.237 OA
ATOM     90  O   UNL     1      -6.662  20.260  -1.919  1.00  0.00    -0.744 OA
ENDBRANCH  84  87
ENDBRANCH  56  80
BRANCH  68  91
ATOM     91  C   UNL     1      -0.963  17.437 -10.091  1.00  0.00     0.023 A 
ATOM     92  C   UNL     1      -0.684  18.812 -10.213  1.00  0.00     0.012 A 
ATOM     93  C   UNL     1      -1.120  16.651 -11.248  1.00  0.00     0.148 A 
ATOM     94  C   UNL     1      -0.569  19.400 -11.471  1.00  0.00     0.002 A 
ATOM     95  C   UNL     1      -0.976  17.238 -12.499  1.00  0.00     0.091 A 
ATOM     96  F   UNL     1      -1.399  15.348 -11.100  1.00  0.00    -0.205 F 
ATOM     97  C   UNL     1      -0.704  18.612 -12.612  1.00  0.00     0.022 A 
BRANCH  95  98
ATOM     98  S   UNL     1      -1.065  16.294 -14.024  1.00  0.00     0.127 S 
ATOM     99  O   UNL     1      -2.330  16.761 -14.588  1.00  0.00    -0.237 OA
ATOM    100  O   UNL     1       0.128  16.746 -14.739  1.00  0.00    -0.237 OA
ATOM    101  O   UNL     1      -1.039  14.891 -13.630  1.00  0.00    -0.744 OA
ENDBRANCH  95  98
ENDBRANCH  68  91
ENDBRANCH  42  43
ENDBRANCH  34  37
ENDBRANCH  32  33
ENDBRANCH   1  32
TORSDOF 16
