REMARK SMILES CCc1cc(/C=C/C(=O)NCCCNC(=O)c2ccc(-c3c4nc(c(-c5cccc(S(=O)(=O)[O-])c5F)c5ccc([nH]5)c(-c5cccc(S(=O)(=O)[O-])c5F)c5nc(c(-c6cccc(S(=O)(=O)[O-])c6F)c6ccc3[nH]6)C=C5)C=C4)cc2)cc(C(=O)c2ccccc2)c1
REMARK SMILES IDX 12 1 11 2 10 3 8 4 9 5 7 7 6 8 5 9 3 10 4 11 90 12 81 13
REMARK SMILES IDX 80 14 2 15 1 16 82 17 83 18 84 19 85 20 89 21 86 22 88 23
REMARK SMILES IDX 87 24 13 25 14 26 15 27 16 29 17 30 18 31 79 32 19 33 78 34
REMARK SMILES IDX 20 35 21 36 22 37 72 38 23 39 77 40 71 41 73 42 24 43 76 44
REMARK SMILES IDX 70 45 69 46 25 48 57 49 37 50 56 51 38 52 41 53 55 54 74 55
REMARK SMILES IDX 39 56 40 57 54 59 75 60 42 61 26 62 27 63 35 64 28 65 30 66
REMARK SMILES IDX 36 67 29 68 31 69 32 70 33 71 34 72 58 73 59 74 67 75 60 76
REMARK SMILES IDX 62 77 68 78 61 79 63 80 64 81 65 82 66 83 43 84 44 85 52 86
REMARK SMILES IDX 45 87 47 88 53 89 46 90 48 91 49 92 50 93 51 94
REMARK H PARENT 10 6 14 28 73 47 41 58
REMARK Flexibility Score: inf
ROOT
ATOM      1  C   UNL     1       2.616  -6.391  -5.237  1.00  0.00     0.042 C 
ENDROOT
BRANCH   1   2
ATOM      2  C   UNL     1       1.107  -6.200  -5.114  1.00  0.00     0.118 C 
BRANCH   2   3
ATOM      3  N   UNL     1       0.629  -6.540  -3.785  1.00  0.00    -0.352 N 
ATOM      4  C   UNL     1       0.176  -5.747  -2.780  1.00  0.00     0.244 C 
ATOM      5  O   UNL     1      -0.316  -6.260  -1.777  1.00  0.00    -0.270 OA
ATOM      6  H   UNL     1       0.634  -7.503  -3.580  1.00  0.00     0.163 HD
BRANCH   4   7
ATOM      7  C   UNL     1       0.182  -4.273  -2.899  1.00  0.00     0.072 C 
ATOM      8  C   UNL     1       1.202  -3.544  -3.377  1.00  0.00     0.014 C 
BRANCH   8   9
ATOM      9  C   UNL     1       1.232  -2.076  -3.398  1.00  0.00    -0.024 A 
ATOM     10  C   UNL     1       0.851   0.070  -2.298  1.00  0.00    -0.047 A 
ATOM     11  C   UNL     1       0.712  -1.324  -2.339  1.00  0.00     0.011 A 
ATOM     12  C   UNL     1       1.485   0.719  -3.365  1.00  0.00     0.016 A 
ATOM     13  C   UNL     1       2.021  -0.020  -4.429  1.00  0.00     0.023 A 
ATOM     14  C   UNL     1       1.891  -1.415  -4.441  1.00  0.00     0.020 A 
BRANCH  10  15
ATOM     15  C   UNL     1       0.334   0.857  -1.118  1.00  0.00     0.032 C 
ATOM     16  C   UNL     1       0.886   0.351   0.211  1.00  0.00     0.009 C 
ENDBRANCH  10  15
BRANCH  13  17
ATOM     17  C   UNL     1       2.692   0.638  -5.584  1.00  0.00     0.193 C 
ATOM     18  O   UNL     1       2.683   0.090  -6.683  1.00  0.00    -0.289 OA
BRANCH  17  19
ATOM     19  C   UNL     1       3.320   1.976  -5.454  1.00  0.00     0.022 A 
ATOM     20  C   UNL     1       3.090   2.917  -6.464  1.00  0.00     0.012 A 
ATOM     21  C   UNL     1       4.128   2.305  -4.360  1.00  0.00     0.012 A 
ATOM     22  C   UNL     1       3.624   4.201  -6.354  1.00  0.00     0.001 A 
ATOM     23  C   UNL     1       4.661   3.591  -4.255  1.00  0.00     0.001 A 
ATOM     24  C   UNL     1       4.401   4.540  -5.246  1.00  0.00     0.000 A 
ENDBRANCH  17  19
ENDBRANCH  13  17
ENDBRANCH   8   9
ENDBRANCH   4   7
ENDBRANCH   2   3
ENDBRANCH   1   2
BRANCH   1  25
ATOM     25  C   UNL     1       3.046  -7.854  -5.270  1.00  0.00     0.118 C 
BRANCH  25  26
ATOM     26  N   UNL     1       2.558  -8.539  -6.459  1.00  0.00    -0.352 N 
ATOM     27  C   UNL     1       3.251  -9.174  -7.458  1.00  0.00     0.251 C 
ATOM     28  H   UNL     1       1.578  -8.547  -6.562  1.00  0.00     0.163 HD
ATOM     29  O   UNL     1       2.667  -9.479  -8.494  1.00  0.00    -0.269 OA
BRANCH  27  30
ATOM     30  C   UNL     1       4.685  -9.496  -7.293  1.00  0.00     0.039 A 
ATOM     31  C   UNL     1       5.540  -9.349  -8.389  1.00  0.00     0.014 A 
ATOM     32  C   UNL     1       5.178  -9.991  -6.083  1.00  0.00     0.014 A 
ATOM     33  C   UNL     1       6.896  -9.660  -8.259  1.00  0.00     0.010 A 
ATOM     34  C   UNL     1       6.541 -10.231  -5.934  1.00  0.00     0.010 A 
ATOM     35  C   UNL     1       7.411 -10.082  -7.024  1.00  0.00    -0.014 A 
BRANCH  35  36
ATOM     36  C   UNL     1       8.857 -10.371  -6.848  1.00  0.00     0.031 A 
ATOM     37  C   UNL     1       9.315 -11.759  -6.489  1.00  0.00     0.074 A 
ATOM     38  C   UNL     1       9.746  -9.362  -6.918  1.00  0.00     0.049 A 
ATOM     39  N   UNL     1      10.522 -12.188  -6.228  1.00  0.00    -0.248 NA
ATOM     40  C   UNL     1       8.276 -12.797  -6.380  1.00  0.00     0.031 C 
ATOM     41  C   UNL     1       9.413  -7.959  -7.173  1.00  0.00     0.029 A 
ATOM     42  N   UNL     1      11.108  -9.354  -6.747  1.00  0.00    -0.354 N 
ATOM     43  C   UNL     1      10.386 -13.527  -5.884  1.00  0.00     0.074 A 
ATOM     44  C   UNL     1       8.973 -13.835  -5.940  1.00  0.00     0.031 C 
ATOM     45  C   UNL     1      10.537  -7.226  -7.138  1.00  0.00     0.029 A 
ATOM     46  C   UNL     1      11.666  -8.100  -6.832  1.00  0.00     0.049 A 
ATOM     47  H   UNL     1      11.635 -10.169  -6.580  1.00  0.00     0.167 HD
ATOM     48  C   UNL     1      11.350 -14.427  -5.576  1.00  0.00     0.034 A 
ATOM     49  C   UNL     1      12.941  -7.697  -6.672  1.00  0.00     0.034 A 
ATOM     50  C   UNL     1      12.756 -14.127  -5.573  1.00  0.00     0.049 A 
ATOM     51  C   UNL     1      14.001  -8.727  -6.392  1.00  0.00     0.074 A 
ATOM     52  C   UNL     1      13.820 -14.989  -5.376  1.00  0.00     0.029 A 
ATOM     53  N   UNL     1      13.296 -12.864  -5.769  1.00  0.00    -0.354 N 
ATOM     54  N   UNL     1      13.871 -10.023  -6.237  1.00  0.00    -0.248 NA
ATOM     55  C   UNL     1      15.388  -8.248  -6.305  1.00  0.00     0.031 C 
ATOM     56  C   UNL     1      15.003 -14.243  -5.434  1.00  0.00     0.029 A 
ATOM     57  C   UNL     1      14.676 -12.921  -5.690  1.00  0.00     0.049 A 
ATOM     58  H   UNL     1      12.773 -12.048  -5.941  1.00  0.00     0.167 HD
ATOM     59  C   UNL     1      15.158 -10.518  -6.067  1.00  0.00     0.074 A 
ATOM     60  C   UNL     1      16.056  -9.385  -6.161  1.00  0.00     0.031 C 
ATOM     61  C   UNL     1      15.560 -11.793  -5.838  1.00  0.00     0.034 A 
BRANCH  48  62
ATOM     62  C   UNL     1      10.921 -15.840  -5.274  1.00  0.00     0.023 A 
ATOM     63  C   UNL     1      10.438 -16.658  -6.316  1.00  0.00     0.012 A 
ATOM     64  C   UNL     1      11.044 -16.377  -3.977  1.00  0.00     0.148 A 
ATOM     65  C   UNL     1      10.050 -17.974  -6.066  1.00  0.00     0.002 A 
ATOM     66  C   UNL     1      10.698 -17.703  -3.745  1.00  0.00     0.091 A 
ATOM     67  F   UNL     1      11.485 -15.579  -2.993  1.00  0.00    -0.205 F 
ATOM     68  C   UNL     1      10.189 -18.499  -4.785  1.00  0.00     0.022 A 
BRANCH  66  69
ATOM     69  S   UNL     1      10.915 -18.497  -2.148  1.00  0.00     0.127 S 
ATOM     70  O   UNL     1       9.533 -18.618  -1.688  1.00  0.00    -0.237 OA
ATOM     71  O   UNL     1      11.549 -19.764  -2.516  1.00  0.00    -0.237 OA
ATOM     72  O   UNL     1      11.759 -17.602  -1.368  1.00  0.00    -0.744 OA
ENDBRANCH  66  69
ENDBRANCH  48  62
BRANCH  49  73
ATOM     73  C   UNL     1      13.290  -6.259  -6.844  1.00  0.00     0.023 A 
ATOM     74  C   UNL     1      14.017  -5.856  -7.981  1.00  0.00     0.012 A 
ATOM     75  C   UNL     1      12.872  -5.286  -5.916  1.00  0.00     0.148 A 
ATOM     76  C   UNL     1      14.347  -4.514  -8.176  1.00  0.00     0.002 A 
ATOM     77  C   UNL     1      13.157  -3.944  -6.143  1.00  0.00     0.091 A 
ATOM     78  F   UNL     1      12.191  -5.691  -4.835  1.00  0.00    -0.205 F 
ATOM     79  C   UNL     1      13.908  -3.558  -7.264  1.00  0.00     0.022 A 
BRANCH  77  80
ATOM     80  S   UNL     1      12.519  -2.634  -5.093  1.00  0.00     0.127 S 
ATOM     81  O   UNL     1      13.723  -2.202  -4.389  1.00  0.00    -0.237 OA
ATOM     82  O   UNL     1      12.003  -1.680  -6.075  1.00  0.00    -0.237 OA
ATOM     83  O   UNL     1      11.492  -3.258  -4.268  1.00  0.00    -0.744 OA
ENDBRANCH  77  80
ENDBRANCH  49  73
BRANCH  61  84
ATOM     84  C   UNL     1      17.038 -12.044  -5.700  1.00  0.00     0.023 A 
ATOM     85  C   UNL     1      17.713 -11.631  -4.534  1.00  0.00     0.012 A 
ATOM     86  C   UNL     1      17.741 -12.758  -6.691  1.00  0.00     0.148 A 
ATOM     87  C   UNL     1      19.072 -11.898  -4.370  1.00  0.00     0.002 A 
ATOM     88  C   UNL     1      19.084 -13.062  -6.498  1.00  0.00     0.091 A 
ATOM     89  F   UNL     1      17.086 -13.126  -7.802  1.00  0.00    -0.205 F 
ATOM     90  C   UNL     1      19.753 -12.623  -5.345  1.00  0.00     0.022 A 
BRANCH  88  91
ATOM     91  S   UNL     1      20.015 -14.074  -7.654  1.00  0.00     0.127 S 
ATOM     92  O   UNL     1      20.870 -13.079  -8.299  1.00  0.00    -0.237 OA
ATOM     93  O   UNL     1      20.719 -14.997  -6.763  1.00  0.00    -0.237 OA
ATOM     94  O   UNL     1      19.028 -14.706  -8.519  1.00  0.00    -0.744 OA
ENDBRANCH  88  91
ENDBRANCH  61  84
ENDBRANCH  35  36
ENDBRANCH  27  30
ENDBRANCH  25  26
ENDBRANCH   1  25
TORSDOF 17
