REMARK SMILES COCCCC(=O)N[C@H]1CC[C@@H](C(=O)NCCCNC(=O)c2ccc(-c3c4nc(c(-c5cccc(S(=O)(=O)[O-])c5F)c5ccc([nH]5)c(-c5cccc(S(=O)(=O)[O-])c5F)c5nc(c(-c6cccc(S(=O)(=O)[O-])c6F)c6ccc3[nH]6)C=C5)C=C4)cc2)CC1
REMARK SMILES IDX 16 1 15 2 13 3 14 4 12 6 9 7 10 8 86 9 11 10 85 11 8 12 6 13
REMARK SMILES IDX 7 14 5 16 4 17 3 18 2 19 1 20 17 21 18 22 19 23 20 24 21 26
REMARK SMILES IDX 22 27 23 28 84 29 24 30 83 31 25 32 26 33 27 34 77 35 28 36
REMARK SMILES IDX 82 37 76 38 78 39 29 40 81 41 75 42 74 43 30 45 62 46 42 47
REMARK SMILES IDX 61 48 43 49 46 50 60 51 79 52 44 53 45 54 59 56 80 57 47 58
REMARK SMILES IDX 31 59 32 60 40 61 33 62 35 63 41 64 34 65 36 66 37 67 38 68
REMARK SMILES IDX 39 69 63 70 64 71 72 72 65 73 67 74 73 75 66 76 68 77 69 78
REMARK SMILES IDX 70 79 71 80 48 81 49 82 57 83 50 84 52 85 58 86 51 87 53 88
REMARK SMILES IDX 54 89 55 90 56 91
REMARK H PARENT 15 5 8 15 19 25 78 44 46 55
REMARK Flexibility Score: inf
ROOT
ATOM      1  C   UNL     1       2.422  -1.090   2.000  1.00  0.00     0.117 C 
ENDROOT
BRANCH   1   2
ATOM      2  N   UNL     1       1.473  -2.142   1.694  1.00  0.00    -0.356 N 
ATOM      3  C   UNL     1       1.218  -2.888   0.594  1.00  0.00     0.223 C 
ATOM      4  O   UNL     1       0.368  -3.778   0.751  1.00  0.00    -0.275 OA
ATOM      5  H   UNL     1       0.886  -2.362   2.453  1.00  0.00     0.163 HD
BRANCH   3   6
ATOM      6  C   UNL     1       1.807  -2.682  -0.813  1.00  0.00     0.078 C 
ATOM      7  C   UNL     1       2.902   0.007  -1.696  1.00  0.00     0.082 C 
ATOM      8  C   UNL     1       3.871  -1.083  -1.206  1.00  0.00     0.026 C 
ATOM      9  C   UNL     1       1.462  -0.283  -1.363  1.00  0.00     0.026 C 
ATOM     10  C   UNL     1       3.312  -2.504  -1.015  1.00  0.00     0.015 C 
ATOM     11  C   UNL     1       1.002  -1.690  -1.631  1.00  0.00     0.015 C 
BRANCH   7  12
ATOM     12  N   UNL     1       3.377   1.333  -1.262  1.00  0.00    -0.353 N 
ATOM     13  C   UNL     1       2.799   2.547  -1.044  1.00  0.00     0.220 C 
ATOM     14  O   UNL     1       3.559   3.521  -1.083  1.00  0.00    -0.275 OA
ATOM     15  H   UNL     1       4.346   1.345  -1.089  1.00  0.00     0.163 HD
BRANCH  13  16
ATOM     16  C   UNL     1       1.351   2.737  -0.621  1.00  0.00     0.102 C 
BRANCH  16  17
ATOM     17  C   UNL     1       0.402   3.367  -1.637  1.00  0.00     0.038 C 
BRANCH  17  18
ATOM     18  C   UNL     1      -0.419   2.448  -2.551  1.00  0.00     0.160 C 
BRANCH  18  19
ATOM     19  O   UNL     1      -1.074   1.311  -1.989  1.00  0.00    -0.385 OA
ATOM     20  C   UNL     1      -1.729   1.470  -0.746  1.00  0.00     0.194 C 
ENDBRANCH  18  19
ENDBRANCH  17  18
ENDBRANCH  16  17
ENDBRANCH  13  16
ENDBRANCH   7  12
ENDBRANCH   3   6
ENDBRANCH   1   2
BRANCH   1  21
ATOM     21  C   UNL     1       1.766   0.280   2.153  1.00  0.00     0.042 C 
BRANCH  21  22
ATOM     22  C   UNL     1       1.693   0.797   3.583  1.00  0.00     0.118 C 
BRANCH  22  23
ATOM     23  N   UNL     1       3.001   1.155   4.111  1.00  0.00    -0.352 N 
ATOM     24  C   UNL     1       3.526   2.359   4.516  1.00  0.00     0.251 C 
ATOM     25  H   UNL     1       3.623   0.397   4.193  1.00  0.00     0.163 HD
ATOM     26  O   UNL     1       4.733   2.409   4.752  1.00  0.00    -0.269 OA
BRANCH  24  27
ATOM     27  C   UNL     1       2.698   3.583   4.677  1.00  0.00     0.039 A 
ATOM     28  C   UNL     1       3.306   4.830   4.478  1.00  0.00     0.014 A 
ATOM     29  C   UNL     1       1.367   3.542   5.098  1.00  0.00     0.014 A 
ATOM     30  C   UNL     1       2.579   6.012   4.666  1.00  0.00     0.010 A 
ATOM     31  C   UNL     1       0.615   4.714   5.181  1.00  0.00     0.010 A 
ATOM     32  C   UNL     1       1.216   5.967   4.997  1.00  0.00    -0.014 A 
BRANCH  32  33
ATOM     33  C   UNL     1       0.416   7.210   5.180  1.00  0.00     0.031 A 
ATOM     34  C   UNL     1      -0.265   7.496   6.496  1.00  0.00     0.074 A 
ATOM     35  C   UNL     1       0.230   8.046   4.139  1.00  0.00     0.049 A 
ATOM     36  N   UNL     1      -1.051   8.491   6.822  1.00  0.00    -0.248 NA
ATOM     37  C   UNL     1      -0.066   6.518   7.578  1.00  0.00     0.031 C 
ATOM     38  C   UNL     1       0.760   7.847   2.789  1.00  0.00     0.029 A 
ATOM     39  N   UNL     1      -0.479   9.219   4.047  1.00  0.00    -0.354 N 
ATOM     40  C   UNL     1      -1.475   8.235   8.121  1.00  0.00     0.074 A 
ATOM     41  C   UNL     1      -0.892   6.970   8.510  1.00  0.00     0.031 C 
ATOM     42  C   UNL     1       0.366   8.863   2.007  1.00  0.00     0.029 A 
ATOM     43  C   UNL     1      -0.471   9.770   2.787  1.00  0.00     0.049 A 
ATOM     44  H   UNL     1      -0.949   9.627   4.810  1.00  0.00     0.167 HD
ATOM     45  C   UNL     1      -2.251   8.994   8.933  1.00  0.00     0.034 A 
ATOM     46  C   UNL     1      -1.073  10.877   2.307  1.00  0.00     0.034 A 
ATOM     47  C   UNL     1      -2.784  10.279   8.565  1.00  0.00     0.049 A 
ATOM     48  C   UNL     1      -1.879  11.737   3.240  1.00  0.00     0.074 A 
ATOM     49  C   UNL     1      -3.491  11.174   9.347  1.00  0.00     0.029 A 
ATOM     50  N   UNL     1      -2.674  10.849   7.306  1.00  0.00    -0.354 N 
ATOM     51  N   UNL     1      -2.134  11.557   4.514  1.00  0.00    -0.248 NA
ATOM     52  C   UNL     1      -2.449  12.972   2.682  1.00  0.00     0.031 C 
ATOM     53  C   UNL     1      -3.833  12.274   8.552  1.00  0.00     0.029 A 
ATOM     54  C   UNL     1      -3.311  12.078   7.284  1.00  0.00     0.049 A 
ATOM     55  H   UNL     1      -2.210  10.441   6.539  1.00  0.00     0.167 HD
ATOM     56  C   UNL     1      -2.868  12.667   4.917  1.00  0.00     0.074 A 
ATOM     57  C   UNL     1      -2.996  13.525   3.757  1.00  0.00     0.031 C 
ATOM     58  C   UNL     1      -3.398  12.944   6.134  1.00  0.00     0.034 A 
BRANCH  45  59
ATOM     59  C   UNL     1      -2.528   8.474  10.322  1.00  0.00     0.023 A 
ATOM     60  C   UNL     1      -1.482   8.413  11.267  1.00  0.00     0.012 A 
ATOM     61  C   UNL     1      -3.825   8.080  10.707  1.00  0.00     0.148 A 
ATOM     62  C   UNL     1      -1.709   7.923  12.553  1.00  0.00     0.002 A 
ATOM     63  C   UNL     1      -4.054   7.638  12.006  1.00  0.00     0.091 A 
ATOM     64  F   UNL     1      -4.806   8.124   9.795  1.00  0.00    -0.205 F 
ATOM     65  C   UNL     1      -2.995   7.544  12.924  1.00  0.00     0.022 A 
BRANCH  63  66
ATOM     66  S   UNL     1      -5.691   7.206  12.606  1.00  0.00     0.127 S 
ATOM     67  O   UNL     1      -5.607   5.747  12.669  1.00  0.00    -0.237 OA
ATOM     68  O   UNL     1      -5.729   7.870  13.909  1.00  0.00    -0.237 OA
ATOM     69  O   UNL     1      -6.629   7.739  11.628  1.00  0.00    -0.744 OA
ENDBRANCH  63  66
ENDBRANCH  45  59
BRANCH  46  70
ATOM     70  C   UNL     1      -0.870  11.262   0.881  1.00  0.00     0.023 A 
ATOM     71  C   UNL     1      -0.061  12.373   0.573  1.00  0.00     0.012 A 
ATOM     72  C   UNL     1      -1.420  10.499  -0.167  1.00  0.00     0.148 A 
ATOM     73  C   UNL     1       0.179  12.730  -0.755  1.00  0.00     0.002 A 
ATOM     74  C   UNL     1      -1.130  10.826  -1.487  1.00  0.00     0.091 A 
ATOM     75  F   UNL     1      -2.194   9.451   0.150  1.00  0.00    -0.205 F 
ATOM     76  C   UNL     1      -0.344  11.950  -1.783  1.00  0.00     0.022 A 
BRANCH  74  77
ATOM     77  S   UNL     1      -1.647   9.802  -2.870  1.00  0.00     0.127 S 
ATOM     78  O   UNL     1      -2.626  10.662  -3.530  1.00  0.00    -0.237 OA
ATOM     79  O   UNL     1      -0.391   9.624  -3.599  1.00  0.00    -0.237 OA
ATOM     80  O   UNL     1      -2.177   8.579  -2.281  1.00  0.00    -0.744 OA
ENDBRANCH  74  77
ENDBRANCH  46  70
BRANCH  58  81
ATOM     81  C   UNL     1      -4.150  14.240   6.291  1.00  0.00     0.023 A 
ATOM     82  C   UNL     1      -5.420  14.390   5.699  1.00  0.00     0.012 A 
ATOM     83  C   UNL     1      -3.631  15.281   7.087  1.00  0.00     0.148 A 
ATOM     84  C   UNL     1      -6.146  15.569   5.869  1.00  0.00     0.002 A 
ATOM     85  C   UNL     1      -4.382  16.432   7.292  1.00  0.00     0.091 A 
ATOM     86  F   UNL     1      -2.413  15.127   7.627  1.00  0.00    -0.205 F 
ATOM     87  C   UNL     1      -5.633  16.583   6.673  1.00  0.00     0.022 A 
BRANCH  85  88
ATOM     88  S   UNL     1      -3.843  17.747   8.392  1.00  0.00     0.127 S 
ATOM     89  O   UNL     1      -3.492  18.804   7.441  1.00  0.00    -0.237 OA
ATOM     90  O   UNL     1      -5.055  18.013   9.172  1.00  0.00    -0.237 OA
ATOM     91  O   UNL     1      -2.737  17.203   9.159  1.00  0.00    -0.744 OA
ENDBRANCH  85  88
ENDBRANCH  58  81
ENDBRANCH  32  33
ENDBRANCH  24  27
ENDBRANCH  22  23
ENDBRANCH  21  22
ENDBRANCH   1  21
TORSDOF 18
