REMARK SMILES CC1(C)O[C@@H]2C[C@@H]3[C@H]4CCC5=CC(=O)C=C[C@@]5(C)[C@]4(F)[C@H](O)C[C@]3(C)[C@]2(C(=O)NCCCNC(=O)c2ccc(-c3c4nc(c(-c5cccc(S(=O)(=O)[O-])c5F)c5ccc([nH]5)c(-c5cccc(S(=O)(=O)[O-])c5F)c5nc(c(-c6cccc(S(=O)(=O)[O-])c6F)c6ccc3[nH]6)C=C5)C=C4)cc2)O1
REMARK SMILES IDX 32 1 31 2 30 3 29 4 27 5 28 6 26 8 1 9 2 10 4 11 99 12 3 13
REMARK SMILES IDX 5 14 6 15 24 16 7 17 23 18 25 19 8 20 21 21 9 22 19 23 10 24
REMARK SMILES IDX 17 25 20 26 11 27 16 28 18 29 12 30 15 31 13 32 14 33 22 34
REMARK SMILES IDX 33 36 34 37 35 39 36 40 37 41 98 42 38 43 97 44 39 45 40 46
REMARK SMILES IDX 41 47 91 48 42 49 96 50 90 51 92 52 43 53 95 54 89 55 88 56
REMARK SMILES IDX 44 58 76 59 56 60 75 61 57 62 60 63 74 64 93 65 58 66 59 67
REMARK SMILES IDX 73 69 94 70 61 71 45 72 46 73 54 74 47 75 49 76 55 77 48 78
REMARK SMILES IDX 50 79 51 80 52 81 53 82 77 83 78 84 86 85 79 86 81 87 87 88
REMARK SMILES IDX 80 89 82 90 83 91 84 92 85 93 62 94 63 95 71 96 64 97 66 98
REMARK SMILES IDX 72 99 65 100 67 101 68 102 69 103 70 104
REMARK H PARENT 29 7 22 35 33 38 92 57 60 68
REMARK Flexibility Score: inf
ROOT
ATOM      1  C   UNL     1       1.508   3.734   5.126  1.00  0.00     0.118 C 
ENDROOT
BRANCH   1   2
ATOM      2  C   UNL     1       0.427   3.652   4.052  1.00  0.00     0.042 C 
BRANCH   2   3
ATOM      3  C   UNL     1       0.577   4.748   3.006  1.00  0.00     0.117 C 
BRANCH   3   4
ATOM      4  N   UNL     1       1.763   4.533   2.216  1.00  0.00    -0.353 N 
ATOM      5  C   UNL     1       1.960   3.866   1.064  1.00  0.00     0.255 C 
ATOM      6  O   UNL     1       3.138   3.532   0.861  1.00  0.00    -0.272 OA
ATOM      7  H   UNL     1       2.575   4.949   2.586  1.00  0.00     0.163 HD
BRANCH   5   8
ATOM      8  C   UNL     1       0.901   3.612  -0.016  1.00  0.00     0.181 C 
ATOM      9  C   UNL     1       0.724   0.477   1.032  1.00  0.00     0.075 C 
ATOM     10  C   UNL     1       0.196   1.373  -0.079  1.00  0.00     0.164 C 
ATOM     11  O   UNL     1      -0.926   2.132   0.387  1.00  0.00    -0.344 OA
ATOM     12  O   UNL     1       1.261   2.263  -0.478  1.00  0.00    -0.331 OA
ATOM     13  C   UNL     1      -0.258   0.514  -1.271  1.00  0.00     0.075 C 
ATOM     14  C   UNL     1      -0.645   3.514   0.153  1.00  0.00     0.164 C 
ATOM     15  C   UNL     1      -1.292   3.999  -1.232  1.00  0.00     0.040 C 
ATOM     16  C   UNL     1       1.042   4.646  -1.212  1.00  0.00     0.014 C 
ATOM     17  C   UNL     1      -0.049   4.018  -2.133  1.00  0.00     0.008 C 
ATOM     18  C   UNL     1       2.387   4.868  -1.940  1.00  0.00     0.046 C 
ATOM     19  C   UNL     1       0.686   6.062  -0.650  1.00  0.00     0.015 C 
ATOM     20  C   UNL     1       0.315   3.338  -3.478  1.00  0.00     0.035 C 
ATOM     21  C   UNL     1       2.748   3.899  -3.055  1.00  0.00     0.154 C 
ATOM     22  C   UNL     1      -0.854   3.188  -4.439  1.00  0.00     0.012 C 
ATOM     23  C   UNL     1       1.623   3.782  -4.135  1.00  0.00     0.152 C 
ATOM     24  C   UNL     1      -0.521   2.037  -5.385  1.00  0.00     0.032 C 
ATOM     25  C   UNL     1       1.990   2.807  -5.356  1.00  0.00     0.044 C 
ATOM     26  F   UNL     1       1.384   5.043  -4.628  1.00  0.00    -0.239 F 
ATOM     27  C   UNL     1       0.755   2.303  -6.138  1.00  0.00    -0.053 C 
ATOM     28  C   UNL     1       2.925   3.524  -6.350  1.00  0.00    -0.009 C 
ATOM     29  C   UNL     1       2.754   1.534  -4.889  1.00  0.00     0.024 C 
ATOM     30  C   UNL     1       0.828   2.005  -7.449  1.00  0.00     0.052 C 
ATOM     31  C   UNL     1       3.170   2.988  -7.563  1.00  0.00     0.048 C 
ATOM     32  C   UNL     1       2.102   2.153  -8.188  1.00  0.00     0.178 C 
ATOM     33  O   UNL     1       2.268   1.622  -9.279  1.00  0.00    -0.290 OA
BRANCH  21  34
ATOM     34  O   UNL     1       3.130   2.662  -2.461  1.00  0.00    -0.390 OA
ATOM     35  H   UNL     1       2.386   2.306  -1.949  1.00  0.00     0.211 HD
ENDBRANCH  21  34
ENDBRANCH   5   8
ENDBRANCH   3   4
ENDBRANCH   2   3
ENDBRANCH   1   2
BRANCH   1  36
ATOM     36  N   UNL     1       1.480   5.025   5.812  1.00  0.00    -0.352 N 
ATOM     37  C   UNL     1       1.053   5.319   7.078  1.00  0.00     0.251 C 
ATOM     38  H   UNL     1       1.815   5.789   5.290  1.00  0.00     0.163 HD
ATOM     39  O   UNL     1       0.772   6.485   7.377  1.00  0.00    -0.269 OA
BRANCH  37  40
ATOM     40  C   UNL     1       0.940   4.242   8.073  1.00  0.00     0.039 A 
ATOM     41  C   UNL     1      -0.166   4.196   8.923  1.00  0.00     0.014 A 
ATOM     42  C   UNL     1       1.939   3.267   8.151  1.00  0.00     0.014 A 
ATOM     43  C   UNL     1      -0.303   3.125   9.806  1.00  0.00     0.010 A 
ATOM     44  C   UNL     1       1.754   2.158   8.962  1.00  0.00     0.010 A 
ATOM     45  C   UNL     1       0.633   2.077   9.800  1.00  0.00    -0.014 A 
BRANCH  45  46
ATOM     46  C   UNL     1       0.450   0.869  10.638  1.00  0.00     0.031 A 
ATOM     47  C   UNL     1       1.471   0.510  11.681  1.00  0.00     0.074 A 
ATOM     48  C   UNL     1      -0.583   0.042  10.379  1.00  0.00     0.049 A 
ATOM     49  N   UNL     1       1.517  -0.540  12.459  1.00  0.00    -0.248 NA
ATOM     50  C   UNL     1       2.606   1.433  11.856  1.00  0.00     0.031 C 
ATOM     51  C   UNL     1      -1.590   0.246   9.334  1.00  0.00     0.029 A 
ATOM     52  N   UNL     1      -0.941  -1.151  10.954  1.00  0.00    -0.354 N 
ATOM     53  C   UNL     1       2.699  -0.427  13.180  1.00  0.00     0.074 A 
ATOM     54  C   UNL     1       3.357   0.779  12.730  1.00  0.00     0.031 C 
ATOM     55  C   UNL     1      -2.457  -0.778   9.351  1.00  0.00     0.029 A 
ATOM     56  C   UNL     1      -2.046  -1.731  10.376  1.00  0.00     0.049 A 
ATOM     57  H   UNL     1      -0.453  -1.553  11.709  1.00  0.00     0.167 HD
ATOM     58  C   UNL     1       3.180  -1.243  14.146  1.00  0.00     0.034 A 
ATOM     59  C   UNL     1      -2.652  -2.906  10.635  1.00  0.00     0.034 A 
ATOM     60  C   UNL     1       2.497  -2.417  14.617  1.00  0.00     0.049 A 
ATOM     61  C   UNL     1      -2.107  -3.778  11.733  1.00  0.00     0.074 A 
ATOM     62  C   UNL     1       2.842  -3.246  15.669  1.00  0.00     0.029 A 
ATOM     63  N   UNL     1       1.342  -2.939  14.056  1.00  0.00    -0.354 N 
ATOM     64  N   UNL     1      -1.088  -3.561  12.530  1.00  0.00    -0.248 NA
ATOM     65  C   UNL     1      -2.810  -5.043  11.987  1.00  0.00     0.031 C 
ATOM     66  C   UNL     1       1.918  -4.294  15.717  1.00  0.00     0.029 A 
ATOM     67  C   UNL     1       0.976  -4.096  14.720  1.00  0.00     0.049 A 
ATOM     68  H   UNL     1       0.855  -2.545  13.297  1.00  0.00     0.167 HD
ATOM     69  C   UNL     1      -1.047  -4.645  13.398  1.00  0.00     0.074 A 
ATOM     70  C   UNL     1      -2.160  -5.503  13.047  1.00  0.00     0.031 C 
ATOM     71  C   UNL     1      -0.160  -4.916  14.387  1.00  0.00     0.034 A 
BRANCH  58  72
ATOM     72  C   UNL     1       4.491  -0.879  14.791  1.00  0.00     0.023 A 
ATOM     73  C   UNL     1       4.562   0.228  15.661  1.00  0.00     0.012 A 
ATOM     74  C   UNL     1       5.634  -1.680  14.596  1.00  0.00     0.148 A 
ATOM     75  C   UNL     1       5.756   0.549  16.305  1.00  0.00     0.002 A 
ATOM     76  C   UNL     1       6.807  -1.381  15.278  1.00  0.00     0.091 A 
ATOM     77  F   UNL     1       5.552  -2.715  13.748  1.00  0.00    -0.205 F 
ATOM     78  C   UNL     1       6.873  -0.261  16.124  1.00  0.00     0.022 A 
BRANCH  76  79
ATOM     79  S   UNL     1       8.277  -2.409  15.178  1.00  0.00     0.127 S 
ATOM     80  O   UNL     1       9.203  -1.528  14.467  1.00  0.00    -0.237 OA
ATOM     81  O   UNL     1       8.598  -2.620  16.589  1.00  0.00    -0.237 OA
ATOM     82  O   UNL     1       7.881  -3.609  14.455  1.00  0.00    -0.744 OA
ENDBRANCH  76  79
ENDBRANCH  58  72
BRANCH  59  83
ATOM     83  C   UNL     1      -3.873  -3.304   9.878  1.00  0.00     0.023 A 
ATOM     84  C   UNL     1      -5.112  -3.355  10.547  1.00  0.00     0.012 A 
ATOM     85  C   UNL     1      -3.820  -3.618   8.507  1.00  0.00     0.148 A 
ATOM     86  C   UNL     1      -6.268  -3.750   9.873  1.00  0.00     0.002 A 
ATOM     87  C   UNL     1      -4.985  -3.954   7.828  1.00  0.00     0.091 A 
ATOM     88  F   UNL     1      -2.630  -3.572   7.890  1.00  0.00    -0.205 F 
ATOM     89  C   UNL     1      -6.207  -4.040   8.513  1.00  0.00     0.022 A 
BRANCH  87  90
ATOM     90  S   UNL     1      -5.023  -4.213   6.051  1.00  0.00     0.127 S 
ATOM     91  O   UNL     1      -5.255  -5.653   5.964  1.00  0.00    -0.237 OA
ATOM     92  O   UNL     1      -6.157  -3.380   5.649  1.00  0.00    -0.237 OA
ATOM     93  O   UNL     1      -3.734  -3.748   5.558  1.00  0.00    -0.744 OA
ENDBRANCH  87  90
ENDBRANCH  59  83
BRANCH  71  94
ATOM     94  C   UNL     1      -0.365  -6.178  15.183  1.00  0.00     0.023 A 
ATOM     95  C   UNL     1      -0.104  -7.429  14.591  1.00  0.00     0.012 A 
ATOM     96  C   UNL     1      -0.742  -6.117  16.539  1.00  0.00     0.148 A 
ATOM     97  C   UNL     1      -0.246  -8.604  15.328  1.00  0.00     0.002 A 
ATOM     98  C   UNL     1      -0.829  -7.288  17.282  1.00  0.00     0.091 A 
ATOM     99  F   UNL     1      -0.999  -4.917  17.078  1.00  0.00    -0.205 F 
ATOM    100  C   UNL     1      -0.596  -8.533  16.674  1.00  0.00     0.022 A 
BRANCH  98 101
ATOM    101  S   UNL     1      -1.175  -7.290  19.044  1.00  0.00     0.127 S 
ATOM    102  O   UNL     1      -2.509  -7.889  19.084  1.00  0.00    -0.237 OA
ATOM    103  O   UNL     1      -0.107  -8.143  19.567  1.00  0.00    -0.237 OA
ATOM    104  O   UNL     1      -1.105  -5.900  19.471  1.00  0.00    -0.744 OA
ENDBRANCH  98 101
ENDBRANCH  71  94
ENDBRANCH  45  46
ENDBRANCH  37  40
ENDBRANCH   1  36
TORSDOF 14
