REMARK SMILES C[C@@H](Sc1nc2ccccc2c(=O)n1N)C(=O)NCCCNC(=O)c1ccc(-c2c3nc(c(-c4cccc(S(=O)(=O)[O-])c4F)c4ccc([nH]4)c(-c4cccc(S(=O)(=O)[O-])c4F)c4nc(c(-c5cccc(S(=O)(=O)[O-])c5F)c5ccc2[nH]5)C=C4)C=C3)cc1
REMARK SMILES IDX 20 1 19 2 18 3 16 4 17 5 2 7 1 8 3 9 4 10 5 11 14 12 6 13
REMARK SMILES IDX 12 14 7 15 11 16 13 17 8 18 10 19 9 20 15 21 21 24 22 25
REMARK SMILES IDX 23 26 24 28 25 29 26 30 87 31 27 32 86 33 28 34 29 35 30 36
REMARK SMILES IDX 80 37 31 38 85 39 79 40 81 41 32 42 84 43 78 44 77 45 33 47
REMARK SMILES IDX 65 48 45 49 64 50 46 51 49 52 63 53 82 54 47 55 48 56 62 58
REMARK SMILES IDX 83 59 50 60 34 61 35 62 43 63 36 64 38 65 44 66 37 67 39 68
REMARK SMILES IDX 40 69 41 70 42 71 66 72 67 73 75 74 68 75 70 76 76 77 69 78
REMARK SMILES IDX 71 79 72 80 73 81 74 82 51 83 52 84 60 85 53 86 55 87 61 88
REMARK SMILES IDX 54 89 56 90 57 91 58 92 59 93
REMARK H PARENT 18 6 15 22 15 23 22 27 81 46 49 57
REMARK Flexibility Score: inf
ROOT
ATOM      1  C   UNL     1      -1.260  -2.546  -0.666  1.00  0.00     0.042 C 
ENDROOT
BRANCH   1   2
ATOM      2  C   UNL     1      -0.979  -1.485  -1.722  1.00  0.00     0.117 C 
BRANCH   2   3
ATOM      3  N   UNL     1      -1.478  -0.178  -1.326  1.00  0.00    -0.355 N 
ATOM      4  C   UNL     1      -0.813   0.981  -1.055  1.00  0.00     0.233 C 
ATOM      5  O   UNL     1      -1.495   1.976  -0.788  1.00  0.00    -0.274 OA
ATOM      6  H   UNL     1      -2.457  -0.121  -1.239  1.00  0.00     0.163 HD
BRANCH   4   7
ATOM      7  C   UNL     1       0.715   1.070  -1.083  1.00  0.00     0.141 C 
ATOM      8  C   UNL     1       1.368   0.180  -0.031  1.00  0.00     0.030 C 
BRANCH   7   9
ATOM      9  S   UNL     1       1.268   0.848  -2.814  1.00  0.00    -0.073 SA
BRANCH   9  10
ATOM     10  C   UNL     1       2.997   0.731  -2.616  1.00  0.00     0.191 A 
ATOM     11  N   UNL     1       3.537  -0.428  -2.807  1.00  0.00    -0.222 NA
ATOM     12  N   UNL     1       3.714   1.893  -2.356  1.00  0.00    -0.202 N 
ATOM     13  C   UNL     1       4.936  -0.519  -2.763  1.00  0.00     0.079 A 
ATOM     14  C   UNL     1       5.108   1.897  -2.335  1.00  0.00     0.280 A 
ATOM     15  C   UNL     1       5.536  -1.761  -2.985  1.00  0.00     0.029 A 
ATOM     16  C   UNL     1       5.756   0.591  -2.550  1.00  0.00     0.068 A 
ATOM     17  O   UNL     1       5.782   2.917  -2.187  1.00  0.00    -0.267 OA
ATOM     18  C   UNL     1       6.928  -1.887  -3.004  1.00  0.00     0.002 A 
ATOM     19  C   UNL     1       7.151   0.476  -2.565  1.00  0.00     0.016 A 
ATOM     20  C   UNL     1       7.735  -0.768  -2.796  1.00  0.00     0.001 A 
BRANCH  12  21
ATOM     21  N   UNL     1       3.060   3.148  -2.129  1.00  0.00    -0.334 N 
ATOM     22  H   UNL     1       2.077   3.199  -2.134  1.00  0.00     0.178 HD
ATOM     23  H   UNL     1       3.595   3.959  -1.970  1.00  0.00     0.178 HD
ENDBRANCH  12  21
ENDBRANCH   9  10
ENDBRANCH   7   9
ENDBRANCH   4   7
ENDBRANCH   2   3
ENDBRANCH   1   2
BRANCH   1  24
ATOM     24  C   UNL     1      -2.741  -2.847  -0.476  1.00  0.00     0.118 C 
BRANCH  24  25
ATOM     25  N   UNL     1      -3.361  -3.380  -1.681  1.00  0.00    -0.352 N 
ATOM     26  C   UNL     1      -4.012  -4.568  -1.893  1.00  0.00     0.251 C 
ATOM     27  H   UNL     1      -3.302  -2.794  -2.469  1.00  0.00     0.163 HD
ATOM     28  O   UNL     1      -4.280  -4.902  -3.046  1.00  0.00    -0.269 OA
BRANCH  26  29
ATOM     29  C   UNL     1      -4.390  -5.445  -0.763  1.00  0.00     0.039 A 
ATOM     30  C   UNL     1      -4.324  -6.831  -0.940  1.00  0.00     0.014 A 
ATOM     31  C   UNL     1      -4.864  -4.922   0.443  1.00  0.00     0.014 A 
ATOM     32  C   UNL     1      -4.704  -7.684   0.099  1.00  0.00     0.010 A 
ATOM     33  C   UNL     1      -5.155  -5.771   1.507  1.00  0.00     0.010 A 
ATOM     34  C   UNL     1      -5.110  -7.161   1.338  1.00  0.00    -0.014 A 
BRANCH  34  35
ATOM     35  C   UNL     1      -5.526  -8.058   2.446  1.00  0.00     0.031 A 
ATOM     36  C   UNL     1      -6.938  -8.013   2.969  1.00  0.00     0.074 A 
ATOM     37  C   UNL     1      -4.620  -8.874   3.019  1.00  0.00     0.049 A 
ATOM     38  N   UNL     1      -7.487  -8.722   3.922  1.00  0.00    -0.248 NA
ATOM     39  C   UNL     1      -7.847  -7.024   2.365  1.00  0.00     0.031 C 
ATOM     40  C   UNL     1      -3.200  -8.944   2.667  1.00  0.00     0.029 A 
ATOM     41  N   UNL     1      -4.756  -9.791   4.031  1.00  0.00    -0.354 N 
ATOM     42  C   UNL     1      -8.785  -8.242   4.055  1.00  0.00     0.074 A 
ATOM     43  C   UNL     1      -8.931  -7.153   3.116  1.00  0.00     0.031 C 
ATOM     44  C   UNL     1      -2.600  -9.864   3.439  1.00  0.00     0.029 A 
ATOM     45  C   UNL     1      -3.586 -10.439   4.350  1.00  0.00     0.049 A 
ATOM     46  H   UNL     1      -5.611  -9.969   4.485  1.00  0.00     0.167 HD
ATOM     47  C   UNL     1      -9.780  -8.690   4.858  1.00  0.00     0.034 A 
ATOM     48  C   UNL     1      -3.339 -11.397   5.264  1.00  0.00     0.034 A 
ATOM     49  C   UNL     1      -9.650  -9.811   5.749  1.00  0.00     0.049 A 
ATOM     50  C   UNL     1      -4.482 -11.938   6.080  1.00  0.00     0.074 A 
ATOM     51  C   UNL     1     -10.618 -10.399   6.543  1.00  0.00     0.029 A 
ATOM     52  N   UNL     1      -8.476 -10.518   5.960  1.00  0.00    -0.354 N 
ATOM     53  N   UNL     1      -5.744 -11.581   6.072  1.00  0.00    -0.248 NA
ATOM     54  C   UNL     1      -4.178 -13.049   6.993  1.00  0.00     0.031 C 
ATOM     55  C   UNL     1     -10.027 -11.457   7.243  1.00  0.00     0.029 A 
ATOM     56  C   UNL     1      -8.695 -11.540   6.867  1.00  0.00     0.049 A 
ATOM     57  H   UNL     1      -7.614 -10.322   5.529  1.00  0.00     0.167 HD
ATOM     58  C   UNL     1      -6.391 -12.450   6.943  1.00  0.00     0.074 A 
ATOM     59  C   UNL     1      -5.385 -13.363   7.444  1.00  0.00     0.031 C 
ATOM     60  C   UNL     1      -7.697 -12.480   7.308  1.00  0.00     0.034 A 
BRANCH  47  61
ATOM     61  C   UNL     1     -11.120  -8.007   4.757  1.00  0.00     0.023 A 
ATOM     62  C   UNL     1     -11.909  -8.195   3.602  1.00  0.00     0.012 A 
ATOM     63  C   UNL     1     -11.622  -7.223   5.814  1.00  0.00     0.148 A 
ATOM     64  C   UNL     1     -13.156  -7.584   3.484  1.00  0.00     0.002 A 
ATOM     65  C   UNL     1     -12.887  -6.655   5.708  1.00  0.00     0.091 A 
ATOM     66  F   UNL     1     -10.851  -7.036   6.894  1.00  0.00    -0.205 F 
ATOM     67  C   UNL     1     -13.649  -6.823   4.540  1.00  0.00     0.022 A 
BRANCH  65  68
ATOM     68  S   UNL     1     -13.645  -5.725   7.045  1.00  0.00     0.127 S 
ATOM     69  O   UNL     1     -13.577  -4.358   6.530  1.00  0.00    -0.237 OA
ATOM     70  O   UNL     1     -14.993  -6.292   7.091  1.00  0.00    -0.237 OA
ATOM     71  O   UNL     1     -12.836  -5.990   8.226  1.00  0.00    -0.744 OA
ENDBRANCH  65  68
ENDBRANCH  47  61
BRANCH  48  72
ATOM     72  C   UNL     1      -1.971 -11.978   5.380  1.00  0.00     0.023 A 
ATOM     73  C   UNL     1      -1.740 -13.293   4.931  1.00  0.00     0.012 A 
ATOM     74  C   UNL     1      -0.897 -11.232   5.902  1.00  0.00     0.148 A 
ATOM     75  C   UNL     1      -0.473 -13.868   5.031  1.00  0.00     0.002 A 
ATOM     76  C   UNL     1       0.375 -11.792   5.948  1.00  0.00     0.091 A 
ATOM     77  F   UNL     1      -1.139  -9.986   6.333  1.00  0.00    -0.205 F 
ATOM     78  C   UNL     1       0.586 -13.115   5.530  1.00  0.00     0.022 A 
BRANCH  76  79
ATOM     79  S   UNL     1       1.819 -10.849   6.451  1.00  0.00     0.127 S 
ATOM     80  O   UNL     1       2.104 -11.418   7.767  1.00  0.00    -0.237 OA
ATOM     81  O   UNL     1       2.787 -11.197   5.408  1.00  0.00    -0.237 OA
ATOM     82  O   UNL     1       1.402  -9.456   6.437  1.00  0.00    -0.744 OA
ENDBRANCH  76  79
ENDBRANCH  48  72
BRANCH  60  83
ATOM     83  C   UNL     1      -8.128 -13.563   8.261  1.00  0.00     0.023 A 
ATOM     84  C   UNL     1      -7.742 -13.504   9.614  1.00  0.00     0.012 A 
ATOM     85  C   UNL     1      -8.963 -14.612   7.826  1.00  0.00     0.148 A 
ATOM     86  C   UNL     1      -8.145 -14.493  10.511  1.00  0.00     0.002 A 
ATOM     87  C   UNL     1      -9.401 -15.567   8.736  1.00  0.00     0.091 A 
ATOM     88  F   UNL     1      -9.303 -14.666   6.530  1.00  0.00    -0.205 F 
ATOM     89  C   UNL     1      -8.983 -15.517  10.075  1.00  0.00     0.022 A 
BRANCH  87  90
ATOM     90  S   UNL     1     -10.559 -16.859   8.271  1.00  0.00     0.127 S 
ATOM     91  O   UNL     1      -9.669 -18.003   8.077  1.00  0.00    -0.237 OA
ATOM     92  O   UNL     1     -11.420 -16.951   9.451  1.00  0.00    -0.237 OA
ATOM     93  O   UNL     1     -11.233 -16.372   7.076  1.00  0.00    -0.744 OA
ENDBRANCH  87  90
ENDBRANCH  60  83
ENDBRANCH  34  35
ENDBRANCH  26  29
ENDBRANCH  24  25
ENDBRANCH   1  24
TORSDOF 16
