REMARK SMILES Cc1ccc(C(C)(C)C)c(OCC(=O)c2nc(C)c(C(=O)NCCCNC(=O)c3ccc(-c4c5nc(c(-c6cccc(S(=O)(=O)[O-])c6F)c6ccc([nH]6)c(-c6cccc(S(=O)(=O)[O-])c6F)c6nc(c(-c7cccc(S(=O)(=O)[O-])c7F)c7ccc4[nH]7)C=C6)C=C5)cc3)s2)c1
REMARK SMILES IDX 23 1 22 2 20 3 21 4 19 6 15 7 16 8 92 9 17 10 18 11 13 12
REMARK SMILES IDX 14 13 12 14 11 15 10 16 1 17 2 18 3 19 93 20 4 21 5 22 6 23
REMARK SMILES IDX 7 24 8 25 9 26 24 27 25 28 26 29 27 30 28 32 29 33 30 34
REMARK SMILES IDX 91 35 31 36 90 37 32 38 33 39 34 40 84 41 35 42 89 43 83 44
REMARK SMILES IDX 85 45 36 46 88 47 82 48 81 49 37 51 69 52 49 53 68 54 50 55
REMARK SMILES IDX 53 56 67 57 86 58 51 59 52 60 66 62 87 63 54 64 38 65 39 66
REMARK SMILES IDX 47 67 40 68 42 69 48 70 41 71 43 72 44 73 45 74 46 75 70 76
REMARK SMILES IDX 71 77 79 78 72 79 74 80 80 81 73 82 75 83 76 84 77 85 78 86
REMARK SMILES IDX 55 87 56 88 64 89 57 90 59 91 65 92 58 93 60 94 61 95 62 96
REMARK SMILES IDX 63 97
REMARK H PARENT 22 5 26 31 85 50 53 61
REMARK Flexibility Score: inf
ROOT
ATOM      1  C   UNL     1      -1.761   3.715   7.636  1.00  0.00     0.118 C 
ENDROOT
BRANCH   1   2
ATOM      2  N   UNL     1      -2.601   3.025   6.687  1.00  0.00    -0.351 N 
ATOM      3  C   UNL     1      -2.583   2.870   5.325  1.00  0.00     0.263 C 
ATOM      4  O   UNL     1      -3.503   2.141   4.928  1.00  0.00    -0.268 OA
ATOM      5  H   UNL     1      -3.357   2.561   7.113  1.00  0.00     0.163 HD
BRANCH   3   6
ATOM      6  C   UNL     1      -1.612   3.457   4.392  1.00  0.00     0.115 A 
ATOM      7  C   UNL     1      -0.520   3.839   2.201  1.00  0.00     0.164 A 
ATOM      8  N   UNL     1       0.050   4.554   3.135  1.00  0.00    -0.237 NA
ATOM      9  S   UNL     1      -1.799   2.877   2.742  1.00  0.00    -0.105 S 
ATOM     10  C   UNL     1      -0.573   4.389   4.368  1.00  0.00     0.062 A 
ATOM     11  C   UNL     1       0.002   5.307   5.378  1.00  0.00     0.068 C 
BRANCH   7  12
ATOM     12  C   UNL     1      -0.039   3.898   0.829  1.00  0.00     0.228 C 
ATOM     13  O   UNL     1       1.098   4.295   0.536  1.00  0.00    -0.288 OA
BRANCH  12  14
ATOM     14  C   UNL     1      -0.996   3.562  -0.322  1.00  0.00     0.313 C 
BRANCH  14  15
ATOM     15  O   UNL     1      -1.700   2.343  -0.387  1.00  0.00    -0.485 OA
BRANCH  15  16
ATOM     16  C   UNL     1      -1.039   1.153  -0.298  1.00  0.00     0.123 A 
ATOM     17  C   UNL     1       2.527  -0.217  -0.146  1.00  0.00     0.044 C 
ATOM     18  C   UNL     1       1.029  -0.150  -0.153  1.00  0.00    -0.047 A 
ATOM     19  C   UNL     1       0.272  -1.302   0.023  1.00  0.00     0.004 A 
ATOM     20  C   UNL     1       0.364   1.063  -0.351  1.00  0.00     0.050 A 
ATOM     21  C   UNL     1      -1.122  -1.232   0.020  1.00  0.00     0.008 A 
ATOM     22  C   UNL     1      -1.822  -0.010  -0.129  1.00  0.00    -0.000 A 
BRANCH  22  23
ATOM     23  C   UNL     1      -3.373  -0.062  -0.111  1.00  0.00    -0.010 C 
ATOM     24  C   UNL     1      -3.848  -0.872  -1.341  1.00  0.00     0.016 C 
ATOM     25  C   UNL     1      -3.861  -0.766   1.179  1.00  0.00     0.016 C 
ATOM     26  C   UNL     1      -4.132   1.284  -0.169  1.00  0.00     0.016 C 
ENDBRANCH  22  23
ENDBRANCH  15  16
ENDBRANCH  14  15
ENDBRANCH  12  14
ENDBRANCH   7  12
ENDBRANCH   3   6
ENDBRANCH   1   2
BRANCH   1  27
ATOM     27  C   UNL     1      -2.040   5.210   7.643  1.00  0.00     0.042 C 
BRANCH  27  28
ATOM     28  C   UNL     1      -2.909   5.698   8.788  1.00  0.00     0.118 C 
BRANCH  28  29
ATOM     29  N   UNL     1      -2.176   6.626   9.650  1.00  0.00    -0.352 N 
ATOM     30  C   UNL     1      -2.622   7.370  10.726  1.00  0.00     0.251 C 
ATOM     31  H   UNL     1      -1.223   6.736   9.431  1.00  0.00     0.163 HD
ATOM     32  O   UNL     1      -1.881   8.174  11.262  1.00  0.00    -0.269 OA
BRANCH  30  33
ATOM     33  C   UNL     1      -3.961   7.060  11.265  1.00  0.00     0.039 A 
ATOM     34  C   UNL     1      -4.023   6.579  12.577  1.00  0.00     0.014 A 
ATOM     35  C   UNL     1      -5.043   6.941  10.399  1.00  0.00     0.014 A 
ATOM     36  C   UNL     1      -5.077   5.752  12.946  1.00  0.00     0.010 A 
ATOM     37  C   UNL     1      -6.040   6.051  10.731  1.00  0.00     0.010 A 
ATOM     38  C   UNL     1      -6.013   5.405  11.976  1.00  0.00    -0.014 A 
BRANCH  38  39
ATOM     39  C   UNL     1      -6.960   4.310  12.112  1.00  0.00     0.031 A 
ATOM     40  C   UNL     1      -8.379   4.591  12.397  1.00  0.00     0.074 A 
ATOM     41  C   UNL     1      -6.562   3.067  11.762  1.00  0.00     0.049 A 
ATOM     42  N   UNL     1      -9.241   3.701  12.753  1.00  0.00    -0.248 NA
ATOM     43  C   UNL     1      -8.924   5.939  12.336  1.00  0.00     0.031 C 
ATOM     44  C   UNL     1      -7.414   1.951  11.374  1.00  0.00     0.029 A 
ATOM     45  N   UNL     1      -5.288   2.501  11.897  1.00  0.00    -0.354 N 
ATOM     46  C   UNL     1     -10.488   4.289  12.702  1.00  0.00     0.074 A 
ATOM     47  C   UNL     1     -10.225   5.696  12.511  1.00  0.00     0.031 C 
ATOM     48  C   UNL     1      -6.737   0.810  11.564  1.00  0.00     0.029 A 
ATOM     49  C   UNL     1      -5.498   1.153  12.239  1.00  0.00     0.049 A 
ATOM     50  H   UNL     1      -4.423   2.954  11.776  1.00  0.00     0.167 HD
ATOM     51  C   UNL     1     -11.595   3.492  12.685  1.00  0.00     0.034 A 
ATOM     52  C   UNL     1      -5.034   0.573  13.383  1.00  0.00     0.034 A 
ATOM     53  C   UNL     1     -11.229   2.081  12.865  1.00  0.00     0.049 A 
ATOM     54  C   UNL     1      -6.131  -0.029  14.245  1.00  0.00     0.074 A 
ATOM     55  C   UNL     1     -11.024   1.032  11.982  1.00  0.00     0.029 A 
ATOM     56  N   UNL     1     -10.746   1.656  14.095  1.00  0.00    -0.354 N 
ATOM     57  N   UNL     1      -7.404   0.053  13.973  1.00  0.00    -0.248 NA
ATOM     58  C   UNL     1      -5.887  -0.729  15.506  1.00  0.00     0.031 C 
ATOM     59  C   UNL     1     -10.320   0.008  12.673  1.00  0.00     0.029 A 
ATOM     60  C   UNL     1     -10.126   0.422  13.980  1.00  0.00     0.049 A 
ATOM     61  H   UNL     1     -10.832   2.163  14.935  1.00  0.00     0.167 HD
ATOM     62  C   UNL     1      -8.135  -0.392  15.043  1.00  0.00     0.074 A 
ATOM     63  C   UNL     1      -7.140  -0.964  15.933  1.00  0.00     0.031 C 
ATOM     64  C   UNL     1      -9.482  -0.173  15.146  1.00  0.00     0.034 A 
BRANCH  51  65
ATOM     65  C   UNL     1     -12.972   3.927  12.202  1.00  0.00     0.023 A 
ATOM     66  C   UNL     1     -13.852   2.915  11.754  1.00  0.00     0.012 A 
ATOM     67  C   UNL     1     -13.447   5.250  12.072  1.00  0.00     0.148 A 
ATOM     68  C   UNL     1     -15.061   3.198  11.107  1.00  0.00     0.002 A 
ATOM     69  C   UNL     1     -14.611   5.541  11.355  1.00  0.00     0.091 A 
ATOM     70  F   UNL     1     -12.842   6.242  12.729  1.00  0.00    -0.205 F 
ATOM     71  C   UNL     1     -15.421   4.514  10.865  1.00  0.00     0.022 A 
BRANCH  69  72
ATOM     72  S   UNL     1     -15.079   7.229  10.933  1.00  0.00     0.127 S 
ATOM     73  O   UNL     1     -15.348   7.127   9.496  1.00  0.00    -0.237 OA
ATOM     74  O   UNL     1     -16.265   7.445  11.759  1.00  0.00    -0.237 OA
ATOM     75  O   UNL     1     -13.925   8.059  11.259  1.00  0.00    -0.744 OA
ENDBRANCH  69  72
ENDBRANCH  51  65
BRANCH  52  76
ATOM     76  C   UNL     1      -3.757   1.159  13.879  1.00  0.00     0.023 A 
ATOM     77  C   UNL     1      -2.614   0.965  13.067  1.00  0.00     0.012 A 
ATOM     78  C   UNL     1      -3.734   2.172  14.853  1.00  0.00     0.148 A 
ATOM     79  C   UNL     1      -1.522   1.829  13.142  1.00  0.00     0.002 A 
ATOM     80  C   UNL     1      -2.642   3.038  14.915  1.00  0.00     0.091 A 
ATOM     81  F   UNL     1      -4.809   2.332  15.635  1.00  0.00    -0.205 F 
ATOM     82  C   UNL     1      -1.551   2.886  14.043  1.00  0.00     0.022 A 
BRANCH  80  83
ATOM     83  S   UNL     1      -2.635   4.482  15.988  1.00  0.00     0.127 S 
ATOM     84  O   UNL     1      -1.828   4.011  17.108  1.00  0.00    -0.237 OA
ATOM     85  O   UNL     1      -1.993   5.489  15.143  1.00  0.00    -0.237 OA
ATOM     86  O   UNL     1      -4.039   4.747  16.267  1.00  0.00    -0.744 OA
ENDBRANCH  80  83
ENDBRANCH  52  76
BRANCH  64  87
ATOM     87  C   UNL     1     -10.323  -0.433  16.379  1.00  0.00     0.023 A 
ATOM     88  C   UNL     1      -9.790  -0.370  17.680  1.00  0.00     0.012 A 
ATOM     89  C   UNL     1     -11.731  -0.567  16.268  1.00  0.00     0.148 A 
ATOM     90  C   UNL     1     -10.604  -0.474  18.815  1.00  0.00     0.002 A 
ATOM     91  C   UNL     1     -12.545  -0.562  17.398  1.00  0.00     0.091 A 
ATOM     92  F   UNL     1     -12.293  -0.707  15.057  1.00  0.00    -0.205 F 
ATOM     93  C   UNL     1     -11.984  -0.543  18.675  1.00  0.00     0.022 A 
BRANCH  91  94
ATOM     94  S   UNL     1     -14.330  -0.410  17.228  1.00  0.00     0.127 S 
ATOM     95  O   UNL     1     -14.744  -1.800  17.056  1.00  0.00    -0.237 OA
ATOM     96  O   UNL     1     -14.726   0.188  18.505  1.00  0.00    -0.237 OA
ATOM     97  O   UNL     1     -14.512   0.468  16.079  1.00  0.00    -0.744 OA
ENDBRANCH  91  94
ENDBRANCH  64  87
ENDBRANCH  38  39
ENDBRANCH  30  33
ENDBRANCH  28  29
ENDBRANCH  27  28
ENDBRANCH   1  27
TORSDOF 18
