REMARK SMILES Cc1cc(Cl)c2c(c1)C=C(C(=O)NCCCNC(=O)c1ccc(-c3c4nc(c(-c5cccc(S(=O)(=O)[O-])c5F)c5ccc([nH]5)c(-c5cccc(S(=O)(=O)[O-])c5F)c5nc(c(-c6cccc(S(=O)(=O)[O-])c6F)c6ccc3[nH]6)C=C5)C=C4)cc1)[C@@H](C(F)(F)F)O2
REMARK SMILES IDX 16 1 15 2 14 3 13 4 11 5 12 6 10 8 1 9 2 10 3 11 8 12 4 13
REMARK SMILES IDX 7 14 5 15 6 16 9 17 88 18 83 19 84 20 85 21 86 22 87 23
REMARK SMILES IDX 17 24 18 25 19 27 20 28 21 29 82 30 22 31 81 32 23 33 24 34
REMARK SMILES IDX 25 35 75 36 26 37 80 38 74 39 76 40 27 41 79 42 73 43 72 44
REMARK SMILES IDX 28 46 60 47 40 48 59 49 41 50 44 51 58 52 77 53 42 54 43 55
REMARK SMILES IDX 57 57 78 58 45 59 29 60 30 61 38 62 31 63 33 64 39 65 32 66
REMARK SMILES IDX 34 67 35 68 36 69 37 70 61 71 62 72 70 73 63 74 65 75 71 76
REMARK SMILES IDX 64 77 66 78 67 79 68 80 69 81 46 82 47 83 55 84 48 85 50 86
REMARK SMILES IDX 56 87 49 88 51 89 52 90 53 91 54 92
REMARK H PARENT 13 7 17 26 76 45 44 56
REMARK Flexibility Score: inf
ROOT
ATOM      1  C   UNL     1      -1.378  -1.612  10.966  1.00  0.00     0.118 C 
ENDROOT
BRANCH   1   2
ATOM      2  C   UNL     1      -1.028  -2.230   9.618  1.00  0.00     0.042 C 
BRANCH   2   3
ATOM      3  C   UNL     1      -2.091  -1.958   8.566  1.00  0.00     0.118 C 
BRANCH   3   4
ATOM      4  N   UNL     1      -1.995  -0.612   8.020  1.00  0.00    -0.352 N 
ATOM      5  C   UNL     1      -1.632  -0.044   6.847  1.00  0.00     0.251 C 
ATOM      6  O   UNL     1      -1.738   1.187   6.801  1.00  0.00    -0.270 OA
ATOM      7  H   UNL     1      -2.266   0.065   8.680  1.00  0.00     0.163 HD
BRANCH   5   8
ATOM      8  C   UNL     1      -1.140  -0.787   5.649  1.00  0.00     0.067 C 
ATOM      9  C   UNL     1       0.919   0.218  -0.108  1.00  0.00     0.044 C 
ATOM     10  C   UNL     1       0.558  -0.574   1.113  1.00  0.00    -0.049 A 
ATOM     11  C   UNL     1       0.764  -1.959   1.129  1.00  0.00     0.028 A 
ATOM     12  C   UNL     1       0.069   0.058   2.266  1.00  0.00     0.015 A 
ATOM     13  C   UNL     1       0.473  -2.701   2.273  1.00  0.00     0.084 A 
ATOM     14  C   UNL     1      -0.228  -0.685   3.415  1.00  0.00     0.019 A 
ATOM     15  Cl  UNL     1       0.734  -4.408   2.235  1.00  0.00    -0.080 Cl
ATOM     16  C   UNL     1      -0.027  -2.068   3.414  1.00  0.00     0.146 A 
ATOM     17  C   UNL     1      -0.703  -0.029   4.627  1.00  0.00     0.025 C 
ATOM     18  O   UNL     1      -0.256  -2.829   4.525  1.00  0.00    -0.474 OA
ATOM     19  C   UNL     1      -1.146  -2.283   5.530  1.00  0.00     0.314 C 
BRANCH  19  20
ATOM     20  C   UNL     1      -2.561  -2.850   5.307  1.00  0.00     0.429 C 
ATOM     21  F   UNL     1      -2.600  -4.174   5.596  1.00  0.00    -0.167 F 
ATOM     22  F   UNL     1      -3.494  -2.260   6.093  1.00  0.00    -0.167 F 
ATOM     23  F   UNL     1      -2.984  -2.700   4.030  1.00  0.00    -0.167 F 
ENDBRANCH  19  20
ENDBRANCH   5   8
ENDBRANCH   3   4
ENDBRANCH   2   3
ENDBRANCH   1   2
BRANCH   1  24
ATOM     24  N   UNL     1      -2.603  -2.185  11.523  1.00  0.00    -0.352 N 
ATOM     25  C   UNL     1      -2.773  -3.074  12.554  1.00  0.00     0.251 C 
ATOM     26  H   UNL     1      -3.435  -1.886  11.091  1.00  0.00     0.163 HD
ATOM     27  O   UNL     1      -3.852  -3.651  12.686  1.00  0.00    -0.269 OA
BRANCH  25  28
ATOM     28  C   UNL     1      -1.671  -3.331  13.499  1.00  0.00     0.039 A 
ATOM     29  C   UNL     1      -1.446  -4.630  13.960  1.00  0.00     0.014 A 
ATOM     30  C   UNL     1      -0.875  -2.277  13.953  1.00  0.00     0.014 A 
ATOM     31  C   UNL     1      -0.383  -4.878  14.829  1.00  0.00     0.010 A 
ATOM     32  C   UNL     1       0.242  -2.540  14.734  1.00  0.00     0.010 A 
ATOM     33  C   UNL     1       0.488  -3.839  15.198  1.00  0.00    -0.014 A 
BRANCH  33  34
ATOM     34  C   UNL     1       1.649  -4.078  16.088  1.00  0.00     0.031 A 
ATOM     35  C   UNL     1       1.732  -3.371  17.415  1.00  0.00     0.074 A 
ATOM     36  C   UNL     1       2.662  -4.860  15.665  1.00  0.00     0.049 A 
ATOM     37  N   UNL     1       2.694  -3.396  18.299  1.00  0.00    -0.248 NA
ATOM     38  C   UNL     1       0.604  -2.498  17.788  1.00  0.00     0.031 C 
ATOM     39  C   UNL     1       2.728  -5.529  14.363  1.00  0.00     0.029 A 
ATOM     40  N   UNL     1       3.842  -5.206  16.274  1.00  0.00    -0.354 N 
ATOM     41  C   UNL     1       2.305  -2.522  19.307  1.00  0.00     0.074 A 
ATOM     42  C   UNL     1       1.040  -1.950  18.913  1.00  0.00     0.031 C 
ATOM     43  C   UNL     1       3.882  -6.209  14.275  1.00  0.00     0.029 A 
ATOM     44  C   UNL     1       4.653  -6.001  15.497  1.00  0.00     0.049 A 
ATOM     45  H   UNL     1       4.086  -4.913  17.182  1.00  0.00     0.167 HD
ATOM     46  C   UNL     1       2.931  -2.251  20.474  1.00  0.00     0.034 A 
ATOM     47  C   UNL     1       5.882  -6.500  15.740  1.00  0.00     0.034 A 
ATOM     48  C   UNL     1       4.155  -2.877  20.889  1.00  0.00     0.049 A 
ATOM     49  C   UNL     1       6.528  -6.220  17.071  1.00  0.00     0.074 A 
ATOM     50  C   UNL     1       4.814  -2.746  22.098  1.00  0.00     0.029 A 
ATOM     51  N   UNL     1       4.902  -3.748  20.114  1.00  0.00    -0.354 N 
ATOM     52  N   UNL     1       6.065  -5.522  18.080  1.00  0.00    -0.248 NA
ATOM     53  C   UNL     1       7.848  -6.821  17.314  1.00  0.00     0.031 C 
ATOM     54  C   UNL     1       5.977  -3.517  22.043  1.00  0.00     0.029 A 
ATOM     55  C   UNL     1       6.024  -4.153  20.813  1.00  0.00     0.049 A 
ATOM     56  H   UNL     1       4.669  -4.036  19.202  1.00  0.00     0.167 HD
ATOM     57  C   UNL     1       7.020  -5.624  19.085  1.00  0.00     0.074 A 
ATOM     58  C   UNL     1       8.074  -6.475  18.574  1.00  0.00     0.031 C 
ATOM     59  C   UNL     1       7.034  -5.048  20.311  1.00  0.00     0.034 A 
BRANCH  46  60
ATOM     60  C   UNL     1       2.278  -1.294  21.436  1.00  0.00     0.023 A 
ATOM     61  C   UNL     1       1.139  -1.706  22.155  1.00  0.00     0.012 A 
ATOM     62  C   UNL     1       2.871  -0.050  21.728  1.00  0.00     0.148 A 
ATOM     63  C   UNL     1       0.594  -0.892  23.147  1.00  0.00     0.002 A 
ATOM     64  C   UNL     1       2.351   0.734  22.750  1.00  0.00     0.091 A 
ATOM     65  F   UNL     1       3.943   0.329  21.017  1.00  0.00    -0.205 F 
ATOM     66  C   UNL     1       1.208   0.318  23.455  1.00  0.00     0.022 A 
BRANCH  64  67
ATOM     67  S   UNL     1       3.120   2.265  23.291  1.00  0.00     0.127 S 
ATOM     68  O   UNL     1       2.071   3.242  22.997  1.00  0.00    -0.237 OA
ATOM     69  O   UNL     1       3.334   2.010  24.715  1.00  0.00    -0.237 OA
ATOM     70  O   UNL     1       4.334   2.410  22.501  1.00  0.00    -0.744 OA
ENDBRANCH  64  67
ENDBRANCH  46  60
BRANCH  47  71
ATOM     71  C   UNL     1       6.551  -7.365  14.726  1.00  0.00     0.023 A 
ATOM     72  C   UNL     1       6.744  -8.733  15.000  1.00  0.00     0.012 A 
ATOM     73  C   UNL     1       6.970  -6.851  13.483  1.00  0.00     0.148 A 
ATOM     74  C   UNL     1       7.372  -9.565  14.071  1.00  0.00     0.002 A 
ATOM     75  C   UNL     1       7.538  -7.698  12.537  1.00  0.00     0.091 A 
ATOM     76  F   UNL     1       6.793  -5.544  13.243  1.00  0.00    -0.205 F 
ATOM     77  C   UNL     1       7.758  -9.051  12.837  1.00  0.00     0.022 A 
BRANCH  75  78
ATOM     78  S   UNL     1       7.929  -7.152  10.871  1.00  0.00     0.127 S 
ATOM     79  O   UNL     1       9.388  -7.102  10.906  1.00  0.00    -0.237 OA
ATOM     80  O   UNL     1       7.367  -8.231  10.058  1.00  0.00    -0.237 OA
ATOM     81  O   UNL     1       7.253  -5.871  10.712  1.00  0.00    -0.744 OA
ENDBRANCH  75  78
ENDBRANCH  47  71
BRANCH  59  82
ATOM     82  C   UNL     1       8.211  -5.320  21.211  1.00  0.00     0.023 A 
ATOM     83  C   UNL     1       9.454  -4.723  20.927  1.00  0.00     0.012 A 
ATOM     84  C   UNL     1       8.049  -6.053  22.404  1.00  0.00     0.148 A 
ATOM     85  C   UNL     1      10.526  -4.869  21.807  1.00  0.00     0.002 A 
ATOM     86  C   UNL     1       9.104  -6.148  23.301  1.00  0.00     0.091 A 
ATOM     87  F   UNL     1       6.859  -6.623  22.647  1.00  0.00    -0.205 F 
ATOM     88  C   UNL     1      10.347  -5.566  22.999  1.00  0.00     0.022 A 
BRANCH  86  89
ATOM     89  S   UNL     1       8.936  -6.926  24.912  1.00  0.00     0.127 S 
ATOM     90  O   UNL     1       9.764  -8.121  24.752  1.00  0.00    -0.237 OA
ATOM     91  O   UNL     1       9.496  -5.912  25.805  1.00  0.00    -0.237 OA
ATOM     92  O   UNL     1       7.513  -7.175  25.093  1.00  0.00    -0.744 OA
ENDBRANCH  86  89
ENDBRANCH  59  82
ENDBRANCH  33  34
ENDBRANCH  25  28
ENDBRANCH   1  24
TORSDOF 14
