REMARK SMILES CC[NH2+][C@@]1(C(=O)NCCCNC(=O)c2ccc(-c3c4nc(c(-c5cccc(S(=O)(=O)[O-])c5F)c5ccc([nH]5)c(-c5cccc(S(=O)(=O)[O-])c5F)c5nc(c(-c6cccc(S(=O)(=O)[O-])c6F)c6ccc3[nH]6)C=C5)C=C4)cc2)CC[C@@H](n2cnc3ccccc32)C1
REMARK SMILES IDX 9 1 8 2 7 3 5 4 6 5 4 7 77 8 89 9 78 10 79 11 3 12 2 15 1 16
REMARK SMILES IDX 80 17 81 18 88 19 82 20 83 21 87 22 84 23 86 24 85 25 10 26
REMARK SMILES IDX 11 27 12 28 13 30 14 31 15 32 76 33 16 34 75 35 17 36 18 37
REMARK SMILES IDX 19 38 69 39 20 40 74 41 68 42 70 43 21 44 73 45 67 46 66 47
REMARK SMILES IDX 22 49 54 50 34 51 53 52 35 53 38 54 52 55 71 56 36 57 37 58
REMARK SMILES IDX 51 60 72 61 39 62 23 63 24 64 32 65 25 66 27 67 33 68 26 69
REMARK SMILES IDX 28 70 29 71 30 72 31 73 55 74 56 75 64 76 57 77 59 78 65 79
REMARK SMILES IDX 58 80 60 81 61 82 62 83 63 84 40 85 41 86 49 87 42 88 44 89
REMARK SMILES IDX 50 90 43 91 45 92 46 93 47 94 48 95
REMARK H PARENT 7 6 3 13 3 14 11 29 70 48 38 59
REMARK Flexibility Score: inf
ROOT
ATOM      1  C   UNL     1       0.236   1.767   7.492  1.00  0.00     0.042 C 
ENDROOT
BRANCH   1   2
ATOM      2  C   UNL     1       0.838   2.880   6.627  1.00  0.00     0.118 C 
BRANCH   2   3
ATOM      3  N   UNL     1       1.712   2.418   5.538  1.00  0.00    -0.351 N 
ATOM      4  C   UNL     1       1.739   2.471   4.156  1.00  0.00     0.281 C 
ATOM      5  O   UNL     1       2.936   2.622   3.844  1.00  0.00    -0.268 OA
ATOM      6  H   UNL     1       2.496   1.938   5.891  1.00  0.00     0.163 HD
BRANCH   4   7
ATOM      7  C   UNL     1       0.268   2.382   3.019  1.00  0.00     0.177 C 
ATOM      8  C   UNL     1      -0.490   3.849   3.711  1.00  0.00     0.081 C 
ATOM      9  C   UNL     1      -0.699   1.448   4.253  1.00  0.00     0.104 C 
ATOM     10  C   UNL     1      -1.860   3.480   4.350  1.00  0.00     0.033 C 
ATOM     11  C   UNL     1      -2.098   1.976   4.122  1.00  0.00     0.096 C 
BRANCH   7  12
ATOM     12  N   UNL     1       0.348   1.869   0.979  1.00  0.00    -0.334 N 
ATOM     13  H   UNL     1      -0.060   2.700   0.552  1.00  0.00     0.347 HD
ATOM     14  H   UNL     1       1.263   1.431   1.089  1.00  0.00     0.347 HD
BRANCH  12  15
ATOM     15  C   UNL     1      -0.117   0.762  -0.023  1.00  0.00     0.257 C 
ATOM     16  C   UNL     1       1.004   0.465  -1.023  1.00  0.00     0.071 C 
ENDBRANCH  12  15
ENDBRANCH   7  12
BRANCH  11  17
ATOM     17  N   UNL     1      -2.456   1.591   2.752  1.00  0.00    -0.327 N 
ATOM     18  C   UNL     1      -3.231   2.460   1.978  1.00  0.00     0.200 A 
ATOM     19  C   UNL     1      -1.288   1.306   2.017  1.00  0.00     0.068 A 
ATOM     20  N   UNL     1      -2.534   3.434   1.406  1.00  0.00    -0.237 NA
ATOM     21  C   UNL     1      -1.236   3.006   1.492  1.00  0.00     0.088 A 
ATOM     22  C   UNL     1       0.299   0.395   2.344  1.00  0.00     0.028 A 
ATOM     23  C   UNL     1       0.353   3.873   1.367  1.00  0.00     0.030 A 
ATOM     24  C   UNL     1       1.879   1.239   2.092  1.00  0.00     0.002 A 
ATOM     25  C   UNL     1       1.899   3.001   1.668  1.00  0.00     0.002 A 
ENDBRANCH  11  17
ENDBRANCH   4   7
ENDBRANCH   2   3
ENDBRANCH   1   2
BRANCH   1  26
ATOM     26  C   UNL     1       1.264   1.081   8.361  1.00  0.00     0.118 C 
BRANCH  26  27
ATOM     27  N   UNL     1       1.726   1.988   9.397  1.00  0.00    -0.352 N 
ATOM     28  C   UNL     1       1.215   2.158  10.660  1.00  0.00     0.251 C 
ATOM     29  H   UNL     1       2.501   2.551   9.165  1.00  0.00     0.163 HD
ATOM     30  O   UNL     1       1.343   3.241  11.223  1.00  0.00    -0.269 OA
BRANCH  28  31
ATOM     31  C   UNL     1       0.540   1.028  11.337  1.00  0.00     0.039 A 
ATOM     32  C   UNL     1      -0.437   1.282  12.301  1.00  0.00     0.014 A 
ATOM     33  C   UNL     1       0.934  -0.287  11.075  1.00  0.00     0.014 A 
ATOM     34  C   UNL     1      -0.997   0.216  13.007  1.00  0.00     0.010 A 
ATOM     35  C   UNL     1       0.268  -1.348  11.663  1.00  0.00     0.010 A 
ATOM     36  C   UNL     1      -0.643  -1.107  12.693  1.00  0.00    -0.014 A 
BRANCH  36  37
ATOM     37  C   UNL     1      -1.121  -2.252  13.502  1.00  0.00     0.031 A 
ATOM     38  C   UNL     1      -0.119  -3.126  14.217  1.00  0.00     0.074 A 
ATOM     39  C   UNL     1      -2.436  -2.532  13.549  1.00  0.00     0.049 A 
ATOM     40  N   UNL     1      -0.326  -4.187  14.952  1.00  0.00    -0.248 NA
ATOM     41  C   UNL     1       1.309  -2.792  14.053  1.00  0.00     0.031 C 
ATOM     42  C   UNL     1      -3.483  -1.808  12.827  1.00  0.00     0.029 A 
ATOM     43  N   UNL     1      -3.112  -3.512  14.225  1.00  0.00    -0.354 N 
ATOM     44  C   UNL     1       0.934  -4.663  15.296  1.00  0.00     0.074 A 
ATOM     45  C   UNL     1       1.903  -3.818  14.639  1.00  0.00     0.031 C 
ATOM     46  C   UNL     1      -4.675  -2.351  13.121  1.00  0.00     0.029 A 
ATOM     47  C   UNL     1      -4.471  -3.480  14.023  1.00  0.00     0.049 A 
ATOM     48  H   UNL     1      -2.668  -4.176  14.801  1.00  0.00     0.167 HD
ATOM     49  C   UNL     1       1.262  -5.686  16.119  1.00  0.00     0.034 A 
ATOM     50  C   UNL     1      -5.440  -4.274  14.515  1.00  0.00     0.034 A 
ATOM     51  C   UNL     1       0.290  -6.489  16.806  1.00  0.00     0.049 A 
ATOM     52  C   UNL     1      -5.056  -5.367  15.474  1.00  0.00     0.074 A 
ATOM     53  C   UNL     1       0.500  -7.498  17.727  1.00  0.00     0.029 A 
ATOM     54  N   UNL     1      -1.082  -6.371  16.643  1.00  0.00    -0.354 N 
ATOM     55  N   UNL     1      -3.864  -5.713  15.899  1.00  0.00    -0.248 NA
ATOM     56  C   UNL     1      -6.154  -6.147  16.058  1.00  0.00     0.031 C 
ATOM     57  C   UNL     1      -0.747  -8.015  18.095  1.00  0.00     0.029 A 
ATOM     58  C   UNL     1      -1.734  -7.293  17.442  1.00  0.00     0.049 A 
ATOM     59  H   UNL     1      -1.527  -5.727  16.047  1.00  0.00     0.167 HD
ATOM     60  C   UNL     1      -4.072  -6.720  16.834  1.00  0.00     0.074 A 
ATOM     61  C   UNL     1      -5.506  -6.909  16.927  1.00  0.00     0.031 C 
ATOM     62  C   UNL     1      -3.163  -7.431  17.548  1.00  0.00     0.034 A 
BRANCH  49  63
ATOM     63  C   UNL     1       2.727  -5.962  16.347  1.00  0.00     0.023 A 
ATOM     64  C   UNL     1       3.519  -5.030  17.052  1.00  0.00     0.012 A 
ATOM     65  C   UNL     1       3.314  -7.159  15.895  1.00  0.00     0.148 A 
ATOM     66  C   UNL     1       4.878  -5.263  17.261  1.00  0.00     0.002 A 
ATOM     67  C   UNL     1       4.657  -7.410  16.155  1.00  0.00     0.091 A 
ATOM     68  F   UNL     1       2.555  -8.024  15.207  1.00  0.00    -0.205 F 
ATOM     69  C   UNL     1       5.443  -6.457  16.823  1.00  0.00     0.022 A 
BRANCH  67  70
ATOM     70  S   UNL     1       5.460  -8.953  15.709  1.00  0.00     0.127 S 
ATOM     71  O   UNL     1       6.393  -8.511  14.673  1.00  0.00    -0.237 OA
ATOM     72  O   UNL     1       6.089  -9.345  16.970  1.00  0.00    -0.237 OA
ATOM     73  O   UNL     1       4.400  -9.842  15.253  1.00  0.00    -0.744 OA
ENDBRANCH  67  70
ENDBRANCH  49  63
BRANCH  50  74
ATOM     74  C   UNL     1      -6.865  -4.014  14.169  1.00  0.00     0.023 A 
ATOM     75  C   UNL     1      -7.747  -3.536  15.158  1.00  0.00     0.012 A 
ATOM     76  C   UNL     1      -7.345  -4.218  12.862  1.00  0.00     0.148 A 
ATOM     77  C   UNL     1      -9.091  -3.309  14.863  1.00  0.00     0.002 A 
ATOM     78  C   UNL     1      -8.670  -3.934  12.559  1.00  0.00     0.091 A 
ATOM     79  F   UNL     1      -6.489  -4.674  11.936  1.00  0.00    -0.205 F 
ATOM     80  C   UNL     1      -9.551  -3.499  13.562  1.00  0.00     0.022 A 
BRANCH  78  81
ATOM     81  S   UNL     1      -9.315  -4.022  10.886  1.00  0.00     0.127 S 
ATOM     82  O   UNL     1     -10.232  -5.155  10.979  1.00  0.00    -0.237 OA
ATOM     83  O   UNL     1      -9.959  -2.716  10.744  1.00  0.00    -0.237 OA
ATOM     84  O   UNL     1      -8.156  -4.216  10.025  1.00  0.00    -0.744 OA
ENDBRANCH  78  81
ENDBRANCH  50  74
BRANCH  62  85
ATOM     85  C   UNL     1      -3.696  -8.434  18.536  1.00  0.00     0.023 A 
ATOM     86  C   UNL     1      -4.337  -9.606  18.088  1.00  0.00     0.012 A 
ATOM     87  C   UNL     1      -3.521  -8.227  19.919  1.00  0.00     0.148 A 
ATOM     88  C   UNL     1      -4.848 -10.526  19.001  1.00  0.00     0.002 A 
ATOM     89  C   UNL     1      -3.978  -9.178  20.821  1.00  0.00     0.091 A 
ATOM     90  F   UNL     1      -2.922  -7.098  20.327  1.00  0.00    -0.205 F 
ATOM     91  C   UNL     1      -4.660 -10.318  20.366  1.00  0.00     0.022 A 
BRANCH  89  92
ATOM     92  S   UNL     1      -3.681  -9.041  22.586  1.00  0.00     0.127 S 
ATOM     93  O   UNL     1      -5.003  -8.662  23.082  1.00  0.00    -0.237 OA
ATOM     94  O   UNL     1      -3.263 -10.399  22.936  1.00  0.00    -0.237 OA
ATOM     95  O   UNL     1      -2.640  -8.033  22.740  1.00  0.00    -0.744 OA
ENDBRANCH  89  92
ENDBRANCH  62  85
ENDBRANCH  36  37
ENDBRANCH  28  31
ENDBRANCH  26  27
ENDBRANCH   1  26
TORSDOF 16
