REMARK SMILES CC(C)[NH2+][C@@H](C(=O)NCCCNC(=O)c1ccc(-c2c3nc(c(-c4cccc(S(=O)(=O)[O-])c4F)c4ccc([nH]4)c(-c4cccc(S(=O)(=O)[O-])c4F)c4nc(c(-c5cccc(S(=O)(=O)[O-])c5F)c5ccc2[nH]5)C=C4)C=C3)cc1)c1c[nH]c2ccc(Br)cc12
REMARK SMILES IDX 10 1 9 2 8 3 6 4 7 5 5 7 4 8 2 11 1 12 3 13 78 14 79 15
REMARK SMILES IDX 87 16 80 17 81 18 86 19 82 21 84 22 83 23 85 24 11 25 12 26
REMARK SMILES IDX 13 27 14 29 15 30 16 31 77 32 17 33 76 34 18 35 19 36 20 37
REMARK SMILES IDX 70 38 21 39 75 40 69 41 71 42 22 43 74 44 68 45 67 46 23 48
REMARK SMILES IDX 55 49 35 50 54 51 36 52 39 53 53 54 72 55 37 56 38 57 52 59
REMARK SMILES IDX 73 60 40 61 24 62 25 63 33 64 26 65 28 66 34 67 27 68 29 69
REMARK SMILES IDX 30 70 31 71 32 72 56 73 57 74 65 75 58 76 60 77 66 78 59 79
REMARK SMILES IDX 61 80 62 81 63 82 64 83 41 84 42 85 50 86 43 87 45 88 51 89
REMARK SMILES IDX 44 90 46 91 47 92 48 93 49 94
REMARK H PARENT 8 6 4 9 4 10 80 20 12 28 71 47 39 58
REMARK Flexibility Score: inf
ROOT
ATOM      1  C   UNL     1       2.667   3.163  -0.067  1.00  0.00     0.042 C 
ENDROOT
BRANCH   1   2
ATOM      2  C   UNL     1       1.330   3.822   0.360  1.00  0.00     0.118 C 
BRANCH   2   3
ATOM      3  N   UNL     1       0.384   4.119  -0.713  1.00  0.00    -0.351 N 
ATOM      4  C   UNL     1      -0.904   3.752  -1.020  1.00  0.00     0.283 C 
ATOM      5  O   UNL     1      -1.419   4.445  -1.911  1.00  0.00    -0.268 OA
ATOM      6  H   UNL     1       0.763   4.735  -1.381  1.00  0.00     0.163 HD
BRANCH   4   7
ATOM      7  C   UNL     1      -1.723   2.679  -0.261  1.00  0.00     0.306 C 
BRANCH   7   8
ATOM      8  N   UNL     1      -1.062   1.423   0.145  1.00  0.00    -0.330 N 
ATOM      9  H   UNL     1      -0.793   1.559   1.119  1.00  0.00     0.347 HD
ATOM     10  H   UNL     1      -1.774   0.744  -0.125  1.00  0.00     0.347 HD
BRANCH   8  11
ATOM     11  C   UNL     1       0.098   0.853  -0.498  1.00  0.00     0.176 C 
ATOM     12  C   UNL     1       0.255  -0.615  -0.089  1.00  0.00     0.075 C 
ATOM     13  C   UNL     1       0.252   0.977  -2.012  1.00  0.00     0.075 C 
ENDBRANCH   8  11
ENDBRANCH   7   8
BRANCH   7  14
ATOM     14  C   UNL     1      -3.084   2.237  -0.867  1.00  0.00     0.044 A 
ATOM     15  C   UNL     1      -3.861   1.233  -0.252  1.00  0.00     0.094 A 
ATOM     16  C   UNL     1      -3.465   1.991  -2.238  1.00  0.00     0.010 A 
ATOM     17  N   UNL     1      -3.383   0.145  -1.028  1.00  0.00    -0.361 N 
ATOM     18  C   UNL     1      -3.462   0.592  -2.339  1.00  0.00     0.046 A 
ATOM     19  C   UNL     1      -3.811   2.727  -3.388  1.00  0.00     0.026 A 
ATOM     20  H   UNL     1      -3.067  -0.730  -0.708  1.00  0.00     0.166 HD
ATOM     21  C   UNL     1      -3.506  -0.106  -3.545  1.00  0.00     0.028 A 
ATOM     22  C   UNL     1      -4.096   2.013  -4.566  1.00  0.00     0.018 A 
ATOM     23  C   UNL     1      -3.875   0.637  -4.665  1.00  0.00     0.018 A 
ATOM     24  Br  UNL     1      -4.885   2.912  -6.038  1.00  0.00    -0.051 Br
ENDBRANCH   7  14
ENDBRANCH   4   7
ENDBRANCH   2   3
ENDBRANCH   1   2
BRANCH   1  25
ATOM     25  C   UNL     1       3.288   3.614  -1.389  1.00  0.00     0.118 C 
BRANCH  25  26
ATOM     26  N   UNL     1       4.364   4.564  -1.170  1.00  0.00    -0.352 N 
ATOM     27  C   UNL     1       5.717   4.412  -1.366  1.00  0.00     0.251 C 
ATOM     28  H   UNL     1       4.085   5.445  -0.832  1.00  0.00     0.163 HD
ATOM     29  O   UNL     1       6.485   5.218  -0.844  1.00  0.00    -0.269 OA
BRANCH  27  30
ATOM     30  C   UNL     1       6.268   3.300  -2.184  1.00  0.00     0.039 A 
ATOM     31  C   UNL     1       7.430   2.654  -1.744  1.00  0.00     0.014 A 
ATOM     32  C   UNL     1       5.709   2.938  -3.414  1.00  0.00     0.014 A 
ATOM     33  C   UNL     1       7.998   1.623  -2.504  1.00  0.00     0.010 A 
ATOM     34  C   UNL     1       6.252   1.879  -4.151  1.00  0.00     0.010 A 
ATOM     35  C   UNL     1       7.401   1.206  -3.705  1.00  0.00    -0.014 A 
BRANCH  35  36
ATOM     36  C   UNL     1       7.930   0.035  -4.463  1.00  0.00     0.031 A 
ATOM     37  C   UNL     1       8.511   0.196  -5.844  1.00  0.00     0.074 A 
ATOM     38  C   UNL     1       7.804  -1.201  -3.937  1.00  0.00     0.049 A 
ATOM     39  N   UNL     1       8.955  -0.725  -6.662  1.00  0.00    -0.248 NA
ATOM     40  C   UNL     1       8.595   1.562  -6.384  1.00  0.00     0.031 C 
ATOM     41  C   UNL     1       7.202  -1.506  -2.637  1.00  0.00     0.029 A 
ATOM     42  N   UNL     1       8.136  -2.435  -4.444  1.00  0.00    -0.354 N 
ATOM     43  C   UNL     1       9.333  -0.061  -7.824  1.00  0.00     0.074 A 
ATOM     44  C   UNL     1       9.064   1.345  -7.607  1.00  0.00     0.031 C 
ATOM     45  C   UNL     1       7.188  -2.836  -2.458  1.00  0.00     0.029 A 
ATOM     46  C   UNL     1       7.745  -3.484  -3.642  1.00  0.00     0.049 A 
ATOM     47  H   UNL     1       8.608  -2.557  -5.299  1.00  0.00     0.167 HD
ATOM     48  C   UNL     1       9.868  -0.572  -8.959  1.00  0.00     0.034 A 
ATOM     49  C   UNL     1       7.799  -4.817  -3.843  1.00  0.00     0.034 A 
ATOM     50  C   UNL     1      10.178  -1.964  -9.160  1.00  0.00     0.049 A 
ATOM     51  C   UNL     1       8.408  -5.350  -5.112  1.00  0.00     0.074 A 
ATOM     52  C   UNL     1      10.834  -2.550 -10.230  1.00  0.00     0.029 A 
ATOM     53  N   UNL     1       9.832  -2.989  -8.296  1.00  0.00    -0.354 N 
ATOM     54  N   UNL     1       8.943  -4.690  -6.110  1.00  0.00    -0.248 NA
ATOM     55  C   UNL     1       8.445  -6.812  -5.273  1.00  0.00     0.031 C 
ATOM     56  C   UNL     1      10.848  -3.934 -10.032  1.00  0.00     0.029 A 
ATOM     57  C   UNL     1      10.228  -4.207  -8.825  1.00  0.00     0.049 A 
ATOM     58  H   UNL     1       9.373  -2.870  -7.433  1.00  0.00     0.167 HD
ATOM     59  C   UNL     1       9.399  -5.655  -7.003  1.00  0.00     0.074 A 
ATOM     60  C   UNL     1       9.111  -6.944  -6.412  1.00  0.00     0.031 C 
ATOM     61  C   UNL     1       9.983  -5.486  -8.214  1.00  0.00     0.034 A 
BRANCH  48  62
ATOM     62  C   UNL     1      10.203   0.371 -10.085  1.00  0.00     0.023 A 
ATOM     63  C   UNL     1      11.343   1.193  -9.990  1.00  0.00     0.012 A 
ATOM     64  C   UNL     1       9.470   0.340 -11.290  1.00  0.00     0.148 A 
ATOM     65  C   UNL     1      11.743   1.979 -11.070  1.00  0.00     0.002 A 
ATOM     66  C   UNL     1       9.897   1.096 -12.375  1.00  0.00     0.091 A 
ATOM     67  F   UNL     1       8.383  -0.441 -11.355  1.00  0.00    -0.205 F 
ATOM     68  C   UNL     1      11.029   1.922 -12.264  1.00  0.00     0.022 A 
BRANCH  66  69
ATOM     69  S   UNL     1       9.099   1.033 -13.983  1.00  0.00     0.127 S 
ATOM     70  O   UNL     1       8.560   2.386 -14.099  1.00  0.00    -0.237 OA
ATOM     71  O   UNL     1      10.223   0.745 -14.872  1.00  0.00    -0.237 OA
ATOM     72  O   UNL     1       8.101  -0.027 -13.897  1.00  0.00    -0.744 OA
ENDBRANCH  66  69
ENDBRANCH  48  62
BRANCH  49  73
ATOM     73  C   UNL     1       7.269  -5.754  -2.810  1.00  0.00     0.023 A 
ATOM     74  C   UNL     1       8.155  -6.599  -2.115  1.00  0.00     0.012 A 
ATOM     75  C   UNL     1       5.892  -5.818  -2.520  1.00  0.00     0.148 A 
ATOM     76  C   UNL     1       7.675  -7.519  -1.182  1.00  0.00     0.002 A 
ATOM     77  C   UNL     1       5.428  -6.692  -1.544  1.00  0.00     0.091 A 
ATOM     78  F   UNL     1       5.058  -5.022  -3.205  1.00  0.00    -0.205 F 
ATOM     79  C   UNL     1       6.314  -7.560  -0.889  1.00  0.00     0.022 A 
BRANCH  77  80
ATOM     80  S   UNL     1       3.713  -6.698  -1.010  1.00  0.00     0.127 S 
ATOM     81  O   UNL     1       3.195  -7.891  -1.673  1.00  0.00    -0.237 OA
ATOM     82  O   UNL     1       3.845  -6.808   0.444  1.00  0.00    -0.237 OA
ATOM     83  O   UNL     1       3.163  -5.426  -1.460  1.00  0.00    -0.744 OA
ENDBRANCH  77  80
ENDBRANCH  49  73
BRANCH  61  84
ATOM     84  C   UNL     1      10.367  -6.721  -8.987  1.00  0.00     0.023 A 
ATOM     85  C   UNL     1       9.361  -7.512  -9.579  1.00  0.00     0.012 A 
ATOM     86  C   UNL     1      11.720  -7.055  -9.195  1.00  0.00     0.148 A 
ATOM     87  C   UNL     1       9.695  -8.632 -10.339  1.00  0.00     0.002 A 
ATOM     88  C   UNL     1      12.046  -8.145  -9.995  1.00  0.00     0.091 A 
ATOM     89  F   UNL     1      12.661  -6.299  -8.613  1.00  0.00    -0.205 F 
ATOM     90  C   UNL     1      11.035  -8.941 -10.557  1.00  0.00     0.022 A 
BRANCH  88  91
ATOM     91  S   UNL     1      13.742  -8.570 -10.408  1.00  0.00     0.127 S 
ATOM     92  O   UNL     1      13.915  -9.835  -9.694  1.00  0.00    -0.237 OA
ATOM     93  O   UNL     1      13.682  -8.695 -11.864  1.00  0.00    -0.237 OA
ATOM     94  O   UNL     1      14.564  -7.468  -9.927  1.00  0.00    -0.744 OA
ENDBRANCH  88  91
ENDBRANCH  61  84
ENDBRANCH  35  36
ENDBRANCH  27  30
ENDBRANCH  25  26
ENDBRANCH   1  25
TORSDOF 16
