REMARK SMILES Cc1ccc([C@H](C)[N@H+](CC(=O)NCCCNC(=O)c2ccc(-c3c4nc(c(-c5cccc(S(=O)(=O)[O-])c5F)c5ccc([nH]5)c(-c5cccc(S(=O)(=O)[O-])c5F)c5nc(c(-c6cccc(S(=O)(=O)[O-])c6F)c6ccc3[nH]6)C=C5)C=C4)cc2)CC(F)(F)F)cc1
REMARK SMILES IDX 14 1 13 2 12 3 10 4 11 5 9 7 8 8 6 10 7 11 5 12 1 13 2 14
REMARK SMILES IDX 3 15 88 16 4 17 87 18 82 19 83 20 84 21 85 22 86 23 15 24
REMARK SMILES IDX 16 25 17 26 18 28 19 29 20 30 81 31 21 32 80 33 22 34 23 35
REMARK SMILES IDX 24 36 74 37 25 38 79 39 73 40 75 41 26 42 78 43 72 44 71 45
REMARK SMILES IDX 27 47 59 48 39 49 58 50 40 51 43 52 57 53 76 54 41 55 42 56
REMARK SMILES IDX 56 58 77 59 44 60 28 61 29 62 37 63 30 64 32 65 38 66 31 67
REMARK SMILES IDX 33 68 34 69 35 70 36 71 60 72 61 73 69 74 62 75 64 76 70 77
REMARK SMILES IDX 63 78 65 79 66 80 67 81 68 82 45 83 46 84 54 85 47 86 49 87
REMARK SMILES IDX 55 88 48 89 50 90 51 91 52 92 53 93
REMARK H PARENT 12 6 8 9 16 27 75 46 43 57
REMARK Flexibility Score: inf
ROOT
ATOM      1  C   UNL     1      -3.479   2.187  -1.822  1.00  0.00     0.042 C 
ENDROOT
BRANCH   1   2
ATOM      2  C   UNL     1      -4.896   2.257  -1.225  1.00  0.00     0.118 C 
BRANCH   2   3
ATOM      3  N   UNL     1      -5.702   1.061  -1.034  1.00  0.00    -0.351 N 
ATOM      4  C   UNL     1      -5.894   0.204   0.018  1.00  0.00     0.275 C 
ATOM      5  O   UNL     1      -6.957  -0.428   0.031  1.00  0.00    -0.269 OA
ATOM      6  H   UNL     1      -6.221   0.814  -1.833  1.00  0.00     0.163 HD
BRANCH   4   7
ATOM      7  C   UNL     1      -4.823  -0.054   1.095  1.00  0.00     0.364 C 
BRANCH   7   8
ATOM      8  N   UNL     1      -4.045  -1.254   0.743  1.00  0.00    -0.314 N 
ATOM      9  H   UNL     1      -4.739  -1.857   0.302  1.00  0.00     0.349 HD
BRANCH   8  10
ATOM     10  C   UNL     1      -3.102  -1.078  -0.365  1.00  0.00     0.212 C 
ATOM     11  C   UNL     1      -1.629  -0.941   0.037  1.00  0.00     0.081 C 
BRANCH  10  12
ATOM     12  C   UNL     1      -3.424  -2.050  -1.481  1.00  0.00     0.009 A 
ATOM     13  C   UNL     1      -4.923  -5.048  -4.154  1.00  0.00     0.044 C 
ATOM     14  C   UNL     1      -4.381  -3.977  -3.275  1.00  0.00    -0.051 A 
ATOM     15  C   UNL     1      -5.064  -2.778  -3.140  1.00  0.00     0.004 A 
ATOM     16  C   UNL     1      -3.158  -4.155  -2.627  1.00  0.00     0.004 A 
ATOM     17  C   UNL     1      -4.590  -1.842  -2.240  1.00  0.00     0.010 A 
ATOM     18  C   UNL     1      -2.673  -3.192  -1.746  1.00  0.00     0.010 A 
ENDBRANCH  10  12
ENDBRANCH   8  10
BRANCH   8  19
ATOM     19  C   UNL     1      -3.700  -2.186   1.830  1.00  0.00     0.380 C 
BRANCH  19  20
ATOM     20  C   UNL     1      -3.470  -3.689   1.517  1.00  0.00     0.438 C 
ATOM     21  F   UNL     1      -2.250  -3.915   0.985  1.00  0.00    -0.165 F 
ATOM     22  F   UNL     1      -3.513  -4.402   2.675  1.00  0.00    -0.165 F 
ATOM     23  F   UNL     1      -4.410  -4.209   0.706  1.00  0.00    -0.165 F 
ENDBRANCH  19  20
ENDBRANCH   8  19
ENDBRANCH   7   8
ENDBRANCH   4   7
ENDBRANCH   2   3
ENDBRANCH   1   2
BRANCH   1  24
ATOM     24  C   UNL     1      -3.213   1.387  -3.107  1.00  0.00     0.118 C 
BRANCH  24  25
ATOM     25  N   UNL     1      -3.322   2.164  -4.326  1.00  0.00    -0.352 N 
ATOM     26  C   UNL     1      -2.648   1.958  -5.520  1.00  0.00     0.251 C 
ATOM     27  H   UNL     1      -3.945   2.926  -4.303  1.00  0.00     0.163 HD
ATOM     28  O   UNL     1      -2.249   2.943  -6.138  1.00  0.00    -0.269 OA
BRANCH  26  29
ATOM     29  C   UNL     1      -2.606   0.603  -6.136  1.00  0.00     0.039 A 
ATOM     30  C   UNL     1      -2.922   0.521  -7.504  1.00  0.00     0.014 A 
ATOM     31  C   UNL     1      -2.494  -0.566  -5.393  1.00  0.00     0.014 A 
ATOM     32  C   UNL     1      -3.392  -0.674  -8.050  1.00  0.00     0.010 A 
ATOM     33  C   UNL     1      -2.958  -1.751  -5.934  1.00  0.00     0.010 A 
ATOM     34  C   UNL     1      -3.517  -1.774  -7.217  1.00  0.00    -0.014 A 
BRANCH  34  35
ATOM     35  C   UNL     1      -4.280  -2.972  -7.543  1.00  0.00     0.031 A 
ATOM     36  C   UNL     1      -3.615  -4.146  -8.135  1.00  0.00     0.074 A 
ATOM     37  C   UNL     1      -5.529  -3.083  -7.033  1.00  0.00     0.049 A 
ATOM     38  N   UNL     1      -4.234  -5.215  -8.498  1.00  0.00    -0.248 NA
ATOM     39  C   UNL     1      -2.183  -4.200  -8.385  1.00  0.00     0.031 C 
ATOM     40  C   UNL     1      -6.271  -4.316  -6.794  1.00  0.00     0.029 A 
ATOM     41  N   UNL     1      -6.441  -2.086  -6.678  1.00  0.00    -0.354 N 
ATOM     42  C   UNL     1      -3.292  -6.194  -8.714  1.00  0.00     0.074 A 
ATOM     43  C   UNL     1      -2.043  -5.473  -8.772  1.00  0.00     0.031 C 
ATOM     44  C   UNL     1      -7.538  -4.028  -6.474  1.00  0.00     0.029 A 
ATOM     45  C   UNL     1      -7.724  -2.644  -6.837  1.00  0.00     0.049 A 
ATOM     46  H   UNL     1      -6.229  -1.173  -6.375  1.00  0.00     0.167 HD
ATOM     47  C   UNL     1      -3.696  -7.499  -8.670  1.00  0.00     0.034 A 
ATOM     48  C   UNL     1      -8.612  -2.228  -7.791  1.00  0.00     0.034 A 
ATOM     49  C   UNL     1      -5.174  -7.588  -8.554  1.00  0.00     0.049 A 
ATOM     50  C   UNL     1      -8.945  -3.326  -8.807  1.00  0.00     0.074 A 
ATOM     51  C   UNL     1      -6.055  -7.935  -7.541  1.00  0.00     0.029 A 
ATOM     52  N   UNL     1      -5.962  -7.028  -9.556  1.00  0.00    -0.354 N 
ATOM     53  N   UNL     1      -8.477  -4.547  -8.767  1.00  0.00    -0.248 NA
ATOM     54  C   UNL     1      -9.787  -3.121  -9.980  1.00  0.00     0.031 C 
ATOM     55  C   UNL     1      -7.375  -7.553  -7.941  1.00  0.00     0.029 A 
ATOM     56  C   UNL     1      -7.307  -7.003  -9.210  1.00  0.00     0.049 A 
ATOM     57  H   UNL     1      -5.607  -6.691 -10.411  1.00  0.00     0.167 HD
ATOM     58  C   UNL     1      -8.794  -5.234  -9.909  1.00  0.00     0.074 A 
ATOM     59  C   UNL     1      -9.652  -4.297 -10.623  1.00  0.00     0.031 C 
ATOM     60  C   UNL     1      -8.280  -6.483 -10.177  1.00  0.00     0.034 A 
BRANCH  47  61
ATOM     61  C   UNL     1      -2.790  -8.727  -8.528  1.00  0.00     0.023 A 
ATOM     62  C   UNL     1      -3.419  -9.971  -8.280  1.00  0.00     0.012 A 
ATOM     63  C   UNL     1      -1.372  -8.769  -8.557  1.00  0.00     0.148 A 
ATOM     64  C   UNL     1      -2.704 -11.150  -8.019  1.00  0.00     0.002 A 
ATOM     65  C   UNL     1      -0.653  -9.943  -8.294  1.00  0.00     0.091 A 
ATOM     66  F   UNL     1      -0.673  -7.678  -8.849  1.00  0.00    -0.205 F 
ATOM     67  C   UNL     1      -1.318 -11.135  -8.014  1.00  0.00     0.022 A 
BRANCH  65  68
ATOM     68  S   UNL     1       1.154  -9.996  -8.267  1.00  0.00     0.127 S 
ATOM     69  O   UNL     1       1.425 -10.409  -6.889  1.00  0.00    -0.237 OA
ATOM     70  O   UNL     1       1.454 -11.012  -9.275  1.00  0.00    -0.237 OA
ATOM     71  O   UNL     1       1.617  -8.653  -8.596  1.00  0.00    -0.744 OA
ENDBRANCH  65  68
ENDBRANCH  47  61
BRANCH  48  72
ATOM     72  C   UNL     1      -8.498  -0.760  -8.046  1.00  0.00     0.023 A 
ATOM     73  C   UNL     1      -8.750   0.080  -6.930  1.00  0.00     0.012 A 
ATOM     74  C   UNL     1      -7.708  -0.269  -9.097  1.00  0.00     0.148 A 
ATOM     75  C   UNL     1      -8.061   1.283  -6.772  1.00  0.00     0.002 A 
ATOM     76  C   UNL     1      -7.038   0.944  -8.938  1.00  0.00     0.091 A 
ATOM     77  F   UNL     1      -7.539  -1.031 -10.185  1.00  0.00    -0.205 F 
ATOM     78  C   UNL     1      -7.167   1.690  -7.755  1.00  0.00     0.022 A 
BRANCH  76  79
ATOM     79  S   UNL     1      -5.876   1.525 -10.180  1.00  0.00     0.127 S 
ATOM     80  O   UNL     1      -6.744   2.321 -11.041  1.00  0.00    -0.237 OA
ATOM     81  O   UNL     1      -4.921   2.300  -9.389  1.00  0.00    -0.237 OA
ATOM     82  O   UNL     1      -5.322   0.310 -10.760  1.00  0.00    -0.744 OA
ENDBRANCH  76  79
ENDBRANCH  48  72
BRANCH  60  83
ATOM     83  C   UNL     1      -8.585  -7.323 -11.420  1.00  0.00     0.023 A 
ATOM     84  C   UNL     1      -9.724  -7.102 -12.214  1.00  0.00     0.012 A 
ATOM     85  C   UNL     1      -7.766  -8.422 -11.811  1.00  0.00     0.148 A 
ATOM     86  C   UNL     1      -9.953  -7.803 -13.406  1.00  0.00     0.002 A 
ATOM     87  C   UNL     1      -7.998  -9.129 -12.988  1.00  0.00     0.091 A 
ATOM     88  F   UNL     1      -6.778  -8.842 -11.015  1.00  0.00    -0.205 F 
ATOM     89  C   UNL     1      -9.074  -8.798 -13.808  1.00  0.00     0.022 A 
BRANCH  87  90
ATOM     90  S   UNL     1      -6.954 -10.498 -13.514  1.00  0.00     0.127 S 
ATOM     91  O   UNL     1      -7.861 -11.635 -13.354  1.00  0.00    -0.237 OA
ATOM     92  O   UNL     1      -6.665 -10.139 -14.903  1.00  0.00    -0.237 OA
ATOM     93  O   UNL     1      -5.797 -10.494 -12.632  1.00  0.00    -0.744 OA
ENDBRANCH  87  90
ENDBRANCH  60  83
ENDBRANCH  34  35
ENDBRANCH  26  29
ENDBRANCH  24  25
ENDBRANCH   1  24
TORSDOF 18
