REMARK SMILES C[C@@H]1CCC[C@@]1(C[NH3+])C(=O)NCCCNC(=O)c1ccc(-c2c3nc(c(-c4cccc(S(=O)(=O)[O-])c4F)c4ccc([nH]4)c(-c4cccc(S(=O)(=O)[O-])c4F)c4nc(c(-c5cccc(S(=O)(=O)[O-])c5F)c5ccc2[nH]5)C=C4)C=C3)cc1
REMARK SMILES IDX 13 1 12 2 11 3 9 4 10 5 6 7 1 8 2 9 3 10 4 11 5 12 7 13 8 14
REMARK SMILES IDX 14 18 15 19 16 20 17 22 18 23 19 24 80 25 20 26 79 27 21 28
REMARK SMILES IDX 22 29 23 30 73 31 24 32 78 33 72 34 74 35 25 36 77 37 71 38
REMARK SMILES IDX 70 39 26 41 58 42 38 43 57 44 39 45 42 46 56 47 75 48 40 49
REMARK SMILES IDX 41 50 55 52 76 53 43 54 27 55 28 56 36 57 29 58 31 59 37 60
REMARK SMILES IDX 30 61 32 62 33 63 34 64 35 65 59 66 60 67 68 68 61 69 63 70
REMARK SMILES IDX 69 71 62 72 64 73 65 74 66 75 67 76 44 77 45 78 53 79 46 80
REMARK SMILES IDX 48 81 54 82 47 83 49 84 50 85 51 86 52 87
REMARK H PARENT 11 6 8 15 8 16 8 17 15 21 74 40 42 51
REMARK Flexibility Score: inf
ROOT
ATOM      1  C   UNL     1       1.597   4.051   2.623  1.00  0.00     0.042 C 
ENDROOT
BRANCH   1   2
ATOM      2  C   UNL     1       1.571   2.525   2.712  1.00  0.00     0.117 C 
BRANCH   2   3
ATOM      3  N   UNL     1       0.213   2.013   2.721  1.00  0.00    -0.355 N 
ATOM      4  C   UNL     1      -0.580   1.476   1.753  1.00  0.00     0.232 C 
ATOM      5  O   UNL     1      -1.723   1.183   2.119  1.00  0.00    -0.274 OA
ATOM      6  H   UNL     1      -0.221   2.063   3.603  1.00  0.00     0.163 HD
BRANCH   4   7
ATOM      7  C   UNL     1      -0.067   1.155   0.316  1.00  0.00     0.100 C 
ATOM      8  C   UNL     1       1.861  -0.287  -0.731  1.00  0.00     0.009 C 
ATOM      9  C   UNL     1       0.893  -0.065   0.427  1.00  0.00     0.007 C 
ATOM     10  C   UNL     1      -0.071  -1.254   0.559  1.00  0.00     0.005 C 
ATOM     11  C   UNL     1      -1.244  -0.928  -0.350  1.00  0.00     0.002 C 
ATOM     12  C   UNL     1      -1.258   0.592  -0.516  1.00  0.00     0.023 C 
BRANCH   7  13
ATOM     13  C   UNL     1       0.478   2.455  -0.334  1.00  0.00     0.276 C 
BRANCH  13  14
ATOM     14  N   UNL     1       0.622   2.470  -1.793  1.00  0.00    -0.357 N 
ATOM     15  H   UNL     1       1.319   1.781  -2.073  1.00  0.00     0.344 HD
ATOM     16  H   UNL     1       0.920   3.398  -2.095  1.00  0.00     0.344 HD
ATOM     17  H   UNL     1      -0.274   2.243  -2.225  1.00  0.00     0.344 HD
ENDBRANCH  13  14
ENDBRANCH   7  13
ENDBRANCH   4   7
ENDBRANCH   2   3
ENDBRANCH   1   2
BRANCH   1  18
ATOM     18  C   UNL     1       1.125   4.751   3.898  1.00  0.00     0.118 C 
BRANCH  18  19
ATOM     19  N   UNL     1       2.058   4.564   5.001  1.00  0.00    -0.352 N 
ATOM     20  C   UNL     1       2.751   5.491   5.740  1.00  0.00     0.251 C 
ATOM     21  H   UNL     1       2.217   3.626   5.257  1.00  0.00     0.163 HD
ATOM     22  O   UNL     1       3.661   5.110   6.473  1.00  0.00    -0.269 OA
BRANCH  20  23
ATOM     23  C   UNL     1       2.420   6.932   5.662  1.00  0.00     0.039 A 
ATOM     24  C   UNL     1       3.464   7.863   5.667  1.00  0.00     0.014 A 
ATOM     25  C   UNL     1       1.095   7.375   5.646  1.00  0.00     0.014 A 
ATOM     26  C   UNL     1       3.181   9.231   5.607  1.00  0.00     0.010 A 
ATOM     27  C   UNL     1       0.816   8.736   5.524  1.00  0.00     0.010 A 
ATOM     28  C   UNL     1       1.854   9.680   5.511  1.00  0.00    -0.014 A 
BRANCH  28  29
ATOM     29  C   UNL     1       1.536  11.126   5.378  1.00  0.00     0.031 A 
ATOM     30  C   UNL     1       0.749  11.836   6.448  1.00  0.00     0.074 A 
ATOM     31  C   UNL     1       1.869  11.776   4.245  1.00  0.00     0.049 A 
ATOM     32  N   UNL     1       0.324  13.073   6.473  1.00  0.00    -0.248 NA
ATOM     33  C   UNL     1       0.367  11.050   7.633  1.00  0.00     0.031 C 
ATOM     34  C   UNL     1       2.556  11.177   3.098  1.00  0.00     0.029 A 
ATOM     35  N   UNL     1       1.642  13.072   3.853  1.00  0.00    -0.354 N 
ATOM     36  C   UNL     1      -0.414  13.201   7.644  1.00  0.00     0.074 A 
ATOM     37  C   UNL     1      -0.390  11.912   8.299  1.00  0.00     0.031 C 
ATOM     38  C   UNL     1       2.684  12.099   2.130  1.00  0.00     0.029 A 
ATOM     39  C   UNL     1       2.068  13.345   2.574  1.00  0.00     0.049 A 
ATOM     40  H   UNL     1       1.216  13.743   4.434  1.00  0.00     0.167 HD
ATOM     41  C   UNL     1      -1.037  14.297   8.138  1.00  0.00     0.034 A 
ATOM     42  C   UNL     1       1.964  14.468   1.835  1.00  0.00     0.034 A 
ATOM     43  C   UNL     1      -1.002  15.594   7.517  1.00  0.00     0.049 A 
ATOM     44  C   UNL     1       1.326  15.688   2.443  1.00  0.00     0.074 A 
ATOM     45  C   UNL     1      -1.489  16.794   8.007  1.00  0.00     0.029 A 
ATOM     46  N   UNL     1      -0.462  15.861   6.270  1.00  0.00    -0.354 N 
ATOM     47  N   UNL     1       0.810  15.840   3.638  1.00  0.00    -0.248 NA
ATOM     48  C   UNL     1       1.291  16.904   1.616  1.00  0.00     0.031 C 
ATOM     49  C   UNL     1      -1.265  17.782   7.044  1.00  0.00     0.029 A 
ATOM     50  C   UNL     1      -0.618  17.202   5.965  1.00  0.00     0.049 A 
ATOM     51  H   UNL     1      -0.031  15.195   5.687  1.00  0.00     0.167 HD
ATOM     52  C   UNL     1       0.422  17.173   3.719  1.00  0.00     0.074 A 
ATOM     53  C   UNL     1       0.786  17.792   2.461  1.00  0.00     0.031 C 
ATOM     54  C   UNL     1      -0.196  17.821   4.736  1.00  0.00     0.034 A 
BRANCH  41  55
ATOM     55  C   UNL     1      -1.770  14.170   9.448  1.00  0.00     0.023 A 
ATOM     56  C   UNL     1      -1.040  14.072  10.648  1.00  0.00     0.012 A 
ATOM     57  C   UNL     1      -3.177  14.249   9.497  1.00  0.00     0.148 A 
ATOM     58  C   UNL     1      -1.697  14.032  11.878  1.00  0.00     0.002 A 
ATOM     59  C   UNL     1      -3.822  14.251  10.728  1.00  0.00     0.091 A 
ATOM     60  F   UNL     1      -3.854  14.325   8.343  1.00  0.00    -0.205 F 
ATOM     61  C   UNL     1      -3.085  14.133  11.918  1.00  0.00     0.022 A 
BRANCH  59  62
ATOM     62  S   UNL     1      -5.599  14.457  10.893  1.00  0.00     0.127 S 
ATOM     63  O   UNL     1      -6.008  13.132  11.358  1.00  0.00    -0.237 OA
ATOM     64  O   UNL     1      -5.694  15.513  11.902  1.00  0.00    -0.237 OA
ATOM     65  O   UNL     1      -6.086  14.832   9.573  1.00  0.00    -0.744 OA
ENDBRANCH  59  62
ENDBRANCH  41  55
BRANCH  42  66
ATOM     66  C   UNL     1       2.529  14.512   0.456  1.00  0.00     0.023 A 
ATOM     67  C   UNL     1       3.666  15.303   0.199  1.00  0.00     0.012 A 
ATOM     68  C   UNL     1       1.959  13.770  -0.596  1.00  0.00     0.148 A 
ATOM     69  C   UNL     1       4.200  15.387  -1.087  1.00  0.00     0.002 A 
ATOM     70  C   UNL     1       2.531  13.813  -1.863  1.00  0.00     0.091 A 
ATOM     71  F   UNL     1       0.868  13.035  -0.340  1.00  0.00    -0.205 F 
ATOM     72  C   UNL     1       3.639  14.635  -2.116  1.00  0.00     0.022 A 
BRANCH  70  73
ATOM     73  S   UNL     1       1.952  12.764  -3.202  1.00  0.00     0.127 S 
ATOM     74  O   UNL     1       1.161  13.702  -3.997  1.00  0.00    -0.237 OA
ATOM     75  O   UNL     1       3.207  12.337  -3.824  1.00  0.00    -0.237 OA
ATOM     76  O   UNL     1       1.213  11.689  -2.557  1.00  0.00    -0.744 OA
ENDBRANCH  70  73
ENDBRANCH  42  66
BRANCH  54  77
ATOM     77  C   UNL     1      -0.491  19.287   4.556  1.00  0.00     0.023 A 
ATOM     78  C   UNL     1      -1.524  19.690   3.687  1.00  0.00     0.012 A 
ATOM     79  C   UNL     1       0.201  20.258   5.307  1.00  0.00     0.148 A 
ATOM     80  C   UNL     1      -1.843  21.040   3.545  1.00  0.00     0.002 A 
ATOM     81  C   UNL     1      -0.155  21.596   5.196  1.00  0.00     0.091 A 
ATOM     82  F   UNL     1       1.194  19.855   6.114  1.00  0.00    -0.205 F 
ATOM     83  C   UNL     1      -1.168  21.991   4.307  1.00  0.00     0.022 A 
BRANCH  81  84
ATOM     84  S   UNL     1       0.594  22.875   6.212  1.00  0.00     0.127 S 
ATOM     85  O   UNL     1       1.468  23.546   5.250  1.00  0.00    -0.237 OA
ATOM     86  O   UNL     1      -0.567  23.661   6.631  1.00  0.00    -0.237 OA
ATOM     87  O   UNL     1       1.272  22.178   7.296  1.00  0.00    -0.744 OA
ENDBRANCH  81  84
ENDBRANCH  54  77
ENDBRANCH  28  29
ENDBRANCH  20  23
ENDBRANCH  18  19
ENDBRANCH   1  18
TORSDOF 15
