REMARK SMILES O=C(NCCCNC(=O)[C@]1(CCc2cccnc2)CCC[NH2+]C1)c1ccc(-c2c3nc(c(-c4cccc(S(=O)(=O)[O-])c4F)c4ccc([nH]4)c(-c4cccc(S(=O)(=O)[O-])c4F)c4nc(c(-c5cccc(S(=O)(=O)[O-])c5F)c5ccc2[nH]5)C=C4)C=C3)cc1
REMARK SMILES IDX 5 1 4 2 3 3 1 4 2 5 24 7 25 8 86 9 26 10 85 11 27 12 28 13
REMARK SMILES IDX 29 14 79 15 30 16 84 17 78 18 80 19 31 20 83 21 77 22 76 23
REMARK SMILES IDX 32 25 64 26 44 27 63 28 45 29 48 30 62 31 81 32 46 33 47 34
REMARK SMILES IDX 61 36 82 37 49 38 33 39 34 40 42 41 35 42 37 43 43 44 36 45
REMARK SMILES IDX 38 46 39 47 40 48 41 49 65 50 66 51 74 52 67 53 69 54 75 55
REMARK SMILES IDX 68 56 70 57 71 58 72 59 73 60 50 61 51 62 59 63 52 64 54 65
REMARK SMILES IDX 60 66 53 67 55 68 56 69 57 70 58 71 6 72 7 73 8 74 9 76
REMARK SMILES IDX 10 77 19 78 23 79 20 80 22 81 21 82 11 85 12 86 13 87 14 88
REMARK SMILES IDX 18 89 15 90 17 91 16 92
REMARK H PARENT 3 6 80 24 48 35 7 75 22 83 22 84
REMARK Flexibility Score: inf
ROOT
ATOM      1  C   UNL     1       4.040   2.422  -1.251  1.00  0.00     0.042 C 
ENDROOT
BRANCH   1   2
ATOM      2  C   UNL     1       3.970   1.447  -0.084  1.00  0.00     0.118 C 
BRANCH   2   3
ATOM      3  N   UNL     1       2.613   1.019   0.193  1.00  0.00    -0.352 N 
ATOM      4  O   UNL     1       0.831  -0.343   0.124  1.00  0.00    -0.269 OA
ATOM      5  C   UNL     1       2.052  -0.231   0.073  1.00  0.00     0.251 C 
ATOM      6  H   UNL     1       2.005   1.724   0.513  1.00  0.00     0.163 HD
BRANCH   5   7
ATOM      7  C   UNL     1       2.901  -1.433  -0.132  1.00  0.00     0.039 A 
ATOM      8  C   UNL     1       4.087  -1.622   0.584  1.00  0.00     0.014 A 
ATOM      9  C   UNL     1       2.457  -2.431  -1.005  1.00  0.00     0.014 A 
ATOM     10  C   UNL     1       4.872  -2.755   0.356  1.00  0.00     0.010 A 
ATOM     11  C   UNL     1       3.208  -3.599  -1.179  1.00  0.00     0.010 A 
ATOM     12  C   UNL     1       4.430  -3.768  -0.510  1.00  0.00    -0.014 A 
BRANCH  12  13
ATOM     13  C   UNL     1       5.196  -5.040  -0.624  1.00  0.00     0.031 A 
ATOM     14  C   UNL     1       5.816  -5.472  -1.925  1.00  0.00     0.074 A 
ATOM     15  C   UNL     1       5.293  -5.836   0.461  1.00  0.00     0.049 A 
ATOM     16  N   UNL     1       6.504  -6.555  -2.187  1.00  0.00    -0.248 NA
ATOM     17  C   UNL     1       5.639  -4.583  -3.083  1.00  0.00     0.031 C 
ATOM     18  C   UNL     1       4.684  -5.560   1.765  1.00  0.00     0.029 A 
ATOM     19  N   UNL     1       5.920  -7.045   0.640  1.00  0.00    -0.354 N 
ATOM     20  C   UNL     1       6.811  -6.499  -3.542  1.00  0.00     0.074 A 
ATOM     21  C   UNL     1       6.229  -5.274  -4.051  1.00  0.00     0.031 C 
ATOM     22  C   UNL     1       4.973  -6.561   2.609  1.00  0.00     0.029 A 
ATOM     23  C   UNL     1       5.746  -7.574   1.898  1.00  0.00     0.049 A 
ATOM     24  H   UNL     1       6.443  -7.490  -0.065  1.00  0.00     0.167 HD
ATOM     25  C   UNL     1       7.524  -7.377  -4.289  1.00  0.00     0.034 A 
ATOM     26  C   UNL     1       6.143  -8.750   2.421  1.00  0.00     0.034 A 
ATOM     27  C   UNL     1       8.124  -8.581  -3.774  1.00  0.00     0.049 A 
ATOM     28  C   UNL     1       6.947  -9.693   1.572  1.00  0.00     0.074 A 
ATOM     29  C   UNL     1       8.926  -9.493  -4.440  1.00  0.00     0.029 A 
ATOM     30  N   UNL     1       7.980  -9.051  -2.478  1.00  0.00    -0.354 N 
ATOM     31  N   UNL     1       7.354  -9.546   0.335  1.00  0.00    -0.248 NA
ATOM     32  C   UNL     1       7.375 -10.952   2.200  1.00  0.00     0.031 C 
ATOM     33  C   UNL     1       9.245 -10.527  -3.553  1.00  0.00     0.029 A 
ATOM     34  C   UNL     1       8.667 -10.244  -2.327  1.00  0.00     0.049 A 
ATOM     35  H   UNL     1       7.465  -8.602  -1.769  1.00  0.00     0.167 HD
ATOM     36  C   UNL     1       8.111 -10.675   0.047  1.00  0.00     0.074 A 
ATOM     37  C   UNL     1       8.128 -11.485   1.248  1.00  0.00     0.031 C 
ATOM     38  C   UNL     1       8.723 -11.017  -1.113  1.00  0.00     0.034 A 
BRANCH  25  39
ATOM     39  C   UNL     1       7.739  -7.058  -5.747  1.00  0.00     0.023 A 
ATOM     40  C   UNL     1       8.651  -6.045  -6.108  1.00  0.00     0.012 A 
ATOM     41  C   UNL     1       7.120  -7.822  -6.756  1.00  0.00     0.148 A 
ATOM     42  C   UNL     1       8.925  -5.781  -7.450  1.00  0.00     0.002 A 
ATOM     43  C   UNL     1       7.429  -7.580  -8.091  1.00  0.00     0.091 A 
ATOM     44  F   UNL     1       6.245  -8.771  -6.394  1.00  0.00    -0.205 F 
ATOM     45  C   UNL     1       8.323  -6.554  -8.439  1.00  0.00     0.022 A 
BRANCH  43  46
ATOM     46  S   UNL     1       6.768  -8.570  -9.437  1.00  0.00     0.127 S 
ATOM     47  O   UNL     1       5.866  -7.619 -10.085  1.00  0.00    -0.237 OA
ATOM     48  O   UNL     1       7.973  -8.887 -10.205  1.00  0.00    -0.237 OA
ATOM     49  O   UNL     1       6.123  -9.717  -8.815  1.00  0.00    -0.744 OA
ENDBRANCH  43  46
ENDBRANCH  25  39
BRANCH  26  50
ATOM     50  C   UNL     1       5.817  -9.082   3.837  1.00  0.00     0.023 A 
ATOM     51  C   UNL     1       6.850  -9.136   4.792  1.00  0.00     0.012 A 
ATOM     52  C   UNL     1       4.490  -9.318   4.245  1.00  0.00     0.148 A 
ATOM     53  C   UNL     1       6.572  -9.450   6.123  1.00  0.00     0.002 A 
ATOM     54  C   UNL     1       4.213  -9.572   5.583  1.00  0.00     0.091 A 
ATOM     55  F   UNL     1       3.523  -9.280   3.318  1.00  0.00    -0.205 F 
ATOM     56  C   UNL     1       5.253  -9.657   6.520  1.00  0.00     0.022 A 
BRANCH  54  57
ATOM     57  S   UNL     1       2.532  -9.711   6.201  1.00  0.00     0.127 S 
ATOM     58  O   UNL     1       2.416 -11.149   6.429  1.00  0.00    -0.237 OA
ATOM     59  O   UNL     1       2.586  -8.897   7.416  1.00  0.00    -0.237 OA
ATOM     60  O   UNL     1       1.685  -9.162   5.151  1.00  0.00    -0.744 OA
ENDBRANCH  54  57
ENDBRANCH  26  50
BRANCH  38  61
ATOM     61  C   UNL     1       9.499 -12.308  -1.137  1.00  0.00     0.023 A 
ATOM     62  C   UNL     1       8.814 -13.539  -1.134  1.00  0.00     0.012 A 
ATOM     63  C   UNL     1      10.905 -12.299  -1.226  1.00  0.00     0.148 A 
ATOM     64  C   UNL     1       9.518 -14.742  -1.186  1.00  0.00     0.002 A 
ATOM     65  C   UNL     1      11.597 -13.500  -1.327  1.00  0.00     0.091 A 
ATOM     66  F   UNL     1      11.540 -11.118  -1.206  1.00  0.00    -0.205 F 
ATOM     67  C   UNL     1      10.907 -14.722  -1.294  1.00  0.00     0.022 A 
BRANCH  65  68
ATOM     68  S   UNL     1      13.377 -13.568  -1.565  1.00  0.00     0.127 S 
ATOM     69  O   UNL     1      13.836 -14.026  -0.256  1.00  0.00    -0.237 OA
ATOM     70  O   UNL     1      13.509 -14.554  -2.638  1.00  0.00    -0.237 OA
ATOM     71  O   UNL     1      13.783 -12.218  -1.934  1.00  0.00    -0.744 OA
ENDBRANCH  65  68
ENDBRANCH  38  61
ENDBRANCH  12  13
ENDBRANCH   5   7
ENDBRANCH   2   3
ENDBRANCH   1   2
BRANCH   1  72
ATOM     72  C   UNL     1       3.646   3.859  -0.913  1.00  0.00     0.117 C 
BRANCH  72  73
ATOM     73  N   UNL     1       4.427   4.456   0.161  1.00  0.00    -0.355 N 
ATOM     74  C   UNL     1       5.463   5.336   0.230  1.00  0.00     0.231 C 
ATOM     75  H   UNL     1       4.135   4.151   1.051  1.00  0.00     0.163 HD
ATOM     76  O   UNL     1       5.792   5.666   1.375  1.00  0.00    -0.274 OA
BRANCH  74  77
ATOM     77  C   UNL     1       6.205   5.904  -1.002  1.00  0.00     0.098 C 
ATOM     78  C   UNL     1       7.464   6.739  -0.611  1.00  0.00     0.028 C 
ATOM     79  C   UNL     1       5.247   6.881  -1.740  1.00  0.00     0.277 C 
ATOM     80  C   UNL     1       7.155   8.051   0.103  1.00  0.00     0.063 C 
ATOM     81  N   UNL     1       4.926   8.088  -0.966  1.00  0.00    -0.345 N 
ATOM     82  C   UNL     1       6.115   8.870  -0.644  1.00  0.00     0.260 C 
ATOM     83  H   UNL     1       4.289   8.668  -1.511  1.00  0.00     0.346 HD
ATOM     84  H   UNL     1       4.499   7.792  -0.088  1.00  0.00     0.346 HD
BRANCH  77  85
ATOM     85  C   UNL     1       6.687   4.765  -1.950  1.00  0.00     0.028 C 
BRANCH  85  86
ATOM     86  C   UNL     1       7.846   3.840  -1.487  1.00  0.00     0.038 C 
BRANCH  86  87
ATOM     87  C   UNL     1       7.680   2.947  -0.282  1.00  0.00    -0.030 A 
ATOM     88  C   UNL     1       7.491   1.567  -0.414  1.00  0.00     0.007 A 
ATOM     89  C   UNL     1       7.810   3.420   1.022  1.00  0.00     0.114 A 
ATOM     90  C   UNL     1       7.390   0.756   0.719  1.00  0.00     0.020 A 
ATOM     91  N   UNL     1       7.697   2.663   2.140  1.00  0.00    -0.264 NA
ATOM     92  C   UNL     1       7.481   1.349   1.965  1.00  0.00     0.111 A 
ENDBRANCH  86  87
ENDBRANCH  85  86
ENDBRANCH  77  85
ENDBRANCH  74  77
ENDBRANCH  72  73
ENDBRANCH   1  72
TORSDOF 16
