REMARK SMILES CSc1cccc(N2C[C@@H](C(=O)NCCCNC(=O)c3ccc(-c4c5nc(c(-c6cccc(S(=O)(=O)[O-])c6F)c6ccc([nH]6)c(-c6cccc(S(=O)(=O)[O-])c6F)c6nc(c(-c7cccc(S(=O)(=O)[O-])c7F)c7ccc4[nH]7)C=C6)C=C5)cc3)CC2=O)c1
REMARK SMILES IDX 15 1 14 2 13 3 11 4 12 5 10 7 8 8 9 9 84 10 83 11 85 12 7 13
REMARK SMILES IDX 3 14 4 15 86 16 5 17 6 18 2 19 1 20 16 21 17 22 18 23 19 25
REMARK SMILES IDX 20 26 21 27 82 28 22 29 81 30 23 31 24 32 25 33 75 34 26 35
REMARK SMILES IDX 80 36 74 37 76 38 27 39 79 40 73 41 72 42 28 44 60 45 40 46
REMARK SMILES IDX 59 47 41 48 44 49 58 50 77 51 42 52 43 53 57 55 78 56 45 57
REMARK SMILES IDX 29 58 30 59 38 60 31 61 33 62 39 63 32 64 34 65 35 66 36 67
REMARK SMILES IDX 37 68 61 69 62 70 70 71 63 72 65 73 71 74 64 75 66 76 67 77
REMARK SMILES IDX 68 78 69 79 46 80 47 81 55 82 48 83 50 84 56 85 49 86 51 87
REMARK SMILES IDX 52 88 53 89 54 90
REMARK H PARENT 13 6 17 24 76 43 44 54
REMARK Flexibility Score: inf
ROOT
ATOM      1  C   UNL     1       2.066   9.036   1.648  1.00  0.00     0.042 C 
ENDROOT
BRANCH   1   2
ATOM      2  C   UNL     1       2.743   8.080   2.624  1.00  0.00     0.117 C 
BRANCH   2   3
ATOM      3  N   UNL     1       2.911   8.653   3.951  1.00  0.00    -0.356 N 
ATOM      4  C   UNL     1       2.381   8.325   5.157  1.00  0.00     0.225 C 
ATOM      5  O   UNL     1       2.772   8.965   6.138  1.00  0.00    -0.275 OA
ATOM      6  H   UNL     1       3.523   9.423   3.980  1.00  0.00     0.163 HD
BRANCH   4   7
ATOM      7  C   UNL     1       1.376   7.208   5.347  1.00  0.00     0.107 C 
ATOM      8  N   UNL     1       0.962   5.155   4.266  1.00  0.00    -0.312 N 
ATOM      9  C   UNL     1       1.953   5.833   5.063  1.00  0.00     0.139 C 
ATOM     10  C   UNL     1      -0.100   5.983   3.907  1.00  0.00     0.227 C 
ATOM     11  C   UNL     1       0.111   7.341   4.516  1.00  0.00     0.116 C 
ATOM     12  O   UNL     1      -1.088   5.694   3.249  1.00  0.00    -0.274 OA
BRANCH   8  13
ATOM     13  C   UNL     1       1.104   3.811   3.849  1.00  0.00     0.045 A 
ATOM     14  C   UNL     1       0.794   2.075   2.148  1.00  0.00     0.009 A 
ATOM     15  C   UNL     1       1.323   1.133   3.032  1.00  0.00     0.015 A 
ATOM     16  C   UNL     1       0.662   3.404   2.582  1.00  0.00     0.041 A 
ATOM     17  C   UNL     1       1.759   1.521   4.301  1.00  0.00     0.003 A 
ATOM     18  C   UNL     1       1.677   2.858   4.696  1.00  0.00     0.026 A 
BRANCH  14  19
ATOM     19  S   UNL     1       0.248   1.709   0.483  1.00  0.00    -0.130 SA
ATOM     20  C   UNL     1       0.958   0.076   0.156  1.00  0.00     0.091 C 
ENDBRANCH  14  19
ENDBRANCH   8  13
ENDBRANCH   4   7
ENDBRANCH   2   3
ENDBRANCH   1   2
BRANCH   1  21
ATOM     21  C   UNL     1       2.837  10.324   1.376  1.00  0.00     0.118 C 
BRANCH  21  22
ATOM     22  N   UNL     1       4.132  10.094   0.749  1.00  0.00    -0.352 N 
ATOM     23  C   UNL     1       4.597  10.455  -0.494  1.00  0.00     0.251 C 
ATOM     24  H   UNL     1       4.778   9.600   1.304  1.00  0.00     0.163 HD
ATOM     25  O   UNL     1       5.671  10.007  -0.887  1.00  0.00    -0.269 OA
BRANCH  23  26
ATOM     26  C   UNL     1       3.808  11.353  -1.366  1.00  0.00     0.039 A 
ATOM     27  C   UNL     1       3.692  11.042  -2.724  1.00  0.00     0.014 A 
ATOM     28  C   UNL     1       3.192  12.500  -0.860  1.00  0.00     0.014 A 
ATOM     29  C   UNL     1       2.884  11.829  -3.551  1.00  0.00     0.010 A 
ATOM     30  C   UNL     1       2.325  13.236  -1.666  1.00  0.00     0.010 A 
ATOM     31  C   UNL     1       2.152  12.902  -3.018  1.00  0.00    -0.014 A 
BRANCH  31  32
ATOM     32  C   UNL     1       1.159  13.644  -3.839  1.00  0.00     0.031 A 
ATOM     33  C   UNL     1       1.314  15.118  -4.093  1.00  0.00     0.074 A 
ATOM     34  C   UNL     1       0.055  13.001  -4.273  1.00  0.00     0.049 A 
ATOM     35  N   UNL     1       0.510  15.935  -4.723  1.00  0.00    -0.248 NA
ATOM     36  C   UNL     1       2.519  15.766  -3.550  1.00  0.00     0.031 C 
ATOM     37  C   UNL     1      -0.253  11.590  -4.027  1.00  0.00     0.029 A 
ATOM     38  N   UNL     1      -1.028  13.456  -4.984  1.00  0.00    -0.354 N 
ATOM     39  C   UNL     1       1.089  17.194  -4.626  1.00  0.00     0.074 A 
ATOM     40  C   UNL     1       2.301  17.039  -3.850  1.00  0.00     0.031 C 
ATOM     41  C   UNL     1      -1.440  11.295  -4.579  1.00  0.00     0.029 A 
ATOM     42  C   UNL     1      -1.999  12.501  -5.181  1.00  0.00     0.049 A 
ATOM     43  H   UNL     1      -1.103  14.378  -5.321  1.00  0.00     0.167 HD
ATOM     44  C   UNL     1       0.665  18.368  -5.153  1.00  0.00     0.034 A 
ATOM     45  C   UNL     1      -3.212  12.586  -5.762  1.00  0.00     0.034 A 
ATOM     46  C   UNL     1      -0.526  18.513  -5.947  1.00  0.00     0.049 A 
ATOM     47  C   UNL     1      -3.653  13.899  -6.347  1.00  0.00     0.074 A 
ATOM     48  C   UNL     1      -0.991  19.642  -6.600  1.00  0.00     0.029 A 
ATOM     49  N   UNL     1      -1.452  17.508  -6.182  1.00  0.00    -0.354 N 
ATOM     50  N   UNL     1      -3.012  15.042  -6.387  1.00  0.00    -0.248 NA
ATOM     51  C   UNL     1      -4.973  13.929  -6.993  1.00  0.00     0.031 C 
ATOM     52  C   UNL     1      -2.216  19.329  -7.198  1.00  0.00     0.029 A 
ATOM     53  C   UNL     1      -2.497  17.995  -6.950  1.00  0.00     0.049 A 
ATOM     54  H   UNL     1      -1.378  16.584  -5.851  1.00  0.00     0.167 HD
ATOM     55  C   UNL     1      -3.836  15.917  -7.086  1.00  0.00     0.074 A 
ATOM     56  C   UNL     1      -5.011  15.164  -7.474  1.00  0.00     0.031 C 
ATOM     57  C   UNL     1      -3.643  17.229  -7.368  1.00  0.00     0.034 A 
BRANCH  44  58
ATOM     58  C   UNL     1       1.518  19.590  -4.926  1.00  0.00     0.023 A 
ATOM     59  C   UNL     1       2.763  19.702  -5.580  1.00  0.00     0.012 A 
ATOM     60  C   UNL     1       1.062  20.654  -4.124  1.00  0.00     0.148 A 
ATOM     61  C   UNL     1       3.555  20.837  -5.411  1.00  0.00     0.002 A 
ATOM     62  C   UNL     1       1.836  21.802  -3.998  1.00  0.00     0.091 A 
ATOM     63  F   UNL     1      -0.115  20.523  -3.496  1.00  0.00    -0.205 F 
ATOM     64  C   UNL     1       3.087  21.890  -4.630  1.00  0.00     0.022 A 
BRANCH  62  65
ATOM     65  S   UNL     1       1.289  23.246  -3.080  1.00  0.00     0.127 S 
ATOM     66  O   UNL     1       2.197  23.228  -1.934  1.00  0.00    -0.237 OA
ATOM     67  O   UNL     1       1.535  24.327  -4.035  1.00  0.00    -0.237 OA
ATOM     68  O   UNL     1      -0.114  23.018  -2.767  1.00  0.00    -0.744 OA
ENDBRANCH  62  65
ENDBRANCH  44  58
BRANCH  45  69
ATOM     69  C   UNL     1      -4.080  11.379  -5.856  1.00  0.00     0.023 A 
ATOM     70  C   UNL     1      -4.315  10.789  -7.113  1.00  0.00     0.012 A 
ATOM     71  C   UNL     1      -4.655  10.800  -4.708  1.00  0.00     0.148 A 
ATOM     72  C   UNL     1      -5.133   9.665  -7.230  1.00  0.00     0.002 A 
ATOM     73  C   UNL     1      -5.421   9.648  -4.824  1.00  0.00     0.091 A 
ATOM     74  F   UNL     1      -4.428  11.384  -3.522  1.00  0.00    -0.205 F 
ATOM     75  C   UNL     1      -5.677   9.088  -6.085  1.00  0.00     0.022 A 
BRANCH  73  76
ATOM     76  S   UNL     1      -6.055   8.764  -3.395  1.00  0.00     0.127 S 
ATOM     77  O   UNL     1      -7.492   9.000  -3.511  1.00  0.00    -0.237 OA
ATOM     78  O   UNL     1      -5.630   7.393  -3.678  1.00  0.00    -0.237 OA
ATOM     79  O   UNL     1      -5.406   9.369  -2.240  1.00  0.00    -0.744 OA
ENDBRANCH  73  76
ENDBRANCH  45  69
BRANCH  57  80
ATOM     80  C   UNL     1      -4.712  17.939  -8.158  1.00  0.00     0.023 A 
ATOM     81  C   UNL     1      -5.949  18.238  -7.553  1.00  0.00     0.012 A 
ATOM     82  C   UNL     1      -4.463  18.373  -9.475  1.00  0.00     0.148 A 
ATOM     83  C   UNL     1      -6.934  18.928  -8.258  1.00  0.00     0.002 A 
ATOM     84  C   UNL     1      -5.430  19.106 -10.153  1.00  0.00     0.091 A 
ATOM     85  F   UNL     1      -3.286  18.066 -10.038  1.00  0.00    -0.205 F 
ATOM     86  C   UNL     1      -6.671  19.373  -9.551  1.00  0.00     0.022 A 
BRANCH  84  87
ATOM     87  S   UNL     1      -5.148  19.803 -11.784  1.00  0.00     0.127 S 
ATOM     88  O   UNL     1      -6.052  19.004 -12.610  1.00  0.00    -0.237 OA
ATOM     89  O   UNL     1      -5.559  21.195 -11.601  1.00  0.00    -0.237 OA
ATOM     90  O   UNL     1      -3.729  19.621 -12.062  1.00  0.00    -0.744 OA
ENDBRANCH  84  87
ENDBRANCH  57  80
ENDBRANCH  31  32
ENDBRANCH  23  26
ENDBRANCH  21  22
ENDBRANCH   1  21
TORSDOF 15
