REMARK SMILES CCCCCCNC(=O)Oc1cccc(-c2ccc([C@@H](C)C(=O)NCCCNC(=O)c3ccc(-c4c5nc(c(-c6cccc(S(=O)(=O)[O-])c6F)c6ccc([nH]6)c(-c6cccc(S(=O)(=O)[O-])c6F)c6nc(c(-c7cccc(S(=O)(=O)[O-])c7F)c7ccc4[nH]7)C=C6)C=C5)cc3)cc2[N+](=O)[O-])c1
REMARK SMILES IDX 20 1 21 2 19 3 16 4 17 5 95 6 18 7 94 8 15 9 11 10 12 11
REMARK SMILES IDX 99 12 13 13 14 14 10 15 8 16 7 17 9 19 6 20 5 21 4 22 3 23
REMARK SMILES IDX 2 24 1 25 96 26 97 27 98 28 22 29 23 30 24 31 25 33 26 34
REMARK SMILES IDX 27 35 28 36 29 37 30 39 31 40 32 41 93 42 33 43 92 44 34 45
REMARK SMILES IDX 35 46 36 47 86 48 37 49 91 50 85 51 87 52 38 53 90 54 84 55
REMARK SMILES IDX 83 56 39 58 71 59 51 60 70 61 52 62 55 63 69 64 88 65 53 66
REMARK SMILES IDX 54 67 68 69 89 70 56 71 40 72 41 73 49 74 42 75 44 76 50 77
REMARK SMILES IDX 43 78 45 79 46 80 47 81 48 82 72 83 73 84 81 85 74 86 76 87
REMARK SMILES IDX 82 88 75 89 77 90 78 91 79 92 80 93 57 94 58 95 66 96 59 97
REMARK SMILES IDX 61 98 67 99 60 100 62 101 63 102 64 103 65 104
REMARK H PARENT 7 18 24 32 28 38 87 57 55 68
REMARK Flexibility Score: inf
ROOT
ATOM      1  C   UNL     1      -4.445   0.701 -13.643  1.00  0.00     0.105 C 
ATOM      2  C   UNL     1      -5.573   0.802 -14.668  1.00  0.00     0.023 C 
ENDROOT
BRANCH   1   3
ATOM      3  C   UNL     1      -4.786   1.198 -12.247  1.00  0.00    -0.029 A 
ATOM      4  C   UNL     1      -5.155   2.187  -9.572  1.00  0.00     0.060 A 
ATOM      5  C   UNL     1      -5.457   2.961 -10.707  1.00  0.00     0.016 A 
ATOM      6  C   UNL     1      -4.762   0.858  -9.821  1.00  0.00     0.277 A 
ATOM      7  C   UNL     1      -5.327   2.460 -12.007  1.00  0.00     0.005 A 
ATOM      8  C   UNL     1      -4.535   0.384 -11.132  1.00  0.00     0.090 A 
BRANCH   4   9
ATOM      9  C   UNL     1      -5.210   2.838  -8.244  1.00  0.00    -0.008 A 
ATOM     10  C   UNL     1      -4.197   3.393  -6.105  1.00  0.00     0.133 A 
ATOM     11  C   UNL     1      -5.280   4.196  -5.762  1.00  0.00     0.047 A 
ATOM     12  C   UNL     1      -4.148   2.725  -7.331  1.00  0.00     0.056 A 
ATOM     13  C   UNL     1      -6.332   4.333  -6.659  1.00  0.00     0.004 A 
ATOM     14  C   UNL     1      -6.302   3.651  -7.880  1.00  0.00     0.009 A 
BRANCH  10  15
ATOM     15  O   UNL     1      -3.230   3.181  -5.109  1.00  0.00    -0.410 OA
BRANCH  15  16
ATOM     16  C   UNL     1      -1.884   3.280  -5.425  1.00  0.00     0.412 C 
ATOM     17  N   UNL     1      -1.071   2.917  -4.385  1.00  0.00    -0.321 N 
ATOM     18  H   UNL     1      -0.102   3.030  -4.521  1.00  0.00     0.167 HD
ATOM     19  O   UNL     1      -1.418   3.627  -6.502  1.00  0.00    -0.224 OA
BRANCH  17  20
ATOM     20  C   UNL     1      -1.492   2.384  -3.106  1.00  0.00     0.119 C 
BRANCH  20  21
ATOM     21  C   UNL     1      -0.922   0.984  -2.865  1.00  0.00     0.021 C 
BRANCH  21  22
ATOM     22  C   UNL     1       0.607   0.926  -2.755  1.00  0.00     0.002 C 
BRANCH  22  23
ATOM     23  C   UNL     1       1.216   1.777  -1.635  1.00  0.00    -0.000 C 
BRANCH  23  24
ATOM     24  C   UNL     1       0.733   1.441  -0.222  1.00  0.00    -0.003 C 
ATOM     25  C   UNL     1       1.100   0.032   0.217  1.00  0.00     0.004 C 
ENDBRANCH  23  24
ENDBRANCH  22  23
ENDBRANCH  21  22
ENDBRANCH  20  21
ENDBRANCH  17  20
ENDBRANCH  15  16
ENDBRANCH  10  15
ENDBRANCH   4   9
BRANCH   6  26
ATOM     26  N   UNL     1      -4.653  -0.123  -8.740  1.00  0.00     0.063 N 
ATOM     27  O   UNL     1      -3.754  -0.973  -8.831  1.00  0.00    -0.258 OA
ATOM     28  O   UNL     1      -5.513  -0.104  -7.848  1.00  0.00    -0.258 OA
ENDBRANCH   6  26
ENDBRANCH   1   3
BRANCH   1  29
ATOM     29  C   UNL     1      -3.072   1.169 -14.155  1.00  0.00     0.227 C 
ATOM     30  O   UNL     1      -2.118   0.381 -14.155  1.00  0.00    -0.274 OA
ATOM     31  N   UNL     1      -2.818   2.415 -14.638  1.00  0.00    -0.356 N 
ATOM     32  H   UNL     1      -1.900   2.533 -14.975  1.00  0.00     0.163 HD
BRANCH  31  33
ATOM     33  C   UNL     1      -3.641   3.603 -14.749  1.00  0.00     0.117 C 
BRANCH  33  34
ATOM     34  C   UNL     1      -3.398   4.586 -13.608  1.00  0.00     0.042 C 
BRANCH  34  35
ATOM     35  C   UNL     1      -2.199   5.497 -13.817  1.00  0.00     0.118 C 
BRANCH  35  36
ATOM     36  N   UNL     1      -2.411   6.433 -14.910  1.00  0.00    -0.352 N 
ATOM     37  C   UNL     1      -2.438   7.805 -14.923  1.00  0.00     0.251 C 
ATOM     38  H   UNL     1      -2.561   6.012 -15.787  1.00  0.00     0.163 HD
ATOM     39  O   UNL     1      -2.869   8.370 -15.927  1.00  0.00    -0.269 OA
BRANCH  37  40
ATOM     40  C   UNL     1      -1.960   8.607 -13.771  1.00  0.00     0.039 A 
ATOM     41  C   UNL     1      -2.546   9.857 -13.541  1.00  0.00     0.014 A 
ATOM     42  C   UNL     1      -0.892   8.193 -12.971  1.00  0.00     0.014 A 
ATOM     43  C   UNL     1      -2.068  10.677 -12.515  1.00  0.00     0.010 A 
ATOM     44  C   UNL     1      -0.485   8.964 -11.886  1.00  0.00     0.010 A 
ATOM     45  C   UNL     1      -1.035  10.235 -11.674  1.00  0.00    -0.014 A 
BRANCH  45  46
ATOM     46  C   UNL     1      -0.477  11.117 -10.617  1.00  0.00     0.031 A 
ATOM     47  C   UNL     1       0.966  11.552 -10.679  1.00  0.00     0.074 A 
ATOM     48  C   UNL     1      -1.251  11.492  -9.580  1.00  0.00     0.049 A 
ATOM     49  N   UNL     1       1.633  12.320  -9.857  1.00  0.00    -0.248 NA
ATOM     50  C   UNL     1       1.776  11.033 -11.795  1.00  0.00     0.031 C 
ATOM     51  C   UNL     1      -2.636  11.069  -9.361  1.00  0.00     0.029 A 
ATOM     52  N   UNL     1      -0.978  12.302  -8.507  1.00  0.00    -0.354 N 
ATOM     53  C   UNL     1       2.941  12.344 -10.332  1.00  0.00     0.074 A 
ATOM     54  C   UNL     1       2.985  11.478 -11.488  1.00  0.00     0.031 C 
ATOM     55  C   UNL     1      -3.096  11.634  -8.234  1.00  0.00     0.029 A 
ATOM     56  C   UNL     1      -2.035  12.441  -7.638  1.00  0.00     0.049 A 
ATOM     57  H   UNL     1      -0.108  12.741  -8.371  1.00  0.00     0.167 HD
ATOM     58  C   UNL     1       4.002  13.049  -9.873  1.00  0.00     0.034 A 
ATOM     59  C   UNL     1      -2.139  13.147  -6.495  1.00  0.00     0.034 A 
ATOM     60  C   UNL     1       3.939  13.949  -8.754  1.00  0.00     0.049 A 
ATOM     61  C   UNL     1      -0.970  13.982  -6.049  1.00  0.00     0.074 A 
ATOM     62  C   UNL     1       4.931  14.774  -8.253  1.00  0.00     0.029 A 
ATOM     63  N   UNL     1       2.819  14.145  -7.961  1.00  0.00    -0.354 N 
ATOM     64  N   UNL     1       0.213  14.111  -6.601  1.00  0.00    -0.248 NA
ATOM     65  C   UNL     1      -1.165  14.810  -4.851  1.00  0.00     0.031 C 
ATOM     66  C   UNL     1       4.415  15.455  -7.145  1.00  0.00     0.029 A 
ATOM     67  C   UNL     1       3.092  15.078  -6.977  1.00  0.00     0.049 A 
ATOM     68  H   UNL     1       1.956  13.686  -8.081  1.00  0.00     0.167 HD
ATOM     69  C   UNL     1       0.885  15.067  -5.847  1.00  0.00     0.074 A 
ATOM     70  C   UNL     1      -0.032  15.497  -4.810  1.00  0.00     0.031 C 
ATOM     71  C   UNL     1       2.148  15.538  -5.990  1.00  0.00     0.034 A 
BRANCH  58  72
ATOM     72  C   UNL     1       5.307  12.918 -10.618  1.00  0.00     0.023 A 
ATOM     73  C   UNL     1       5.429  13.466 -11.912  1.00  0.00     0.012 A 
ATOM     74  C   UNL     1       6.424  12.297 -10.025  1.00  0.00     0.148 A 
ATOM     75  C   UNL     1       6.626  13.362 -12.620  1.00  0.00     0.002 A 
ATOM     76  C   UNL     1       7.629  12.242 -10.717  1.00  0.00     0.091 A 
ATOM     77  F   UNL     1       6.287  11.764  -8.803  1.00  0.00    -0.205 F 
ATOM     78  C   UNL     1       7.728  12.760 -12.019  1.00  0.00     0.022 A 
BRANCH  76  79
ATOM     79  S   UNL     1       9.130  11.563 -10.000  1.00  0.00     0.127 S 
ATOM     80  O   UNL     1       9.294  10.331 -10.770  1.00  0.00    -0.237 OA
ATOM     81  O   UNL     1      10.113  12.605 -10.302  1.00  0.00    -0.237 OA
ATOM     82  O   UNL     1       8.852  11.382  -8.582  1.00  0.00    -0.744 OA
ENDBRANCH  76  79
ENDBRANCH  58  72
BRANCH  59  83
ATOM     83  C   UNL     1      -3.429  13.169  -5.748  1.00  0.00     0.023 A 
ATOM     84  C   UNL     1      -4.200  14.348  -5.734  1.00  0.00     0.012 A 
ATOM     85  C   UNL     1      -3.908  12.028  -5.076  1.00  0.00     0.148 A 
ATOM     86  C   UNL     1      -5.405  14.403  -5.033  1.00  0.00     0.002 A 
ATOM     87  C   UNL     1      -5.137  12.072  -4.427  1.00  0.00     0.091 A 
ATOM     88  F   UNL     1      -3.157  10.918  -5.095  1.00  0.00    -0.205 F 
ATOM     89  C   UNL     1      -5.878  13.264  -4.388  1.00  0.00     0.022 A 
BRANCH  87  90
ATOM     90  S   UNL     1      -5.886  10.620  -3.680  1.00  0.00     0.127 S 
ATOM     91  O   UNL     1      -5.781  10.927  -2.256  1.00  0.00    -0.237 OA
ATOM     92  O   UNL     1      -7.245  10.668  -4.222  1.00  0.00    -0.237 OA
ATOM     93  O   UNL     1      -5.098   9.486  -4.143  1.00  0.00    -0.744 OA
ENDBRANCH  87  90
ENDBRANCH  59  83
BRANCH  71  94
ATOM     94  C   UNL     1       2.600  16.617  -5.041  1.00  0.00     0.023 A 
ATOM     95  C   UNL     1       2.847  16.311  -3.688  1.00  0.00     0.012 A 
ATOM     96  C   UNL     1       2.834  17.925  -5.508  1.00  0.00     0.148 A 
ATOM     97  C   UNL     1       3.274  17.302  -2.805  1.00  0.00     0.002 A 
ATOM     98  C   UNL     1       3.311  18.895  -4.633  1.00  0.00     0.091 A 
ATOM     99  F   UNL     1       2.575  18.204  -6.794  1.00  0.00    -0.205 F 
ATOM    100  C   UNL     1       3.516  18.589  -3.279  1.00  0.00     0.022 A 
BRANCH  98 101
ATOM    101  S   UNL     1       3.744  20.547  -5.187  1.00  0.00     0.127 S 
ATOM    102  O   UNL     1       2.595  21.326  -4.731  1.00  0.00    -0.237 OA
ATOM    103  O   UNL     1       4.986  20.807  -4.455  1.00  0.00    -0.237 OA
ATOM    104  O   UNL     1       3.909  20.452  -6.631  1.00  0.00    -0.744 OA
ENDBRANCH  98 101
ENDBRANCH  71  94
ENDBRANCH  45  46
ENDBRANCH  37  40
ENDBRANCH  35  36
ENDBRANCH  34  35
ENDBRANCH  33  34
ENDBRANCH  31  33
ENDBRANCH   1  29
TORSDOF 23
