REMARK SMILES CCCC[C@@H](Sc1nc(OCCC2CCCCC2)cc(OCCC2CCCCC2)n1)C(=O)NCCCNC(=O)c1ccc(-c2c3nc(c(-c4cccc(S(=O)(=O)[O-])c4F)c4ccc([nH]4)c(-c4cccc(S(=O)(=O)[O-])c4F)c4nc(c(-c5cccc(S(=O)(=O)[O-])c5F)c5ccc2[nH]5)C=C4)C=C3)cc1
REMARK SMILES IDX 31 1 32 2 33 3 5 5 4 6 3 7 2 8 1 9 6 10 7 11 8 12 30 13 9 14
REMARK SMILES IDX 20 15 19 16 10 17 11 18 12 19 13 20 14 21 18 22 15 23 17 24
REMARK SMILES IDX 16 25 21 26 22 27 23 28 24 29 25 30 29 31 26 32 28 33 27 34
REMARK SMILES IDX 34 35 35 36 36 37 37 38 38 39 39 41 40 42 41 43 102 44 42 45
REMARK SMILES IDX 101 46 43 47 44 48 45 49 95 50 46 51 100 52 94 53 96 54
REMARK SMILES IDX 47 55 99 56 93 57 92 58 48 60 80 61 60 62 79 63 61 64 64 65
REMARK SMILES IDX 78 66 97 67 62 68 63 69 77 71 98 72 65 73 49 74 50 75 58 76
REMARK SMILES IDX 51 77 53 78 59 79 52 80 54 81 55 82 56 83 57 84 81 85 82 86
REMARK SMILES IDX 90 87 83 88 85 89 91 90 84 91 86 92 87 93 88 94 89 95 66 96
REMARK SMILES IDX 67 97 75 98 68 99 70 100 76 101 69 102 71 103 72 104 73 105
REMARK SMILES IDX 74 106
REMARK H PARENT 33 4 37 40 96 59 64 70
REMARK Flexibility Score: inf
ROOT
ATOM      1  C   UNL     1      -1.500   3.948   0.646  1.00  0.00     0.233 C 
ATOM      2  O   UNL     1      -2.003   3.956  -0.481  1.00  0.00    -0.274 OA
ATOM      3  N   UNL     1      -1.191   5.153   1.220  1.00  0.00    -0.355 N 
ATOM      4  H   UNL     1      -1.381   5.940   0.659  1.00  0.00     0.163 HD
ENDROOT
BRANCH   1   5
ATOM      5  C   UNL     1      -1.222   2.628   1.390  1.00  0.00     0.144 C 
BRANCH   5   6
ATOM      6  C   UNL     1       0.315   2.497   1.542  1.00  0.00     0.025 C 
BRANCH   6   7
ATOM      7  C   UNL     1       0.945   1.145   1.882  1.00  0.00     0.001 C 
BRANCH   7   8
ATOM      8  C   UNL     1       0.583  -0.025   0.969  1.00  0.00    -0.003 C 
ATOM      9  C   UNL     1       1.152   0.095  -0.433  1.00  0.00     0.004 C 
ENDBRANCH   7   8
ENDBRANCH   6   7
ENDBRANCH   5   6
BRANCH   5  10
ATOM     10  S   UNL     1      -2.420   2.679   2.818  1.00  0.00    -0.073 SA
BRANCH  10  11
ATOM     11  C   UNL     1      -1.924   1.319   3.793  1.00  0.00     0.195 A 
ATOM     12  N   UNL     1      -1.776   1.540   5.106  1.00  0.00    -0.187 NA
ATOM     13  N   UNL     1      -1.736   0.153   3.182  1.00  0.00    -0.187 NA
ATOM     14  C   UNL     1      -1.275   0.541   5.836  1.00  0.00     0.221 A 
ATOM     15  C   UNL     1      -1.202  -0.815   3.923  1.00  0.00     0.221 A 
ATOM     16  C   UNL     1      -0.868  -0.628   5.245  1.00  0.00     0.136 A 
BRANCH  14  17
ATOM     17  O   UNL     1      -1.351   0.789   7.177  1.00  0.00    -0.477 OA
BRANCH  17  18
ATOM     18  C   UNL     1      -0.672   0.005   8.150  1.00  0.00     0.231 C 
BRANCH  18  19
ATOM     19  C   UNL     1      -1.374  -1.260   8.711  1.00  0.00     0.045 C 
BRANCH  19  20
ATOM     20  C   UNL     1      -2.272  -2.051   7.756  1.00  0.00    -0.008 C 
ATOM     21  C   UNL     1      -2.571  -3.493   8.186  1.00  0.00     0.004 C 
ATOM     22  C   UNL     1      -3.596  -1.341   7.461  1.00  0.00     0.004 C 
ATOM     23  C   UNL     1      -3.294  -4.229   7.046  1.00  0.00     0.000 C 
ATOM     24  C   UNL     1      -4.264  -1.997   6.260  1.00  0.00     0.000 C 
ATOM     25  C   UNL     1      -4.520  -3.479   6.516  1.00  0.00     0.000 C 
ENDBRANCH  19  20
ENDBRANCH  18  19
ENDBRANCH  17  18
ENDBRANCH  14  17
BRANCH  15  26
ATOM     26  O   UNL     1      -0.909  -1.928   3.190  1.00  0.00    -0.477 OA
BRANCH  26  27
ATOM     27  C   UNL     1      -0.931  -3.201   3.823  1.00  0.00     0.231 C 
BRANCH  27  28
ATOM     28  C   UNL     1       0.388  -3.962   3.598  1.00  0.00     0.045 C 
BRANCH  28  29
ATOM     29  C   UNL     1       1.623  -3.524   4.434  1.00  0.00    -0.008 C 
ATOM     30  C   UNL     1       2.131  -2.123   4.048  1.00  0.00     0.004 C 
ATOM     31  C   UNL     1       1.402  -3.785   5.933  1.00  0.00     0.004 C 
ATOM     32  C   UNL     1       2.892  -1.326   5.102  1.00  0.00     0.000 C 
ATOM     33  C   UNL     1       2.408  -3.083   6.833  1.00  0.00     0.000 C 
ATOM     34  C   UNL     1       2.457  -1.601   6.526  1.00  0.00     0.000 C 
ENDBRANCH  28  29
ENDBRANCH  27  28
ENDBRANCH  26  27
ENDBRANCH  15  26
ENDBRANCH  10  11
ENDBRANCH   5  10
ENDBRANCH   1   5
BRANCH   3  35
ATOM     35  C   UNL     1      -0.627   5.452   2.530  1.00  0.00     0.117 C 
BRANCH  35  36
ATOM     36  C   UNL     1       0.744   6.099   2.417  1.00  0.00     0.042 C 
BRANCH  36  37
ATOM     37  C   UNL     1       0.678   7.511   1.864  1.00  0.00     0.118 C 
BRANCH  37  38
ATOM     38  N   UNL     1      -0.053   8.414   2.747  1.00  0.00    -0.352 N 
ATOM     39  C   UNL     1       0.349   9.610   3.280  1.00  0.00     0.251 C 
ATOM     40  H   UNL     1      -0.961   8.123   2.995  1.00  0.00     0.163 HD
ATOM     41  O   UNL     1      -0.314  10.144   4.170  1.00  0.00    -0.269 OA
BRANCH  39  42
ATOM     42  C   UNL     1       1.588  10.238   2.790  1.00  0.00     0.039 A 
ATOM     43  C   UNL     1       2.494  10.771   3.708  1.00  0.00     0.014 A 
ATOM     44  C   UNL     1       1.862  10.271   1.419  1.00  0.00     0.014 A 
ATOM     45  C   UNL     1       3.707  11.286   3.251  1.00  0.00     0.010 A 
ATOM     46  C   UNL     1       3.107  10.693   0.979  1.00  0.00     0.010 A 
ATOM     47  C   UNL     1       4.036  11.220   1.887  1.00  0.00    -0.014 A 
BRANCH  47  48
ATOM     48  C   UNL     1       5.337  11.715   1.377  1.00  0.00     0.031 A 
ATOM     49  C   UNL     1       5.364  12.841   0.378  1.00  0.00     0.074 A 
ATOM     50  C   UNL     1       6.478  11.101   1.748  1.00  0.00     0.049 A 
ATOM     51  N   UNL     1       6.385  13.358  -0.254  1.00  0.00    -0.248 NA
ATOM     52  C   UNL     1       4.070  13.447   0.018  1.00  0.00     0.031 C 
ATOM     53  C   UNL     1       6.570   9.956   2.658  1.00  0.00     0.029 A 
ATOM     54  N   UNL     1       7.780  11.339   1.386  1.00  0.00    -0.354 N 
ATOM     55  C   UNL     1       5.856  14.325  -1.100  1.00  0.00     0.074 A 
ATOM     56  C   UNL     1       4.420  14.290  -0.942  1.00  0.00     0.031 C 
ATOM     57  C   UNL     1       7.858   9.599   2.790  1.00  0.00     0.029 A 
ATOM     58  C   UNL     1       8.679  10.462   1.948  1.00  0.00     0.049 A 
ATOM     59  H   UNL     1       8.046  12.069   0.781  1.00  0.00     0.167 HD
ATOM     60  C   UNL     1       6.509  15.194  -1.907  1.00  0.00     0.034 A 
ATOM     61  C   UNL     1      10.013  10.363   1.792  1.00  0.00     0.034 A 
ATOM     62  C   UNL     1       7.939  15.251  -2.030  1.00  0.00     0.049 A 
ATOM     63  C   UNL     1      10.712  11.349   0.893  1.00  0.00     0.074 A 
ATOM     64  C   UNL     1       8.705  16.127  -2.778  1.00  0.00     0.029 A 
ATOM     65  N   UNL     1       8.821  14.398  -1.383  1.00  0.00    -0.354 N 
ATOM     66  N   UNL     1      10.206  12.342   0.203  1.00  0.00    -0.248 NA
ATOM     67  C   UNL     1      12.172  11.223   0.779  1.00  0.00     0.031 C 
ATOM     68  C   UNL     1      10.050  15.793  -2.597  1.00  0.00     0.029 A 
ATOM     69  C   UNL     1      10.123  14.728  -1.713  1.00  0.00     0.049 A 
ATOM     70  H   UNL     1       8.559  13.666  -0.779  1.00  0.00     0.167 HD
ATOM     71  C   UNL     1      11.287  12.988  -0.385  1.00  0.00     0.074 A 
ATOM     72  C   UNL     1      12.477  12.284   0.045  1.00  0.00     0.031 C 
ATOM     73  C   UNL     1      11.297  14.058  -1.217  1.00  0.00     0.034 A 
BRANCH  60  74
ATOM     74  C   UNL     1       5.685  16.199  -2.668  1.00  0.00     0.023 A 
ATOM     75  C   UNL     1       5.058  17.250  -1.966  1.00  0.00     0.012 A 
ATOM     76  C   UNL     1       5.583  16.149  -4.072  1.00  0.00     0.148 A 
ATOM     77  C   UNL     1       4.317  18.216  -2.644  1.00  0.00     0.002 A 
ATOM     78  C   UNL     1       4.882  17.143  -4.745  1.00  0.00     0.091 A 
ATOM     79  F   UNL     1       6.171  15.133  -4.719  1.00  0.00    -0.205 F 
ATOM     80  C   UNL     1       4.239  18.169  -4.033  1.00  0.00     0.022 A 
BRANCH  78  81
ATOM     81  S   UNL     1       4.787  17.223  -6.537  1.00  0.00     0.127 S 
ATOM     82  O   UNL     1       3.365  16.969  -6.768  1.00  0.00    -0.237 OA
ATOM     83  O   UNL     1       5.213  18.596  -6.805  1.00  0.00    -0.237 OA
ATOM     84  O   UNL     1       5.689  16.195  -7.036  1.00  0.00    -0.744 OA
ENDBRANCH  78  81
ENDBRANCH  60  74
BRANCH  61  85
ATOM     85  C   UNL     1      10.792   9.335   2.542  1.00  0.00     0.023 A 
ATOM     86  C   UNL     1      11.696   9.748   3.540  1.00  0.00     0.012 A 
ATOM     87  C   UNL     1      10.657   7.961   2.268  1.00  0.00     0.148 A 
ATOM     88  C   UNL     1      12.489   8.819   4.214  1.00  0.00     0.002 A 
ATOM     89  C   UNL     1      11.408   7.035   2.983  1.00  0.00     0.091 A 
ATOM     90  F   UNL     1       9.799   7.584   1.309  1.00  0.00    -0.205 F 
ATOM     91  C   UNL     1      12.340   7.462   3.941  1.00  0.00     0.022 A 
BRANCH  89  92
ATOM     92  S   UNL     1      11.187   5.263   2.785  1.00  0.00     0.127 S 
ATOM     93  O   UNL     1      12.387   4.893   2.041  1.00  0.00    -0.237 OA
ATOM     94  O   UNL     1      11.156   4.803   4.175  1.00  0.00    -0.237 OA
ATOM     95  O   UNL     1       9.924   5.104   2.077  1.00  0.00    -0.744 OA
ENDBRANCH  89  92
ENDBRANCH  61  85
BRANCH  73  96
ATOM     96  C   UNL     1      12.634  14.579  -1.671  1.00  0.00     0.023 A 
ATOM     97  C   UNL     1      13.395  13.850  -2.605  1.00  0.00     0.012 A 
ATOM     98  C   UNL     1      13.097  15.834  -1.227  1.00  0.00     0.148 A 
ATOM     99  C   UNL     1      14.614  14.346  -3.065  1.00  0.00     0.002 A 
ATOM    100  C   UNL     1      14.287  16.345  -1.729  1.00  0.00     0.091 A 
ATOM    101  F   UNL     1      12.365  16.503  -0.325  1.00  0.00    -0.205 F 
ATOM    102  C   UNL     1      15.053  15.597  -2.638  1.00  0.00     0.022 A 
BRANCH 100 103
ATOM    103  S   UNL     1      14.880  17.989  -1.315  1.00  0.00     0.127 S 
ATOM    104  O   UNL     1      16.043  17.684  -0.482  1.00  0.00    -0.237 OA
ATOM    105  O   UNL     1      15.200  18.542  -2.631  1.00  0.00    -0.237 OA
ATOM    106  O   UNL     1      13.780  18.654  -0.630  1.00  0.00    -0.744 OA
ENDBRANCH 100 103
ENDBRANCH  73  96
ENDBRANCH  47  48
ENDBRANCH  39  42
ENDBRANCH  37  38
ENDBRANCH  36  37
ENDBRANCH  35  36
ENDBRANCH   3  35
TORSDOF 26
