REMARK SMILES O=C(CSc1nc2cnccc2n1CCC(F)(F)F)NCCCNC(=O)c1ccc(-c2c3nc(c(-c4cccc(S(=O)(=O)[O-])c4F)c4ccc([nH]4)c(-c4cccc(S(=O)(=O)[O-])c4F)c4nc(c(-c5cccc(S(=O)(=O)[O-])c5F)c5ccc2[nH]5)C=C4)C=C3)cc1
REMARK SMILES IDX 21 1 20 2 1 3 2 4 3 6 4 7 5 8 6 9 13 10 7 11 12 12 8 13
REMARK SMILES IDX 11 14 9 15 10 16 14 17 15 18 16 19 17 20 18 21 19 22 22 23
REMARK SMILES IDX 23 24 24 25 25 26 26 28 27 29 28 30 89 31 29 32 88 33 30 34
REMARK SMILES IDX 31 35 32 36 82 37 33 38 87 39 81 40 83 41 34 42 86 43 80 44
REMARK SMILES IDX 79 45 35 47 67 48 47 49 66 50 48 51 51 52 65 53 84 54 49 55
REMARK SMILES IDX 50 56 64 58 85 59 52 60 36 61 37 62 45 63 38 64 40 65 46 66
REMARK SMILES IDX 39 67 41 68 42 69 43 70 44 71 68 72 69 73 77 74 70 75 72 76
REMARK SMILES IDX 78 77 71 78 73 79 74 80 75 81 76 82 53 83 54 84 62 85 55 86
REMARK SMILES IDX 57 87 63 88 56 89 58 90 59 91 60 92 61 93
REMARK H PARENT 20 5 24 27 83 46 51 57
REMARK Flexibility Score: inf
ROOT
ATOM      1  C   UNL     1       2.339  -0.465  -2.940  1.00  0.00     0.117 C 
ENDROOT
BRANCH   1   2
ATOM      2  N   UNL     1       2.934  -0.558  -1.625  1.00  0.00    -0.355 N 
ATOM      3  O   UNL     1       1.315   0.646  -0.545  1.00  0.00    -0.274 OA
ATOM      4  C   UNL     1       2.412   0.090  -0.539  1.00  0.00     0.230 C 
ATOM      5  H   UNL     1       3.743  -1.107  -1.508  1.00  0.00     0.163 HD
BRANCH   4   6
ATOM      6  C   UNL     1       3.337   0.221   0.646  1.00  0.00     0.178 C 
BRANCH   6   7
ATOM      7  S   UNL     1       4.197  -1.264   1.147  1.00  0.00    -0.078 SA
BRANCH   7   8
ATOM      8  C   UNL     1       3.085  -2.561   1.429  1.00  0.00     0.169 A 
ATOM      9  N   UNL     1       3.522  -3.797   1.314  1.00  0.00    -0.221 NA
ATOM     10  N   UNL     1       1.791  -2.536   1.904  1.00  0.00    -0.318 N 
ATOM     11  C   UNL     1       2.461  -4.611   1.600  1.00  0.00     0.108 A 
ATOM     12  C   UNL     1       1.338  -3.851   1.914  1.00  0.00     0.072 A 
ATOM     13  C   UNL     1       2.367  -6.006   1.603  1.00  0.00     0.141 A 
ATOM     14  C   UNL     1       0.100  -4.452   2.160  1.00  0.00     0.049 A 
ATOM     15  N   UNL     1       1.179  -6.614   1.858  1.00  0.00    -0.262 NA
ATOM     16  C   UNL     1       0.096  -5.841   2.096  1.00  0.00     0.113 A 
BRANCH  10  17
ATOM     17  C   UNL     1       0.969  -1.419   2.316  1.00  0.00     0.134 C 
BRANCH  17  18
ATOM     18  C   UNL     1       1.019  -1.030   3.791  1.00  0.00     0.137 C 
BRANCH  18  19
ATOM     19  C   UNL     1       2.357  -0.559   4.311  1.00  0.00     0.390 C 
ATOM     20  F   UNL     1       2.802   0.521   3.641  1.00  0.00    -0.171 F 
ATOM     21  F   UNL     1       2.243  -0.196   5.610  1.00  0.00    -0.171 F 
ATOM     22  F   UNL     1       3.294  -1.520   4.247  1.00  0.00    -0.171 F 
ENDBRANCH  18  19
ENDBRANCH  17  18
ENDBRANCH  10  17
ENDBRANCH   7   8
ENDBRANCH   6   7
ENDBRANCH   4   6
ENDBRANCH   1   2
BRANCH   1  23
ATOM     23  C   UNL     1       2.771   0.812  -3.659  1.00  0.00     0.042 C 
BRANCH  23  24
ATOM     24  C   UNL     1       4.283   1.063  -3.647  1.00  0.00     0.118 C 
BRANCH  24  25
ATOM     25  N   UNL     1       5.113  -0.036  -4.104  1.00  0.00    -0.352 N 
ATOM     26  C   UNL     1       5.477  -0.521  -5.331  1.00  0.00     0.251 C 
ATOM     27  H   UNL     1       5.503  -0.551  -3.362  1.00  0.00     0.163 HD
ATOM     28  O   UNL     1       6.339  -1.403  -5.333  1.00  0.00    -0.269 OA
BRANCH  26  29
ATOM     29  C   UNL     1       4.846  -0.117  -6.613  1.00  0.00     0.039 A 
ATOM     30  C   UNL     1       4.000   0.979  -6.767  1.00  0.00     0.014 A 
ATOM     31  C   UNL     1       5.076  -0.956  -7.719  1.00  0.00     0.014 A 
ATOM     32  C   UNL     1       3.263   1.135  -7.928  1.00  0.00     0.010 A 
ATOM     33  C   UNL     1       4.384  -0.769  -8.909  1.00  0.00     0.010 A 
ATOM     34  C   UNL     1       3.426   0.237  -8.982  1.00  0.00    -0.014 A 
BRANCH  34  35
ATOM     35  C   UNL     1       2.593   0.451 -10.156  1.00  0.00     0.031 A 
ATOM     36  C   UNL     1       2.738   1.779 -10.815  1.00  0.00     0.074 A 
ATOM     37  C   UNL     1       1.773  -0.491 -10.656  1.00  0.00     0.049 A 
ATOM     38  N   UNL     1       1.838   2.699 -10.948  1.00  0.00    -0.248 NA
ATOM     39  C   UNL     1       4.076   2.169 -11.280  1.00  0.00     0.031 C 
ATOM     40  C   UNL     1       1.691  -1.906 -10.293  1.00  0.00     0.029 A 
ATOM     41  N   UNL     1       0.927  -0.389 -11.718  1.00  0.00    -0.354 N 
ATOM     42  C   UNL     1       2.443   3.716 -11.684  1.00  0.00     0.074 A 
ATOM     43  C   UNL     1       3.847   3.397 -11.748  1.00  0.00     0.031 C 
ATOM     44  C   UNL     1       1.065  -2.573 -11.288  1.00  0.00     0.029 A 
ATOM     45  C   UNL     1       0.603  -1.617 -12.278  1.00  0.00     0.049 A 
ATOM     46  H   UNL     1       0.581   0.469 -12.055  1.00  0.00     0.167 HD
ATOM     47  C   UNL     1       1.730   4.666 -12.348  1.00  0.00     0.034 A 
ATOM     48  C   UNL     1       0.110  -1.813 -13.525  1.00  0.00     0.034 A 
ATOM     49  C   UNL     1       0.356   4.718 -11.940  1.00  0.00     0.049 A 
ATOM     50  C   UNL     1      -0.549  -0.546 -13.933  1.00  0.00     0.074 A 
ATOM     51  C   UNL     1      -0.297   4.963 -10.749  1.00  0.00     0.029 A 
ATOM     52  N   UNL     1      -0.575   4.143 -12.770  1.00  0.00    -0.354 N 
ATOM     53  N   UNL     1      -1.613  -0.063 -13.350  1.00  0.00    -0.248 NA
ATOM     54  C   UNL     1       0.212   0.406 -14.729  1.00  0.00     0.031 C 
ATOM     55  C   UNL     1      -1.415   4.080 -10.760  1.00  0.00     0.029 A 
ATOM     56  C   UNL     1      -1.388   3.384 -11.971  1.00  0.00     0.049 A 
ATOM     57  H   UNL     1      -0.644   4.254 -13.746  1.00  0.00     0.167 HD
ATOM     58  C   UNL     1      -1.415   1.312 -13.342  1.00  0.00     0.074 A 
ATOM     59  C   UNL     1      -0.335   1.546 -14.298  1.00  0.00     0.031 C 
ATOM     60  C   UNL     1      -1.936   2.103 -12.358  1.00  0.00     0.034 A 
BRANCH  47  61
ATOM     61  C   UNL     1       2.204   5.362 -13.592  1.00  0.00     0.023 A 
ATOM     62  C   UNL     1       1.565   6.558 -13.980  1.00  0.00     0.012 A 
ATOM     63  C   UNL     1       3.069   4.752 -14.527  1.00  0.00     0.148 A 
ATOM     64  C   UNL     1       1.772   7.116 -15.246  1.00  0.00     0.002 A 
ATOM     65  C   UNL     1       3.327   5.348 -15.755  1.00  0.00     0.091 A 
ATOM     66  F   UNL     1       3.543   3.524 -14.284  1.00  0.00    -0.205 F 
ATOM     67  C   UNL     1       2.664   6.519 -16.129  1.00  0.00     0.022 A 
BRANCH  65  68
ATOM     68  S   UNL     1       4.505   4.629 -16.902  1.00  0.00     0.127 S 
ATOM     69  O   UNL     1       3.613   3.989 -17.872  1.00  0.00    -0.237 OA
ATOM     70  O   UNL     1       5.202   5.819 -17.402  1.00  0.00    -0.237 OA
ATOM     71  O   UNL     1       5.330   3.747 -16.103  1.00  0.00    -0.744 OA
ENDBRANCH  65  68
ENDBRANCH  47  61
BRANCH  48  72
ATOM     72  C   UNL     1       0.432  -2.906 -14.478  1.00  0.00     0.023 A 
ATOM     73  C   UNL     1      -0.335  -3.049 -15.652  1.00  0.00     0.012 A 
ATOM     74  C   UNL     1       1.627  -3.658 -14.382  1.00  0.00     0.148 A 
ATOM     75  C   UNL     1       0.087  -3.883 -16.697  1.00  0.00     0.002 A 
ATOM     76  C   UNL     1       2.025  -4.510 -15.408  1.00  0.00     0.091 A 
ATOM     77  F   UNL     1       2.440  -3.471 -13.335  1.00  0.00    -0.205 F 
ATOM     78  C   UNL     1       1.265  -4.614 -16.576  1.00  0.00     0.022 A 
BRANCH  76  79
ATOM     79  S   UNL     1       3.529  -5.489 -15.279  1.00  0.00     0.127 S 
ATOM     80  O   UNL     1       3.139  -6.745 -15.921  1.00  0.00    -0.237 OA
ATOM     81  O   UNL     1       4.483  -4.684 -16.035  1.00  0.00    -0.237 OA
ATOM     82  O   UNL     1       3.787  -5.612 -13.849  1.00  0.00    -0.744 OA
ENDBRANCH  76  79
ENDBRANCH  48  72
BRANCH  60  83
ATOM     83  C   UNL     1      -2.916   1.499 -11.384  1.00  0.00     0.023 A 
ATOM     84  C   UNL     1      -2.521   0.496 -10.475  1.00  0.00     0.012 A 
ATOM     85  C   UNL     1      -4.163   2.124 -11.211  1.00  0.00     0.148 A 
ATOM     86  C   UNL     1      -3.352   0.121  -9.417  1.00  0.00     0.002 A 
ATOM     87  C   UNL     1      -4.970   1.777 -10.133  1.00  0.00     0.091 A 
ATOM     88  F   UNL     1      -4.512   3.091 -12.073  1.00  0.00    -0.205 F 
ATOM     89  C   UNL     1      -4.570   0.772  -9.237  1.00  0.00     0.022 A 
BRANCH  87  90
ATOM     90  S   UNL     1      -6.488   2.658  -9.757  1.00  0.00     0.127 S 
ATOM     91  O   UNL     1      -7.504   1.637 -10.004  1.00  0.00    -0.237 OA
ATOM     92  O   UNL     1      -6.302   3.007  -8.347  1.00  0.00    -0.237 OA
ATOM     93  O   UNL     1      -6.527   3.804 -10.657  1.00  0.00    -0.744 OA
ENDBRANCH  87  90
ENDBRANCH  60  83
ENDBRANCH  34  35
ENDBRANCH  26  29
ENDBRANCH  24  25
ENDBRANCH  23  24
ENDBRANCH   1  23
TORSDOF 18
