REMARK SMILES O=C(CSc1nc2ccc(NC(=O)COc3ccc(Cl)cc3)cc2s1)NCCCNC(=O)c1ccc(-c2c3nc(c(-c4cccc(S(=O)(=O)[O-])c4F)c4ccc([nH]4)c(-c4cccc(S(=O)(=O)[O-])c4F)c4nc(c(-c5cccc(S(=O)(=O)[O-])c5F)c5ccc2[nH]5)C=C4)C=C3)cc1
REMARK SMILES IDX 1 1 2 2 26 3 3 5 4 6 5 7 6 8 25 9 7 10 24 11 8 12 23 13 9 14
REMARK SMILES IDX 10 15 11 16 12 17 13 19 14 20 15 21 16 22 17 23 22 24 18 25
REMARK SMILES IDX 21 26 19 27 20 28 27 29 28 30 29 31 30 32 31 33 32 35 33 36
REMARK SMILES IDX 34 37 95 38 35 39 94 40 36 41 37 42 38 43 88 44 39 45 93 46
REMARK SMILES IDX 87 47 89 48 40 49 92 50 86 51 85 52 41 54 73 55 53 56 72 57
REMARK SMILES IDX 54 58 57 59 71 60 90 61 55 62 56 63 70 65 91 66 58 67 42 68
REMARK SMILES IDX 43 69 51 70 44 71 46 72 52 73 45 74 47 75 48 76 49 77 50 78
REMARK SMILES IDX 74 79 75 80 83 81 76 82 78 83 84 84 77 85 79 86 80 87 81 88
REMARK SMILES IDX 82 89 59 90 60 91 68 92 61 93 63 94 69 95 62 96 64 97 65 98
REMARK SMILES IDX 66 99 67 100
REMARK H PARENT 26 4 11 18 30 34 89 53 57 64
REMARK Flexibility Score: inf
ROOT
ATOM      1  O   UNL     1       1.121  -0.510  -0.233  1.00  0.00    -0.274 OA
ATOM      2  C   UNL     1       2.296  -0.189  -0.063  1.00  0.00     0.230 C 
ATOM      3  N   UNL     1       2.934  -0.299   1.153  1.00  0.00    -0.355 N 
ATOM      4  H   UNL     1       3.906  -0.144   1.194  1.00  0.00     0.163 HD
ENDROOT
BRANCH   2   5
ATOM      5  C   UNL     1       3.139   0.341  -1.212  1.00  0.00     0.177 C 
BRANCH   5   6
ATOM      6  S   UNL     1       4.274   1.683  -0.746  1.00  0.00    -0.086 SA
BRANCH   6   7
ATOM      7  C   UNL     1       3.207   3.020  -0.346  1.00  0.00     0.151 A 
ATOM      8  N   UNL     1       3.576   4.257  -0.601  1.00  0.00    -0.230 NA
ATOM      9  S   UNL     1       1.728   2.857   0.495  1.00  0.00    -0.108 S 
ATOM     10  C   UNL     1       2.638   5.145  -0.092  1.00  0.00     0.083 A 
ATOM     11  C   UNL     1       1.557   4.553   0.549  1.00  0.00     0.057 A 
ATOM     12  C   UNL     1       2.686   6.551  -0.138  1.00  0.00     0.032 A 
ATOM     13  C   UNL     1       0.522   5.290   1.143  1.00  0.00     0.047 A 
ATOM     14  C   UNL     1       1.645   7.298   0.441  1.00  0.00     0.028 A 
ATOM     15  C   UNL     1       0.552   6.678   1.058  1.00  0.00     0.042 A 
BRANCH  15  16
ATOM     16  N   UNL     1      -0.438   7.515   1.597  1.00  0.00    -0.323 N 
ATOM     17  C   UNL     1      -1.704   7.300   2.058  1.00  0.00     0.262 C 
ATOM     18  H   UNL     1      -0.160   8.458   1.654  1.00  0.00     0.170 HD
ATOM     19  O   UNL     1      -2.278   8.264   2.584  1.00  0.00    -0.271 OA
BRANCH  17  20
ATOM     20  C   UNL     1      -2.444   5.963   1.927  1.00  0.00     0.329 C 
BRANCH  20  21
ATOM     21  O   UNL     1      -2.385   5.245   0.706  1.00  0.00    -0.484 OA
BRANCH  21  22
ATOM     22  C   UNL     1      -3.157   5.680  -0.331  1.00  0.00     0.120 A 
ATOM     23  C   UNL     1      -3.521   7.005  -0.567  1.00  0.00     0.048 A 
ATOM     24  C   UNL     1      -3.543   4.689  -1.239  1.00  0.00     0.048 A 
ATOM     25  C   UNL     1      -4.279   7.334  -1.695  1.00  0.00     0.024 A 
ATOM     26  C   UNL     1      -4.313   5.013  -2.359  1.00  0.00     0.024 A 
ATOM     27  C   UNL     1      -4.677   6.337  -2.583  1.00  0.00     0.041 A 
ATOM     28  Cl  UNL     1      -5.616   6.751  -3.963  1.00  0.00    -0.084 Cl
ENDBRANCH  21  22
ENDBRANCH  20  21
ENDBRANCH  17  20
ENDBRANCH  15  16
ENDBRANCH   6   7
ENDBRANCH   5   6
ENDBRANCH   2   5
BRANCH   3  29
ATOM     29  C   UNL     1       2.229  -0.634   2.375  1.00  0.00     0.117 C 
BRANCH  29  30
ATOM     30  C   UNL     1       2.512  -2.050   2.857  1.00  0.00     0.042 C 
BRANCH  30  31
ATOM     31  C   UNL     1       3.978  -2.325   3.176  1.00  0.00     0.118 C 
BRANCH  31  32
ATOM     32  N   UNL     1       4.499  -1.502   4.261  1.00  0.00    -0.352 N 
ATOM     33  C   UNL     1       5.163  -1.867   5.407  1.00  0.00     0.251 C 
ATOM     34  H   UNL     1       4.352  -0.534   4.156  1.00  0.00     0.163 HD
ATOM     35  O   UNL     1       5.405  -1.011   6.258  1.00  0.00    -0.269 OA
BRANCH  33  36
ATOM     36  C   UNL     1       5.561  -3.273   5.641  1.00  0.00     0.039 A 
ATOM     37  C   UNL     1       5.381  -3.818   6.916  1.00  0.00     0.014 A 
ATOM     38  C   UNL     1       6.115  -4.055   4.624  1.00  0.00     0.014 A 
ATOM     39  C   UNL     1       5.685  -5.162   7.149  1.00  0.00     0.010 A 
ATOM     40  C   UNL     1       6.341  -5.414   4.837  1.00  0.00     0.010 A 
ATOM     41  C   UNL     1       6.127  -5.985   6.100  1.00  0.00    -0.014 A 
BRANCH  41  42
ATOM     42  C   UNL     1       6.333  -7.444   6.302  1.00  0.00     0.031 A 
ATOM     43  C   UNL     1       7.689  -8.066   6.102  1.00  0.00     0.074 A 
ATOM     44  C   UNL     1       5.273  -8.229   6.587  1.00  0.00     0.049 A 
ATOM     45  N   UNL     1       8.040  -9.324   6.193  1.00  0.00    -0.248 NA
ATOM     46  C   UNL     1       8.791  -7.164   5.728  1.00  0.00     0.031 C 
ATOM     47  C   UNL     1       3.891  -7.764   6.728  1.00  0.00     0.029 A 
ATOM     48  N   UNL     1       5.187  -9.586   6.783  1.00  0.00    -0.354 N 
ATOM     49  C   UNL     1       9.388  -9.370   5.857  1.00  0.00     0.074 A 
ATOM     50  C   UNL     1       9.785  -8.018   5.528  1.00  0.00     0.031 C 
ATOM     51  C   UNL     1       3.098  -8.814   6.995  1.00  0.00     0.029 A 
ATOM     52  C   UNL     1       3.904 -10.030   7.008  1.00  0.00     0.049 A 
ATOM     53  H   UNL     1       5.968 -10.184   6.765  1.00  0.00     0.167 HD
ATOM     54  C   UNL     1      10.227 -10.434   5.847  1.00  0.00     0.034 A 
ATOM     55  C   UNL     1       3.425 -11.276   7.192  1.00  0.00     0.034 A 
ATOM     56  C   UNL     1       9.838 -11.773   6.204  1.00  0.00     0.049 A 
ATOM     57  C   UNL     1       4.382 -12.436   7.201  1.00  0.00     0.074 A 
ATOM     58  C   UNL     1      10.636 -12.899   6.309  1.00  0.00     0.029 A 
ATOM     59  N   UNL     1       8.544 -12.172   6.499  1.00  0.00    -0.354 N 
ATOM     60  N   UNL     1       5.683 -12.434   7.039  1.00  0.00    -0.248 NA
ATOM     61  C   UNL     1       3.812 -13.767   7.456  1.00  0.00     0.031 C 
ATOM     62  C   UNL     1       9.817 -13.987   6.631  1.00  0.00     0.029 A 
ATOM     63  C   UNL     1       8.517 -13.530   6.769  1.00  0.00     0.049 A 
ATOM     64  H   UNL     1       7.760 -11.577   6.513  1.00  0.00     0.167 HD
ATOM     65  C   UNL     1       6.090 -13.753   7.208  1.00  0.00     0.074 A 
ATOM     66  C   UNL     1       4.900 -14.522   7.508  1.00  0.00     0.031 C 
ATOM     67  C   UNL     1       7.336 -14.280   7.113  1.00  0.00     0.034 A 
BRANCH  54  68
ATOM     68  C   UNL     1      11.668 -10.189   5.476  1.00  0.00     0.023 A 
ATOM     69  C   UNL     1      12.506  -9.478   6.360  1.00  0.00     0.012 A 
ATOM     70  C   UNL     1      12.210 -10.718   4.288  1.00  0.00     0.148 A 
ATOM     71  C   UNL     1      13.849  -9.264   6.051  1.00  0.00     0.002 A 
ATOM     72  C   UNL     1      13.561 -10.542   4.010  1.00  0.00     0.091 A 
ATOM     73  F   UNL     1      11.396 -11.376   3.451  1.00  0.00    -0.205 F 
ATOM     74  C   UNL     1      14.378  -9.805   4.882  1.00  0.00     0.022 A 
BRANCH  72  75
ATOM     75  S   UNL     1      14.358 -11.269   2.573  1.00  0.00     0.127 S 
ATOM     76  O   UNL     1      14.652 -10.083   1.768  1.00  0.00    -0.237 OA
ATOM     77  O   UNL     1      15.533 -11.909   3.166  1.00  0.00    -0.237 OA
ATOM     78  O   UNL     1      13.389 -12.189   1.996  1.00  0.00    -0.744 OA
ENDBRANCH  72  75
ENDBRANCH  54  68
BRANCH  55  79
ATOM     79  C   UNL     1       1.969 -11.487   7.435  1.00  0.00     0.023 A 
ATOM     80  C   UNL     1       1.530 -11.907   8.706  1.00  0.00     0.012 A 
ATOM     81  C   UNL     1       1.018 -11.257   6.422  1.00  0.00     0.148 A 
ATOM     82  C   UNL     1       0.175 -12.129   8.953  1.00  0.00     0.002 A 
ATOM     83  C   UNL     1      -0.335 -11.423   6.692  1.00  0.00     0.091 A 
ATOM     84  F   UNL     1       1.457 -10.867   5.217  1.00  0.00    -0.205 F 
ATOM     85  C   UNL     1      -0.757 -11.878   7.950  1.00  0.00     0.022 A 
BRANCH  83  86
ATOM     86  S   UNL     1      -1.613 -10.997   5.505  1.00  0.00     0.127 S 
ATOM     87  O   UNL     1      -2.153 -12.311   5.163  1.00  0.00    -0.237 OA
ATOM     88  O   UNL     1      -2.501 -10.156   6.309  1.00  0.00    -0.237 OA
ATOM     89  O   UNL     1      -0.932 -10.294   4.427  1.00  0.00    -0.744 OA
ENDBRANCH  83  86
ENDBRANCH  55  79
BRANCH  67  90
ATOM     90  C   UNL     1       7.494 -15.755   7.378  1.00  0.00     0.023 A 
ATOM     91  C   UNL     1       7.004 -16.697   6.452  1.00  0.00     0.012 A 
ATOM     92  C   UNL     1       8.190 -16.206   8.518  1.00  0.00     0.148 A 
ATOM     93  C   UNL     1       7.170 -18.064   6.675  1.00  0.00     0.002 A 
ATOM     94  C   UNL     1       8.399 -17.567   8.707  1.00  0.00     0.091 A 
ATOM     95  F   UNL     1       8.633 -15.296   9.398  1.00  0.00    -0.205 F 
ATOM     96  C   UNL     1       7.877 -18.498   7.794  1.00  0.00     0.022 A 
BRANCH  94  97
ATOM     97  S   UNL     1       9.381 -18.213  10.065  1.00  0.00     0.127 S 
ATOM     98  O   UNL     1       8.358 -18.842  10.899  1.00  0.00    -0.237 OA
ATOM     99  O   UNL     1      10.273 -19.150   9.382  1.00  0.00    -0.237 OA
ATOM    100  O   UNL     1      10.051 -17.064  10.660  1.00  0.00    -0.744 OA
ENDBRANCH  94  97
ENDBRANCH  67  90
ENDBRANCH  41  42
ENDBRANCH  33  36
ENDBRANCH  31  32
ENDBRANCH  30  31
ENDBRANCH  29  30
ENDBRANCH   3  29
TORSDOF 19
