REMARK SMILES COc1ccc(-c2cnc(N)c(C(=O)NCCCNC(=O)c3ccc(-c4c5nc(c(-c6cccc(S(=O)(=O)[O-])c6F)c6ccc([nH]6)c(-c6cccc(S(=O)(=O)[O-])c6F)c6nc(c(-c7cccc(S(=O)(=O)[O-])c7F)c7ccc4[nH]7)C=C6)C=C5)cc3)c2)c(C)c1
REMARK SMILES IDX 17 1 16 2 15 3 13 4 14 5 12 7 7 8 8 9 85 10 9 11 10 12 6 13
REMARK SMILES IDX 3 14 4 15 88 16 5 17 86 18 87 19 2 20 1 21 11 22 18 25 19 26
REMARK SMILES IDX 20 27 21 29 22 30 23 31 84 32 24 33 83 34 25 35 26 36 27 37
REMARK SMILES IDX 77 38 28 39 82 40 76 41 78 42 29 43 81 44 75 45 74 46 30 48
REMARK SMILES IDX 62 49 42 50 61 51 43 52 46 53 60 54 79 55 44 56 45 57 59 59
REMARK SMILES IDX 80 60 47 61 31 62 32 63 40 64 33 65 35 66 41 67 34 68 36 69
REMARK SMILES IDX 37 70 38 71 39 72 63 73 64 74 72 75 65 76 67 77 73 78 66 79
REMARK SMILES IDX 68 80 69 81 70 82 71 83 48 84 49 85 57 86 50 87 52 88 58 89
REMARK SMILES IDX 51 90 53 91 54 92 55 93 56 94
REMARK H PARENT 15 6 11 23 11 24 19 28 78 47 46 58
REMARK Flexibility Score: inf
ROOT
ATOM      1  C   UNL     1       2.267  11.482  -3.913  1.00  0.00     0.042 C 
ENDROOT
BRANCH   1   2
ATOM      2  C   UNL     1       3.003  10.747  -2.823  1.00  0.00     0.118 C 
BRANCH   2   3
ATOM      3  N   UNL     1       2.217  10.448  -1.635  1.00  0.00    -0.352 N 
ATOM      4  C   UNL     1       2.073   9.240  -0.986  1.00  0.00     0.255 C 
ATOM      5  O   UNL     1       1.419   9.174   0.053  1.00  0.00    -0.269 OA
ATOM      6  H   UNL     1       1.726  11.206  -1.244  1.00  0.00     0.163 HD
BRANCH   4   7
ATOM      7  C   UNL     1       2.608   7.989  -1.574  1.00  0.00     0.082 A 
ATOM      8  C   UNL     1       2.165   5.698  -2.215  1.00  0.00     0.001 A 
ATOM      9  C   UNL     1       3.340   5.784  -2.960  1.00  0.00     0.122 A 
ATOM     10  C   UNL     1       1.770   6.862  -1.557  1.00  0.00     0.028 A 
ATOM     11  N   UNL     1       4.217   6.807  -2.899  1.00  0.00    -0.238 NA
ATOM     12  C   UNL     1       3.886   7.851  -2.119  1.00  0.00     0.136 A 
BRANCH   8  13
ATOM     13  C   UNL     1       1.551   4.383  -1.981  1.00  0.00    -0.014 A 
ATOM     14  C   UNL     1       0.660   1.773  -1.355  1.00  0.00     0.119 A 
ATOM     15  C   UNL     1       1.997   2.096  -1.194  1.00  0.00     0.047 A 
ATOM     16  C   UNL     1      -0.225   2.731  -1.858  1.00  0.00     0.050 A 
ATOM     17  C   UNL     1       2.425   3.384  -1.489  1.00  0.00     0.013 A 
ATOM     18  C   UNL     1       0.199   4.043  -2.171  1.00  0.00    -0.040 A 
ATOM     19  C   UNL     1      -0.848   5.005  -2.666  1.00  0.00     0.045 C 
BRANCH  14  20
ATOM     20  O   UNL     1       0.139   0.538  -1.078  1.00  0.00    -0.497 OA
ATOM     21  C   UNL     1       0.719  -0.090   0.064  1.00  0.00     0.278 C 
ENDBRANCH  14  20
ENDBRANCH   8  13
BRANCH  12  22
ATOM     22  N   UNL     1       4.909   8.763  -1.960  1.00  0.00    -0.383 N 
ATOM     23  H   UNL     1       5.786   8.597  -2.376  1.00  0.00     0.158 HD
ATOM     24  H   UNL     1       4.761   9.580  -1.431  1.00  0.00     0.158 HD
ENDBRANCH  12  22
ENDBRANCH   4   7
ENDBRANCH   2   3
ENDBRANCH   1   2
BRANCH   1  25
ATOM     25  C   UNL     1       2.190  12.976  -3.695  1.00  0.00     0.118 C 
BRANCH  25  26
ATOM     26  N   UNL     1       3.420  13.668  -4.085  1.00  0.00    -0.352 N 
ATOM     27  C   UNL     1       3.630  14.988  -4.449  1.00  0.00     0.251 C 
ATOM     28  H   UNL     1       4.228  13.105  -4.090  1.00  0.00     0.163 HD
ATOM     29  O   UNL     1       4.757  15.343  -4.785  1.00  0.00    -0.269 OA
BRANCH  27  30
ATOM     30  C   UNL     1       2.536  15.973  -4.281  1.00  0.00     0.039 A 
ATOM     31  C   UNL     1       2.809  17.114  -3.519  1.00  0.00     0.014 A 
ATOM     32  C   UNL     1       1.224  15.612  -4.552  1.00  0.00     0.014 A 
ATOM     33  C   UNL     1       1.795  17.673  -2.750  1.00  0.00     0.010 A 
ATOM     34  C   UNL     1       0.251  16.059  -3.694  1.00  0.00     0.010 A 
ATOM     35  C   UNL     1       0.567  17.028  -2.736  1.00  0.00    -0.014 A 
BRANCH  35  36
ATOM     36  C   UNL     1      -0.474  17.234  -1.749  1.00  0.00     0.031 A 
ATOM     37  C   UNL     1      -1.604  18.114  -2.078  1.00  0.00     0.074 A 
ATOM     38  C   UNL     1      -0.524  16.355  -0.722  1.00  0.00     0.049 A 
ATOM     39  N   UNL     1      -2.523  18.461  -1.248  1.00  0.00    -0.248 NA
ATOM     40  C   UNL     1      -1.763  18.707  -3.403  1.00  0.00     0.031 C 
ATOM     41  C   UNL     1      -1.683  15.995   0.083  1.00  0.00     0.029 A 
ATOM     42  N   UNL     1       0.543  15.714  -0.080  1.00  0.00    -0.354 N 
ATOM     43  C   UNL     1      -3.548  19.003  -1.993  1.00  0.00     0.074 A 
ATOM     44  C   UNL     1      -2.960  19.285  -3.277  1.00  0.00     0.031 C 
ATOM     45  C   UNL     1      -1.257  15.447   1.232  1.00  0.00     0.029 A 
ATOM     46  C   UNL     1       0.182  15.648   1.278  1.00  0.00     0.049 A 
ATOM     47  H   UNL     1       1.372  15.379  -0.493  1.00  0.00     0.167 HD
ATOM     48  C   UNL     1      -4.809  18.970  -1.477  1.00  0.00     0.034 A 
ATOM     49  C   UNL     1       0.843  16.343   2.254  1.00  0.00     0.034 A 
ATOM     50  C   UNL     1      -4.763  18.605  -0.048  1.00  0.00     0.049 A 
ATOM     51  C   UNL     1      -0.046  17.350   2.973  1.00  0.00     0.074 A 
ATOM     52  C   UNL     1      -5.056  17.445   0.650  1.00  0.00     0.029 A 
ATOM     53  N   UNL     1      -4.062  19.422   0.839  1.00  0.00    -0.354 N 
ATOM     54  N   UNL     1      -1.279  17.622   2.635  1.00  0.00    -0.248 NA
ATOM     55  C   UNL     1       0.393  18.152   4.114  1.00  0.00     0.031 C 
ATOM     56  C   UNL     1      -4.389  17.515   1.910  1.00  0.00     0.029 A 
ATOM     57  C   UNL     1      -3.736  18.735   2.000  1.00  0.00     0.049 A 
ATOM     58  H   UNL     1      -3.828  20.362   0.664  1.00  0.00     0.167 HD
ATOM     59  C   UNL     1      -1.734  18.700   3.345  1.00  0.00     0.074 A 
ATOM     60  C   UNL     1      -0.686  18.926   4.329  1.00  0.00     0.031 C 
ATOM     61  C   UNL     1      -2.888  19.365   3.016  1.00  0.00     0.034 A 
BRANCH  48  62
ATOM     62  C   UNL     1      -6.108  19.022  -2.283  1.00  0.00     0.023 A 
ATOM     63  C   UNL     1      -7.312  18.806  -1.572  1.00  0.00     0.012 A 
ATOM     64  C   UNL     1      -6.253  19.157  -3.690  1.00  0.00     0.148 A 
ATOM     65  C   UNL     1      -8.559  18.695  -2.206  1.00  0.00     0.002 A 
ATOM     66  C   UNL     1      -7.500  19.081  -4.322  1.00  0.00     0.091 A 
ATOM     67  F   UNL     1      -5.186  19.315  -4.467  1.00  0.00    -0.205 F 
ATOM     68  C   UNL     1      -8.655  18.835  -3.582  1.00  0.00     0.022 A 
BRANCH  66  69
ATOM     69  S   UNL     1      -7.700  19.265  -6.109  1.00  0.00     0.127 S 
ATOM     70  O   UNL     1      -8.253  17.966  -6.491  1.00  0.00    -0.237 OA
ATOM     71  O   UNL     1      -8.643  20.379  -6.202  1.00  0.00    -0.237 OA
ATOM     72  O   UNL     1      -6.375  19.545  -6.650  1.00  0.00    -0.744 OA
ENDBRANCH  66  69
ENDBRANCH  48  62
BRANCH  49  73
ATOM     73  C   UNL     1       2.302  16.512   1.969  1.00  0.00     0.023 A 
ATOM     74  C   UNL     1       3.071  15.325   1.897  1.00  0.00     0.012 A 
ATOM     75  C   UNL     1       2.808  17.682   1.373  1.00  0.00     0.148 A 
ATOM     76  C   UNL     1       4.222  15.262   1.111  1.00  0.00     0.002 A 
ATOM     77  C   UNL     1       3.967  17.613   0.599  1.00  0.00     0.091 A 
ATOM     78  F   UNL     1       2.112  18.819   1.500  1.00  0.00    -0.205 F 
ATOM     79  C   UNL     1       4.645  16.395   0.426  1.00  0.00     0.022 A 
BRANCH  77  80
ATOM     80  S   UNL     1       4.578  19.038  -0.315  1.00  0.00     0.127 S 
ATOM     81  O   UNL     1       5.575  19.573   0.607  1.00  0.00    -0.237 OA
ATOM     82  O   UNL     1       5.127  18.428  -1.525  1.00  0.00    -0.237 OA
ATOM     83  O   UNL     1       3.402  19.865  -0.545  1.00  0.00    -0.744 OA
ENDBRANCH  77  80
ENDBRANCH  49  73
BRANCH  61  84
ATOM     84  C   UNL     1      -3.304  20.704   3.602  1.00  0.00     0.023 A 
ATOM     85  C   UNL     1      -2.372  21.613   4.142  1.00  0.00     0.012 A 
ATOM     86  C   UNL     1      -4.643  21.161   3.494  1.00  0.00     0.148 A 
ATOM     87  C   UNL     1      -2.753  22.869   4.627  1.00  0.00     0.002 A 
ATOM     88  C   UNL     1      -4.994  22.457   3.866  1.00  0.00     0.091 A 
ATOM     89  F   UNL     1      -5.596  20.333   3.041  1.00  0.00    -0.205 F 
ATOM     90  C   UNL     1      -4.061  23.301   4.470  1.00  0.00     0.022 A 
BRANCH  88  91
ATOM     91  S   UNL     1      -6.601  23.139   3.430  1.00  0.00     0.127 S 
ATOM     92  O   UNL     1      -7.396  22.833   4.616  1.00  0.00    -0.237 OA
ATOM     93  O   UNL     1      -6.304  24.562   3.248  1.00  0.00    -0.237 OA
ATOM     94  O   UNL     1      -6.978  22.451   2.203  1.00  0.00    -0.744 OA
ENDBRANCH  88  91
ENDBRANCH  61  84
ENDBRANCH  35  36
ENDBRANCH  27  30
ENDBRANCH  25  26
ENDBRANCH   1  25
TORSDOF 16
