REMARK SMILES NS(=O)(=O)c1ccc(-n2nc(NC(=O)NCCCCCCCCCCC(=O)NCCCNC(=O)c3ccc(-c4c5nc(c(-c6cccc(S(=O)(=O)[O-])c6F)c6ccc([nH]6)c(-c6cccc(S(=O)(=O)[O-])c6F)c6nc(c(-c7cccc(S(=O)(=O)[O-])c7F)c7ccc4[nH]7)C=C6)C=C5)cc3)cc2-c2ccccc2)cc1
REMARK SMILES IDX 22 1 21 2 20 3 19 4 18 5 17 6 16 7 15 8 12 9 13 10 14 12
REMARK SMILES IDX 11 14 9 15 10 16 99 17 98 18 8 19 5 20 6 21 107 22 7 23
REMARK SMILES IDX 106 24 2 25 3 26 4 27 1 28 100 31 101 32 105 33 102 34
REMARK SMILES IDX 104 35 103 36 23 37 24 38 25 39 26 40 27 41 28 42 29 44
REMARK SMILES IDX 30 45 31 46 32 47 33 48 34 50 35 51 36 52 97 53 37 54 96 55
REMARK SMILES IDX 38 56 39 57 40 58 90 59 41 60 95 61 89 62 91 63 42 64 94 65
REMARK SMILES IDX 88 66 87 67 43 69 75 70 55 71 74 72 56 73 59 74 73 75 92 76
REMARK SMILES IDX 57 77 58 78 72 80 93 81 60 82 44 83 45 84 53 85 46 86 48 87
REMARK SMILES IDX 54 88 47 89 49 90 50 91 51 92 52 93 76 94 77 95 85 96 78 97
REMARK SMILES IDX 80 98 86 99 79 100 81 101 82 102 83 103 84 104 61 105 62 106
REMARK SMILES IDX 70 107 63 108 65 109 71 110 64 111 66 112 67 113 68 114
REMARK SMILES IDX 69 115
REMARK H PARENT 12 11 15 13 1 29 1 30 28 43 32 49 91 68 59 79
REMARK Flexibility Score: inf
ROOT
ATOM      1  C   UNL     1      -3.406   2.949   3.815  1.00  0.00     0.000 C 
ENDROOT
BRANCH   1   2
ATOM      2  C   UNL     1      -2.087   2.491   4.393  1.00  0.00     0.000 C 
BRANCH   2   3
ATOM      3  C   UNL     1      -1.360   3.574   5.179  1.00  0.00     0.000 C 
BRANCH   3   4
ATOM      4  C   UNL     1      -2.093   4.184   6.379  1.00  0.00     0.000 C 
BRANCH   4   5
ATOM      5  C   UNL     1      -2.593   3.212   7.454  1.00  0.00     0.002 C 
BRANCH   5   6
ATOM      6  C   UNL     1      -1.615   2.130   7.910  1.00  0.00     0.021 C 
BRANCH   6   7
ATOM      7  C   UNL     1      -0.188   2.580   8.180  1.00  0.00     0.117 C 
BRANCH   7   8
ATOM      8  N   UNL     1       0.054   3.247   9.432  1.00  0.00    -0.338 N 
ATOM      9  N   UNL     1       2.336   2.655   9.791  1.00  0.00    -0.291 N 
ATOM     10  C   UNL     1       1.192   3.277  10.164  1.00  0.00     0.320 C 
ATOM     11  H   UNL     1       2.940   2.449  10.540  1.00  0.00     0.173 HD
ATOM     12  O   UNL     1       1.144   3.790  11.287  1.00  0.00    -0.248 OA
ATOM     13  H   UNL     1      -0.708   3.748   9.805  1.00  0.00     0.165 HD
BRANCH   9  14
ATOM     14  C   UNL     1       2.816   2.256   8.562  1.00  0.00     0.157 A 
ATOM     15  N   UNL     1       2.893   1.866   6.479  1.00  0.00    -0.231 N 
ATOM     16  N   UNL     1       2.466   2.772   7.382  1.00  0.00    -0.149 NA
ATOM     17  C   UNL     1       3.881   1.050   7.016  1.00  0.00     0.076 A 
ATOM     18  C   UNL     1       3.803   1.257   8.381  1.00  0.00     0.078 A 
BRANCH  15  19
ATOM     19  C   UNL     1       2.298   1.785   5.190  1.00  0.00     0.065 A 
ATOM     20  C   UNL     1       1.218   1.617   2.627  1.00  0.00     0.082 A 
ATOM     21  C   UNL     1       1.480   0.445   3.339  1.00  0.00     0.024 A 
ATOM     22  C   UNL     1       1.463   2.872   3.200  1.00  0.00     0.024 A 
ATOM     23  C   UNL     1       2.031   0.529   4.618  1.00  0.00     0.030 A 
ATOM     24  C   UNL     1       1.981   2.957   4.496  1.00  0.00     0.030 A 
BRANCH  20  25
ATOM     25  S   UNL     1       0.606   1.532   0.971  1.00  0.00     0.238 S 
ATOM     26  O   UNL     1       1.123   2.643   0.221  1.00  0.00    -0.207 OA
ATOM     27  O   UNL     1      -0.799   1.179   1.020  1.00  0.00    -0.207 OA
BRANCH  25  28
ATOM     28  N   UNL     1       1.383   0.181   0.329  1.00  0.00    -0.225 NA
ATOM     29  H   UNL     1       1.089   0.047  -0.638  1.00  0.00     0.137 HD
ATOM     30  H   UNL     1       1.136  -0.644   0.876  1.00  0.00     0.137 HD
ENDBRANCH  25  28
ENDBRANCH  20  25
ENDBRANCH  15  19
BRANCH  17  31
ATOM     31  C   UNL     1       4.775   0.232   6.201  1.00  0.00     0.000 A 
ATOM     32  C   UNL     1       5.399   0.808   5.082  1.00  0.00     0.010 A 
ATOM     33  C   UNL     1       4.973  -1.124   6.469  1.00  0.00     0.010 A 
ATOM     34  C   UNL     1       6.169   0.035   4.217  1.00  0.00     0.001 A 
ATOM     35  C   UNL     1       5.755  -1.897   5.605  1.00  0.00     0.001 A 
ATOM     36  C   UNL     1       6.343  -1.320   4.478  1.00  0.00     0.000 A 
ENDBRANCH  17  31
ENDBRANCH   9  14
ENDBRANCH   7   8
ENDBRANCH   6   7
ENDBRANCH   5   6
ENDBRANCH   4   5
ENDBRANCH   3   4
ENDBRANCH   2   3
ENDBRANCH   1   2
BRANCH   1  37
ATOM     37  C   UNL     1      -3.264   4.011   2.720  1.00  0.00     0.001 C 
BRANCH  37  38
ATOM     38  C   UNL     1      -3.657   3.531   1.330  1.00  0.00     0.010 C 
BRANCH  38  39
ATOM     39  C   UNL     1      -5.043   2.895   1.208  1.00  0.00     0.100 C 
BRANCH  39  40
ATOM     40  C   UNL     1      -6.185   3.888   1.186  1.00  0.00     0.219 C 
ATOM     41  O   UNL     1      -6.641   4.264   0.107  1.00  0.00    -0.275 OA
ATOM     42  N   UNL     1      -6.756   4.372   2.326  1.00  0.00    -0.356 N 
ATOM     43  H   UNL     1      -7.375   5.123   2.180  1.00  0.00     0.163 HD
BRANCH  42  44
ATOM     44  C   UNL     1      -6.616   3.976   3.721  1.00  0.00     0.117 C 
BRANCH  44  45
ATOM     45  C   UNL     1      -5.952   5.042   4.611  1.00  0.00     0.042 C 
BRANCH  45  46
ATOM     46  C   UNL     1      -6.899   6.084   5.148  1.00  0.00     0.118 C 
BRANCH  46  47
ATOM     47  N   UNL     1      -7.659   5.632   6.322  1.00  0.00    -0.352 N 
ATOM     48  C   UNL     1      -8.594   6.369   7.037  1.00  0.00     0.251 C 
ATOM     49  H   UNL     1      -7.487   4.714   6.633  1.00  0.00     0.163 HD
ATOM     50  O   UNL     1      -8.888   6.081   8.190  1.00  0.00    -0.269 OA
BRANCH  48  51
ATOM     51  C   UNL     1      -9.222   7.510   6.350  1.00  0.00     0.039 A 
ATOM     52  C   UNL     1      -9.433   8.751   6.955  1.00  0.00     0.014 A 
ATOM     53  C   UNL     1      -9.469   7.325   4.998  1.00  0.00     0.014 A 
ATOM     54  C   UNL     1      -9.817   9.818   6.145  1.00  0.00     0.010 A 
ATOM     55  C   UNL     1      -9.509   8.419   4.192  1.00  0.00     0.010 A 
ATOM     56  C   UNL     1      -9.829   9.641   4.753  1.00  0.00    -0.014 A 
BRANCH  56  57
ATOM     57  C   UNL     1     -10.108  10.718   3.818  1.00  0.00     0.031 A 
ATOM     58  C   UNL     1      -9.262  11.920   4.004  1.00  0.00     0.074 A 
ATOM     59  C   UNL     1     -10.902  10.540   2.736  1.00  0.00     0.049 A 
ATOM     60  N   UNL     1      -9.629  13.060   4.486  1.00  0.00    -0.248 NA
ATOM     61  C   UNL     1      -7.810  11.797   3.799  1.00  0.00     0.031 C 
ATOM     62  C   UNL     1     -11.525   9.297   2.248  1.00  0.00     0.029 A 
ATOM     63  N   UNL     1     -11.191  11.413   1.738  1.00  0.00    -0.354 N 
ATOM     64  C   UNL     1      -8.511  13.878   4.378  1.00  0.00     0.074 A 
ATOM     65  C   UNL     1      -7.386  12.999   4.195  1.00  0.00     0.031 C 
ATOM     66  C   UNL     1     -11.858   9.435   0.948  1.00  0.00     0.029 A 
ATOM     67  C   UNL     1     -11.658  10.818   0.569  1.00  0.00     0.049 A 
ATOM     68  H   UNL     1     -11.080  12.387   1.833  1.00  0.00     0.167 HD
ATOM     69  C   UNL     1      -8.641  15.214   4.147  1.00  0.00     0.034 A 
ATOM     70  C   UNL     1     -11.820  11.416  -0.636  1.00  0.00     0.034 A 
ATOM     71  C   UNL     1      -9.998  15.656   4.359  1.00  0.00     0.049 A 
ATOM     72  C   UNL     1     -11.898  12.874  -0.379  1.00  0.00     0.074 A 
ATOM     73  C   UNL     1     -10.890  15.573   5.412  1.00  0.00     0.029 A 
ATOM     74  N   UNL     1     -10.762  15.888   3.239  1.00  0.00    -0.354 N 
ATOM     75  N   UNL     1     -12.871  13.432   0.286  1.00  0.00    -0.248 NA
ATOM     76  C   UNL     1     -10.661  13.636  -0.441  1.00  0.00     0.031 C 
ATOM     77  C   UNL     1     -12.138  15.246   4.804  1.00  0.00     0.029 A 
ATOM     78  C   UNL     1     -11.960  15.245   3.419  1.00  0.00     0.049 A 
ATOM     79  H   UNL     1     -10.498  16.419   2.453  1.00  0.00     0.167 HD
ATOM     80  C   UNL     1     -12.237  14.354   1.109  1.00  0.00     0.074 A 
ATOM     81  C   UNL     1     -10.898  14.511   0.541  1.00  0.00     0.031 C 
ATOM     82  C   UNL     1     -12.738  14.670   2.341  1.00  0.00     0.034 A 
BRANCH  69  83
ATOM     83  C   UNL     1      -7.649  16.049   3.377  1.00  0.00     0.023 A 
ATOM     84  C   UNL     1      -7.803  17.452   3.423  1.00  0.00     0.012 A 
ATOM     85  C   UNL     1      -6.741  15.536   2.424  1.00  0.00     0.148 A 
ATOM     86  C   UNL     1      -7.109  18.294   2.548  1.00  0.00     0.002 A 
ATOM     87  C   UNL     1      -5.982  16.380   1.623  1.00  0.00     0.091 A 
ATOM     88  F   UNL     1      -6.701  14.224   2.174  1.00  0.00    -0.205 F 
ATOM     89  C   UNL     1      -6.185  17.760   1.658  1.00  0.00     0.022 A 
BRANCH  87  90
ATOM     90  S   UNL     1      -4.725  15.737   0.512  1.00  0.00     0.127 S 
ATOM     91  O   UNL     1      -5.372  15.895  -0.786  1.00  0.00    -0.237 OA
ATOM     92  O   UNL     1      -3.609  16.649   0.765  1.00  0.00    -0.237 OA
ATOM     93  O   UNL     1      -4.484  14.369   0.953  1.00  0.00    -0.744 OA
ENDBRANCH  87  90
ENDBRANCH  69  83
BRANCH  70  94
ATOM     94  C   UNL     1     -11.659  10.858  -1.999  1.00  0.00     0.023 A 
ATOM     95  C   UNL     1     -12.214  11.537  -3.103  1.00  0.00     0.012 A 
ATOM     96  C   UNL     1     -10.730   9.824  -2.255  1.00  0.00     0.148 A 
ATOM     97  C   UNL     1     -11.830  11.223  -4.413  1.00  0.00     0.002 A 
ATOM     98  C   UNL     1     -10.357   9.511  -3.559  1.00  0.00     0.091 A 
ATOM     99  F   UNL     1     -10.142   9.215  -1.217  1.00  0.00    -0.205 F 
ATOM    100  C   UNL     1     -10.895  10.217  -4.641  1.00  0.00     0.022 A 
BRANCH  98 101
ATOM    101  S   UNL     1      -9.139   8.241  -3.925  1.00  0.00     0.127 S 
ATOM    102  O   UNL     1      -9.795   7.492  -4.998  1.00  0.00    -0.237 OA
ATOM    103  O   UNL     1      -7.992   9.039  -4.350  1.00  0.00    -0.237 OA
ATOM    104  O   UNL     1      -8.972   7.494  -2.686  1.00  0.00    -0.744 OA
ENDBRANCH  98 101
ENDBRANCH  70  94
BRANCH  82 105
ATOM    105  C   UNL     1     -14.115  14.165   2.711  1.00  0.00     0.023 A 
ATOM    106  C   UNL     1     -14.425  12.791   2.799  1.00  0.00     0.012 A 
ATOM    107  C   UNL     1     -15.063  15.098   3.164  1.00  0.00     0.148 A 
ATOM    108  C   UNL     1     -15.654  12.359   3.308  1.00  0.00     0.002 A 
ATOM    109  C   UNL     1     -16.264  14.665   3.713  1.00  0.00     0.091 A 
ATOM    110  F   UNL     1     -14.758  16.402   3.079  1.00  0.00    -0.205 F 
ATOM    111  C   UNL     1     -16.569  13.297   3.779  1.00  0.00     0.022 A 
BRANCH 109 112
ATOM    112  S   UNL     1     -17.423  15.818   4.452  1.00  0.00     0.127 S 
ATOM    113  O   UNL     1     -18.477  15.882   3.442  1.00  0.00    -0.237 OA
ATOM    114  O   UNL     1     -17.803  15.135   5.690  1.00  0.00    -0.237 OA
ATOM    115  O   UNL     1     -16.680  17.055   4.663  1.00  0.00    -0.744 OA
ENDBRANCH 109 112
ENDBRANCH  82 105
ENDBRANCH  56  57
ENDBRANCH  48  51
ENDBRANCH  46  47
ENDBRANCH  45  46
ENDBRANCH  44  45
ENDBRANCH  42  44
ENDBRANCH  39  40
ENDBRANCH  38  39
ENDBRANCH  37  38
ENDBRANCH   1  37
TORSDOF 28
