REMARK SMILES CN(CC(N)=O)S(=O)(=O)c1ccc(C(=O)NCCCNC(=O)c2ccc(-c3c4nc(c(-c5cccc(S(=O)(=O)[O-])c5F)c5ccc([nH]5)c(-c5cccc(S(=O)(=O)[O-])c5F)c5nc(c(-c6cccc(S(=O)(=O)[O-])c6F)c6ccc3[nH]6)C=C5)C=C4)cc2)cc1Br
REMARK SMILES IDX 17 1 16 2 14 3 15 4 13 6 10 7 11 8 87 9 12 10 86 11 88 12
REMARK SMILES IDX 7 13 8 14 9 15 2 16 1 17 3 18 4 19 5 20 6 21 18 24 19 25
REMARK SMILES IDX 20 26 21 27 22 29 23 30 24 31 85 32 25 33 84 34 26 35 27 36
REMARK SMILES IDX 28 37 78 38 29 39 83 40 77 41 79 42 30 43 82 44 76 45 75 46
REMARK SMILES IDX 31 48 63 49 43 50 62 51 44 52 47 53 61 54 80 55 45 56 46 57
REMARK SMILES IDX 60 59 81 60 48 61 32 62 33 63 41 64 34 65 36 66 42 67 35 68
REMARK SMILES IDX 37 69 38 70 39 71 40 72 64 73 65 74 73 75 66 76 68 77 74 78
REMARK SMILES IDX 67 79 69 80 70 81 71 82 72 83 49 84 50 85 58 86 51 87 53 88
REMARK SMILES IDX 59 89 52 90 54 91 55 92 56 93 57 94
REMARK H PARENT 16 5 5 22 5 23 20 28 79 47 47 58
REMARK Flexibility Score: inf
ROOT
ATOM      1  C   UNL     1      -1.099   5.151  -7.369  1.00  0.00     0.118 C 
ENDROOT
BRANCH   1   2
ATOM      2  N   UNL     1      -1.047   3.801  -7.902  1.00  0.00    -0.352 N 
ATOM      3  C   UNL     1      -0.686   2.594  -7.361  1.00  0.00     0.251 C 
ATOM      4  O   UNL     1      -0.862   1.592  -8.056  1.00  0.00    -0.269 OA
ATOM      5  H   UNL     1      -1.327   3.740  -8.844  1.00  0.00     0.163 HD
BRANCH   3   6
ATOM      6  C   UNL     1      -0.152   2.418  -5.978  1.00  0.00     0.041 A 
ATOM      7  C   UNL     1       0.738   1.914  -3.344  1.00  0.00     0.096 A 
ATOM      8  C   UNL     1       0.221   0.875  -4.125  1.00  0.00     0.024 A 
ATOM      9  C   UNL     1       0.898   3.180  -3.911  1.00  0.00     0.038 A 
ATOM     10  C   UNL     1      -0.241   1.134  -5.419  1.00  0.00     0.015 A 
ATOM     11  C   UNL     1       0.474   3.415  -5.229  1.00  0.00     0.031 A 
ATOM     12  Br  UNL     1       1.722   4.654  -3.037  1.00  0.00    -0.049 Br
BRANCH   7  13
ATOM     13  S   UNL     1       1.185   1.609  -1.654  1.00  0.00     0.244 S 
ATOM     14  O   UNL     1       0.621   2.666  -0.843  1.00  0.00    -0.207 OA
ATOM     15  O   UNL     1       2.599   1.312  -1.651  1.00  0.00    -0.207 OA
BRANCH  13  16
ATOM     16  N   UNL     1       0.362   0.171  -1.197  1.00  0.00    -0.192 NA
ATOM     17  C   UNL     1       0.911  -0.388   0.070  1.00  0.00     0.125 C 
BRANCH  16  18
ATOM     18  C   UNL     1      -1.127   0.214  -1.168  1.00  0.00     0.201 C 
BRANCH  18  19
ATOM     19  C   UNL     1      -1.780   1.204  -0.224  1.00  0.00     0.232 C 
ATOM     20  N   UNL     1      -2.379   2.282  -0.815  1.00  0.00    -0.369 N 
ATOM     21  O   UNL     1      -1.814   1.051   0.994  1.00  0.00    -0.274 OA
ATOM     22  H   UNL     1      -2.343   2.390  -1.793  1.00  0.00     0.159 HD
ATOM     23  H   UNL     1      -2.846   2.950  -0.263  1.00  0.00     0.159 HD
ENDBRANCH  18  19
ENDBRANCH  16  18
ENDBRANCH  13  16
ENDBRANCH   7  13
ENDBRANCH   3   6
ENDBRANCH   1   2
BRANCH   1  24
ATOM     24  C   UNL     1       0.139   5.961  -7.753  1.00  0.00     0.042 C 
BRANCH  24  25
ATOM     25  C   UNL     1       0.124   6.455  -9.198  1.00  0.00     0.118 C 
BRANCH  25  26
ATOM     26  N   UNL     1      -0.884   7.485  -9.411  1.00  0.00    -0.352 N 
ATOM     27  C   UNL     1      -0.745   8.780  -9.847  1.00  0.00     0.251 C 
ATOM     28  H   UNL     1      -1.808   7.211  -9.210  1.00  0.00     0.163 HD
ATOM     29  O   UNL     1      -1.696   9.551  -9.739  1.00  0.00    -0.269 OA
BRANCH  27  30
ATOM     30  C   UNL     1       0.526   9.253 -10.440  1.00  0.00     0.039 A 
ATOM     31  C   UNL     1       0.973  10.543 -10.137  1.00  0.00     0.014 A 
ATOM     32  C   UNL     1       1.249   8.459 -11.335  1.00  0.00     0.014 A 
ATOM     33  C   UNL     1       2.165  11.018 -10.693  1.00  0.00     0.010 A 
ATOM     34  C   UNL     1       2.469   8.908 -11.835  1.00  0.00     0.010 A 
ATOM     35  C   UNL     1       2.935  10.195 -11.529  1.00  0.00    -0.014 A 
BRANCH  35  36
ATOM     36  C   UNL     1       4.230  10.656 -12.094  1.00  0.00     0.031 A 
ATOM     37  C   UNL     1       4.398  10.800 -13.583  1.00  0.00     0.074 A 
ATOM     38  C   UNL     1       5.282  10.849 -11.275  1.00  0.00     0.049 A 
ATOM     39  N   UNL     1       5.471  11.101 -14.267  1.00  0.00    -0.248 NA
ATOM     40  C   UNL     1       3.210  10.546 -14.416  1.00  0.00     0.031 C 
ATOM     41  C   UNL     1       5.266  10.667  -9.822  1.00  0.00     0.029 A 
ATOM     42  N   UNL     1       6.578  11.206 -11.550  1.00  0.00    -0.354 N 
ATOM     43  C   UNL     1       5.103  11.030 -15.606  1.00  0.00     0.074 A 
ATOM     44  C   UNL     1       3.712  10.632 -15.639  1.00  0.00     0.031 C 
ATOM     45  C   UNL     1       6.493  10.909  -9.335  1.00  0.00     0.029 A 
ATOM     46  C   UNL     1       7.389  11.236 -10.439  1.00  0.00     0.049 A 
ATOM     47  H   UNL     1       6.897  11.421 -12.456  1.00  0.00     0.167 HD
ATOM     48  C   UNL     1       5.845  11.298 -16.706  1.00  0.00     0.034 A 
ATOM     49  C   UNL     1       8.708  11.489 -10.324  1.00  0.00     0.034 A 
ATOM     50  C   UNL     1       7.211  11.747 -16.666  1.00  0.00     0.049 A 
ATOM     51  C   UNL     1       9.496  11.839 -11.557  1.00  0.00     0.074 A 
ATOM     52  C   UNL     1       8.020  12.137 -17.719  1.00  0.00     0.029 A 
ATOM     53  N   UNL     1       7.970  11.868 -15.512  1.00  0.00    -0.354 N 
ATOM     54  N   UNL     1       9.088  11.920 -12.800  1.00  0.00    -0.248 NA
ATOM     55  C   UNL     1      10.916  12.168 -11.369  1.00  0.00     0.031 C 
ATOM     56  C   UNL     1       9.274  12.480 -17.202  1.00  0.00     0.029 A 
ATOM     57  C   UNL     1       9.239  12.321 -15.826  1.00  0.00     0.049 A 
ATOM     58  H   UNL     1       7.653  11.661 -14.604  1.00  0.00     0.167 HD
ATOM     59  C   UNL     1      10.188  12.343 -13.536  1.00  0.00     0.074 A 
ATOM     60  C   UNL     1      11.276  12.520 -12.596  1.00  0.00     0.031 C 
ATOM     61  C   UNL     1      10.294  12.551 -14.872  1.00  0.00     0.034 A 
BRANCH  48  62
ATOM     62  C   UNL     1       5.176  11.174 -18.051  1.00  0.00     0.023 A 
ATOM     63  C   UNL     1       4.220  12.134 -18.440  1.00  0.00     0.012 A 
ATOM     64  C   UNL     1       5.532  10.150 -18.951  1.00  0.00     0.148 A 
ATOM     65  C   UNL     1       3.603  12.059 -19.688  1.00  0.00     0.002 A 
ATOM     66  C   UNL     1       4.943  10.106 -20.210  1.00  0.00     0.091 A 
ATOM     67  F   UNL     1       6.428   9.233 -18.558  1.00  0.00    -0.205 F 
ATOM     68  C   UNL     1       3.971  11.052 -20.576  1.00  0.00     0.022 A 
BRANCH  66  69
ATOM     69  S   UNL     1       5.405   8.894 -21.454  1.00  0.00     0.127 S 
ATOM     70  O   UNL     1       4.239   8.012 -21.454  1.00  0.00    -0.237 OA
ATOM     71  O   UNL     1       5.544   9.720 -22.654  1.00  0.00    -0.237 OA
ATOM     72  O   UNL     1       6.646   8.293 -20.985  1.00  0.00    -0.744 OA
ENDBRANCH  66  69
ENDBRANCH  48  62
BRANCH  49  73
ATOM     73  C   UNL     1       9.347  11.495  -8.978  1.00  0.00     0.023 A 
ATOM     74  C   UNL     1       9.749  12.720  -8.412  1.00  0.00     0.012 A 
ATOM     75  C   UNL     1       9.524  10.307  -8.242  1.00  0.00     0.148 A 
ATOM     76  C   UNL     1      10.341  12.761  -7.150  1.00  0.00     0.002 A 
ATOM     77  C   UNL     1      10.066  10.361  -6.963  1.00  0.00     0.091 A 
ATOM     78  F   UNL     1       9.148   9.149  -8.803  1.00  0.00    -0.205 F 
ATOM     79  C   UNL     1      10.489  11.585  -6.421  1.00  0.00     0.022 A 
BRANCH  77  80
ATOM     80  S   UNL     1      10.170   8.914  -5.903  1.00  0.00     0.127 S 
ATOM     81  O   UNL     1      11.600   8.623  -5.934  1.00  0.00    -0.237 OA
ATOM     82  O   UNL     1       9.672   9.434  -4.629  1.00  0.00    -0.237 OA
ATOM     83  O   UNL     1       9.304   7.918  -6.520  1.00  0.00    -0.744 OA
ENDBRANCH  77  80
ENDBRANCH  49  73
BRANCH  61  84
ATOM     84  C   UNL     1      11.619  13.028 -15.403  1.00  0.00     0.023 A 
ATOM     85  C   UNL     1      12.702  12.130 -15.485  1.00  0.00     0.012 A 
ATOM     86  C   UNL     1      11.766  14.339 -15.897  1.00  0.00     0.148 A 
ATOM     87  C   UNL     1      13.920  12.539 -16.027  1.00  0.00     0.002 A 
ATOM     88  C   UNL     1      12.969  14.725 -16.478  1.00  0.00     0.091 A 
ATOM     89  F   UNL     1      10.730  15.183 -15.790  1.00  0.00    -0.205 F 
ATOM     90  C   UNL     1      14.049  13.830 -16.534  1.00  0.00     0.022 A 
BRANCH  88  91
ATOM     91  S   UNL     1      13.193  16.336 -17.241  1.00  0.00     0.127 S 
ATOM     92  O   UNL     1      14.031  17.018 -16.256  1.00  0.00    -0.237 OA
ATOM     93  O   UNL     1      13.874  15.997 -18.491  1.00  0.00    -0.237 OA
ATOM     94  O   UNL     1      11.855  16.885 -17.414  1.00  0.00    -0.744 OA
ENDBRANCH  88  91
ENDBRANCH  61  84
ENDBRANCH  35  36
ENDBRANCH  27  30
ENDBRANCH  25  26
ENDBRANCH  24  25
ENDBRANCH   1  24
TORSDOF 17
