REMARK SMILES O=C(NCCCNC(=O)c1ccc2c(c1)C(=O)O[C@H]2c1ccc(F)cc1)c1ccc(-c2c3nc(c(-c4cccc(S(=O)(=O)[O-])c4F)c4ccc([nH]4)c(-c4cccc(S(=O)(=O)[O-])c4F)c4nc(c(-c5cccc(S(=O)(=O)[O-])c5F)c5ccc2[nH]5)C=C4)C=C3)cc1
REMARK SMILES IDX 4 1 3 2 1 3 2 4 27 6 28 7 89 8 29 9 88 10 30 11 31 12 32 13
REMARK SMILES IDX 82 14 33 15 87 16 81 17 83 18 34 19 86 20 80 21 79 22 35 24
REMARK SMILES IDX 67 25 47 26 66 27 48 28 51 29 65 30 84 31 49 32 50 33 64 35
REMARK SMILES IDX 85 36 52 37 36 38 37 39 45 40 38 41 40 42 46 43 39 44 41 45
REMARK SMILES IDX 42 46 43 47 44 48 68 49 69 50 77 51 70 52 72 53 78 54 71 55
REMARK SMILES IDX 73 56 74 57 75 58 76 59 53 60 54 61 62 62 55 63 57 64 63 65
REMARK SMILES IDX 56 66 58 67 59 68 60 69 61 70 5 71 6 72 7 73 8 74 9 76 10 77
REMARK SMILES IDX 11 78 15 79 12 80 14 81 13 82 16 83 19 84 17 85 18 86 20 87
REMARK SMILES IDX 21 88 26 89 22 90 25 91 23 92 24 93
REMARK H PARENT 3 5 83 23 51 34 7 75
REMARK Flexibility Score: inf
ROOT
ATOM      1  C   UNL     1       4.591   0.106  -1.345  1.00  0.00     0.118 C 
ENDROOT
BRANCH   1   2
ATOM      2  N   UNL     1       3.155   0.217  -1.122  1.00  0.00    -0.352 N 
ATOM      3  O   UNL     1       1.204   0.048  -0.018  1.00  0.00    -0.269 OA
ATOM      4  C   UNL     1       2.427   0.129   0.041  1.00  0.00     0.251 C 
ATOM      5  H   UNL     1       2.621   0.382  -1.933  1.00  0.00     0.163 HD
BRANCH   4   6
ATOM      6  C   UNL     1       3.120   0.106   1.347  1.00  0.00     0.039 A 
ATOM      7  C   UNL     1       4.220   0.931   1.577  1.00  0.00     0.014 A 
ATOM      8  C   UNL     1       2.662  -0.745   2.357  1.00  0.00     0.014 A 
ATOM      9  C   UNL     1       4.973   0.773   2.731  1.00  0.00     0.010 A 
ATOM     10  C   UNL     1       3.351  -0.811   3.572  1.00  0.00     0.010 A 
ATOM     11  C   UNL     1       4.533  -0.078   3.756  1.00  0.00    -0.014 A 
BRANCH  11  12
ATOM     12  C   UNL     1       5.279  -0.100   5.039  1.00  0.00     0.031 A 
ATOM     13  C   UNL     1       5.916  -1.357   5.559  1.00  0.00     0.074 A 
ATOM     14  C   UNL     1       5.382   1.050   5.735  1.00  0.00     0.049 A 
ATOM     15  N   UNL     1       6.615  -1.526   6.652  1.00  0.00    -0.248 NA
ATOM     16  C   UNL     1       5.749  -2.583   4.763  1.00  0.00     0.031 C 
ATOM     17  C   UNL     1       4.772   2.325   5.343  1.00  0.00     0.029 A 
ATOM     18  N   UNL     1       6.032   1.342   6.906  1.00  0.00    -0.354 N 
ATOM     19  C   UNL     1       6.936  -2.876   6.699  1.00  0.00     0.074 A 
ATOM     20  C   UNL     1       6.352  -3.487   5.525  1.00  0.00     0.031 C 
ATOM     21  C   UNL     1       5.104   3.266   6.235  1.00  0.00     0.029 A 
ATOM     22  C   UNL     1       5.885   2.651   7.301  1.00  0.00     0.049 A 
ATOM     23  H   UNL     1       6.553   0.680   7.415  1.00  0.00     0.167 HD
ATOM     24  C   UNL     1       7.660  -3.539   7.632  1.00  0.00     0.034 A 
ATOM     25  C   UNL     1       6.302   3.289   8.411  1.00  0.00     0.034 A 
ATOM     26  C   UNL     1       8.259  -2.913   8.782  1.00  0.00     0.049 A 
ATOM     27  C   UNL     1       7.103   2.528   9.425  1.00  0.00     0.074 A 
ATOM     28  C   UNL     1       9.068  -3.491   9.746  1.00  0.00     0.029 A 
ATOM     29  N   UNL     1       8.106  -1.582   9.137  1.00  0.00    -0.354 N 
ATOM     30  N   UNL     1       7.494   1.278   9.392  1.00  0.00    -0.248 NA
ATOM     31  C   UNL     1       7.543   3.266  10.616  1.00  0.00     0.031 C 
ATOM     32  C   UNL     1       9.365  -2.522  10.706  1.00  0.00     0.029 A 
ATOM     33  C   UNL     1       8.787  -1.325  10.316  1.00  0.00     0.049 A 
ATOM     34  H   UNL     1       7.590  -0.917   8.627  1.00  0.00     0.167 HD
ATOM     35  C   UNL     1       8.245   1.083  10.543  1.00  0.00     0.074 A 
ATOM     36  C   UNL     1       8.274   2.352  11.242  1.00  0.00     0.031 C 
ATOM     37  C   UNL     1       8.844  -0.049  10.984  1.00  0.00     0.034 A 
BRANCH  24  38
ATOM     38  C   UNL     1       7.880  -5.020   7.451  1.00  0.00     0.023 A 
ATOM     39  C   UNL     1       8.762  -5.480   6.454  1.00  0.00     0.012 A 
ATOM     40  C   UNL     1       7.307  -5.945   8.347  1.00  0.00     0.148 A 
ATOM     41  C   UNL     1       9.056  -6.839   6.338  1.00  0.00     0.002 A 
ATOM     42  C   UNL     1       7.642  -7.291   8.257  1.00  0.00     0.091 A 
ATOM     43  F   UNL     1       6.457  -5.489   9.279  1.00  0.00    -0.205 F 
ATOM     44  C   UNL     1       8.508  -7.741   7.247  1.00  0.00     0.022 A 
BRANCH  42  45
ATOM     45  S   UNL     1       7.064  -8.519   9.434  1.00  0.00     0.127 S 
ATOM     46  O   UNL     1       6.195  -9.344   8.596  1.00  0.00    -0.237 OA
ATOM     47  O   UNL     1       8.313  -9.165   9.839  1.00  0.00    -0.237 OA
ATOM     48  O   UNL     1       6.389  -7.779  10.491  1.00  0.00    -0.744 OA
ENDBRANCH  42  45
ENDBRANCH  24  38
BRANCH  25  49
ATOM     49  C   UNL     1       5.983   4.733   8.585  1.00  0.00     0.023 A 
ATOM     50  C   UNL     1       7.012   5.688   8.497  1.00  0.00     0.012 A 
ATOM     51  C   UNL     1       4.652   5.165   8.748  1.00  0.00     0.148 A 
ATOM     52  C   UNL     1       6.722   7.051   8.583  1.00  0.00     0.002 A 
ATOM     53  C   UNL     1       4.363   6.523   8.767  1.00  0.00     0.091 A 
ATOM     54  F   UNL     1       3.689   4.236   8.836  1.00  0.00    -0.205 F 
ATOM     55  C   UNL     1       5.399   7.468   8.702  1.00  0.00     0.022 A 
BRANCH  53  56
ATOM     56  S   UNL     1       2.681   7.152   8.760  1.00  0.00     0.127 S 
ATOM     57  O   UNL     1       2.600   7.801  10.066  1.00  0.00    -0.237 OA
ATOM     58  O   UNL     1       2.709   8.066   7.618  1.00  0.00    -0.237 OA
ATOM     59  O   UNL     1       1.823   5.989   8.581  1.00  0.00    -0.744 OA
ENDBRANCH  53  56
ENDBRANCH  25  49
BRANCH  37  60
ATOM     60  C   UNL     1       9.617   0.019  12.275  1.00  0.00     0.023 A 
ATOM     61  C   UNL     1       8.930   0.124  13.500  1.00  0.00     0.012 A 
ATOM     62  C   UNL     1      11.017  -0.136  12.277  1.00  0.00     0.148 A 
ATOM     63  C   UNL     1       9.627   0.095  14.707  1.00  0.00     0.002 A 
ATOM     64  C   UNL     1      11.699  -0.221  13.484  1.00  0.00     0.091 A 
ATOM     65  F   UNL     1      11.652  -0.217  11.099  1.00  0.00    -0.205 F 
ATOM     66  C   UNL     1      11.008  -0.093  14.700  1.00  0.00     0.022 A 
BRANCH  64  67
ATOM     67  S   UNL     1      13.459  -0.571  13.577  1.00  0.00     0.127 S 
ATOM     68  O   UNL     1      13.986   0.690  14.098  1.00  0.00    -0.237 OA
ATOM     69  O   UNL     1      13.501  -1.687  14.521  1.00  0.00    -0.237 OA
ATOM     70  O   UNL     1      13.877  -0.904  12.222  1.00  0.00    -0.744 OA
ENDBRANCH  64  67
ENDBRANCH  37  60
ENDBRANCH  11  12
ENDBRANCH   4   6
ENDBRANCH   1   2
BRANCH   1  71
ATOM     71  C   UNL     1       4.968  -1.158  -2.098  1.00  0.00     0.042 C 
BRANCH  71  72
ATOM     72  C   UNL     1       4.378  -1.221  -3.496  1.00  0.00     0.118 C 
BRANCH  72  73
ATOM     73  N   UNL     1       4.882  -0.159  -4.360  1.00  0.00    -0.352 N 
ATOM     74  C   UNL     1       5.790  -0.217  -5.385  1.00  0.00     0.251 C 
ATOM     75  H   UNL     1       4.513   0.736  -4.179  1.00  0.00     0.163 HD
ATOM     76  O   UNL     1       6.237   0.807  -5.889  1.00  0.00    -0.269 OA
BRANCH  74  77
ATOM     77  C   UNL     1       6.250  -1.530  -5.872  1.00  0.00     0.040 A 
ATOM     78  C   UNL     1       7.633  -1.756  -6.013  1.00  0.00     0.014 A 
ATOM     79  C   UNL     1       5.324  -2.529  -6.179  1.00  0.00     0.030 A 
ATOM     80  C   UNL     1       8.106  -3.015  -6.395  1.00  0.00     0.009 A 
ATOM     81  C   UNL     1       5.826  -3.771  -6.502  1.00  0.00     0.068 A 
ATOM     82  C   UNL     1       7.177  -4.021  -6.618  1.00  0.00     0.012 A 
ATOM     83  C   UNL     1       5.087  -4.996  -6.755  1.00  0.00     0.339 C 
ATOM     84  C   UNL     1       7.360  -5.438  -7.023  1.00  0.00     0.238 C 
ATOM     85  O   UNL     1       3.879  -5.129  -6.709  1.00  0.00    -0.246 OA
ATOM     86  O   UNL     1       6.008  -5.958  -7.043  1.00  0.00    -0.449 OA
BRANCH  84  87
ATOM     87  C   UNL     1       7.976  -5.609  -8.393  1.00  0.00    -0.003 A 
ATOM     88  C   UNL     1       7.385  -5.031  -9.534  1.00  0.00     0.011 A 
ATOM     89  C   UNL     1       9.166  -6.338  -8.542  1.00  0.00     0.011 A 
ATOM     90  C   UNL     1       7.979  -5.165 -10.787  1.00  0.00     0.039 A 
ATOM     91  C   UNL     1       9.755  -6.474  -9.800  1.00  0.00     0.039 A 
ATOM     92  C   UNL     1       9.160  -5.884 -10.908  1.00  0.00     0.123 A 
ATOM     93  F   UNL     1       9.733  -6.011 -12.112  1.00  0.00    -0.207 F 
ENDBRANCH  84  87
ENDBRANCH  74  77
ENDBRANCH  72  73
ENDBRANCH  71  72
ENDBRANCH   1  71
TORSDOF 14
