REMARK SMILES C[NH+]1CC[NH+](CC[C@H]2CCC[C@@]2([NH3+])C(=O)NCCCNC(=O)c2ccc(-c3c4nc(c(-c5cccc(S(=O)(=O)[O-])c5F)c5ccc([nH]5)c(-c5cccc(S(=O)(=O)[O-])c5F)c5nc(c(-c6cccc(S(=O)(=O)[O-])c6F)c6ccc3[nH]6)C=C5)C=C4)cc2)CC1
REMARK SMILES IDX 18 1 17 2 16 3 14 4 15 5 12 7 8 8 9 9 10 10 11 11 7 12 6 13
REMARK SMILES IDX 5 14 1 15 2 16 3 17 87 18 4 20 86 21 13 23 19 27 20 28 21 29
REMARK SMILES IDX 22 31 23 32 24 33 85 34 25 35 84 36 26 37 27 38 28 39 78 40
REMARK SMILES IDX 29 41 83 42 77 43 79 44 30 45 82 46 76 47 75 48 31 50 63 51
REMARK SMILES IDX 43 52 62 53 44 54 47 55 61 56 80 57 45 58 46 59 60 61 81 62
REMARK SMILES IDX 48 63 32 64 33 65 41 66 34 67 36 68 42 69 35 70 37 71 38 72
REMARK SMILES IDX 39 73 40 74 64 75 65 76 73 77 66 78 68 79 74 80 67 81 69 82
REMARK SMILES IDX 70 83 71 84 72 85 49 86 50 87 58 88 51 89 53 90 59 91 52 92
REMARK SMILES IDX 54 93 55 94 56 95 57 96
REMARK H PARENT 16 6 2 19 5 22 13 24 13 25 13 26 20 30 79 49 47 60
REMARK Flexibility Score: inf
ROOT
ATOM      1  C   UNL     1       0.654   2.363  -2.108  1.00  0.00     0.042 C 
ENDROOT
BRANCH   1   2
ATOM      2  C   UNL     1       1.140   3.365  -1.045  1.00  0.00     0.118 C 
BRANCH   2   3
ATOM      3  N   UNL     1       0.094   3.997  -0.252  1.00  0.00    -0.351 N 
ATOM      4  C   UNL     1      -0.232   4.020   1.067  1.00  0.00     0.281 C 
ATOM      5  O   UNL     1      -1.181   4.775   1.338  1.00  0.00    -0.268 OA
ATOM      6  H   UNL     1      -0.522   4.533  -0.802  1.00  0.00     0.163 HD
BRANCH   4   7
ATOM      7  C   UNL     1       0.455   3.176   2.205  1.00  0.00     0.177 C 
ATOM      8  C   UNL     1       0.398   1.607   2.161  1.00  0.00     0.066 C 
ATOM      9  C   UNL     1       1.825   1.157   2.582  1.00  0.00     0.011 C 
ATOM     10  C   UNL     1       2.508   2.379   3.183  1.00  0.00     0.008 C 
ATOM     11  C   UNL     1       1.936   3.534   2.379  1.00  0.00     0.079 C 
BRANCH   8  12
ATOM     12  C   UNL     1      -0.025   0.966   0.836  1.00  0.00     0.072 C 
BRANCH  12  13
ATOM     13  C   UNL     1      -0.860  -0.322   0.874  1.00  0.00     0.263 C 
BRANCH  13  14
ATOM     14  N   UNL     1      -2.317  -0.222   0.901  1.00  0.00    -0.326 N 
ATOM     15  C   UNL     1      -4.193   3.371   2.401  1.00  0.00     0.333 C 
ATOM     16  N   UNL     1      -4.032   2.026   1.848  1.00  0.00    -0.328 N 
ATOM     17  C   UNL     1      -3.279   1.172   2.780  1.00  0.00     0.324 C 
ATOM     18  C   UNL     1      -3.356   2.080   0.539  1.00  0.00     0.324 C 
ATOM     19  H   UNL     1      -4.959   1.621   1.715  1.00  0.00     0.348 HD
ATOM     20  C   UNL     1      -2.964  -0.223   2.208  1.00  0.00     0.324 C 
ATOM     21  C   UNL     1      -2.978   0.692  -0.038  1.00  0.00     0.324 C 
ATOM     22  H   UNL     1      -2.490  -1.145   0.505  1.00  0.00     0.348 HD
ENDBRANCH  13  14
ENDBRANCH  12  13
ENDBRANCH   8  12
BRANCH   7  23
ATOM     23  N   UNL     1      -0.175   3.596   3.504  1.00  0.00    -0.345 N 
ATOM     24  H   UNL     1       0.244   3.070   4.271  1.00  0.00     0.345 HD
ATOM     25  H   UNL     1      -1.177   3.410   3.472  1.00  0.00     0.345 HD
ATOM     26  H   UNL     1      -0.019   4.593   3.651  1.00  0.00     0.345 HD
ENDBRANCH   7  23
ENDBRANCH   4   7
ENDBRANCH   2   3
ENDBRANCH   1   2
BRANCH   1  27
ATOM     27  C   UNL     1      -0.579   2.756  -2.912  1.00  0.00     0.118 C 
BRANCH  27  28
ATOM     28  N   UNL     1      -0.265   3.709  -3.957  1.00  0.00    -0.352 N 
ATOM     29  C   UNL     1       0.102   3.500  -5.264  1.00  0.00     0.251 C 
ATOM     30  H   UNL     1      -0.323   4.654  -3.687  1.00  0.00     0.163 HD
ATOM     31  O   UNL     1       0.603   4.438  -5.885  1.00  0.00    -0.269 OA
BRANCH  29  32
ATOM     32  C   UNL     1      -0.073   2.188  -5.940  1.00  0.00     0.039 A 
ATOM     33  C   UNL     1       0.906   1.781  -6.854  1.00  0.00     0.014 A 
ATOM     34  C   UNL     1      -1.222   1.407  -5.785  1.00  0.00     0.014 A 
ATOM     35  C   UNL     1       0.744   0.599  -7.587  1.00  0.00     0.010 A 
ATOM     36  C   UNL     1      -1.348   0.188  -6.461  1.00  0.00     0.010 A 
ATOM     37  C   UNL     1      -0.380  -0.220  -7.391  1.00  0.00    -0.014 A 
BRANCH  37  38
ATOM     38  C   UNL     1      -0.543  -1.483  -8.168  1.00  0.00     0.031 A 
ATOM     39  C   UNL     1      -1.690  -1.661  -9.134  1.00  0.00     0.074 A 
ATOM     40  C   UNL     1       0.329  -2.496  -7.987  1.00  0.00     0.049 A 
ATOM     41  N   UNL     1      -1.954  -2.672  -9.924  1.00  0.00    -0.248 NA
ATOM     42  C   UNL     1      -2.679  -0.574  -9.210  1.00  0.00     0.031 C 
ATOM     43  C   UNL     1       1.434  -2.493  -7.028  1.00  0.00     0.029 A 
ATOM     44  N   UNL     1       0.417  -3.727  -8.591  1.00  0.00    -0.354 N 
ATOM     45  C   UNL     1      -3.148  -2.359 -10.564  1.00  0.00     0.074 A 
ATOM     46  C   UNL     1      -3.577  -1.079 -10.044  1.00  0.00     0.031 C 
ATOM     47  C   UNL     1       2.099  -3.656  -7.120  1.00  0.00     0.029 A 
ATOM     48  C   UNL     1       1.458  -4.497  -8.127  1.00  0.00     0.049 A 
ATOM     49  H   UNL     1      -0.206  -4.029  -9.290  1.00  0.00     0.167 HD
ATOM     50  C   UNL     1      -3.814  -3.053 -11.520  1.00  0.00     0.034 A 
ATOM     51  C   UNL     1       1.860  -5.736  -8.474  1.00  0.00     0.034 A 
ATOM     52  C   UNL     1      -3.368  -4.306 -12.070  1.00  0.00     0.049 A 
ATOM     53  C   UNL     1       1.138  -6.463  -9.576  1.00  0.00     0.074 A 
ATOM     54  C   UNL     1      -3.924  -5.040 -13.103  1.00  0.00     0.029 A 
ATOM     55  N   UNL     1      -2.263  -5.017 -11.628  1.00  0.00    -0.354 N 
ATOM     56  N   UNL     1       0.110  -6.070 -10.288  1.00  0.00    -0.248 NA
ATOM     57  C   UNL     1       1.657  -7.787  -9.952  1.00  0.00     0.031 C 
ATOM     58  C   UNL     1      -3.169  -6.206 -13.270  1.00  0.00     0.029 A 
ATOM     59  C   UNL     1      -2.125  -6.185 -12.360  1.00  0.00     0.049 A 
ATOM     60  H   UNL     1      -1.663  -4.733 -10.900  1.00  0.00     0.167 HD
ATOM     61  C   UNL     1      -0.118  -7.078 -11.219  1.00  0.00     0.074 A 
ATOM     62  C   UNL     1       0.893  -8.091 -10.993  1.00  0.00     0.031 C 
ATOM     63  C   UNL     1      -1.085  -7.163 -12.165  1.00  0.00     0.034 A 
BRANCH  50  64
ATOM     64  C   UNL     1      -5.075  -2.443 -12.081  1.00  0.00     0.023 A 
ATOM     65  C   UNL     1      -4.987  -1.307 -12.912  1.00  0.00     0.012 A 
ATOM     66  C   UNL     1      -6.337  -3.023 -11.840  1.00  0.00     0.148 A 
ATOM     67  C   UNL     1      -6.134  -0.735 -13.461  1.00  0.00     0.002 A 
ATOM     68  C   UNL     1      -7.472  -2.474 -12.428  1.00  0.00     0.091 A 
ATOM     69  F   UNL     1      -6.407  -4.093 -11.034  1.00  0.00    -0.205 F 
ATOM     70  C   UNL     1      -7.374  -1.323 -13.227  1.00  0.00     0.022 A 
BRANCH  68  71
ATOM     71  S   UNL     1      -9.104  -3.206 -12.254  1.00  0.00     0.127 S 
ATOM     72  O   UNL     1      -9.757  -2.259 -11.352  1.00  0.00    -0.237 OA
ATOM     73  O   UNL     1      -9.602  -3.179 -13.630  1.00  0.00    -0.237 OA
ATOM     74  O   UNL     1      -8.888  -4.541 -11.714  1.00  0.00    -0.744 OA
ENDBRANCH  68  71
ENDBRANCH  50  64
BRANCH  51  75
ATOM     75  C   UNL     1       3.063  -6.332  -7.825  1.00  0.00     0.023 A 
ATOM     76  C   UNL     1       4.249  -6.481  -8.571  1.00  0.00     0.012 A 
ATOM     77  C   UNL     1       3.053  -6.711  -6.469  1.00  0.00     0.148 A 
ATOM     78  C   UNL     1       5.394  -7.023  -7.986  1.00  0.00     0.002 A 
ATOM     79  C   UNL     1       4.214  -7.196  -5.877  1.00  0.00     0.091 A 
ATOM     80  F   UNL     1       1.911  -6.572  -5.780  1.00  0.00    -0.205 F 
ATOM     81  C   UNL     1       5.380  -7.369  -6.638  1.00  0.00     0.022 A 
BRANCH  79  82
ATOM     82  S   UNL     1       4.325  -7.533  -4.116  1.00  0.00     0.127 S 
ATOM     83  O   UNL     1       4.406  -8.993  -4.096  1.00  0.00    -0.237 OA
ATOM     84  O   UNL     1       5.566  -6.844  -3.756  1.00  0.00    -0.237 OA
ATOM     85  O   UNL     1       3.128  -6.957  -3.528  1.00  0.00    -0.744 OA
ENDBRANCH  79  82
ENDBRANCH  51  75
BRANCH  63  86
ATOM     86  C   UNL     1      -1.086  -8.374 -13.062  1.00  0.00     0.023 A 
ATOM     87  C   UNL     1      -1.475  -9.628 -12.548  1.00  0.00     0.012 A 
ATOM     88  C   UNL     1      -0.767  -8.257 -14.429  1.00  0.00     0.148 A 
ATOM     89  C   UNL     1      -1.514 -10.751 -13.374  1.00  0.00     0.002 A 
ATOM     90  C   UNL     1      -0.855  -9.371 -15.256  1.00  0.00     0.091 A 
ATOM     91  F   UNL     1      -0.379  -7.061 -14.896  1.00  0.00    -0.205 F 
ATOM     92  C   UNL     1      -1.216 -10.621 -14.728  1.00  0.00     0.022 A 
BRANCH  90  93
ATOM     93  S   UNL     1      -0.582  -9.275 -17.030  1.00  0.00     0.127 S 
ATOM     94  O   UNL     1       0.729  -9.909 -17.164  1.00  0.00    -0.237 OA
ATOM     95  O   UNL     1      -1.696 -10.062 -17.560  1.00  0.00    -0.237 OA
ATOM     96  O   UNL     1      -0.631  -7.859 -17.366  1.00  0.00    -0.744 OA
ENDBRANCH  90  93
ENDBRANCH  63  86
ENDBRANCH  37  38
ENDBRANCH  29  32
ENDBRANCH  27  28
ENDBRANCH   1  27
TORSDOF 17
