REMARK SMILES Cc1nc(C(=O)NCCCNC(=O)c2ccc(-c3c4nc(c(-c5cccc(S(=O)(=O)[O-])c5F)c5ccc([nH]5)c(-c5cccc(S(=O)(=O)[O-])c5F)c5nc(c(-c6cccc(S(=O)(=O)[O-])c6F)c6ccc3[nH]6)C=C5)C=C4)cc2)nn1-c1cccc(C(F)(F)F)c1
REMARK SMILES IDX 9 1 8 2 7 3 5 4 6 5 4 7 1 8 2 9 3 10 78 11 77 12 79 13 80 14
REMARK SMILES IDX 88 15 81 16 83 17 82 18 84 19 85 20 86 21 87 22 10 23 11 24
REMARK SMILES IDX 12 25 13 27 14 28 15 29 76 30 16 31 75 32 17 33 18 34 19 35
REMARK SMILES IDX 69 36 20 37 74 38 68 39 70 40 21 41 73 42 67 43 66 44 22 46
REMARK SMILES IDX 54 47 34 48 53 49 35 50 38 51 52 52 71 53 36 54 37 55 51 57
REMARK SMILES IDX 72 58 39 59 23 60 24 61 32 62 25 63 27 64 33 65 26 66 28 67
REMARK SMILES IDX 29 68 30 69 31 70 55 71 56 72 64 73 57 74 59 75 65 76 58 77
REMARK SMILES IDX 60 78 61 79 62 80 63 81 40 82 41 83 49 84 42 85 44 86 50 87
REMARK SMILES IDX 43 88 45 89 46 90 47 91 48 92
REMARK H PARENT 7 6 11 26 70 45 38 56
REMARK Flexibility Score: inf
ROOT
ATOM      1  C   UNL     1       1.240   6.663  -1.730  1.00  0.00     0.042 C 
ENDROOT
BRANCH   1   2
ATOM      2  C   UNL     1      -0.120   6.170  -1.224  1.00  0.00     0.118 C 
BRANCH   2   3
ATOM      3  N   UNL     1      -0.860   5.395  -2.211  1.00  0.00    -0.349 N 
ATOM      4  C   UNL     1      -1.043   4.028  -2.347  1.00  0.00     0.290 C 
ATOM      5  O   UNL     1      -1.753   3.644  -3.276  1.00  0.00    -0.266 OA
ATOM      6  H   UNL     1      -1.308   5.936  -2.901  1.00  0.00     0.163 HD
BRANCH   4   7
ATOM      7  C   UNL     1      -0.382   3.079  -1.425  1.00  0.00     0.239 A 
ATOM      8  C   UNL     1       0.893  -0.118  -0.450  1.00  0.00     0.090 C 
ATOM      9  C   UNL     1       0.554   1.298  -0.720  1.00  0.00     0.130 A 
ATOM     10  N   UNL     1      -0.183   1.742  -1.717  1.00  0.00    -0.207 NA
ATOM     11  N   UNL     1       0.858   2.357   0.108  1.00  0.00    -0.217 N 
ATOM     12  N   UNL     1       0.077   3.405  -0.206  1.00  0.00    -0.140 NA
BRANCH  11  13
ATOM     13  C   UNL     1       1.877   2.537   1.073  1.00  0.00     0.067 A 
ATOM     14  C   UNL     1       1.689   3.494   2.081  1.00  0.00     0.028 A 
ATOM     15  C   UNL     1       3.112   1.894   0.940  1.00  0.00     0.041 A 
ATOM     16  C   UNL     1       2.717   3.783   2.975  1.00  0.00     0.003 A 
ATOM     17  C   UNL     1       4.168   2.218   1.809  1.00  0.00     0.058 A 
ATOM     18  C   UNL     1       3.951   3.150   2.838  1.00  0.00     0.013 A 
BRANCH  17  19
ATOM     19  C   UNL     1       5.541   1.617   1.625  1.00  0.00     0.416 C 
ATOM     20  F   UNL     1       6.512   2.563   1.499  1.00  0.00    -0.166 F 
ATOM     21  F   UNL     1       5.910   0.841   2.681  1.00  0.00    -0.166 F 
ATOM     22  F   UNL     1       5.644   0.823   0.524  1.00  0.00    -0.166 F 
ENDBRANCH  17  19
ENDBRANCH  11  13
ENDBRANCH   4   7
ENDBRANCH   2   3
ENDBRANCH   1   2
BRANCH   1  23
ATOM     23  C   UNL     1       1.116   7.992  -2.461  1.00  0.00     0.118 C 
BRANCH  23  24
ATOM     24  N   UNL     1       0.729   9.089  -1.562  1.00  0.00    -0.352 N 
ATOM     25  C   UNL     1       0.436  10.400  -1.876  1.00  0.00     0.251 C 
ATOM     26  H   UNL     1       0.671   8.856  -0.607  1.00  0.00     0.163 HD
ATOM     27  O   UNL     1       0.397  11.261  -1.000  1.00  0.00    -0.269 OA
BRANCH  25  28
ATOM     28  C   UNL     1       0.199  10.753  -3.284  1.00  0.00     0.039 A 
ATOM     29  C   UNL     1       0.811  11.870  -3.860  1.00  0.00     0.014 A 
ATOM     30  C   UNL     1      -0.580   9.892  -4.049  1.00  0.00     0.014 A 
ATOM     31  C   UNL     1       0.725  12.049  -5.240  1.00  0.00     0.010 A 
ATOM     32  C   UNL     1      -0.529   9.982  -5.418  1.00  0.00     0.010 A 
ATOM     33  C   UNL     1       0.081  11.081  -6.023  1.00  0.00    -0.014 A 
BRANCH  33  34
ATOM     34  C   UNL     1       0.114  11.149  -7.483  1.00  0.00     0.031 A 
ATOM     35  C   UNL     1       1.461  11.248  -8.117  1.00  0.00     0.074 A 
ATOM     36  C   UNL     1      -0.973  10.892  -8.242  1.00  0.00     0.049 A 
ATOM     37  N   UNL     1       1.911  12.210  -8.854  1.00  0.00    -0.248 NA
ATOM     38  C   UNL     1       2.452  10.196  -7.846  1.00  0.00     0.031 C 
ATOM     39  C   UNL     1      -2.310  10.476  -7.796  1.00  0.00     0.029 A 
ATOM     40  N   UNL     1      -1.059  10.777  -9.596  1.00  0.00    -0.354 N 
ATOM     41  C   UNL     1       3.164  11.801  -9.309  1.00  0.00     0.074 A 
ATOM     42  C   UNL     1       3.508  10.634  -8.537  1.00  0.00     0.031 C 
ATOM     43  C   UNL     1      -2.957   9.883  -8.820  1.00  0.00     0.029 A 
ATOM     44  C   UNL     1      -2.167  10.055 -10.023  1.00  0.00     0.049 A 
ATOM     45  H   UNL     1      -0.399  11.168 -10.213  1.00  0.00     0.167 HD
ATOM     46  C   UNL     1       3.734  12.337 -10.426  1.00  0.00     0.034 A 
ATOM     47  C   UNL     1      -2.408   9.595 -11.272  1.00  0.00     0.034 A 
ATOM     48  C   UNL     1       3.023  13.505 -10.877  1.00  0.00     0.049 A 
ATOM     49  C   UNL     1      -1.591  10.407 -12.200  1.00  0.00     0.074 A 
ATOM     50  C   UNL     1       2.706  14.733 -10.335  1.00  0.00     0.029 A 
ATOM     51  N   UNL     1       2.198  13.345 -11.964  1.00  0.00    -0.354 N 
ATOM     52  N   UNL     1      -1.803  11.675 -12.418  1.00  0.00    -0.248 NA
ATOM     53  C   UNL     1      -0.279   9.917 -12.588  1.00  0.00     0.031 C 
ATOM     54  C   UNL     1       1.398  15.020 -10.824  1.00  0.00     0.029 A 
ATOM     55  C   UNL     1       1.019  13.976 -11.672  1.00  0.00     0.049 A 
ATOM     56  H   UNL     1       2.414  12.868 -12.797  1.00  0.00     0.167 HD
ATOM     57  C   UNL     1      -0.531  12.223 -12.519  1.00  0.00     0.074 A 
ATOM     58  C   UNL     1       0.350  11.083 -12.760  1.00  0.00     0.031 C 
ATOM     59  C   UNL     1      -0.279  13.500 -12.100  1.00  0.00     0.034 A 
BRANCH  46  60
ATOM     60  C   UNL     1       4.742  11.665 -11.329  1.00  0.00     0.023 A 
ATOM     61  C   UNL     1       5.386  12.469 -12.299  1.00  0.00     0.012 A 
ATOM     62  C   UNL     1       4.887  10.267 -11.459  1.00  0.00     0.148 A 
ATOM     63  C   UNL     1       6.093  11.912 -13.370  1.00  0.00     0.002 A 
ATOM     64  C   UNL     1       5.659   9.719 -12.480  1.00  0.00     0.091 A 
ATOM     65  F   UNL     1       4.171   9.448 -10.682  1.00  0.00    -0.205 F 
ATOM     66  C   UNL     1       6.238  10.534 -13.456  1.00  0.00     0.022 A 
BRANCH  64  67
ATOM     67  S   UNL     1       5.930   7.948 -12.601  1.00  0.00     0.127 S 
ATOM     68  O   UNL     1       5.010   7.582 -13.674  1.00  0.00    -0.237 OA
ATOM     69  O   UNL     1       7.349   7.881 -12.952  1.00  0.00    -0.237 OA
ATOM     70  O   UNL     1       5.620   7.423 -11.277  1.00  0.00    -0.744 OA
ENDBRANCH  64  67
ENDBRANCH  46  60
BRANCH  47  71
ATOM     71  C   UNL     1      -3.186   8.418 -11.708  1.00  0.00     0.023 A 
ATOM     72  C   UNL     1      -3.727   8.380 -13.006  1.00  0.00     0.012 A 
ATOM     73  C   UNL     1      -3.190   7.229 -10.945  1.00  0.00     0.148 A 
ATOM     74  C   UNL     1      -4.230   7.188 -13.541  1.00  0.00     0.002 A 
ATOM     75  C   UNL     1      -3.697   6.048 -11.478  1.00  0.00     0.091 A 
ATOM     76  F   UNL     1      -2.615   7.237  -9.734  1.00  0.00    -0.205 F 
ATOM     77  C   UNL     1      -4.208   6.021 -12.781  1.00  0.00     0.022 A 
BRANCH  75  78
ATOM     78  S   UNL     1      -3.679   4.500 -10.563  1.00  0.00     0.127 S 
ATOM     79  O   UNL     1      -5.026   3.985 -10.809  1.00  0.00    -0.237 OA
ATOM     80  O   UNL     1      -2.610   3.767 -11.236  1.00  0.00    -0.237 OA
ATOM     81  O   UNL     1      -3.423   4.868  -9.177  1.00  0.00    -0.744 OA
ENDBRANCH  75  78
ENDBRANCH  47  71
BRANCH  59  82
ATOM     82  C   UNL     1      -1.453  14.387 -11.759  1.00  0.00     0.023 A 
ATOM     83  C   UNL     1      -2.354  14.066 -10.723  1.00  0.00     0.012 A 
ATOM     84  C   UNL     1      -1.537  15.657 -12.355  1.00  0.00     0.148 A 
ATOM     85  C   UNL     1      -3.332  14.973 -10.309  1.00  0.00     0.002 A 
ATOM     86  C   UNL     1      -2.479  16.577 -11.907  1.00  0.00     0.091 A 
ATOM     87  F   UNL     1      -0.670  15.958 -13.335  1.00  0.00    -0.205 F 
ATOM     88  C   UNL     1      -3.385  16.235 -10.892  1.00  0.00     0.022 A 
BRANCH  86  89
ATOM     89  S   UNL     1      -2.502  18.264 -12.518  1.00  0.00     0.127 S 
ATOM     90  O   UNL     1      -3.616  18.233 -13.463  1.00  0.00    -0.237 OA
ATOM     91  O   UNL     1      -2.754  19.040 -11.302  1.00  0.00    -0.237 OA
ATOM     92  O   UNL     1      -1.185  18.493 -13.102  1.00  0.00    -0.744 OA
ENDBRANCH  86  89
ENDBRANCH  59  82
ENDBRANCH  33  34
ENDBRANCH  25  28
ENDBRANCH  23  24
ENDBRANCH   1  23
TORSDOF 15
