REMARK SMILES Cc1cccc(-c2cc(C(=O)NCCCNC(=O)c3ccc(-c4c5nc(c(-c6cccc(S(=O)(=O)[O-])c6F)c6ccc([nH]6)c(-c6cccc(S(=O)(=O)[O-])c6F)c6nc(c(-c7cccc(S(=O)(=O)[O-])c7F)c7ccc4[nH]7)C=C6)C=C5)cc3)ccn2)c1
REMARK SMILES IDX 15 1 14 2 13 3 12 4 10 5 11 6 9 8 7 9 8 10 84 11 83 12 82 13
REMARK SMILES IDX 6 14 1 15 2 16 3 17 85 18 4 19 5 20 16 21 17 22 18 24 19 25
REMARK SMILES IDX 20 26 81 27 21 28 80 29 22 30 23 31 24 32 74 33 25 34 79 35
REMARK SMILES IDX 73 36 75 37 26 38 78 39 72 40 71 41 27 43 59 44 39 45 58 46
REMARK SMILES IDX 40 47 43 48 57 49 76 50 41 51 42 52 56 54 77 55 44 56 28 57
REMARK SMILES IDX 29 58 37 59 30 60 32 61 38 62 31 63 33 64 34 65 35 66 36 67
REMARK SMILES IDX 60 68 61 69 69 70 62 71 64 72 70 73 63 74 65 75 66 76 67 77
REMARK SMILES IDX 68 78 45 79 46 80 54 81 47 82 49 83 55 84 48 85 50 86 51 87
REMARK SMILES IDX 52 88 53 89
REMARK H PARENT 12 7 16 23 75 42 43 53
REMARK Flexibility Score: inf
ROOT
ATOM      1  C   UNL     1      -0.301   3.129  -5.175  1.00  0.00     0.118 C 
ENDROOT
BRANCH   1   2
ATOM      2  C   UNL     1      -0.433   3.111  -3.664  1.00  0.00     0.042 C 
BRANCH   2   3
ATOM      3  C   UNL     1      -0.044   4.426  -2.984  1.00  0.00     0.118 C 
BRANCH   3   4
ATOM      4  N   UNL     1      -1.181   5.324  -2.808  1.00  0.00    -0.352 N 
ATOM      5  C   UNL     1      -2.152   5.441  -1.839  1.00  0.00     0.251 C 
ATOM      6  O   UNL     1      -2.915   6.406  -1.904  1.00  0.00    -0.269 OA
ATOM      7  H   UNL     1      -1.272   5.984  -3.533  1.00  0.00     0.163 HD
BRANCH   5   8
ATOM      8  C   UNL     1      -2.343   4.483  -0.708  1.00  0.00     0.043 A 
ATOM      9  C   UNL     1      -1.987   2.385   0.438  1.00  0.00     0.071 A 
ATOM     10  C   UNL     1      -1.760   3.231  -0.643  1.00  0.00     0.042 A 
ATOM     11  N   UNL     1      -2.815   2.713   1.449  1.00  0.00    -0.256 NA
ATOM     12  C   UNL     1      -3.401   3.932   1.372  1.00  0.00     0.112 A 
ATOM     13  C   UNL     1      -3.197   4.837   0.337  1.00  0.00     0.034 A 
BRANCH   9  14
ATOM     14  C   UNL     1      -1.271   1.105   0.475  1.00  0.00     0.000 A 
ATOM     15  C   UNL     1       2.353  -0.049   0.062  1.00  0.00     0.044 C 
ATOM     16  C   UNL     1       0.861  -0.083   0.209  1.00  0.00    -0.050 A 
ATOM     17  C   UNL     1       0.164  -1.292   0.143  1.00  0.00     0.003 A 
ATOM     18  C   UNL     1       0.137   1.100   0.392  1.00  0.00     0.013 A 
ATOM     19  C   UNL     1      -1.228  -1.312   0.257  1.00  0.00     0.001 A 
ATOM     20  C   UNL     1      -1.943  -0.121   0.424  1.00  0.00     0.010 A 
ENDBRANCH   9  14
ENDBRANCH   5   8
ENDBRANCH   3   4
ENDBRANCH   2   3
ENDBRANCH   1   2
BRANCH   1  21
ATOM     21  N   UNL     1       0.797   2.304  -5.671  1.00  0.00    -0.352 N 
ATOM     22  C   UNL     1       1.159   2.060  -6.985  1.00  0.00     0.251 C 
ATOM     23  H   UNL     1       1.350   1.866  -4.984  1.00  0.00     0.163 HD
ATOM     24  O   UNL     1       2.049   1.254  -7.238  1.00  0.00    -0.269 OA
BRANCH  22  25
ATOM     25  C   UNL     1       0.523   2.870  -8.046  1.00  0.00     0.039 A 
ATOM     26  C   UNL     1       1.352   3.692  -8.815  1.00  0.00     0.014 A 
ATOM     27  C   UNL     1      -0.858   3.051  -8.038  1.00  0.00     0.014 A 
ATOM     28  C   UNL     1       0.834   4.868  -9.344  1.00  0.00     0.010 A 
ATOM     29  C   UNL     1      -1.358   4.253  -8.486  1.00  0.00     0.010 A 
ATOM     30  C   UNL     1      -0.490   5.190  -9.058  1.00  0.00    -0.014 A 
BRANCH  30  31
ATOM     31  C   UNL     1      -1.061   6.511  -9.244  1.00  0.00     0.031 A 
ATOM     32  C   UNL     1      -1.730   6.847 -10.507  1.00  0.00     0.074 A 
ATOM     33  C   UNL     1      -1.104   7.344  -8.181  1.00  0.00     0.049 A 
ATOM     34  N   UNL     1      -2.008   8.047 -10.884  1.00  0.00    -0.248 NA
ATOM     35  C   UNL     1      -2.084   5.827 -11.486  1.00  0.00     0.031 C 
ATOM     36  C   UNL     1      -1.932   8.530  -8.012  1.00  0.00     0.029 A 
ATOM     37  N   UNL     1      -0.210   7.392  -7.104  1.00  0.00    -0.354 N 
ATOM     38  C   UNL     1      -2.866   7.934 -11.956  1.00  0.00     0.074 A 
ATOM     39  C   UNL     1      -2.729   6.568 -12.390  1.00  0.00     0.031 C 
ATOM     40  C   UNL     1      -1.358   9.326  -7.095  1.00  0.00     0.029 A 
ATOM     41  C   UNL     1      -0.051   8.757  -6.808  1.00  0.00     0.049 A 
ATOM     42  H   UNL     1       0.216   6.630  -6.649  1.00  0.00     0.167 HD
ATOM     43  C   UNL     1      -3.730   8.959 -12.204  1.00  0.00     0.034 A 
ATOM     44  C   UNL     1       1.139   9.416  -6.936  1.00  0.00     0.034 A 
ATOM     45  C   UNL     1      -3.345  10.156 -11.432  1.00  0.00     0.049 A 
ATOM     46  C   UNL     1       1.065  10.599  -7.888  1.00  0.00     0.074 A 
ATOM     47  C   UNL     1      -3.859  10.763 -10.298  1.00  0.00     0.029 A 
ATOM     48  N   UNL     1      -2.096  10.738 -11.649  1.00  0.00    -0.354 N 
ATOM     49  N   UNL     1       0.055  10.853  -8.674  1.00  0.00    -0.248 NA
ATOM     50  C   UNL     1       2.138  11.576  -8.042  1.00  0.00     0.031 C 
ATOM     51  C   UNL     1      -2.858  11.627  -9.770  1.00  0.00     0.029 A 
ATOM     52  C   UNL     1      -1.752  11.582 -10.604  1.00  0.00     0.049 A 
ATOM     53  H   UNL     1      -1.533  10.572 -12.440  1.00  0.00     0.167 HD
ATOM     54  C   UNL     1       0.359  11.897  -9.510  1.00  0.00     0.074 A 
ATOM     55  C   UNL     1       1.642  12.367  -9.010  1.00  0.00     0.031 C 
ATOM     56  C   UNL     1      -0.441  12.235 -10.573  1.00  0.00     0.034 A 
BRANCH  43  57
ATOM     57  C   UNL     1      -5.088   8.820 -12.901  1.00  0.00     0.023 A 
ATOM     58  C   UNL     1      -5.957   9.935 -12.841  1.00  0.00     0.012 A 
ATOM     59  C   UNL     1      -5.638   7.659 -13.504  1.00  0.00     0.148 A 
ATOM     60  C   UNL     1      -7.288   9.885 -13.282  1.00  0.00     0.002 A 
ATOM     61  C   UNL     1      -6.962   7.608 -13.955  1.00  0.00     0.091 A 
ATOM     62  F   UNL     1      -4.907   6.559 -13.648  1.00  0.00    -0.205 F 
ATOM     63  C   UNL     1      -7.796   8.718 -13.831  1.00  0.00     0.022 A 
BRANCH  61  64
ATOM     64  S   UNL     1      -7.685   6.119 -14.679  1.00  0.00     0.127 S 
ATOM     65  O   UNL     1      -8.786   5.835 -13.758  1.00  0.00    -0.237 OA
ATOM     66  O   UNL     1      -8.102   6.588 -16.000  1.00  0.00    -0.237 OA
ATOM     67  O   UNL     1      -6.635   5.108 -14.696  1.00  0.00    -0.744 OA
ENDBRANCH  61  64
ENDBRANCH  43  57
BRANCH  44  68
ATOM     68  C   UNL     1       2.336   8.542  -6.736  1.00  0.00     0.023 A 
ATOM     69  C   UNL     1       2.464   7.912  -5.473  1.00  0.00     0.012 A 
ATOM     70  C   UNL     1       3.076   8.038  -7.819  1.00  0.00     0.148 A 
ATOM     71  C   UNL     1       3.184   6.725  -5.331  1.00  0.00     0.002 A 
ATOM     72  C   UNL     1       3.805   6.858  -7.665  1.00  0.00     0.091 A 
ATOM     73  F   UNL     1       3.006   8.670  -8.997  1.00  0.00    -0.205 F 
ATOM     74  C   UNL     1       3.821   6.177  -6.437  1.00  0.00     0.022 A 
BRANCH  72  75
ATOM     75  S   UNL     1       4.659   6.100  -9.055  1.00  0.00     0.127 S 
ATOM     76  O   UNL     1       5.983   6.705  -8.949  1.00  0.00    -0.237 OA
ATOM     77  O   UNL     1       4.606   4.677  -8.723  1.00  0.00    -0.237 OA
ATOM     78  O   UNL     1       3.864   6.470 -10.217  1.00  0.00    -0.744 OA
ENDBRANCH  72  75
ENDBRANCH  44  68
BRANCH  56  79
ATOM     79  C   UNL     1      -0.065  13.205 -11.689  1.00  0.00     0.023 A 
ATOM     80  C   UNL     1       1.265  13.597 -11.939  1.00  0.00     0.012 A 
ATOM     81  C   UNL     1      -1.035  13.663 -12.622  1.00  0.00     0.148 A 
ATOM     82  C   UNL     1       1.611  14.451 -12.994  1.00  0.00     0.002 A 
ATOM     83  C   UNL     1      -0.669  14.416 -13.738  1.00  0.00     0.091 A 
ATOM     84  F   UNL     1      -2.333  13.392 -12.427  1.00  0.00    -0.205 F 
ATOM     85  C   UNL     1       0.648  14.844 -13.908  1.00  0.00     0.022 A 
BRANCH  83  86
ATOM     86  S   UNL     1      -1.835  14.728 -15.074  1.00  0.00     0.127 S 
ATOM     87  O   UNL     1      -2.371  16.037 -14.711  1.00  0.00    -0.237 OA
ATOM     88  O   UNL     1      -0.968  14.733 -16.255  1.00  0.00    -0.237 OA
ATOM     89  O   UNL     1      -2.768  13.611 -15.029  1.00  0.00    -0.744 OA
ENDBRANCH  83  86
ENDBRANCH  56  79
ENDBRANCH  30  31
ENDBRANCH  22  25
ENDBRANCH   1  21
TORSDOF 14
