REMARK SMILES O=C(NCCCNC(=O)[C@@H]1CN(c2nccc(N3CCC(O)CC3)n2)CC[NH2+]1)c1ccc(-c2c3nc(c(-c4cccc(S(=O)(=O)[O-])c4F)c4ccc([nH]4)c(-c4cccc(S(=O)(=O)[O-])c4F)c4nc(c(-c5cccc(S(=O)(=O)[O-])c5F)c5ccc2[nH]5)C=C4)C=C3)cc1
REMARK SMILES IDX 5 1 4 2 3 3 1 4 2 5 29 7 30 8 91 9 31 10 90 11 32 12 33 13
REMARK SMILES IDX 34 14 84 15 35 16 89 17 83 18 85 19 36 20 88 21 82 22 81 23
REMARK SMILES IDX 37 25 69 26 49 27 68 28 50 29 53 30 67 31 86 32 51 33 52 34
REMARK SMILES IDX 66 36 87 37 54 38 38 39 39 40 47 41 40 42 42 43 48 44 41 45
REMARK SMILES IDX 43 46 44 47 45 48 46 49 70 50 71 51 79 52 72 53 74 54 80 55
REMARK SMILES IDX 73 56 75 57 76 58 77 59 78 60 55 61 56 62 64 63 57 64 59 65
REMARK SMILES IDX 65 66 58 67 60 68 61 69 62 70 63 71 6 72 7 73 8 74 9 76
REMARK SMILES IDX 10 77 11 78 28 79 12 80 27 81 26 84 13 85 14 86 25 87 15 88
REMARK SMILES IDX 17 89 16 90 18 91 19 92 24 93 20 94 23 95 21 96 22 97
REMARK H PARENT 3 6 85 24 53 35 7 75 28 82 28 83 22 98
REMARK Flexibility Score: inf
ROOT
ATOM      1  C   UNL     1       4.902  -2.206  -1.434  1.00  0.00     0.042 C 
ENDROOT
BRANCH   1   2
ATOM      2  C   UNL     1       4.617  -0.719  -1.263  1.00  0.00     0.118 C 
BRANCH   2   3
ATOM      3  N   UNL     1       3.196  -0.422  -1.131  1.00  0.00    -0.352 N 
ATOM      4  O   UNL     1       1.258   0.098  -0.120  1.00  0.00    -0.269 OA
ATOM      5  C   UNL     1       2.487   0.092  -0.072  1.00  0.00     0.251 C 
ATOM      6  H   UNL     1       2.657  -0.624  -1.929  1.00  0.00     0.163 HD
BRANCH   5   7
ATOM      7  C   UNL     1       3.187   0.604   1.126  1.00  0.00     0.039 A 
ATOM      8  C   UNL     1       4.348   1.369   1.007  1.00  0.00     0.014 A 
ATOM      9  C   UNL     1       2.665   0.327   2.393  1.00  0.00     0.014 A 
ATOM     10  C   UNL     1       5.080   1.697   2.142  1.00  0.00     0.010 A 
ATOM     11  C   UNL     1       3.351   0.748   3.538  1.00  0.00     0.010 A 
ATOM     12  C   UNL     1       4.590   1.395   3.423  1.00  0.00    -0.014 A 
BRANCH  12  13
ATOM     13  C   UNL     1       5.373   1.814   4.616  1.00  0.00     0.031 A 
ATOM     14  C   UNL     1       5.930   0.803   5.582  1.00  0.00     0.074 A 
ATOM     15  C   UNL     1       5.604   3.128   4.809  1.00  0.00     0.049 A 
ATOM     16  N   UNL     1       6.698   1.002   6.624  1.00  0.00    -0.248 NA
ATOM     17  C   UNL     1       5.576  -0.609   5.365  1.00  0.00     0.031 C 
ATOM     18  C   UNL     1       5.075   4.206   3.970  1.00  0.00     0.029 A 
ATOM     19  N   UNL     1       6.351   3.781   5.755  1.00  0.00    -0.354 N 
ATOM     20  C   UNL     1       6.881  -0.245   7.210  1.00  0.00     0.074 A 
ATOM     21  C   UNL     1       6.138  -1.196   6.413  1.00  0.00     0.031 C 
ATOM     22  C   UNL     1       5.552   5.380   4.407  1.00  0.00     0.029 A 
ATOM     23  C   UNL     1       6.380   5.146   5.584  1.00  0.00     0.049 A 
ATOM     24  H   UNL     1       6.820   3.319   6.487  1.00  0.00     0.167 HD
ATOM     25  C   UNL     1       7.616  -0.571   8.301  1.00  0.00     0.034 A 
ATOM     26  C   UNL     1       7.006   6.105   6.292  1.00  0.00     0.034 A 
ATOM     27  C   UNL     1       8.399   0.369   9.059  1.00  0.00     0.049 A 
ATOM     28  C   UNL     1       7.852   5.707   7.467  1.00  0.00     0.074 A 
ATOM     29  C   UNL     1       9.242   0.122  10.129  1.00  0.00     0.029 A 
ATOM     30  N   UNL     1       8.436   1.736   8.831  1.00  0.00    -0.354 N 
ATOM     31  N   UNL     1       8.126   4.507   7.916  1.00  0.00    -0.248 NA
ATOM     32  C   UNL     1       8.496   6.794   8.216  1.00  0.00     0.031 C 
ATOM     33  C   UNL     1       9.777   1.343  10.557  1.00  0.00     0.029 A 
ATOM     34  C   UNL     1       9.277   2.348   9.746  1.00  0.00     0.049 A 
ATOM     35  H   UNL     1       7.936   2.204   8.123  1.00  0.00     0.167 HD
ATOM     36  C   UNL     1       8.993   4.691   8.986  1.00  0.00     0.074 A 
ATOM     37  C   UNL     1       9.221   6.118   9.098  1.00  0.00     0.031 C 
ATOM     38  C   UNL     1       9.534   3.764   9.813  1.00  0.00     0.034 A 
BRANCH  25  39
ATOM     39  C   UNL     1       7.649  -2.018   8.720  1.00  0.00     0.023 A 
ATOM     40  C   UNL     1       8.408  -2.942   7.972  1.00  0.00     0.012 A 
ATOM     41  C   UNL     1       6.988  -2.452   9.886  1.00  0.00     0.148 A 
ATOM     42  C   UNL     1       8.485  -4.279   8.362  1.00  0.00     0.002 A 
ATOM     43  C   UNL     1       7.101  -3.779  10.290  1.00  0.00     0.091 A 
ATOM     44  F   UNL     1       6.251  -1.567  10.573  1.00  0.00    -0.205 F 
ATOM     45  C   UNL     1       7.842  -4.694   9.525  1.00  0.00     0.022 A 
BRANCH  43  46
ATOM     46  S   UNL     1       6.367  -4.386  11.813  1.00  0.00     0.127 S 
ATOM     47  O   UNL     1       5.185  -5.086  11.313  1.00  0.00    -0.237 OA
ATOM     48  O   UNL     1       7.415  -5.261  12.340  1.00  0.00    -0.237 OA
ATOM     49  O   UNL     1       6.106  -3.205  12.624  1.00  0.00    -0.744 OA
ENDBRANCH  43  46
ENDBRANCH  25  39
BRANCH  26  50
ATOM     50  C   UNL     1       6.910   7.526   5.853  1.00  0.00     0.023 A 
ATOM     51  C   UNL     1       8.046   8.156   5.309  1.00  0.00     0.012 A 
ATOM     52  C   UNL     1       5.695   8.234   5.916  1.00  0.00     0.148 A 
ATOM     53  C   UNL     1       7.978   9.472   4.853  1.00  0.00     0.002 A 
ATOM     54  C   UNL     1       5.619   9.524   5.406  1.00  0.00     0.091 A 
ATOM     55  F   UNL     1       4.630   7.624   6.455  1.00  0.00    -0.205 F 
ATOM     56  C   UNL     1       6.763  10.151   4.888  1.00  0.00     0.022 A 
BRANCH  54  57
ATOM     57  S   UNL     1       4.061  10.410   5.281  1.00  0.00     0.127 S 
ATOM     58  O   UNL     1       4.167  11.360   6.384  1.00  0.00    -0.237 OA
ATOM     59  O   UNL     1       4.151  11.002   3.946  1.00  0.00    -0.237 OA
ATOM     60  O   UNL     1       3.027   9.392   5.411  1.00  0.00    -0.744 OA
ENDBRANCH  54  57
ENDBRANCH  26  50
BRANCH  38  61
ATOM     61  C   UNL     1      10.443   4.261  10.906  1.00  0.00     0.023 A 
ATOM     62  C   UNL     1       9.890   4.914  12.025  1.00  0.00     0.012 A 
ATOM     63  C   UNL     1      11.831   4.032  10.853  1.00  0.00     0.148 A 
ATOM     64  C   UNL     1      10.709   5.362  13.060  1.00  0.00     0.002 A 
ATOM     65  C   UNL     1      12.636   4.442  11.910  1.00  0.00     0.091 A 
ATOM     66  F   UNL     1      12.342   3.431   9.769  1.00  0.00    -0.205 F 
ATOM     67  C   UNL     1      12.079   5.116  13.008  1.00  0.00     0.022 A 
BRANCH  65  68
ATOM     68  S   UNL     1      14.396   4.084  11.960  1.00  0.00     0.127 S 
ATOM     69  O   UNL     1      14.974   5.361  11.545  1.00  0.00    -0.237 OA
ATOM     70  O   UNL     1      14.611   3.747  13.368  1.00  0.00    -0.237 OA
ATOM     71  O   UNL     1      14.597   2.971  11.041  1.00  0.00    -0.744 OA
ENDBRANCH  65  68
ENDBRANCH  38  61
ENDBRANCH  12  13
ENDBRANCH   5   7
ENDBRANCH   2   3
ENDBRANCH   1   2
BRANCH   1  72
ATOM     72  C   UNL     1       4.303  -2.808  -2.696  1.00  0.00     0.118 C 
BRANCH  72  73
ATOM     73  N   UNL     1       4.809  -2.168  -3.898  1.00  0.00    -0.351 N 
ATOM     74  C   UNL     1       5.690  -2.660  -4.820  1.00  0.00     0.280 C 
ATOM     75  H   UNL     1       4.473  -1.259  -4.072  1.00  0.00     0.163 HD
ATOM     76  O   UNL     1       5.986  -1.945  -5.779  1.00  0.00    -0.268 OA
BRANCH  74  77
ATOM     77  C   UNL     1       6.248  -4.081  -4.637  1.00  0.00     0.292 C 
ATOM     78  C   UNL     1       7.416  -4.307  -5.625  1.00  0.00     0.195 C 
ATOM     79  N   UNL     1       5.130  -5.068  -4.834  1.00  0.00    -0.333 N 
ATOM     80  N   UNL     1       7.826  -5.707  -5.596  1.00  0.00    -0.329 N 
ATOM     81  C   UNL     1       5.681  -6.436  -4.730  1.00  0.00     0.283 C 
ATOM     82  H   UNL     1       4.714  -4.935  -5.756  1.00  0.00     0.347 HD
ATOM     83  H   UNL     1       4.413  -4.927  -4.123  1.00  0.00     0.347 HD
ATOM     84  C   UNL     1       6.808  -6.725  -5.750  1.00  0.00     0.181 C 
BRANCH  80  85
ATOM     85  C   UNL     1       9.148  -6.005  -5.732  1.00  0.00     0.227 A 
ATOM     86  N   UNL     1       9.534  -6.861  -6.688  1.00  0.00    -0.221 NA
ATOM     87  N   UNL     1       9.989  -5.443  -4.853  1.00  0.00    -0.196 NA
ATOM     88  C   UNL     1      10.855  -7.082  -6.789  1.00  0.00     0.119 A 
ATOM     89  C   UNL     1      11.296  -5.725  -4.938  1.00  0.00     0.134 A 
ATOM     90  C   UNL     1      11.785  -6.526  -5.945  1.00  0.00     0.067 A 
BRANCH  89  91
ATOM     91  N   UNL     1      12.130  -5.248  -3.952  1.00  0.00    -0.356 N 
ATOM     92  C   UNL     1      13.250  -4.383  -4.274  1.00  0.00     0.121 C 
ATOM     93  C   UNL     1      11.746  -5.458  -2.562  1.00  0.00     0.121 C 
ATOM     94  C   UNL     1      13.095  -3.044  -3.557  1.00  0.00     0.053 C 
ATOM     95  C   UNL     1      11.632  -4.136  -1.813  1.00  0.00     0.053 C 
ATOM     96  C   UNL     1      12.831  -3.225  -2.063  1.00  0.00     0.118 C 
BRANCH  96  97
ATOM     97  O   UNL     1      14.003  -3.718  -1.414  1.00  0.00    -0.393 OA
ATOM     98  H   UNL     1      14.235  -4.586  -1.780  1.00  0.00     0.210 HD
ENDBRANCH  96  97
ENDBRANCH  89  91
ENDBRANCH  80  85
ENDBRANCH  74  77
ENDBRANCH  72  73
ENDBRANCH   1  72
TORSDOF 16
