REMARK SMILES O=C(N[C@]1(C(=O)NCCCNC(=O)c2ccc(-c3c4nc(c(-c5cccc(S(=O)(=O)[O-])c5F)c5ccc([nH]5)c(-c5cccc(S(=O)(=O)[O-])c5F)c5nc(c(-c6cccc(S(=O)(=O)[O-])c6F)c6ccc3[nH]6)C=C5)C=C4)cc2)CC[C@H](c2ccccc2)CC1)OCC1c2ccccc2-c2ccccc21
REMARK SMILES IDX 8 1 7 2 5 3 6 4 4 6 77 7 87 8 78 9 86 10 79 11 3 12 1 13
REMARK SMILES IDX 2 14 88 16 89 17 90 18 91 19 102 20 92 21 96 22 97 23 101 24
REMARK SMILES IDX 93 25 95 26 98 27 100 28 94 29 99 30 80 31 81 32 85 33 82 34
REMARK SMILES IDX 84 35 83 36 9 37 10 38 11 39 12 40 13 42 14 43 15 44 76 45
REMARK SMILES IDX 16 46 75 47 17 48 18 49 19 50 69 51 20 52 74 53 68 54 70 55
REMARK SMILES IDX 21 56 73 57 67 58 66 59 22 61 54 62 34 63 53 64 35 65 38 66
REMARK SMILES IDX 52 67 71 68 36 69 37 70 51 72 72 73 39 74 23 75 24 76 32 77
REMARK SMILES IDX 25 78 27 79 33 80 26 81 28 82 29 83 30 84 31 85 55 86 56 87
REMARK SMILES IDX 64 88 57 89 59 90 65 91 58 92 60 93 61 94 62 95 63 96 40 97
REMARK SMILES IDX 41 98 49 99 42 100 44 101 50 102 43 103 45 104 46 105 47 106
REMARK SMILES IDX 48 107
REMARK H PARENT 7 5 3 15 11 41 70 60 38 71
REMARK Flexibility Score: inf
ROOT
ATOM      1  C   UNL     1       7.421  -0.739   1.304  1.00  0.00     0.117 C 
ENDROOT
BRANCH   1   2
ATOM      2  N   UNL     1       6.183  -1.431   1.110  1.00  0.00    -0.354 N 
ATOM      3  C   UNL     1       4.909  -0.977   1.086  1.00  0.00     0.245 C 
ATOM      4  O   UNL     1       4.091  -1.867   0.793  1.00  0.00    -0.272 OA
ATOM      5  H   UNL     1       6.275  -2.401   0.970  1.00  0.00     0.163 HD
BRANCH   3   6
ATOM      6  C   UNL     1       4.407   0.488   1.474  1.00  0.00     0.122 C 
ATOM      7  C   UNL     1       4.918   1.790   0.867  1.00  0.00     0.039 C 
ATOM      8  C   UNL     1       4.491   0.674   3.008  1.00  0.00     0.039 C 
ATOM      9  C   UNL     1       6.303   2.268   1.200  1.00  0.00     0.011 C 
ATOM     10  C   UNL     1       5.806   1.277   3.546  1.00  0.00     0.011 C 
ATOM     11  C   UNL     1       6.508   2.389   2.708  1.00  0.00     0.019 C 
BRANCH   6  12
ATOM     12  N   UNL     1       2.961   0.369   1.067  1.00  0.00    -0.307 N 
ATOM     13  O   UNL     1       1.164   0.159  -0.274  1.00  0.00    -0.225 OA
ATOM     14  C   UNL     1       2.343   0.481  -0.158  1.00  0.00     0.408 C 
ATOM     15  H   UNL     1       2.347   0.177   1.812  1.00  0.00     0.168 HD
BRANCH  14  16
ATOM     16  O   UNL     1       2.992   1.127  -1.169  1.00  0.00    -0.449 OA
BRANCH  16  17
ATOM     17  C   UNL     1       4.043   0.446  -1.883  1.00  0.00     0.248 C 
BRANCH  17  18
ATOM     18  C   UNL     1       4.950   1.403  -2.718  1.00  0.00     0.088 C 
ATOM     19  C   UNL     1       6.437   1.001  -2.650  1.00  0.00    -0.029 A 
ATOM     20  C   UNL     1       5.045   2.902  -2.383  1.00  0.00    -0.029 A 
ATOM     21  C   UNL     1       7.008  -0.262  -2.715  1.00  0.00     0.005 A 
ATOM     22  C   UNL     1       7.245   2.141  -2.445  1.00  0.00    -0.014 A 
ATOM     23  C   UNL     1       6.401   3.308  -2.342  1.00  0.00    -0.014 A 
ATOM     24  C   UNL     1       4.040   3.828  -2.147  1.00  0.00     0.005 A 
ATOM     25  C   UNL     1       8.392  -0.377  -2.544  1.00  0.00     0.000 A 
ATOM     26  C   UNL     1       8.617   2.026  -2.263  1.00  0.00     0.009 A 
ATOM     27  C   UNL     1       6.753   4.638  -2.158  1.00  0.00     0.009 A 
ATOM     28  C   UNL     1       4.396   5.163  -1.913  1.00  0.00     0.000 A 
ATOM     29  C   UNL     1       9.189   0.754  -2.305  1.00  0.00     0.001 A 
ATOM     30  C   UNL     1       5.738   5.571  -1.948  1.00  0.00     0.001 A 
ENDBRANCH  17  18
ENDBRANCH  16  17
ENDBRANCH  14  16
ENDBRANCH   6  12
BRANCH  11  31
ATOM     31  C   UNL     1       6.231   3.798   3.220  1.00  0.00    -0.045 A 
ATOM     32  C   UNL     1       5.577   4.788   2.465  1.00  0.00     0.004 A 
ATOM     33  C   UNL     1       6.750   4.159   4.471  1.00  0.00     0.004 A 
ATOM     34  C   UNL     1       5.464   6.096   2.934  1.00  0.00     0.000 A 
ATOM     35  C   UNL     1       6.620   5.463   4.949  1.00  0.00     0.000 A 
ATOM     36  C   UNL     1       5.983   6.431   4.178  1.00  0.00     0.000 A 
ENDBRANCH  11  31
ENDBRANCH   3   6
ENDBRANCH   1   2
BRANCH   1  37
ATOM     37  C   UNL     1       8.405  -1.427   2.215  1.00  0.00     0.042 C 
BRANCH  37  38
ATOM     38  C   UNL     1       9.225  -2.485   1.518  1.00  0.00     0.118 C 
BRANCH  38  39
ATOM     39  N   UNL     1      10.071  -1.948   0.454  1.00  0.00    -0.352 N 
ATOM     40  C   UNL     1      11.437  -1.954   0.298  1.00  0.00     0.251 C 
ATOM     41  H   UNL     1       9.579  -1.507  -0.276  1.00  0.00     0.163 HD
ATOM     42  O   UNL     1      11.940  -1.331  -0.635  1.00  0.00    -0.269 OA
BRANCH  40  43
ATOM     43  C   UNL     1      12.290  -2.662   1.275  1.00  0.00     0.039 A 
ATOM     44  C   UNL     1      13.493  -2.082   1.681  1.00  0.00     0.014 A 
ATOM     45  C   UNL     1      11.873  -3.865   1.840  1.00  0.00     0.014 A 
ATOM     46  C   UNL     1      14.217  -2.664   2.724  1.00  0.00     0.010 A 
ATOM     47  C   UNL     1      12.497  -4.341   2.981  1.00  0.00     0.010 A 
ATOM     48  C   UNL     1      13.694  -3.766   3.421  1.00  0.00    -0.014 A 
BRANCH  48  49
ATOM     49  C   UNL     1      14.393  -4.344   4.596  1.00  0.00     0.031 A 
ATOM     50  C   UNL     1      14.786  -5.799   4.601  1.00  0.00     0.074 A 
ATOM     51  C   UNL     1      14.605  -3.576   5.684  1.00  0.00     0.049 A 
ATOM     52  N   UNL     1      15.399  -6.482   5.531  1.00  0.00    -0.248 NA
ATOM     53  C   UNL     1      14.404  -6.608   3.428  1.00  0.00     0.031 C 
ATOM     54  C   UNL     1      14.155  -2.190   5.846  1.00  0.00     0.029 A 
ATOM     55  N   UNL     1      15.244  -3.853   6.865  1.00  0.00    -0.354 N 
ATOM     56  C   UNL     1      15.440  -7.794   5.073  1.00  0.00     0.074 A 
ATOM     57  C   UNL     1      14.730  -7.830   3.817  1.00  0.00     0.031 C 
ATOM     58  C   UNL     1      14.566  -1.728   7.037  1.00  0.00     0.029 A 
ATOM     59  C   UNL     1      15.282  -2.789   7.736  1.00  0.00     0.049 A 
ATOM     60  H   UNL     1      15.638  -4.732   7.071  1.00  0.00     0.167 HD
ATOM     61  C   UNL     1      16.059  -8.866   5.620  1.00  0.00     0.034 A 
ATOM     62  C   UNL     1      15.845  -2.680   8.955  1.00  0.00     0.034 A 
ATOM     63  C   UNL     1      16.814  -8.807   6.840  1.00  0.00     0.049 A 
ATOM     64  C   UNL     1      16.603  -3.858   9.502  1.00  0.00     0.074 A 
ATOM     65  C   UNL     1      17.559  -9.803   7.442  1.00  0.00     0.029 A 
ATOM     66  N   UNL     1      16.919  -7.683   7.644  1.00  0.00    -0.354 N 
ATOM     67  N   UNL     1      16.777  -5.045   8.971  1.00  0.00    -0.248 NA
ATOM     68  C   UNL     1      17.279  -3.671  10.792  1.00  0.00     0.031 C 
ATOM     69  C   UNL     1      18.100  -9.285   8.624  1.00  0.00     0.029 A 
ATOM     70  C   UNL     1      17.715  -7.958   8.741  1.00  0.00     0.049 A 
ATOM     71  H   UNL     1      16.491  -6.815   7.461  1.00  0.00     0.167 HD
ATOM     72  C   UNL     1      17.605  -5.737   9.846  1.00  0.00     0.074 A 
ATOM     73  C   UNL     1      17.923  -4.822  10.925  1.00  0.00     0.031 C 
ATOM     74  C   UNL     1      18.048  -7.017   9.778  1.00  0.00     0.034 A 
BRANCH  61  75
ATOM     75  C   UNL     1      15.997 -10.168   4.862  1.00  0.00     0.023 A 
ATOM     76  C   UNL     1      16.685 -10.295   3.636  1.00  0.00     0.012 A 
ATOM     77  C   UNL     1      15.287 -11.273   5.370  1.00  0.00     0.148 A 
ATOM     78  C   UNL     1      16.632 -11.481   2.907  1.00  0.00     0.002 A 
ATOM     79  C   UNL     1      15.280 -12.470   4.661  1.00  0.00     0.091 A 
ATOM     80  F   UNL     1      14.619 -11.130   6.523  1.00  0.00    -0.205 F 
ATOM     81  C   UNL     1      15.938 -12.571   3.424  1.00  0.00     0.022 A 
BRANCH  79  82
ATOM     82  S   UNL     1      14.484 -13.957   5.276  1.00  0.00     0.127 S 
ATOM     83  O   UNL     1      13.366 -14.100   4.345  1.00  0.00    -0.237 OA
ATOM     84  O   UNL     1      15.541 -14.957   5.118  1.00  0.00    -0.237 OA
ATOM     85  O   UNL     1      14.114 -13.675   6.656  1.00  0.00    -0.744 OA
ENDBRANCH  79  82
ENDBRANCH  61  75
BRANCH  62  86
ATOM     86  C   UNL     1      15.788  -1.384   9.691  1.00  0.00     0.023 A 
ATOM     87  C   UNL     1      16.962  -0.623   9.852  1.00  0.00     0.012 A 
ATOM     88  C   UNL     1      14.573  -0.884  10.199  1.00  0.00     0.148 A 
ATOM     89  C   UNL     1      16.936   0.594  10.535  1.00  0.00     0.002 A 
ATOM     90  C   UNL     1      14.543   0.356  10.827  1.00  0.00     0.091 A 
ATOM     91  F   UNL     1      13.468  -1.626  10.045  1.00  0.00    -0.205 F 
ATOM     92  C   UNL     1      15.725   1.089  11.013  1.00  0.00     0.022 A 
BRANCH  90  93
ATOM     93  S   UNL     1      13.008   1.132  11.346  1.00  0.00     0.127 S 
ATOM     94  O   UNL     1      13.094   1.025  12.799  1.00  0.00    -0.237 OA
ATOM     95  O   UNL     1      13.159   2.488  10.816  1.00  0.00    -0.237 OA
ATOM     96  O   UNL     1      11.946   0.360  10.714  1.00  0.00    -0.744 OA
ENDBRANCH  90  93
ENDBRANCH  62  86
BRANCH  74  97
ATOM     97  C   UNL     1      18.945  -7.495  10.889  1.00  0.00     0.023 A 
ATOM     98  C   UNL     1      18.410  -7.720  12.173  1.00  0.00     0.012 A 
ATOM     99  C   UNL     1      20.302  -7.775  10.643  1.00  0.00     0.148 A 
ATOM    100  C   UNL     1      19.225  -8.176  13.208  1.00  0.00     0.002 A 
ATOM    101  C   UNL     1      21.095  -8.281  11.665  1.00  0.00     0.091 A 
ATOM    102  F   UNL     1      20.795  -7.537   9.419  1.00  0.00    -0.205 F 
ATOM    103  C   UNL     1      20.562  -8.467  12.952  1.00  0.00     0.022 A 
BRANCH 101 104
ATOM    104  S   UNL     1      22.800  -8.777  11.398  1.00  0.00     0.127 S 
ATOM    105  O   UNL     1      23.532  -7.684  12.035  1.00  0.00    -0.237 OA
ATOM    106  O   UNL     1      22.867 -10.054  12.110  1.00  0.00    -0.237 OA
ATOM    107  O   UNL     1      22.962  -8.885   9.954  1.00  0.00    -0.744 OA
ENDBRANCH 101 104
ENDBRANCH  74  97
ENDBRANCH  48  49
ENDBRANCH  40  43
ENDBRANCH  38  39
ENDBRANCH  37  38
ENDBRANCH   1  37
TORSDOF 18
