REMARK SMILES COc1ccc(CCc2nnc(NC(=O)[C@@H]3[C@@H](C(=O)NCCCNC(=O)c4ccc(-c5c6nc(c(-c7cccc(S(=O)(=O)[O-])c7F)c7ccc([nH]7)c(-c7cccc(S(=O)(=O)[O-])c7F)c7nc(c(-c8cccc(S(=O)(=O)[O-])c8F)c8ccc5[nH]8)C=C7)C=C6)cc4)C3(C)C)s2)cc1
REMARK SMILES IDX 18 1 19 2 20 3 17 5 16 6 90 7 91 8 92 9 14 10 13 11 15 13
REMARK SMILES IDX 12 14 9 15 10 16 93 17 11 18 8 19 7 20 6 21 3 22 4 23 95 24
REMARK SMILES IDX 5 25 94 26 2 27 1 28 21 29 22 30 23 31 24 32 25 33 26 35
REMARK SMILES IDX 27 36 28 37 89 38 29 39 88 40 30 41 31 42 32 43 82 44 33 45
REMARK SMILES IDX 87 46 81 47 83 48 34 49 86 50 80 51 79 52 35 54 67 55 47 56
REMARK SMILES IDX 66 57 48 58 51 59 65 60 84 61 49 62 50 63 64 65 85 66 52 67
REMARK SMILES IDX 36 68 37 69 45 70 38 71 40 72 46 73 39 74 41 75 42 76 43 77
REMARK SMILES IDX 44 78 68 79 69 80 77 81 70 82 72 83 78 84 71 85 73 86 74 87
REMARK SMILES IDX 75 88 76 89 53 90 54 91 62 92 55 93 57 94 63 95 56 96 58 97
REMARK SMILES IDX 59 98 60 99 61 100
REMARK H PARENT 20 4 13 12 24 34 83 53 51 64
REMARK Flexibility Score: inf
ROOT
ATOM      1  C   UNL     1      -2.186  -2.635  -5.770  1.00  0.00     0.224 C 
ATOM      2  O   UNL     1      -0.961  -2.636  -5.634  1.00  0.00    -0.275 OA
ATOM      3  N   UNL     1      -2.869  -1.686  -5.072  1.00  0.00    -0.356 N 
ATOM      4  H   UNL     1      -2.276  -1.093  -4.555  1.00  0.00     0.163 HD
ENDROOT
BRANCH   1   5
ATOM      5  C   UNL     1      -2.755  -3.632  -6.707  1.00  0.00     0.098 C 
ATOM      6  C   UNL     1      -4.113  -3.671  -7.355  1.00  0.00     0.098 C 
ATOM      7  C   UNL     1      -3.709  -4.758  -6.346  1.00  0.00    -0.011 C 
ATOM      8  C   UNL     1      -4.422  -4.756  -5.010  1.00  0.00     0.013 C 
ATOM      9  C   UNL     1      -3.365  -6.148  -6.821  1.00  0.00     0.013 C 
BRANCH   6  10
ATOM     10  C   UNL     1      -4.128  -3.797  -8.842  1.00  0.00     0.230 C 
ATOM     11  N   UNL     1      -4.225  -2.669  -9.622  1.00  0.00    -0.300 N 
ATOM     12  H   UNL     1      -4.226  -2.795 -10.598  1.00  0.00     0.172 HD
ATOM     13  O   UNL     1      -4.069  -4.899  -9.386  1.00  0.00    -0.274 OA
BRANCH  11  14
ATOM     14  C   UNL     1      -4.320  -1.388  -9.157  1.00  0.00     0.212 A 
ATOM     15  C   UNL     1      -4.838   0.919  -9.008  1.00  0.00     0.119 A 
ATOM     16  N   UNL     1      -4.563   0.389  -7.836  1.00  0.00    -0.142 NA
ATOM     17  S   UNL     1      -4.598  -0.174 -10.328  1.00  0.00    -0.080 S 
ATOM     18  N   UNL     1      -4.267  -0.949  -7.928  1.00  0.00    -0.120 NA
BRANCH  15  19
ATOM     19  C   UNL     1      -5.313   2.325  -9.183  1.00  0.00     0.074 C 
BRANCH  19  20
ATOM     20  C   UNL     1      -6.711   2.468  -9.801  1.00  0.00     0.043 C 
BRANCH  20  21
ATOM     21  C   UNL     1      -7.876   1.921  -9.002  1.00  0.00    -0.047 A 
ATOM     22  C   UNL     1     -10.119   0.908  -7.628  1.00  0.00     0.118 A 
ATOM     23  C   UNL     1      -9.164   0.040  -8.143  1.00  0.00     0.046 A 
ATOM     24  C   UNL     1      -9.946   2.284  -7.762  1.00  0.00     0.046 A 
ATOM     25  C   UNL     1      -8.066   0.541  -8.844  1.00  0.00     0.007 A 
ATOM     26  C   UNL     1      -8.830   2.787  -8.444  1.00  0.00     0.007 A 
BRANCH  22  27
ATOM     27  O   UNL     1     -11.157   0.331  -6.951  1.00  0.00    -0.497 OA
ATOM     28  C   UNL     1     -12.434   0.817  -7.352  1.00  0.00     0.278 C 
ENDBRANCH  22  27
ENDBRANCH  20  21
ENDBRANCH  19  20
ENDBRANCH  15  19
ENDBRANCH  11  14
ENDBRANCH   6  10
ENDBRANCH   1   5
BRANCH   3  29
ATOM     29  C   UNL     1      -4.271  -1.351  -4.917  1.00  0.00     0.117 C 
BRANCH  29  30
ATOM     30  C   UNL     1      -4.728  -1.472  -3.471  1.00  0.00     0.042 C 
BRANCH  30  31
ATOM     31  C   UNL     1      -4.150  -0.396  -2.566  1.00  0.00     0.118 C 
BRANCH  31  32
ATOM     32  N   UNL     1      -4.684   0.925  -2.866  1.00  0.00    -0.352 N 
ATOM     33  C   UNL     1      -5.519   1.732  -2.134  1.00  0.00     0.251 C 
ATOM     34  H   UNL     1      -4.401   1.299  -3.732  1.00  0.00     0.163 HD
ATOM     35  O   UNL     1      -6.019   2.721  -2.665  1.00  0.00    -0.269 OA
BRANCH  33  36
ATOM     36  C   UNL     1      -5.826   1.420  -0.720  1.00  0.00     0.039 A 
ATOM     37  C   UNL     1      -7.115   1.666  -0.240  1.00  0.00     0.014 A 
ATOM     38  C   UNL     1      -4.848   0.928   0.147  1.00  0.00     0.014 A 
ATOM     39  C   UNL     1      -7.427   1.383   1.092  1.00  0.00     0.010 A 
ATOM     40  C   UNL     1      -5.189   0.541   1.439  1.00  0.00     0.010 A 
ATOM     41  C   UNL     1      -6.473   0.795   1.939  1.00  0.00    -0.014 A 
BRANCH  41  42
ATOM     42  C   UNL     1      -6.795   0.473   3.353  1.00  0.00     0.031 A 
ATOM     43  C   UNL     1      -6.018   1.114   4.476  1.00  0.00     0.074 A 
ATOM     44  C   UNL     1      -7.747  -0.439   3.630  1.00  0.00     0.049 A 
ATOM     45  N   UNL     1      -6.151   0.952   5.767  1.00  0.00    -0.248 NA
ATOM     46  C   UNL     1      -4.930   2.034   4.101  1.00  0.00     0.031 C 
ATOM     47  C   UNL     1      -8.509  -1.196   2.634  1.00  0.00     0.029 A 
ATOM     48  N   UNL     1      -8.224  -0.900   4.832  1.00  0.00    -0.354 N 
ATOM     49  C   UNL     1      -5.144   1.712   6.353  1.00  0.00     0.074 A 
ATOM     50  C   UNL     1      -4.382   2.303   5.277  1.00  0.00     0.031 C 
ATOM     51  C   UNL     1      -9.366  -2.014   3.264  1.00  0.00     0.029 A 
ATOM     52  C   UNL     1      -9.195  -1.866   4.706  1.00  0.00     0.049 A 
ATOM     53  H   UNL     1      -7.902  -0.570   5.702  1.00  0.00     0.167 HD
ATOM     54  C   UNL     1      -4.894   1.925   7.666  1.00  0.00     0.034 A 
ATOM     55  C   UNL     1      -9.867  -2.561   5.645  1.00  0.00     0.034 A 
ATOM     56  C   UNL     1      -5.680   1.369   8.733  1.00  0.00     0.049 A 
ATOM     57  C   UNL     1      -9.606  -2.267   7.097  1.00  0.00     0.074 A 
ATOM     58  C   UNL     1      -5.572   1.603  10.093  1.00  0.00     0.029 A 
ATOM     59  N   UNL     1      -6.710   0.458   8.564  1.00  0.00    -0.354 N 
ATOM     60  N   UNL     1      -8.763  -1.415   7.628  1.00  0.00    -0.248 NA
ATOM     61  C   UNL     1     -10.418  -2.999   8.079  1.00  0.00     0.031 C 
ATOM     62  C   UNL     1      -6.512   0.802  10.749  1.00  0.00     0.029 A 
ATOM     63  C   UNL     1      -7.237   0.105   9.795  1.00  0.00     0.049 A 
ATOM     64  H   UNL     1      -7.022   0.112   7.697  1.00  0.00     0.167 HD
ATOM     65  C   UNL     1      -8.966  -1.482   9.001  1.00  0.00     0.074 A 
ATOM     66  C   UNL     1     -10.030  -2.442   9.217  1.00  0.00     0.031 C 
ATOM     67  C   UNL     1      -8.324  -0.819   9.994  1.00  0.00     0.034 A 
BRANCH  54  68
ATOM     68  C   UNL     1      -3.741   2.831   8.023  1.00  0.00     0.023 A 
ATOM     69  C   UNL     1      -3.823   4.213   7.752  1.00  0.00     0.012 A 
ATOM     70  C   UNL     1      -2.601   2.323   8.675  1.00  0.00     0.148 A 
ATOM     71  C   UNL     1      -2.772   5.067   8.085  1.00  0.00     0.002 A 
ATOM     72  C   UNL     1      -1.580   3.189   9.051  1.00  0.00     0.091 A 
ATOM     73  F   UNL     1      -2.530   1.005   8.908  1.00  0.00    -0.205 F 
ATOM     74  C   UNL     1      -1.657   4.557   8.743  1.00  0.00     0.022 A 
BRANCH  72  75
ATOM     75  S   UNL     1      -0.141   2.647   9.980  1.00  0.00     0.127 S 
ATOM     76  O   UNL     1       0.921   2.784   8.985  1.00  0.00    -0.237 OA
ATOM     77  O   UNL     1      -0.090   3.628  11.065  1.00  0.00    -0.237 OA
ATOM     78  O   UNL     1      -0.426   1.284  10.405  1.00  0.00    -0.744 OA
ENDBRANCH  72  75
ENDBRANCH  54  68
BRANCH  55  79
ATOM     79  C   UNL     1     -10.894  -3.560   5.236  1.00  0.00     0.023 A 
ATOM     80  C   UNL     1     -12.257  -3.296   5.471  1.00  0.00     0.012 A 
ATOM     81  C   UNL     1     -10.527  -4.757   4.590  1.00  0.00     0.148 A 
ATOM     82  C   UNL     1     -13.235  -4.222   5.103  1.00  0.00     0.002 A 
ATOM     83  C   UNL     1     -11.509  -5.647   4.173  1.00  0.00     0.091 A 
ATOM     84  F   UNL     1      -9.224  -4.992   4.383  1.00  0.00    -0.205 F 
ATOM     85  C   UNL     1     -12.862  -5.391   4.445  1.00  0.00     0.022 A 
BRANCH  83  86
ATOM     86  S   UNL     1     -11.134  -7.112   3.204  1.00  0.00     0.127 S 
ATOM     87  O   UNL     1     -11.449  -8.182   4.147  1.00  0.00    -0.237 OA
ATOM     88  O   UNL     1     -12.069  -6.979   2.086  1.00  0.00    -0.237 OA
ATOM     89  O   UNL     1      -9.731  -6.991   2.833  1.00  0.00    -0.744 OA
ENDBRANCH  83  86
ENDBRANCH  55  79
BRANCH  67  90
ATOM     90  C   UNL     1      -8.779  -1.069  11.409  1.00  0.00     0.023 A 
ATOM     91  C   UNL     1      -8.516  -2.307  12.028  1.00  0.00     0.012 A 
ATOM     92  C   UNL     1      -9.414  -0.049  12.145  1.00  0.00     0.148 A 
ATOM     93  C   UNL     1      -8.916  -2.540  13.344  1.00  0.00     0.002 A 
ATOM     94  C   UNL     1      -9.759  -0.269  13.473  1.00  0.00     0.091 A 
ATOM     95  F   UNL     1      -9.671   1.117  11.534  1.00  0.00    -0.205 F 
ATOM     96  C   UNL     1      -9.526  -1.519  14.069  1.00  0.00     0.022 A 
BRANCH  94  97
ATOM     97  S   UNL     1     -10.456   1.020  14.512  1.00  0.00     0.127 S 
ATOM     98  O   UNL     1     -11.840   0.573  14.653  1.00  0.00    -0.237 OA
ATOM     99  O   UNL     1      -9.651   0.905  15.729  1.00  0.00    -0.237 OA
ATOM    100  O   UNL     1     -10.273   2.268  13.783  1.00  0.00    -0.744 OA
ENDBRANCH  94  97
ENDBRANCH  67  90
ENDBRANCH  41  42
ENDBRANCH  33  36
ENDBRANCH  31  32
ENDBRANCH  30  31
ENDBRANCH  29  30
ENDBRANCH   3  29
TORSDOF 19
