REMARK SMILES NC(=O)[C@@H]1CCC[N@H+]1[C@H](C(=O)NCCCNC(=O)c1ccc(-c2c3nc(c(-c4cccc(S(=O)(=O)[O-])c4F)c4ccc([nH]4)c(-c4cccc(S(=O)(=O)[O-])c4F)c4nc(c(-c5cccc(S(=O)(=O)[O-])c5F)c5ccc2[nH]5)C=C4)C=C3)cc1)c1c[nH]c2cc(NC(=O)c3ccccc3)ccc12
REMARK SMILES IDX 14 1 13 2 12 3 10 4 11 5 9 7 8 8 4 9 5 10 6 11 7 12 2 14
REMARK SMILES IDX 1 15 3 18 82 19 83 20 99 21 84 22 85 23 98 24 86 26 97 27
REMARK SMILES IDX 87 28 88 29 89 30 90 32 91 33 92 34 96 35 93 36 95 37 94 38
REMARK SMILES IDX 15 39 16 40 17 41 18 43 19 44 20 45 81 46 21 47 80 48 22 49
REMARK SMILES IDX 23 50 24 51 74 52 25 53 79 54 73 55 75 56 26 57 78 58 72 59
REMARK SMILES IDX 71 60 27 62 59 63 39 64 58 65 40 66 43 67 57 68 76 69 41 70
REMARK SMILES IDX 42 71 56 73 77 74 44 75 28 76 29 77 37 78 30 79 32 80 38 81
REMARK SMILES IDX 31 82 33 83 34 84 35 85 36 86 60 87 61 88 69 89 62 90 64 91
REMARK SMILES IDX 70 92 63 93 65 94 66 95 67 96 68 97 45 98 46 99 54 100
REMARK SMILES IDX 47 101 49 102 55 103 48 104 50 105 51 106 52 107 53 108
REMARK H PARENT 12 6 8 13 1 16 1 17 84 25 88 31 16 42 75 61 43 72
REMARK Flexibility Score: inf
ROOT
ATOM      1  C   UNL     1       6.801  -2.300  -1.833  1.00  0.00     0.042 C 
ENDROOT
BRANCH   1   2
ATOM      2  C   UNL     1       5.581  -1.514  -1.267  1.00  0.00     0.118 C 
BRANCH   2   3
ATOM      3  N   UNL     1       4.247  -2.118  -1.308  1.00  0.00    -0.351 N 
ATOM      4  C   UNL     1       3.274  -2.293  -0.343  1.00  0.00     0.283 C 
ATOM      5  O   UNL     1       2.142  -2.028  -0.795  1.00  0.00    -0.268 OA
ATOM      6  H   UNL     1       3.995  -2.465  -2.194  1.00  0.00     0.163 HD
BRANCH   4   7
ATOM      7  C   UNL     1       3.452  -2.715   1.220  1.00  0.00     0.308 C 
BRANCH   7   8
ATOM      8  N   UNL     1       2.082  -3.008   1.797  1.00  0.00    -0.311 N 
ATOM      9  C   UNL     1       1.520  -4.396   1.798  1.00  0.00     0.275 C 
ATOM     10  C   UNL     1       0.939  -4.630   3.193  1.00  0.00     0.081 C 
ATOM     11  C   UNL     1       1.717  -3.661   4.053  1.00  0.00     0.068 C 
ATOM     12  C   UNL     1       1.865  -2.462   3.139  1.00  0.00     0.264 C 
ATOM     13  H   UNL     1       1.564  -2.518   1.067  1.00  0.00     0.349 HD
BRANCH   9  14
ATOM     14  C   UNL     1       0.473  -4.716   0.722  1.00  0.00     0.275 C 
ATOM     15  N   UNL     1       0.356  -3.872  -0.331  1.00  0.00    -0.365 N 
ATOM     16  H   UNL     1      -0.306  -4.053  -1.036  1.00  0.00     0.159 HD
ATOM     17  H   UNL     1       0.935  -3.077  -0.391  1.00  0.00     0.159 HD
ATOM     18  O   UNL     1      -0.225  -5.730   0.749  1.00  0.00    -0.268 OA
ENDBRANCH   9  14
ENDBRANCH   7   8
BRANCH   7  19
ATOM     19  C   UNL     1       4.593  -3.775   1.565  1.00  0.00     0.044 A 
ATOM     20  C   UNL     1       5.735  -3.769   0.768  1.00  0.00     0.094 A 
ATOM     21  C   UNL     1       4.507  -5.211   1.520  1.00  0.00     0.009 A 
ATOM     22  N   UNL     1       5.171  -4.493  -0.318  1.00  0.00    -0.361 N 
ATOM     23  C   UNL     1       4.113  -5.271   0.188  1.00  0.00     0.048 A 
ATOM     24  C   UNL     1       5.186  -6.389   1.953  1.00  0.00     0.013 A 
ATOM     25  H   UNL     1       5.468  -4.457  -1.256  1.00  0.00     0.166 HD
ATOM     26  C   UNL     1       3.601  -6.430  -0.334  1.00  0.00     0.052 A 
ATOM     27  C   UNL     1       5.204  -7.506   1.054  1.00  0.00     0.027 A 
ATOM     28  C   UNL     1       4.441  -7.500  -0.131  1.00  0.00     0.043 A 
BRANCH  28  29
ATOM     29  N   UNL     1       4.562  -8.509  -1.108  1.00  0.00    -0.322 N 
ATOM     30  C   UNL     1       4.087  -8.556  -2.417  1.00  0.00     0.255 C 
ATOM     31  H   UNL     1       5.061  -9.307  -0.819  1.00  0.00     0.170 HD
ATOM     32  O   UNL     1       4.260  -9.549  -3.119  1.00  0.00    -0.269 OA
BRANCH  30  33
ATOM     33  C   UNL     1       3.405  -7.400  -3.057  1.00  0.00     0.040 A 
ATOM     34  C   UNL     1       2.016  -7.430  -3.234  1.00  0.00     0.014 A 
ATOM     35  C   UNL     1       4.123  -6.242  -3.386  1.00  0.00     0.014 A 
ATOM     36  C   UNL     1       1.343  -6.276  -3.654  1.00  0.00     0.001 A 
ATOM     37  C   UNL     1       3.445  -5.097  -3.819  1.00  0.00     0.001 A 
ATOM     38  C   UNL     1       2.055  -5.108  -3.932  1.00  0.00     0.000 A 
ENDBRANCH  30  33
ENDBRANCH  28  29
ENDBRANCH   7  19
ENDBRANCH   4   7
ENDBRANCH   2   3
ENDBRANCH   1   2
BRANCH   1  39
ATOM     39  C   UNL     1       6.629  -3.060  -3.155  1.00  0.00     0.118 C 
BRANCH  39  40
ATOM     40  N   UNL     1       7.728  -2.804  -4.077  1.00  0.00    -0.352 N 
ATOM     41  C   UNL     1       8.792  -3.575  -4.493  1.00  0.00     0.251 C 
ATOM     42  H   UNL     1       7.707  -1.906  -4.482  1.00  0.00     0.163 HD
ATOM     43  O   UNL     1       9.680  -3.047  -5.150  1.00  0.00    -0.269 OA
BRANCH  41  44
ATOM     44  C   UNL     1       8.901  -5.014  -4.152  1.00  0.00     0.039 A 
ATOM     45  C   UNL     1      10.134  -5.504  -3.707  1.00  0.00     0.014 A 
ATOM     46  C   UNL     1       7.848  -5.904  -4.366  1.00  0.00     0.014 A 
ATOM     47  C   UNL     1      10.295  -6.867  -3.429  1.00  0.00     0.010 A 
ATOM     48  C   UNL     1       7.991  -7.257  -4.028  1.00  0.00     0.010 A 
ATOM     49  C   UNL     1       9.220  -7.759  -3.567  1.00  0.00    -0.014 A 
BRANCH  49  50
ATOM     50  C   UNL     1       9.386  -9.211  -3.265  1.00  0.00     0.031 A 
ATOM     51  C   UNL     1       9.211 -10.249  -4.345  1.00  0.00     0.074 A 
ATOM     52  C   UNL     1       9.645  -9.617  -2.005  1.00  0.00     0.049 A 
ATOM     53  N   UNL     1       9.301 -11.553  -4.263  1.00  0.00    -0.248 NA
ATOM     54  C   UNL     1       8.874  -9.757  -5.689  1.00  0.00     0.031 C 
ATOM     55  C   UNL     1       9.777  -8.736  -0.845  1.00  0.00     0.029 A 
ATOM     56  N   UNL     1       9.818 -10.879  -1.485  1.00  0.00    -0.354 N 
ATOM     57  C   UNL     1       8.976 -12.038  -5.525  1.00  0.00     0.074 A 
ATOM     58  C   UNL     1       8.670 -10.888  -6.348  1.00  0.00     0.031 C 
ATOM     59  C   UNL     1      10.008  -9.480   0.248  1.00  0.00     0.029 A 
ATOM     60  C   UNL     1      10.007 -10.895  -0.123  1.00  0.00     0.049 A 
ATOM     61  H   UNL     1       9.807 -11.694  -2.036  1.00  0.00     0.167 HD
ATOM     62  C   UNL     1       8.954 -13.318  -5.973  1.00  0.00     0.034 A 
ATOM     63  C   UNL     1      10.147 -11.923   0.739  1.00  0.00     0.034 A 
ATOM     64  C   UNL     1       9.294 -14.463  -5.171  1.00  0.00     0.049 A 
ATOM     65  C   UNL     1      10.160 -13.335   0.219  1.00  0.00     0.074 A 
ATOM     66  C   UNL     1       9.406 -15.785  -5.564  1.00  0.00     0.029 A 
ATOM     67  N   UNL     1       9.551 -14.428  -3.810  1.00  0.00    -0.354 N 
ATOM     68  N   UNL     1      10.021 -13.760  -1.012  1.00  0.00    -0.248 NA
ATOM     69  C   UNL     1      10.384 -14.409   1.200  1.00  0.00     0.031 C 
ATOM     70  C   UNL     1       9.691 -16.555  -4.432  1.00  0.00     0.029 A 
ATOM     71  C   UNL     1       9.803 -15.707  -3.342  1.00  0.00     0.049 A 
ATOM     72  H   UNL     1       9.554 -13.614  -3.256  1.00  0.00     0.167 HD
ATOM     73  C   UNL     1      10.175 -15.141  -0.962  1.00  0.00     0.074 A 
ATOM     74  C   UNL     1      10.431 -15.482   0.422  1.00  0.00     0.031 C 
ATOM     75  C   UNL     1      10.104 -16.042  -1.973  1.00  0.00     0.034 A 
BRANCH  62  76
ATOM     76  C   UNL     1       8.571 -13.545  -7.415  1.00  0.00     0.023 A 
ATOM     77  C   UNL     1       9.436 -13.125  -8.447  1.00  0.00     0.012 A 
ATOM     78  C   UNL     1       7.370 -14.203  -7.748  1.00  0.00     0.148 A 
ATOM     79  C   UNL     1       9.087 -13.302  -9.785  1.00  0.00     0.002 A 
ATOM     80  C   UNL     1       7.053 -14.423  -9.084  1.00  0.00     0.091 A 
ATOM     81  F   UNL     1       6.552 -14.586  -6.758  1.00  0.00    -0.205 F 
ATOM     82  C   UNL     1       7.901 -13.957 -10.102  1.00  0.00     0.022 A 
BRANCH  80  83
ATOM     83  S   UNL     1       5.596 -15.341  -9.593  1.00  0.00     0.127 S 
ATOM     84  O   UNL     1       4.731 -14.273 -10.089  1.00  0.00    -0.237 OA
ATOM     85  O   UNL     1       6.133 -16.221 -10.632  1.00  0.00    -0.237 OA
ATOM     86  O   UNL     1       5.123 -16.034  -8.402  1.00  0.00    -0.744 OA
ENDBRANCH  80  83
ENDBRANCH  62  76
BRANCH  63  87
ATOM     87  C   UNL     1      10.322 -11.638   2.191  1.00  0.00     0.023 A 
ATOM     88  C   UNL     1      11.569 -11.855   2.806  1.00  0.00     0.012 A 
ATOM     89  C   UNL     1       9.267 -11.092   2.948  1.00  0.00     0.148 A 
ATOM     90  C   UNL     1      11.757 -11.550   4.156  1.00  0.00     0.002 A 
ATOM     91  C   UNL     1       9.479 -10.731   4.272  1.00  0.00     0.091 A 
ATOM     92  F   UNL     1       8.085 -10.904   2.344  1.00  0.00    -0.205 F 
ATOM     93  C   UNL     1      10.718 -10.976   4.884  1.00  0.00     0.022 A 
BRANCH  91  94
ATOM     94  S   UNL     1       8.250  -9.838   5.230  1.00  0.00     0.127 S 
ATOM     95  O   UNL     1       7.881 -10.827   6.239  1.00  0.00    -0.237 OA
ATOM     96  O   UNL     1       9.028  -8.704   5.730  1.00  0.00    -0.237 OA
ATOM     97  O   UNL     1       7.203  -9.473   4.284  1.00  0.00    -0.744 OA
ENDBRANCH  91  94
ENDBRANCH  63  87
BRANCH  75  98
ATOM     98  C   UNL     1      10.352 -17.494  -1.651  1.00  0.00     0.023 A 
ATOM     99  C   UNL     1       9.386 -18.239  -0.947  1.00  0.00     0.012 A 
ATOM    100  C   UNL     1      11.505 -18.144  -2.138  1.00  0.00     0.148 A 
ATOM    101  C   UNL     1       9.575 -19.601  -0.711  1.00  0.00     0.002 A 
ATOM    102  C   UNL     1      11.661 -19.511  -1.944  1.00  0.00     0.091 A 
ATOM    103  F   UNL     1      12.422 -17.414  -2.789  1.00  0.00    -0.205 F 
ATOM    104  C   UNL     1      10.703 -20.239  -1.221  1.00  0.00     0.022 A 
BRANCH 102 105
ATOM    105  S   UNL     1      13.031 -20.434  -2.651  1.00  0.00     0.127 S 
ATOM    106  O   UNL     1      13.807 -20.774  -1.459  1.00  0.00    -0.237 OA
ATOM    107  O   UNL     1      12.351 -21.567  -3.278  1.00  0.00    -0.237 OA
ATOM    108  O   UNL     1      13.689 -19.530  -3.584  1.00  0.00    -0.744 OA
ENDBRANCH 102 105
ENDBRANCH  75  98
ENDBRANCH  49  50
ENDBRANCH  41  44
ENDBRANCH  39  40
ENDBRANCH   1  39
TORSDOF 18
