REMARK SMILES COc1ccc(CCN2C(=O)C[C@@H](C(=O)NCCCNC(=O)c3ccc(-c4c5nc(c(-c6cccc(S(=O)(=O)[O-])c6F)c6ccc([nH]6)c(-c6cccc(S(=O)(=O)[O-])c6F)c6nc(c(-c7cccc(S(=O)(=O)[O-])c7F)c7ccc4[nH]7)C=C6)C=C5)cc3)S/C2=[NH+]\c2ccc(F)cc2)cc1OC
REMARK SMILES IDX 17 1 16 2 14 3 15 4 13 6 9 7 10 8 87 9 11 10 12 11 86 12
REMARK SMILES IDX 88 13 8 15 7 16 6 17 3 18 4 19 97 20 5 21 96 22 2 23 1 24
REMARK SMILES IDX 98 25 99 26 89 27 90 28 95 29 91 30 94 31 92 32 93 33 18 34
REMARK SMILES IDX 19 35 20 36 21 37 22 39 23 40 24 41 85 42 25 43 84 44 26 45
REMARK SMILES IDX 27 46 28 47 78 48 29 49 83 50 77 51 79 52 30 53 82 54 76 55
REMARK SMILES IDX 75 56 31 58 63 59 43 60 62 61 44 62 47 63 61 64 80 65 45 66
REMARK SMILES IDX 46 67 60 69 81 70 48 71 32 72 33 73 41 74 34 75 36 76 42 77
REMARK SMILES IDX 35 78 37 79 38 80 39 81 40 82 64 83 65 84 73 85 66 86 68 87
REMARK SMILES IDX 74 88 67 89 69 90 70 91 71 92 72 93 49 94 50 95 58 96 51 97
REMARK SMILES IDX 53 98 59 99 52 100 54 101 55 102 56 103 57 104
REMARK H PARENT 16 5 88 14 20 38 79 57 47 68
REMARK Flexibility Score: inf
ROOT
ATOM      1  C   UNL     1      -2.190  -3.887   2.559  1.00  0.00     0.117 C 
ENDROOT
BRANCH   1   2
ATOM      2  N   UNL     1      -3.458  -3.495   3.144  1.00  0.00    -0.355 N 
ATOM      3  C   UNL     1      -3.831  -3.369   4.455  1.00  0.00     0.234 C 
ATOM      4  O   UNL     1      -4.918  -2.824   4.676  1.00  0.00    -0.274 OA
ATOM      5  H   UNL     1      -4.165  -3.285   2.492  1.00  0.00     0.163 HD
BRANCH   3   6
ATOM      6  C   UNL     1      -2.942  -3.804   5.634  1.00  0.00     0.160 C 
ATOM      7  N   UNL     1      -0.049  -4.514   5.906  1.00  0.00    -0.191 N 
ATOM      8  C   UNL     1      -0.478  -3.258   6.297  1.00  0.00     0.311 C 
ATOM      9  C   UNL     1      -0.870  -5.614   6.096  1.00  0.00     0.319 C 
ATOM     10  O   UNL     1       0.264  -2.453   6.869  1.00  0.00    -0.247 OA
ATOM     11  C   UNL     1      -1.866  -2.792   5.927  1.00  0.00     0.153 C 
ATOM     12  S   UNL     1      -2.478  -5.508   5.428  1.00  0.00    -0.024 SA
ATOM     13  N   UNL     1      -0.431  -6.686   6.688  1.00  0.00    -0.235 N 
ATOM     14  H   UNL     1       0.514  -6.764   6.952  1.00  0.00     0.313 HD
BRANCH   7  15
ATOM     15  C   UNL     1       1.417  -4.701   5.765  1.00  0.00     0.251 C 
BRANCH  15  16
ATOM     16  C   UNL     1       1.932  -4.710   4.289  1.00  0.00     0.082 C 
BRANCH  16  17
ATOM     17  C   UNL     1       1.912  -3.422   3.474  1.00  0.00    -0.040 A 
ATOM     18  C   UNL     1       1.706  -1.155   1.758  1.00  0.00     0.160 A 
ATOM     19  C   UNL     1       0.666  -1.500   2.607  1.00  0.00     0.051 A 
ATOM     20  C   UNL     1       2.888  -1.907   1.788  1.00  0.00     0.160 A 
ATOM     21  C   UNL     1       0.780  -2.620   3.423  1.00  0.00     0.008 A 
ATOM     22  C   UNL     1       2.974  -3.037   2.641  1.00  0.00     0.054 A 
BRANCH  18  23
ATOM     23  O   UNL     1       1.557  -0.048   0.965  1.00  0.00    -0.493 OA
ATOM     24  C   UNL     1       0.426  -0.151   0.093  1.00  0.00     0.278 C 
ENDBRANCH  18  23
BRANCH  20  25
ATOM     25  O   UNL     1       4.027  -1.690   1.055  1.00  0.00    -0.493 OA
ATOM     26  C   UNL     1       3.967  -0.720   0.017  1.00  0.00     0.278 C 
ENDBRANCH  20  25
ENDBRANCH  16  17
ENDBRANCH  15  16
ENDBRANCH   7  15
BRANCH  13  27
ATOM     27  C   UNL     1      -1.341  -7.733   6.944  1.00  0.00     0.125 A 
ATOM     28  C   UNL     1      -2.079  -7.729   8.138  1.00  0.00     0.055 A 
ATOM     29  C   UNL     1      -1.614  -8.707   5.975  1.00  0.00     0.055 A 
ATOM     30  C   UNL     1      -3.133  -8.626   8.321  1.00  0.00     0.043 A 
ATOM     31  C   UNL     1      -2.674  -9.601   6.155  1.00  0.00     0.043 A 
ATOM     32  C   UNL     1      -3.433  -9.541   7.319  1.00  0.00     0.123 A 
ATOM     33  F   UNL     1      -4.479 -10.362   7.473  1.00  0.00    -0.207 F 
ENDBRANCH  13  27
ENDBRANCH   3   6
ENDBRANCH   1   2
BRANCH   1  34
ATOM     34  C   UNL     1      -2.230  -5.117   1.669  1.00  0.00     0.042 C 
BRANCH  34  35
ATOM     35  C   UNL     1      -2.896  -4.905   0.319  1.00  0.00     0.118 C 
BRANCH  35  36
ATOM     36  N   UNL     1      -2.208  -3.936  -0.531  1.00  0.00    -0.352 N 
ATOM     37  C   UNL     1      -1.720  -4.062  -1.812  1.00  0.00     0.251 C 
ATOM     38  H   UNL     1      -2.072  -3.051  -0.122  1.00  0.00     0.163 HD
ATOM     39  O   UNL     1      -1.079  -3.134  -2.305  1.00  0.00    -0.269 OA
BRANCH  37  40
ATOM     40  C   UNL     1      -1.936  -5.310  -2.581  1.00  0.00     0.039 A 
ATOM     41  C   UNL     1      -0.885  -5.843  -3.336  1.00  0.00     0.014 A 
ATOM     42  C   UNL     1      -3.164  -5.969  -2.542  1.00  0.00     0.014 A 
ATOM     43  C   UNL     1      -1.039  -7.084  -3.965  1.00  0.00     0.010 A 
ATOM     44  C   UNL     1      -3.281  -7.245  -3.079  1.00  0.00     0.010 A 
ATOM     45  C   UNL     1      -2.221  -7.821  -3.797  1.00  0.00    -0.014 A 
BRANCH  45  46
ATOM     46  C   UNL     1      -2.404  -9.190  -4.352  1.00  0.00     0.031 A 
ATOM     47  C   UNL     1      -3.550  -9.463  -5.292  1.00  0.00     0.074 A 
ATOM     48  C   UNL     1      -1.641 -10.209  -3.905  1.00  0.00     0.049 A 
ATOM     49  N   UNL     1      -4.013 -10.607  -5.722  1.00  0.00    -0.248 NA
ATOM     50  C   UNL     1      -4.302  -8.292  -5.777  1.00  0.00     0.031 C 
ATOM     51  C   UNL     1      -0.542 -10.091  -2.944  1.00  0.00     0.029 A 
ATOM     52  N   UNL     1      -1.704 -11.556  -4.169  1.00  0.00    -0.354 N 
ATOM     53  C   UNL     1      -5.140 -10.300  -6.475  1.00  0.00     0.074 A 
ATOM     54  C   UNL     1      -5.310  -8.865  -6.418  1.00  0.00     0.031 C 
ATOM     55  C   UNL     1      -0.039 -11.312  -2.697  1.00  0.00     0.029 A 
ATOM     56  C   UNL     1      -0.802 -12.304  -3.446  1.00  0.00     0.049 A 
ATOM     57  H   UNL     1      -2.334 -11.949  -4.815  1.00  0.00     0.167 HD
ATOM     58  C   UNL     1      -5.947 -11.132  -7.175  1.00  0.00     0.034 A 
ATOM     59  C   UNL     1      -0.622 -13.638  -3.380  1.00  0.00     0.034 A 
ATOM     60  C   UNL     1      -5.733 -12.548  -7.288  1.00  0.00     0.049 A 
ATOM     61  C   UNL     1      -1.496 -14.536  -4.216  1.00  0.00     0.074 A 
ATOM     62  C   UNL     1      -6.442 -13.467  -8.041  1.00  0.00     0.029 A 
ATOM     63  N   UNL     1      -4.729 -13.249  -6.639  1.00  0.00    -0.354 N 
ATOM     64  N   UNL     1      -2.478 -14.213  -5.021  1.00  0.00    -0.248 NA
ATOM     65  C   UNL     1      -1.216 -15.979  -4.162  1.00  0.00     0.031 C 
ATOM     66  C   UNL     1      -5.870 -14.727  -7.841  1.00  0.00     0.029 A 
ATOM     67  C   UNL     1      -4.792 -14.588  -6.981  1.00  0.00     0.049 A 
ATOM     68  H   UNL     1      -4.068 -12.853  -6.026  1.00  0.00     0.167 HD
ATOM     69  C   UNL     1      -2.898 -15.402  -5.607  1.00  0.00     0.074 A 
ATOM     70  C   UNL     1      -2.059 -16.453  -5.070  1.00  0.00     0.031 C 
ATOM     71  C   UNL     1      -3.896 -15.607  -6.500  1.00  0.00     0.034 A 
BRANCH  58  72
ATOM     72  C   UNL     1      -7.099 -10.523  -7.931  1.00  0.00     0.023 A 
ATOM     73  C   UNL     1      -6.841  -9.749  -9.081  1.00  0.00     0.012 A 
ATOM     74  C   UNL     1      -8.432 -10.762  -7.544  1.00  0.00     0.148 A 
ATOM     75  C   UNL     1      -7.889  -9.192  -9.812  1.00  0.00     0.002 A 
ATOM     76  C   UNL     1      -9.473 -10.243  -8.305  1.00  0.00     0.091 A 
ATOM     77  F   UNL     1      -8.657 -11.484  -6.436  1.00  0.00    -0.205 F 
ATOM     78  C   UNL     1      -9.203  -9.448  -9.431  1.00  0.00     0.022 A 
BRANCH  76  79
ATOM     79  S   UNL     1     -11.200 -10.581  -7.945  1.00  0.00     0.127 S 
ATOM     80  O   UNL     1     -11.659  -9.283  -7.455  1.00  0.00    -0.237 OA
ATOM     81  O   UNL     1     -11.721 -10.955  -9.261  1.00  0.00    -0.237 OA
ATOM     82  O   UNL     1     -11.202 -11.657  -6.964  1.00  0.00    -0.744 OA
ENDBRANCH  76  79
ENDBRANCH  58  72
BRANCH  59  83
ATOM     83  C   UNL     1       0.475 -14.207  -2.545  1.00  0.00     0.023 A 
ATOM     84  C   UNL     1       1.591 -14.787  -3.180  1.00  0.00     0.012 A 
ATOM     85  C   UNL     1       0.435 -14.162  -1.138  1.00  0.00     0.148 A 
ATOM     86  C   UNL     1       2.629 -15.344  -2.432  1.00  0.00     0.002 A 
ATOM     87  C   UNL     1       1.498 -14.669  -0.399  1.00  0.00     0.091 A 
ATOM     88  F   UNL     1      -0.639 -13.618  -0.549  1.00  0.00    -0.205 F 
ATOM     89  C   UNL     1       2.587 -15.276  -1.043  1.00  0.00     0.022 A 
BRANCH  87  90
ATOM     90  S   UNL     1       1.589 -14.505   1.388  1.00  0.00     0.127 S 
ATOM     91  O   UNL     1       1.310 -15.868   1.829  1.00  0.00    -0.237 OA
ATOM     92  O   UNL     1       2.971 -14.064   1.584  1.00  0.00    -0.237 OA
ATOM     93  O   UNL     1       0.590 -13.504   1.739  1.00  0.00    -0.744 OA
ENDBRANCH  87  90
ENDBRANCH  59  83
BRANCH  71  94
ATOM     94  C   UNL     1      -4.104 -17.003  -7.021  1.00  0.00     0.023 A 
ATOM     95  C   UNL     1      -4.713 -17.976  -6.205  1.00  0.00     0.012 A 
ATOM     96  C   UNL     1      -3.792 -17.315  -8.360  1.00  0.00     0.148 A 
ATOM     97  C   UNL     1      -4.990 -19.247  -6.709  1.00  0.00     0.002 A 
ATOM     98  C   UNL     1      -4.114 -18.567  -8.868  1.00  0.00     0.091 A 
ATOM     99  F   UNL     1      -3.196 -16.378  -9.111  1.00  0.00    -0.205 F 
ATOM    100  C   UNL     1      -4.704 -19.537  -8.042  1.00  0.00     0.022 A 
BRANCH  98 101
ATOM    101  S   UNL     1      -3.875 -18.994 -10.597  1.00  0.00     0.127 S 
ATOM    102  O   UNL     1      -2.757 -19.933 -10.519  1.00  0.00    -0.237 OA
ATOM    103  O   UNL     1      -5.160 -19.602 -10.946  1.00  0.00    -0.237 OA
ATOM    104  O   UNL     1      -3.592 -17.741 -11.285  1.00  0.00    -0.744 OA
ENDBRANCH  98 101
ENDBRANCH  71  94
ENDBRANCH  45  46
ENDBRANCH  37  40
ENDBRANCH  35  36
ENDBRANCH  34  35
ENDBRANCH   1  34
TORSDOF 19
