REMARK SMILES COc1cccc([C@@H]2CC(c3cccc(C)c3)=NN2C(=O)CCC(=O)NCCCNC(=O)c2ccc(-c3c4nc(c(-c5cccc(S(=O)(=O)[O-])c5F)c5ccc([nH]5)c(-c5cccc(S(=O)(=O)[O-])c5F)c5nc(c(-c6cccc(S(=O)(=O)[O-])c6F)c6ccc3[nH]6)C=C5)C=C4)cc2)c1
REMARK SMILES IDX 27 1 26 2 24 3 25 4 23 6 22 7 20 8 21 9 19 10 8 11 9 12
REMARK SMILES IDX 10 13 18 14 7 15 3 16 4 17 96 18 5 19 6 20 2 21 1 22 11 23
REMARK SMILES IDX 12 24 17 25 13 26 15 27 14 28 16 29 28 30 29 31 30 32 31 33
REMARK SMILES IDX 32 35 33 36 34 37 95 38 35 39 94 40 36 41 37 42 38 43 88 44
REMARK SMILES IDX 39 45 93 46 87 47 89 48 40 49 92 50 86 51 85 52 41 54 73 55
REMARK SMILES IDX 53 56 72 57 54 58 57 59 71 60 90 61 55 62 56 63 70 65 91 66
REMARK SMILES IDX 58 67 42 68 43 69 51 70 44 71 46 72 52 73 45 74 47 75 48 76
REMARK SMILES IDX 49 77 50 78 74 79 75 80 83 81 76 82 78 83 84 84 77 85 79 86
REMARK SMILES IDX 80 87 81 88 82 89 59 90 60 91 68 92 61 93 63 94 69 95 62 96
REMARK SMILES IDX 64 97 65 98 66 99 67 100
REMARK H PARENT 26 5 30 34 89 53 57 64
REMARK Flexibility Score: inf
ROOT
ATOM      1  C   UNL     1       4.545  -1.133   2.800  1.00  0.00     0.117 C 
ENDROOT
BRANCH   1   2
ATOM      2  N   UNL     1       3.605  -1.766   1.891  1.00  0.00    -0.356 N 
ATOM      3  C   UNL     1       2.593  -2.643   2.164  1.00  0.00     0.220 C 
ATOM      4  O   UNL     1       1.685  -2.780   1.338  1.00  0.00    -0.275 OA
ATOM      5  H   UNL     1       3.713  -1.529   0.941  1.00  0.00     0.163 HD
BRANCH   3   6
ATOM      6  C   UNL     1       2.630  -3.520   3.401  1.00  0.00     0.110 C 
BRANCH   6   7
ATOM      7  C   UNL     1       3.407  -4.819   3.188  1.00  0.00     0.112 C 
BRANCH   7   8
ATOM      8  C   UNL     1       4.779  -4.599   2.577  1.00  0.00     0.243 C 
ATOM      9  O   UNL     1       5.741  -4.494   3.341  1.00  0.00    -0.273 OA
BRANCH   8  10
ATOM     10  N   UNL     1       4.844  -4.420   1.200  1.00  0.00    -0.225 N 
ATOM     11  C   UNL     1       3.929  -4.947   0.181  1.00  0.00     0.147 C 
ATOM     12  C   UNL     1       4.386  -4.280  -1.110  1.00  0.00     0.091 C 
ATOM     13  C   UNL     1       5.609  -3.560  -0.612  1.00  0.00     0.071 C 
ATOM     14  N   UNL     1       5.898  -3.739   0.637  1.00  0.00    -0.174 NA
BRANCH  11  15
ATOM     15  C   UNL     1       4.024  -6.459   0.241  1.00  0.00    -0.019 A 
ATOM     16  C   UNL     1       2.977  -8.504   1.019  1.00  0.00     0.119 A 
ATOM     17  C   UNL     1       4.240  -9.082   1.157  1.00  0.00     0.046 A 
ATOM     18  C   UNL     1       2.871  -7.197   0.546  1.00  0.00     0.052 A 
ATOM     19  C   UNL     1       5.387  -8.385   0.780  1.00  0.00     0.004 A 
ATOM     20  C   UNL     1       5.280  -7.085   0.304  1.00  0.00     0.006 A 
BRANCH  16  21
ATOM     21  O   UNL     1       1.926  -9.268   1.447  1.00  0.00    -0.497 OA
ATOM     22  C   UNL     1       0.632  -8.798   1.087  1.00  0.00     0.278 C 
ENDBRANCH  16  21
ENDBRANCH  11  15
BRANCH  13  23
ATOM     23  C   UNL     1       6.343  -2.632  -1.484  1.00  0.00    -0.002 A 
ATOM     24  C   UNL     1       8.154  -2.495  -1.533  1.00  0.00     0.010 A 
ATOM     25  C   UNL     1       5.403  -1.545  -2.536  1.00  0.00     0.013 A 
ATOM     26  C   UNL     1       8.942  -1.177  -2.854  1.00  0.00     0.001 A 
ATOM     27  C   UNL     1       6.154  -0.364  -3.646  1.00  0.00    -0.050 A 
ATOM     28  C   UNL     1       7.872  -0.172  -3.840  1.00  0.00     0.003 A 
ATOM     29  C   UNL     1       5.345   0.729  -4.293  1.00  0.00     0.044 C 
ENDBRANCH  13  23
ENDBRANCH   8  10
ENDBRANCH   7   8
ENDBRANCH   6   7
ENDBRANCH   3   6
ENDBRANCH   1   2
BRANCH   1  30
ATOM     30  C   UNL     1       6.049  -1.346   2.613  1.00  0.00     0.042 C 
BRANCH  30  31
ATOM     31  C   UNL     1       6.806  -0.951   1.339  1.00  0.00     0.118 C 
BRANCH  31  32
ATOM     32  N   UNL     1       6.147  -0.069   0.384  1.00  0.00    -0.352 N 
ATOM     33  C   UNL     1       6.420   0.178  -0.965  1.00  0.00     0.251 C 
ATOM     34  H   UNL     1       5.385   0.435   0.749  1.00  0.00     0.163 HD
ATOM     35  O   UNL     1       5.904   1.188  -1.439  1.00  0.00    -0.269 OA
BRANCH  33  36
ATOM     36  C   UNL     1       7.417  -0.761  -1.770  1.00  0.00     0.039 A 
ATOM     37  C   UNL     1       8.926  -0.585  -0.816  1.00  0.00     0.014 A 
ATOM     38  C   UNL     1       7.397  -2.178  -3.226  1.00  0.00     0.014 A 
ATOM     39  C   UNL     1      10.262  -1.649  -1.147  1.00  0.00     0.010 A 
ATOM     40  C   UNL     1       8.846  -3.246  -3.402  1.00  0.00     0.010 A 
ATOM     41  C   UNL     1      10.256  -2.947  -2.373  1.00  0.00    -0.014 A 
BRANCH  41  42
ATOM     42  C   UNL     1      11.594  -3.596  -2.657  1.00  0.00     0.031 A 
ATOM     43  C   UNL     1      12.031  -3.917  -4.072  1.00  0.00     0.074 A 
ATOM     44  C   UNL     1      12.488  -3.798  -1.660  1.00  0.00     0.049 A 
ATOM     45  N   UNL     1      13.068  -4.608  -4.480  1.00  0.00    -0.248 NA
ATOM     46  C   UNL     1      11.189  -3.442  -5.178  1.00  0.00     0.031 C 
ATOM     47  C   UNL     1      12.252  -3.559  -0.235  1.00  0.00     0.029 A 
ATOM     48  N   UNL     1      13.805  -4.206  -1.689  1.00  0.00    -0.354 N 
ATOM     49  C   UNL     1      12.914  -4.761  -5.856  1.00  0.00     0.074 A 
ATOM     50  C   UNL     1      11.682  -4.103  -6.214  1.00  0.00     0.031 C 
ATOM     51  C   UNL     1      13.403  -3.654   0.440  1.00  0.00     0.029 A 
ATOM     52  C   UNL     1      14.417  -4.191  -0.452  1.00  0.00     0.049 A 
ATOM     53  H   UNL     1      14.265  -4.482  -2.514  1.00  0.00     0.167 HD
ATOM     54  C   UNL     1      13.735  -5.365  -6.749  1.00  0.00     0.034 A 
ATOM     55  C   UNL     1      15.621  -4.638  -0.042  1.00  0.00     0.034 A 
ATOM     56  C   UNL     1      15.035  -5.880  -6.418  1.00  0.00     0.049 A 
ATOM     57  C   UNL     1      16.514  -5.301  -1.046  1.00  0.00     0.074 A 
ATOM     58  C   UNL     1      15.970  -6.458  -7.258  1.00  0.00     0.029 A 
ATOM     59  N   UNL     1      15.595  -5.858  -5.151  1.00  0.00    -0.354 N 
ATOM     60  N   UNL     1      16.328  -5.462  -2.333  1.00  0.00    -0.248 NA
ATOM     61  C   UNL     1      17.777  -5.858  -0.543  1.00  0.00     0.031 C 
ATOM     62  C   UNL     1      17.075  -6.832  -6.489  1.00  0.00     0.029 A 
ATOM     63  C   UNL     1      16.856  -6.426  -5.183  1.00  0.00     0.049 A 
ATOM     64  H   UNL     1      15.160  -5.492  -4.347  1.00  0.00     0.167 HD
ATOM     65  C   UNL     1      17.458  -6.119  -2.798  1.00  0.00     0.074 A 
ATOM     66  C   UNL     1      18.338  -6.297  -1.661  1.00  0.00     0.031 C 
ATOM     67  C   UNL     1      17.736  -6.552  -4.051  1.00  0.00     0.034 A 
BRANCH  54  68
ATOM     68  C   UNL     1      13.254  -5.514  -8.174  1.00  0.00     0.023 A 
ATOM     69  C   UNL     1      13.116  -4.395  -9.019  1.00  0.00     0.012 A 
ATOM     70  C   UNL     1      12.984  -6.800  -8.688  1.00  0.00     0.148 A 
ATOM     71  C   UNL     1      12.668  -4.547 -10.332  1.00  0.00     0.002 A 
ATOM     72  C   UNL     1      12.598  -6.949 -10.014  1.00  0.00     0.091 A 
ATOM     73  F   UNL     1      13.110  -7.854  -7.870  1.00  0.00    -0.205 F 
ATOM     74  C   UNL     1      12.421  -5.823 -10.832  1.00  0.00     0.022 A 
BRANCH  72  75
ATOM     75  S   UNL     1      12.346  -8.556 -10.777  1.00  0.00     0.127 S 
ATOM     76  O   UNL     1      10.911  -8.526 -11.059  1.00  0.00    -0.237 OA
ATOM     77  O   UNL     1      13.202  -8.468 -11.960  1.00  0.00    -0.237 OA
ATOM     78  O   UNL     1      12.763  -9.543  -9.792  1.00  0.00    -0.744 OA
ENDBRANCH  72  75
ENDBRANCH  54  68
BRANCH  55  79
ATOM     79  C   UNL     1      16.013  -4.554   1.399  1.00  0.00     0.023 A 
ATOM     80  C   UNL     1      17.123  -3.780   1.791  1.00  0.00     0.012 A 
ATOM     81  C   UNL     1      15.278  -5.240   2.389  1.00  0.00     0.148 A 
ATOM     82  C   UNL     1      17.505  -3.712   3.133  1.00  0.00     0.002 A 
ATOM     83  C   UNL     1      15.617  -5.104   3.729  1.00  0.00     0.091 A 
ATOM     84  F   UNL     1      14.244  -5.999   2.001  1.00  0.00    -0.205 F 
ATOM     85  C   UNL     1      16.743  -4.359   4.103  1.00  0.00     0.022 A 
BRANCH  83  86
ATOM     86  S   UNL     1      14.601  -5.779   5.047  1.00  0.00     0.127 S 
ATOM     87  O   UNL     1      15.464  -6.830   5.580  1.00  0.00    -0.237 OA
ATOM     88  O   UNL     1      14.432  -4.617   5.920  1.00  0.00    -0.237 OA
ATOM     89  O   UNL     1      13.374  -6.233   4.406  1.00  0.00    -0.744 OA
ENDBRANCH  83  86
ENDBRANCH  55  79
BRANCH  67  90
ATOM     90  C   UNL     1      19.077  -7.192  -4.279  1.00  0.00     0.023 A 
ATOM     91  C   UNL     1      19.356  -8.470  -3.758  1.00  0.00     0.012 A 
ATOM     92  C   UNL     1      20.043  -6.533  -5.064  1.00  0.00     0.148 A 
ATOM     93  C   UNL     1      20.597  -9.065  -3.981  1.00  0.00     0.002 A 
ATOM     94  C   UNL     1      21.251  -7.158  -5.333  1.00  0.00     0.091 A 
ATOM     95  F   UNL     1      19.758  -5.311  -5.535  1.00  0.00    -0.205 F 
ATOM     96  C   UNL     1      21.538  -8.415  -4.777  1.00  0.00     0.022 A 
BRANCH  94  97
ATOM     97  S   UNL     1      22.479  -6.443  -6.429  1.00  0.00     0.127 S 
ATOM     98  O   UNL     1      23.567  -6.142  -5.501  1.00  0.00    -0.237 OA
ATOM     99  O   UNL     1      22.747  -7.548  -7.350  1.00  0.00    -0.237 OA
ATOM    100  O   UNL     1      21.848  -5.281  -7.042  1.00  0.00    -0.744 OA
ENDBRANCH  94  97
ENDBRANCH  67  90
ENDBRANCH  41  42
ENDBRANCH  33  36
ENDBRANCH  31  32
ENDBRANCH  30  31
ENDBRANCH   1  30
TORSDOF 19
