REMARK SMILES O=C(NCCCNC(=O)c1cc(-c2cccc(C(F)(F)F)c2)nc2c(F)cccc12)c1ccc(-c2c3nc(c(-c4cccc(S(=O)(=O)[O-])c4F)c4ccc([nH]4)c(-c4cccc(S(=O)(=O)[O-])c4F)c4nc(c(-c5cccc(S(=O)(=O)[O-])c5F)c5ccc2[nH]5)C=C4)C=C3)cc1
REMARK SMILES IDX 4 1 3 2 1 3 2 4 31 6 32 7 93 8 33 9 92 10 34 11 35 12 36 13
REMARK SMILES IDX 86 14 37 15 91 16 85 17 87 18 38 19 90 20 84 21 83 22 39 24
REMARK SMILES IDX 71 25 51 26 70 27 52 28 55 29 69 30 88 31 53 32 54 33 68 35
REMARK SMILES IDX 89 36 56 37 40 38 41 39 49 40 42 41 44 42 50 43 43 44 45 45
REMARK SMILES IDX 46 46 47 47 48 48 72 49 73 50 81 51 74 52 76 53 82 54 75 55
REMARK SMILES IDX 77 56 78 57 79 58 80 59 57 60 58 61 66 62 59 63 61 64 67 65
REMARK SMILES IDX 60 66 62 67 63 68 64 69 65 70 5 71 6 72 7 73 8 74 9 76 10 77
REMARK SMILES IDX 11 78 30 79 12 80 24 81 29 82 23 83 25 84 28 85 26 86 27 87
REMARK SMILES IDX 13 88 14 89 22 90 15 91 17 92 16 93 18 94 19 95 20 96 21 97
REMARK H PARENT 3 5 87 23 55 34 7 75
REMARK Flexibility Score: inf
ROOT
ATOM      1  C   UNL     1       4.600  -1.222  -0.784  1.00  0.00     0.118 C 
ENDROOT
BRANCH   1   2
ATOM      2  N   UNL     1       3.164  -0.975  -0.804  1.00  0.00    -0.352 N 
ATOM      3  O   UNL     1       1.188  -0.075  -0.238  1.00  0.00    -0.269 OA
ATOM      4  C   UNL     1       2.412   0.033  -0.247  1.00  0.00     0.251 C 
ATOM      5  H   UNL     1       2.642  -1.645  -1.302  1.00  0.00     0.163 HD
BRANCH   4   6
ATOM      6  C   UNL     1       3.060   1.216   0.365  1.00  0.00     0.039 A 
ATOM      7  C   UNL     1       4.182   1.804  -0.216  1.00  0.00     0.014 A 
ATOM      8  C   UNL     1       2.523   1.762   1.535  1.00  0.00     0.014 A 
ATOM      9  C   UNL     1       4.882   2.789   0.469  1.00  0.00     0.010 A 
ATOM     10  C   UNL     1       3.164   2.834   2.164  1.00  0.00     0.010 A 
ATOM     11  C   UNL     1       4.382   3.322   1.667  1.00  0.00    -0.014 A 
BRANCH  11  12
ATOM     12  C   UNL     1       5.138   4.406   2.349  1.00  0.00     0.031 A 
ATOM     13  C   UNL     1       5.692   4.220   3.737  1.00  0.00     0.074 A 
ATOM     14  C   UNL     1       5.358   5.560   1.688  1.00  0.00     0.049 A 
ATOM     15  N   UNL     1       6.438   5.036   4.438  1.00  0.00    -0.248 NA
ATOM     16  C   UNL     1       5.361   2.967   4.436  1.00  0.00     0.031 C 
ATOM     17  C   UNL     1       4.834   5.879   0.357  1.00  0.00     0.029 A 
ATOM     18  N   UNL     1       6.091   6.668   2.028  1.00  0.00    -0.354 N 
ATOM     19  C   UNL     1       6.620   4.425   5.673  1.00  0.00     0.074 A 
ATOM     20  C   UNL     1       5.905   3.168   5.629  1.00  0.00     0.031 C 
ATOM     21  C   UNL     1       5.307   7.072  -0.029  1.00  0.00     0.029 A 
ATOM     22  C   UNL     1       6.126   7.627   1.042  1.00  0.00     0.049 A 
ATOM     23  H   UNL     1       6.548   6.768   2.894  1.00  0.00     0.167 HD
ATOM     24  C   UNL     1       7.333   4.860   6.739  1.00  0.00     0.034 A 
ATOM     25  C   UNL     1       6.752   8.819   0.998  1.00  0.00     0.034 A 
ATOM     26  C   UNL     1       8.099   6.077   6.758  1.00  0.00     0.049 A 
ATOM     27  C   UNL     1       7.590   9.244   2.169  1.00  0.00     0.074 A 
ATOM     28  C   UNL     1       8.915   6.566   7.764  1.00  0.00     0.029 A 
ATOM     29  N   UNL     1       8.148   6.997   5.722  1.00  0.00    -0.354 N 
ATOM     30  N   UNL     1       7.853   8.589   3.274  1.00  0.00    -0.248 NA
ATOM     31  C   UNL     1       8.237  10.560   2.079  1.00  0.00     0.031 C 
ATOM     32  C   UNL     1       9.454   7.785   7.337  1.00  0.00     0.029 A 
ATOM     33  C   UNL     1       8.978   8.052   6.063  1.00  0.00     0.049 A 
ATOM     34  H   UNL     1       7.664   6.913   4.869  1.00  0.00     0.167 HD
ATOM     35  C   UNL     1       8.716   9.401   3.999  1.00  0.00     0.074 A 
ATOM     36  C   UNL     1       8.950  10.584   3.197  1.00  0.00     0.031 C 
ATOM     37  C   UNL     1       9.248   9.194   5.229  1.00  0.00     0.034 A 
BRANCH  24  38
ATOM     38  C   UNL     1       7.362   3.987   7.966  1.00  0.00     0.023 A 
ATOM     39  C   UNL     1       8.160   2.825   7.974  1.00  0.00     0.012 A 
ATOM     40  C   UNL     1       6.651   4.344   9.129  1.00  0.00     0.148 A 
ATOM     41  C   UNL     1       8.229   2.018   9.110  1.00  0.00     0.002 A 
ATOM     42  C   UNL     1       6.753   3.553  10.269  1.00  0.00     0.091 A 
ATOM     43  F   UNL     1       5.875   5.437   9.097  1.00  0.00    -0.205 F 
ATOM     44  C   UNL     1       7.535   2.387  10.259  1.00  0.00     0.022 A 
BRANCH  42  45
ATOM     45  S   UNL     1       5.946   3.999  11.811  1.00  0.00     0.127 S 
ATOM     46  O   UNL     1       4.741   3.173  11.765  1.00  0.00    -0.237 OA
ATOM     47  O   UNL     1       6.928   3.586  12.814  1.00  0.00    -0.237 OA
ATOM     48  O   UNL     1       5.733   5.438  11.739  1.00  0.00    -0.744 OA
ENDBRANCH  42  45
ENDBRANCH  24  38
BRANCH  25  49
ATOM     49  C   UNL     1       6.673   9.645  -0.238  1.00  0.00     0.023 A 
ATOM     50  C   UNL     1       7.815   9.777  -1.051  1.00  0.00     0.012 A 
ATOM     51  C   UNL     1       5.464  10.238  -0.650  1.00  0.00     0.148 A 
ATOM     52  C   UNL     1       7.759  10.496  -2.245  1.00  0.00     0.002 A 
ATOM     53  C   UNL     1       5.400  10.904  -1.869  1.00  0.00     0.091 A 
ATOM     54  F   UNL     1       4.393  10.119   0.147  1.00  0.00    -0.205 F 
ATOM     55  C   UNL     1       6.549  11.047  -2.661  1.00  0.00     0.022 A 
BRANCH  53  56
ATOM     56  S   UNL     1       3.848  11.508  -2.542  1.00  0.00     0.127 S 
ATOM     57  O   UNL     1       3.947  12.941  -2.285  1.00  0.00    -0.237 OA
ATOM     58  O   UNL     1       3.955  11.125  -3.951  1.00  0.00    -0.237 OA
ATOM     59  O   UNL     1       2.808  10.796  -1.810  1.00  0.00    -0.744 OA
ENDBRANCH  53  56
ENDBRANCH  25  49
BRANCH  37  60
ATOM     60  C   UNL     1      10.156  10.261   5.777  1.00  0.00     0.023 A 
ATOM     61  C   UNL     1       9.600  11.459   6.268  1.00  0.00     0.012 A 
ATOM     62  C   UNL     1      11.545  10.053   5.867  1.00  0.00     0.148 A 
ATOM     63  C   UNL     1      10.418  12.446   6.816  1.00  0.00     0.002 A 
ATOM     64  C   UNL     1      12.350  11.025   6.451  1.00  0.00     0.091 A 
ATOM     65  F   UNL     1      12.059   8.918   5.370  1.00  0.00    -0.205 F 
ATOM     66  C   UNL     1      11.790  12.225   6.918  1.00  0.00     0.022 A 
BRANCH  64  67
ATOM     67  S   UNL     1      14.111  10.770   6.693  1.00  0.00     0.127 S 
ATOM     68  O   UNL     1      14.676  11.455   5.532  1.00  0.00    -0.237 OA
ATOM     69  O   UNL     1      14.358  11.436   7.973  1.00  0.00    -0.237 OA
ATOM     70  O   UNL     1      14.293   9.325   6.728  1.00  0.00    -0.744 OA
ENDBRANCH  64  67
ENDBRANCH  37  60
ENDBRANCH  11  12
ENDBRANCH   4   6
ENDBRANCH   1   2
BRANCH   1  71
ATOM     71  C   UNL     1       4.995  -2.355   0.150  1.00  0.00     0.042 C 
BRANCH  71  72
ATOM     72  C   UNL     1       4.415  -3.703  -0.239  1.00  0.00     0.118 C 
BRANCH  72  73
ATOM     73  N   UNL     1       4.840  -4.146  -1.562  1.00  0.00    -0.352 N 
ATOM     74  C   UNL     1       5.566  -5.253  -1.919  1.00  0.00     0.252 C 
ATOM     75  H   UNL     1       4.566  -3.564  -2.308  1.00  0.00     0.163 HD
ATOM     76  O   UNL     1       5.896  -5.440  -3.086  1.00  0.00    -0.269 OA
BRANCH  74  77
ATOM     77  C   UNL     1       5.995  -6.207  -0.881  1.00  0.00     0.051 A 
ATOM     78  C   UNL     1       7.370  -6.350  -0.718  1.00  0.00     0.043 A 
ATOM     79  C   UNL     1       5.076  -6.907  -0.071  1.00  0.00     0.016 A 
ATOM     80  C   UNL     1       7.818  -7.171   0.297  1.00  0.00     0.072 A 
ATOM     81  C   UNL     1       5.626  -7.660   0.980  1.00  0.00     0.107 A 
ATOM     82  C   UNL     1       3.666  -6.865  -0.243  1.00  0.00     0.011 A 
ATOM     83  N   UNL     1       6.963  -7.801   1.137  1.00  0.00    -0.245 NA
ATOM     84  C   UNL     1       4.733  -8.250   1.879  1.00  0.00     0.149 A 
ATOM     85  C   UNL     1       2.807  -7.466   0.671  1.00  0.00     0.004 A 
ATOM     86  F   UNL     1       5.207  -8.937   2.931  1.00  0.00    -0.205 F 
ATOM     87  C   UNL     1       3.347  -8.146   1.750  1.00  0.00     0.041 A 
BRANCH  80  88
ATOM     88  C   UNL     1       9.247  -7.435   0.513  1.00  0.00     0.001 A 
ATOM     89  C   UNL     1      10.188  -6.395   0.596  1.00  0.00     0.010 A 
ATOM     90  C   UNL     1       9.715  -8.758   0.614  1.00  0.00     0.023 A 
ATOM     91  C   UNL     1      11.548  -6.666   0.763  1.00  0.00     0.001 A 
ATOM     92  C   UNL     1      11.081  -9.047   0.767  1.00  0.00     0.056 A 
ATOM     93  C   UNL     1      11.993  -7.984   0.841  1.00  0.00     0.013 A 
BRANCH  92  94
ATOM     94  C   UNL     1      11.573 -10.470   0.827  1.00  0.00     0.416 C 
ATOM     95  F   UNL     1      12.394 -10.777  -0.218  1.00  0.00    -0.166 F 
ATOM     96  F   UNL     1      12.295 -10.732   1.952  1.00  0.00    -0.166 F 
ATOM     97  F   UNL     1      10.579 -11.401   0.797  1.00  0.00    -0.166 F 
ENDBRANCH  92  94
ENDBRANCH  80  88
ENDBRANCH  74  77
ENDBRANCH  72  73
ENDBRANCH  71  72
ENDBRANCH   1  71
TORSDOF 15
