REMARK SMILES CC(C)C[C@@H](CNC(=O)[C@@H]1CCOC1)C(=O)NCCCNC(=O)c1ccc(-c2c3nc(c(-c4cccc(S(=O)(=O)[O-])c4F)c4ccc([nH]4)c(-c4cccc(S(=O)(=O)[O-])c4F)c4nc(c(-c5cccc(S(=O)(=O)[O-])c5F)c5ccc2[nH]5)C=C4)C=C3)cc1
REMARK SMILES IDX 19 1 18 2 17 3 15 4 16 5 5 7 4 8 2 9 1 10 3 11 6 12 7 13
REMARK SMILES IDX 8 14 9 16 10 17 11 18 14 19 12 20 13 21 20 22 21 23 22 24
REMARK SMILES IDX 23 26 24 27 25 28 86 29 26 30 85 31 27 32 28 33 29 34 79 35
REMARK SMILES IDX 30 36 84 37 78 38 80 39 31 40 83 41 77 42 76 43 32 45 64 46
REMARK SMILES IDX 44 47 63 48 45 49 48 50 62 51 81 52 46 53 47 54 61 56 82 57
REMARK SMILES IDX 49 58 33 59 34 60 42 61 35 62 37 63 43 64 36 65 38 66 39 67
REMARK SMILES IDX 40 68 41 69 65 70 66 71 74 72 67 73 69 74 75 75 68 76 70 77
REMARK SMILES IDX 71 78 72 79 73 80 50 81 51 82 59 83 52 84 54 85 60 86 53 87
REMARK SMILES IDX 55 88 56 89 57 90 58 91
REMARK H PARENT 17 6 7 15 21 25 80 44 48 55
REMARK Flexibility Score: inf
ROOT
ATOM      1  C   UNL     1      -3.748   3.326   2.604  1.00  0.00     0.042 C 
ENDROOT
BRANCH   1   2
ATOM      2  C   UNL     1      -3.322   1.921   2.984  1.00  0.00     0.117 C 
BRANCH   2   3
ATOM      3  N   UNL     1      -3.722   0.931   1.997  1.00  0.00    -0.356 N 
ATOM      4  C   UNL     1      -3.010   0.004   1.307  1.00  0.00     0.224 C 
ATOM      5  O   UNL     1      -3.650  -0.783   0.602  1.00  0.00    -0.275 OA
ATOM      6  H   UNL     1      -4.684   0.934   1.791  1.00  0.00     0.163 HD
BRANCH   4   7
ATOM      7  C   UNL     1      -1.493  -0.111   1.391  1.00  0.00     0.098 C 
BRANCH   7   8
ATOM      8  C   UNL     1      -0.797   1.179   0.923  1.00  0.00     0.018 C 
BRANCH   8   9
ATOM      9  C   UNL     1       0.738   1.155   0.837  1.00  0.00    -0.017 C 
ATOM     10  C   UNL     1       1.267   0.048  -0.074  1.00  0.00     0.007 C 
ATOM     11  C   UNL     1       1.229   2.515   0.325  1.00  0.00     0.007 C 
ENDBRANCH   8   9
ENDBRANCH   7   8
BRANCH   7  12
ATOM     12  C   UNL     1      -1.023  -0.808   2.682  1.00  0.00     0.129 C 
BRANCH  12  13
ATOM     13  N   UNL     1      -1.142  -0.062   3.919  1.00  0.00    -0.355 N 
ATOM     14  C   UNL     1      -1.884  -0.228   5.040  1.00  0.00     0.225 C 
ATOM     15  H   UNL     1      -0.562   0.733   3.950  1.00  0.00     0.163 HD
ATOM     16  O   UNL     1      -1.756   0.657   5.897  1.00  0.00    -0.275 OA
BRANCH  14  17
ATOM     17  C   UNL     1      -2.785  -1.415   5.359  1.00  0.00     0.106 C 
ATOM     18  C   UNL     1      -2.022  -2.633   5.823  1.00  0.00     0.044 C 
ATOM     19  C   UNL     1      -3.713  -1.947   4.296  1.00  0.00     0.173 C 
ATOM     20  C   UNL     1      -2.090  -3.588   4.655  1.00  0.00     0.161 C 
ATOM     21  O   UNL     1      -3.189  -3.198   3.831  1.00  0.00    -0.381 OA
ENDBRANCH  14  17
ENDBRANCH  12  13
ENDBRANCH   7  12
ENDBRANCH   4   7
ENDBRANCH   2   3
ENDBRANCH   1   2
BRANCH   1  22
ATOM     22  C   UNL     1      -5.255   3.525   2.668  1.00  0.00     0.118 C 
BRANCH  22  23
ATOM     23  N   UNL     1      -5.781   3.406   4.026  1.00  0.00    -0.352 N 
ATOM     24  C   UNL     1      -6.305   4.366   4.859  1.00  0.00     0.251 C 
ATOM     25  H   UNL     1      -5.756   2.497   4.403  1.00  0.00     0.163 HD
ATOM     26  O   UNL     1      -6.529   4.099   6.037  1.00  0.00    -0.269 OA
BRANCH  24  27
ATOM     27  C   UNL     1      -6.576   5.721   4.340  1.00  0.00     0.039 A 
ATOM     28  C   UNL     1      -6.186   6.832   5.091  1.00  0.00     0.014 A 
ATOM     29  C   UNL     1      -7.191   5.891   3.099  1.00  0.00     0.014 A 
ATOM     30  C   UNL     1      -6.330   8.113   4.552  1.00  0.00     0.010 A 
ATOM     31  C   UNL     1      -7.237   7.153   2.523  1.00  0.00     0.010 A 
ATOM     32  C   UNL     1      -6.809   8.278   3.242  1.00  0.00    -0.014 A 
BRANCH  32  33
ATOM     33  C   UNL     1      -6.856   9.609   2.585  1.00  0.00     0.031 A 
ATOM     34  C   UNL     1      -8.167  10.159   2.091  1.00  0.00     0.074 A 
ATOM     35  C   UNL     1      -5.705  10.260   2.321  1.00  0.00     0.049 A 
ATOM     36  N   UNL     1      -8.396  11.238   1.390  1.00  0.00    -0.248 NA
ATOM     37  C   UNL     1      -9.376   9.372   2.393  1.00  0.00     0.031 C 
ATOM     38  C   UNL     1      -4.363   9.786   2.668  1.00  0.00     0.029 A 
ATOM     39  N   UNL     1      -5.477  11.445   1.666  1.00  0.00    -0.354 N 
ATOM     40  C   UNL     1      -9.761  11.236   1.128  1.00  0.00     0.074 A 
ATOM     41  C   UNL     1     -10.304  10.030   1.714  1.00  0.00     0.031 C 
ATOM     42  C   UNL     1      -3.455  10.671   2.226  1.00  0.00     0.029 A 
ATOM     43  C   UNL     1      -4.143  11.755   1.535  1.00  0.00     0.049 A 
ATOM     44  H   UNL     1      -6.200  12.019   1.323  1.00  0.00     0.167 HD
ATOM     45  C   UNL     1     -10.503  12.169   0.486  1.00  0.00     0.034 A 
ATOM     46  C   UNL     1      -3.541  12.791   0.917  1.00  0.00     0.034 A 
ATOM     47  C   UNL     1      -9.968  13.395  -0.041  1.00  0.00     0.049 A 
ATOM     48  C   UNL     1      -4.393  13.840   0.258  1.00  0.00     0.074 A 
ATOM     49  C   UNL     1     -10.650  14.455  -0.611  1.00  0.00     0.029 A 
ATOM     50  N   UNL     1      -8.622  13.723  -0.066  1.00  0.00    -0.354 N 
ATOM     51  N   UNL     1      -5.700  13.905   0.168  1.00  0.00    -0.248 NA
ATOM     52  C   UNL     1      -3.692  14.976  -0.358  1.00  0.00     0.031 C 
ATOM     53  C   UNL     1      -9.712  15.418  -0.997  1.00  0.00     0.029 A 
ATOM     54  C   UNL     1      -8.449  14.965  -0.651  1.00  0.00     0.049 A 
ATOM     55  H   UNL     1      -7.896  13.157   0.281  1.00  0.00     0.167 HD
ATOM     56  C   UNL     1      -5.978  15.098  -0.488  1.00  0.00     0.074 A 
ATOM     57  C   UNL     1      -4.705  15.738  -0.749  1.00  0.00     0.031 C 
ATOM     58  C   UNL     1      -7.178  15.610  -0.859  1.00  0.00     0.034 A 
BRANCH  45  59
ATOM     59  C   UNL     1     -11.986  11.929   0.376  1.00  0.00     0.023 A 
ATOM     60  C   UNL     1     -12.792  12.034   1.529  1.00  0.00     0.012 A 
ATOM     61  C   UNL     1     -12.589  11.652  -0.866  1.00  0.00     0.148 A 
ATOM     62  C   UNL     1     -14.169  11.832   1.454  1.00  0.00     0.002 A 
ATOM     63  C   UNL     1     -13.969  11.495  -0.940  1.00  0.00     0.091 A 
ATOM     64  F   UNL     1     -11.805  11.533  -1.946  1.00  0.00    -0.205 F 
ATOM     65  C   UNL     1     -14.758  11.573   0.220  1.00  0.00     0.022 A 
BRANCH  63  66
ATOM     66  S   UNL     1     -14.832  11.236  -2.493  1.00  0.00     0.127 S 
ATOM     67  O   UNL     1     -15.229   9.833  -2.379  1.00  0.00    -0.237 OA
ATOM     68  O   UNL     1     -15.937  12.191  -2.395  1.00  0.00    -0.237 OA
ATOM     69  O   UNL     1     -13.867  11.530  -3.542  1.00  0.00    -0.744 OA
ENDBRANCH  63  66
ENDBRANCH  45  59
BRANCH  46  70
ATOM     70  C   UNL     1      -2.056  12.918   0.955  1.00  0.00     0.023 A 
ATOM     71  C   UNL     1      -1.474  13.935   1.736  1.00  0.00     0.012 A 
ATOM     72  C   UNL     1      -1.221  12.026   0.255  1.00  0.00     0.148 A 
ATOM     73  C   UNL     1      -0.087  14.079   1.797  1.00  0.00     0.002 A 
ATOM     74  C   UNL     1       0.161  12.142   0.364  1.00  0.00     0.091 A 
ATOM     75  F   UNL     1      -1.794  11.073  -0.494  1.00  0.00    -0.205 F 
ATOM     76  C   UNL     1       0.730  13.178   1.121  1.00  0.00     0.022 A 
BRANCH  74  77
ATOM     77  S   UNL     1       1.286  10.944  -0.363  1.00  0.00     0.127 S 
ATOM     78  O   UNL     1       1.853  11.702  -1.475  1.00  0.00    -0.237 OA
ATOM     79  O   UNL     1       2.210  10.685   0.742  1.00  0.00    -0.237 OA
ATOM     80  O   UNL     1       0.458   9.802  -0.729  1.00  0.00    -0.744 OA
ENDBRANCH  74  77
ENDBRANCH  46  70
BRANCH  58  81
ATOM     81  C   UNL     1      -7.178  16.935  -1.573  1.00  0.00     0.023 A 
ATOM     82  C   UNL     1      -6.748  17.004  -2.913  1.00  0.00     0.012 A 
ATOM     83  C   UNL     1      -7.677  18.094  -0.946  1.00  0.00     0.148 A 
ATOM     84  C   UNL     1      -6.786  18.211  -3.608  1.00  0.00     0.002 A 
ATOM     85  C   UNL     1      -7.756  19.283  -1.660  1.00  0.00     0.091 A 
ATOM     86  F   UNL     1      -8.064  18.011   0.335  1.00  0.00    -0.205 F 
ATOM     87  C   UNL     1      -7.300  19.347  -2.987  1.00  0.00     0.022 A 
BRANCH  85  88
ATOM     88  S   UNL     1      -8.491  20.771  -0.972  1.00  0.00     0.127 S 
ATOM     89  O   UNL     1      -7.312  21.604  -0.736  1.00  0.00    -0.237 OA
ATOM     90  O   UNL     1      -9.351  21.227  -2.065  1.00  0.00    -0.237 OA
ATOM     91  O   UNL     1      -9.208  20.348   0.223  1.00  0.00    -0.744 OA
ENDBRANCH  85  88
ENDBRANCH  58  81
ENDBRANCH  32  33
ENDBRANCH  24  27
ENDBRANCH  22  23
ENDBRANCH   1  22
TORSDOF 18
