REMARK SMILES CC1(C)CCC[N@@H+](CC[C@@H]2CCC[C@]2([NH3+])C(=O)NCCCNC(=O)c2ccc(-c3c4nc(c(-c5cccc(S(=O)(=O)[O-])c5F)c5ccc([nH]5)c(-c5cccc(S(=O)(=O)[O-])c5F)c5nc(c(-c6cccc(S(=O)(=O)[O-])c6F)c6ccc3[nH]6)C=C5)C=C4)cc2)CC1
REMARK SMILES IDX 16 1 17 2 18 3 14 5 10 6 11 7 12 8 13 9 9 10 8 11 7 12 6 14
REMARK SMILES IDX 5 15 4 16 2 17 1 18 3 19 88 21 89 22 15 24 19 28 20 29 21 30
REMARK SMILES IDX 22 31 23 32 24 34 25 35 26 36 87 37 27 38 86 39 28 40 29 41
REMARK SMILES IDX 30 42 80 43 31 44 85 45 79 46 81 47 32 48 84 49 78 50 77 51
REMARK SMILES IDX 33 53 65 54 45 55 64 56 46 57 49 58 63 59 82 60 47 61 48 62
REMARK SMILES IDX 62 64 83 65 50 66 34 67 35 68 43 69 36 70 38 71 44 72 37 73
REMARK SMILES IDX 39 74 40 75 41 76 42 77 66 78 67 79 75 80 68 81 70 82 76 83
REMARK SMILES IDX 69 84 71 85 72 86 73 87 74 88 51 89 52 90 60 91 53 92 55 93
REMARK SMILES IDX 61 94 54 95 56 96 57 97 58 98 59 99
REMARK H PARENT 18 4 7 13 15 25 15 26 15 27 22 33 81 52 49 63
REMARK Flexibility Score: 80.00
ROOT
ATOM      1  C   UNL     1      -4.116  -2.850  -0.682  1.00  0.00     0.281 C 
ATOM      2  O   UNL     1      -3.931  -1.628  -0.650  1.00  0.00    -0.268 OA
ATOM      3  N   UNL     1      -4.485  -3.430   0.498  1.00  0.00    -0.351 N 
ATOM      4  H   UNL     1      -4.533  -2.811   1.262  1.00  0.00     0.163 HD
ENDROOT
BRANCH   1   5
ATOM      5  C   UNL     1      -3.962  -3.682  -2.007  1.00  0.00     0.177 C 
ATOM      6  C   UNL     1      -2.662  -4.568  -2.133  1.00  0.00     0.066 C 
ATOM      7  C   UNL     1      -1.855  -3.930  -3.275  1.00  0.00     0.011 C 
ATOM      8  C   UNL     1      -2.364  -2.507  -3.388  1.00  0.00     0.008 C 
ATOM      9  C   UNL     1      -3.855  -2.694  -3.202  1.00  0.00     0.079 C 
BRANCH   6  10
ATOM     10  C   UNL     1      -1.900  -4.873  -0.820  1.00  0.00     0.072 C 
BRANCH  10  11
ATOM     11  C   UNL     1      -0.388  -5.168  -0.856  1.00  0.00     0.262 C 
BRANCH  11  12
ATOM     12  N   UNL     1       0.353  -3.920  -0.648  1.00  0.00    -0.335 N 
ATOM     13  H   UNL     1      -0.326  -3.200  -0.896  1.00  0.00     0.348 HD
BRANCH  12  14
ATOM     14  C   UNL     1       1.443  -3.669  -1.575  1.00  0.00     0.262 C 
BRANCH  14  15
ATOM     15  C   UNL     1       1.255  -2.255  -2.128  1.00  0.00     0.062 C 
BRANCH  15  16
ATOM     16  C   UNL     1       1.560  -1.095  -1.181  1.00  0.00     0.012 C 
BRANCH  16  17
ATOM     17  C   UNL     1       0.969  -1.108   0.254  1.00  0.00    -0.030 CG0
ATOM     18  C   UNL     1       1.532   0.148   0.963  1.00  0.00     0.011 C 
ATOM     19  C   UNL     1      -0.565  -0.980   0.264  1.00  0.00     0.011 C 
ATOM     20  G   UNL     1       1.447  -2.359   1.034  1.00  0.00     0.000 G0
ENDBRANCH  16  17
ENDBRANCH  15  16
ENDBRANCH  14  15
ENDBRANCH  12  14
BRANCH  12  21
ATOM     21  C   UNL     1       0.705  -3.679   0.754  1.00  0.00     0.262 C 
BRANCH  21  22
ATOM     22  C   UNL     1       1.447  -2.359   1.034  1.00  0.00     0.068 CG0
ATOM     23  G   UNL     1       0.969  -1.108   0.254  1.00  0.00     0.000 G0
ENDBRANCH  21  22
ENDBRANCH  12  21
ENDBRANCH  11  12
ENDBRANCH  10  11
ENDBRANCH   6  10
BRANCH   5  24
ATOM     24  N   UNL     1      -5.206  -4.465  -2.218  1.00  0.00    -0.345 N 
ATOM     25  H   UNL     1      -5.122  -5.012  -3.075  1.00  0.00     0.345 HD
ATOM     26  H   UNL     1      -5.999  -3.829  -2.296  1.00  0.00     0.345 HD
ATOM     27  H   UNL     1      -5.350  -5.093  -1.427  1.00  0.00     0.345 HD
ENDBRANCH   5  24
ENDBRANCH   1   5
BRANCH   3  28
ATOM     28  C   UNL     1      -4.819  -4.809   0.815  1.00  0.00     0.118 C 
BRANCH  28  29
ATOM     29  C   UNL     1      -3.932  -5.391   1.913  1.00  0.00     0.042 C 
BRANCH  29  30
ATOM     30  C   UNL     1      -4.047  -4.690   3.256  1.00  0.00     0.118 C 
BRANCH  30  31
ATOM     31  N   UNL     1      -5.293  -5.006   3.932  1.00  0.00    -0.352 N 
ATOM     32  C   UNL     1      -5.532  -5.858   4.983  1.00  0.00     0.251 C 
ATOM     33  H   UNL     1      -6.087  -4.539   3.584  1.00  0.00     0.163 HD
ATOM     34  O   UNL     1      -6.691  -6.178   5.239  1.00  0.00    -0.269 OA
BRANCH  32  35
ATOM     35  C   UNL     1      -4.419  -6.399   5.799  1.00  0.00     0.039 A 
ATOM     36  C   UNL     1      -4.500  -7.716   6.261  1.00  0.00     0.014 A 
ATOM     37  C   UNL     1      -3.327  -5.607   6.164  1.00  0.00     0.014 A 
ATOM     38  C   UNL     1      -3.474  -8.244   7.052  1.00  0.00     0.010 A 
ATOM     39  C   UNL     1      -2.261  -6.164   6.868  1.00  0.00     0.010 A 
ATOM     40  C   UNL     1      -2.335  -7.479   7.347  1.00  0.00    -0.014 A 
BRANCH  40  41
ATOM     41  C   UNL     1      -1.231  -8.025   8.180  1.00  0.00     0.031 A 
ATOM     42  C   UNL     1      -0.884  -7.385   9.500  1.00  0.00     0.074 A 
ATOM     43  C   UNL     1      -0.493  -9.055   7.722  1.00  0.00     0.049 A 
ATOM     44  N   UNL     1       0.046  -7.715  10.359  1.00  0.00    -0.248 NA
ATOM     45  C   UNL     1      -1.663  -6.199   9.895  1.00  0.00     0.031 C 
ATOM     46  C   UNL     1      -0.670  -9.711   6.425  1.00  0.00     0.029 A 
ATOM     47  N   UNL     1       0.564  -9.722   8.290  1.00  0.00    -0.354 N 
ATOM     48  C   UNL     1      -0.005  -6.758  11.365  1.00  0.00     0.074 A 
ATOM     49  C   UNL     1      -1.033  -5.811  10.993  1.00  0.00     0.031 C 
ATOM     50  C   UNL     1       0.228 -10.702   6.308  1.00  0.00     0.029 A 
ATOM     51  C   UNL     1       1.060 -10.738   7.507  1.00  0.00     0.049 A 
ATOM     52  H   UNL     1       0.932  -9.494   9.174  1.00  0.00     0.167 HD
ATOM     53  C   UNL     1       0.709  -6.688  12.515  1.00  0.00     0.034 A 
ATOM     54  C   UNL     1       2.062 -11.608   7.735  1.00  0.00     0.034 A 
ATOM     55  C   UNL     1       1.684  -7.667  12.915  1.00  0.00     0.049 A 
ATOM     56  C   UNL     1       2.802 -11.548   9.044  1.00  0.00     0.074 A 
ATOM     57  C   UNL     1       2.376  -7.755  14.109  1.00  0.00     0.029 A 
ATOM     58  N   UNL     1       2.109  -8.725  12.127  1.00  0.00    -0.354 N 
ATOM     59  N   UNL     1       2.616 -10.743  10.062  1.00  0.00    -0.248 NA
ATOM     60  C   UNL     1       3.868 -12.540   9.249  1.00  0.00     0.031 C 
ATOM     61  C   UNL     1       3.235  -8.858  14.036  1.00  0.00     0.029 A 
ATOM     62  C   UNL     1       3.065  -9.465  12.802  1.00  0.00     0.049 A 
ATOM     63  H   UNL     1       1.779  -8.922  11.221  1.00  0.00     0.167 HD
ATOM     64  C   UNL     1       3.515 -11.152  11.041  1.00  0.00     0.074 A 
ATOM     65  C   UNL     1       4.231 -12.289  10.500  1.00  0.00     0.031 C 
ATOM     66  C   UNL     1       3.737 -10.624  12.271  1.00  0.00     0.034 A 
BRANCH  53  67
ATOM     67  C   UNL     1       0.414  -5.541  13.448  1.00  0.00     0.023 A 
ATOM     68  C   UNL     1      -0.808  -5.512  14.151  1.00  0.00     0.012 A 
ATOM     69  C   UNL     1       1.350  -4.509  13.652  1.00  0.00     0.148 A 
ATOM     70  C   UNL     1      -1.115  -4.452  15.004  1.00  0.00     0.002 A 
ATOM     71  C   UNL     1       1.056  -3.478  14.539  1.00  0.00     0.091 A 
ATOM     72  F   UNL     1       2.498  -4.535  12.958  1.00  0.00    -0.205 F 
ATOM     73  C   UNL     1      -0.180  -3.441  15.204  1.00  0.00     0.022 A 
BRANCH  71  74
ATOM     74  S   UNL     1       2.234  -2.176  14.918  1.00  0.00     0.127 S 
ATOM     75  O   UNL     1       1.728  -1.072  14.104  1.00  0.00    -0.237 OA
ATOM     76  O   UNL     1       2.054  -2.000  16.360  1.00  0.00    -0.237 OA
ATOM     77  O   UNL     1       3.538  -2.700  14.535  1.00  0.00    -0.744 OA
ENDBRANCH  71  74
ENDBRANCH  53  67
BRANCH  54  78
ATOM     78  C   UNL     1       2.347 -12.682   6.742  1.00  0.00     0.023 A 
ATOM     79  C   UNL     1       1.993 -14.009   7.053  1.00  0.00     0.012 A 
ATOM     80  C   UNL     1       2.912 -12.398   5.484  1.00  0.00     0.148 A 
ATOM     81  C   UNL     1       2.214 -15.039   6.139  1.00  0.00     0.002 A 
ATOM     82  C   UNL     1       3.083 -13.421   4.557  1.00  0.00     0.091 A 
ATOM     83  F   UNL     1       3.249 -11.130   5.212  1.00  0.00    -0.205 F 
ATOM     84  C   UNL     1       2.749 -14.743   4.888  1.00  0.00     0.022 A 
BRANCH  82  85
ATOM     85  S   UNL     1       3.644 -13.121   2.877  1.00  0.00     0.127 S 
ATOM     86  O   UNL     1       4.957 -13.759   2.881  1.00  0.00    -0.237 OA
ATOM     87  O   UNL     1       2.623 -13.813   2.091  1.00  0.00    -0.237 OA
ATOM     88  O   UNL     1       3.647 -11.672   2.715  1.00  0.00    -0.744 OA
ENDBRANCH  82  85
ENDBRANCH  54  78
BRANCH  66  89
ATOM     89  C   UNL     1       4.787 -11.279  13.129  1.00  0.00     0.023 A 
ATOM     90  C   UNL     1       6.150 -11.112  12.813  1.00  0.00     0.012 A 
ATOM     91  C   UNL     1       4.429 -12.004  14.283  1.00  0.00     0.148 A 
ATOM     92  C   UNL     1       7.139 -11.684  13.613  1.00  0.00     0.002 A 
ATOM     93  C   UNL     1       5.422 -12.532  15.101  1.00  0.00     0.091 A 
ATOM     94  F   UNL     1       3.127 -12.172  14.557  1.00  0.00    -0.205 F 
ATOM     95  C   UNL     1       6.776 -12.383  14.762  1.00  0.00     0.022 A 
BRANCH  93  96
ATOM     96  S   UNL     1       5.044 -13.363  16.648  1.00  0.00     0.127 S 
ATOM     97  O   UNL     1       5.219 -14.768  16.284  1.00  0.00    -0.237 OA
ATOM     98  O   UNL     1       6.071 -12.835  17.548  1.00  0.00    -0.237 OA
ATOM     99  O   UNL     1       3.685 -12.965  16.991  1.00  0.00    -0.744 OA
ENDBRANCH  93  96
ENDBRANCH  66  89
ENDBRANCH  40  41
ENDBRANCH  32  35
ENDBRANCH  30  31
ENDBRANCH  29  30
ENDBRANCH  28  29
ENDBRANCH   3  28
TORSDOF 17
