REMARK SMILES O=C(NCCCNC(=O)c1ccc(-c2c3nc(c(-c4cccc(S(=O)(=O)[O-])c4F)c4ccc([nH]4)c(-c4cccc(S(=O)(=O)[O-])c4F)c4nc(c(-c5cccc(S(=O)(=O)[O-])c5F)c5ccc2[nH]5)C=C4)C=C3)cc1)C1=Cc2cc(Cl)cc(-c3ccc(O)cc3)c2O[C@@H]1C(F)(F)F
REMARK SMILES IDX 5 1 4 2 3 3 1 4 2 5 73 7 74 8 90 9 75 10 89 11 76 12 88 13
REMARK SMILES IDX 77 14 80 15 78 16 79 17 91 18 92 19 93 20 94 21 81 22 82 23
REMARK SMILES IDX 87 24 83 25 86 26 84 27 85 28 6 30 7 31 8 32 9 34 10 35
REMARK SMILES IDX 11 36 72 37 12 38 71 39 13 40 14 41 15 42 65 43 16 44 70 45
REMARK SMILES IDX 64 46 66 47 17 48 69 49 63 50 62 51 18 53 50 54 30 55 49 56
REMARK SMILES IDX 31 57 34 58 48 59 67 60 32 61 33 62 47 64 68 65 35 66 19 67
REMARK SMILES IDX 20 68 28 69 21 70 23 71 29 72 22 73 24 74 25 75 26 76 27 77
REMARK SMILES IDX 51 78 52 79 60 80 53 81 55 82 61 83 54 84 56 85 57 86 58 87
REMARK SMILES IDX 59 88 36 89 37 90 45 91 38 92 40 93 46 94 39 95 41 96 42 97
REMARK SMILES IDX 43 98 44 99
REMARK H PARENT 3 6 85 29 7 33 66 52 34 63
REMARK Flexibility Score: inf
ROOT
ATOM      1  C   UNL     1       3.973  -1.417  -2.825  1.00  0.00     0.042 C 
ENDROOT
BRANCH   1   2
ATOM      2  C   UNL     1       2.971  -0.585  -2.027  1.00  0.00     0.118 C 
BRANCH   2   3
ATOM      3  N   UNL     1       2.209  -1.377  -1.053  1.00  0.00    -0.352 N 
ATOM      4  O   UNL     1       1.308  -1.831   0.985  1.00  0.00    -0.270 OA
ATOM      5  C   UNL     1       2.190  -1.307   0.318  1.00  0.00     0.251 C 
ATOM      6  H   UNL     1       1.621  -2.063  -1.444  1.00  0.00     0.163 HD
BRANCH   5   7
ATOM      7  C   UNL     1       3.238  -0.495   0.952  1.00  0.00     0.067 C 
ATOM      8  C   UNL     1       4.507  -0.889   0.791  1.00  0.00     0.025 C 
ATOM      9  C   UNL     1       2.867   0.879   1.402  1.00  0.00     0.314 C 
ATOM     10  C   UNL     1       5.457   0.208   0.582  1.00  0.00     0.019 A 
ATOM     11  O   UNL     1       3.672   1.877   0.728  1.00  0.00    -0.475 OA
ATOM     12  C   UNL     1       6.759  -0.115   0.194  1.00  0.00     0.032 A 
ATOM     13  C   UNL     1       4.949   1.508   0.366  1.00  0.00     0.135 A 
ATOM     14  C   UNL     1       7.513   0.824  -0.501  1.00  0.00     0.042 A 
ATOM     15  C   UNL     1       5.681   2.431  -0.400  1.00  0.00     0.026 A 
ATOM     16  Cl  UNL     1       9.065   0.388  -1.103  1.00  0.00    -0.084 Cl
ATOM     17  C   UNL     1       6.974   2.070  -0.821  1.00  0.00     0.033 A 
BRANCH   9  18
ATOM     18  C   UNL     1       2.917   1.034   2.932  1.00  0.00     0.429 C 
ATOM     19  F   UNL     1       2.494   2.267   3.312  1.00  0.00    -0.167 F 
ATOM     20  F   UNL     1       2.108   0.144   3.556  1.00  0.00    -0.167 F 
ATOM     21  F   UNL     1       4.160   0.870   3.440  1.00  0.00    -0.167 F 
ENDBRANCH   9  18
BRANCH  15  22
ATOM     22  C   UNL     1       5.067   3.649  -0.952  1.00  0.00    -0.014 A 
ATOM     23  C   UNL     1       4.208   3.558  -2.064  1.00  0.00     0.012 A 
ATOM     24  C   UNL     1       5.374   4.920  -0.455  1.00  0.00     0.012 A 
ATOM     25  C   UNL     1       3.724   4.697  -2.703  1.00  0.00     0.047 A 
ATOM     26  C   UNL     1       4.877   6.068  -1.083  1.00  0.00     0.047 A 
ATOM     27  C   UNL     1       4.075   5.945  -2.215  1.00  0.00     0.115 A 
BRANCH  27  28
ATOM     28  O   UNL     1       3.620   7.039  -2.889  1.00  0.00    -0.508 OA
ATOM     29  H   UNL     1       3.082   6.931  -3.648  1.00  0.00     0.293 HD
ENDBRANCH  27  28
ENDBRANCH  15  22
ENDBRANCH   5   7
ENDBRANCH   2   3
ENDBRANCH   1   2
BRANCH   1  30
ATOM     30  C   UNL     1       4.450  -0.724  -4.105  1.00  0.00     0.118 C 
BRANCH  30  31
ATOM     31  N   UNL     1       5.142   0.545  -3.920  1.00  0.00    -0.352 N 
ATOM     32  C   UNL     1       5.880   1.279  -4.829  1.00  0.00     0.251 C 
ATOM     33  H   UNL     1       5.074   0.935  -3.018  1.00  0.00     0.163 HD
ATOM     34  O   UNL     1       6.353   2.365  -4.494  1.00  0.00    -0.269 OA
BRANCH  32  35
ATOM     35  C   UNL     1       6.225   0.703  -6.152  1.00  0.00     0.039 A 
ATOM     36  C   UNL     1       7.565   0.762  -6.554  1.00  0.00     0.014 A 
ATOM     37  C   UNL     1       5.308  -0.030  -6.902  1.00  0.00     0.014 A 
ATOM     38  C   UNL     1       8.019  -0.073  -7.576  1.00  0.00     0.010 A 
ATOM     39  C   UNL     1       5.775  -0.932  -7.853  1.00  0.00     0.010 A 
ATOM     40  C   UNL     1       7.145  -1.011  -8.145  1.00  0.00    -0.014 A 
BRANCH  40  41
ATOM     41  C   UNL     1       7.652  -2.185  -8.905  1.00  0.00     0.031 A 
ATOM     42  C   UNL     1       7.181  -2.456 -10.303  1.00  0.00     0.074 A 
ATOM     43  C   UNL     1       8.405  -3.098  -8.252  1.00  0.00     0.049 A 
ATOM     44  N   UNL     1       7.385  -3.509 -11.049  1.00  0.00    -0.248 NA
ATOM     45  C   UNL     1       6.337  -1.427 -10.932  1.00  0.00     0.031 C 
ATOM     46  C   UNL     1       8.835  -3.000  -6.853  1.00  0.00     0.029 A 
ATOM     47  N   UNL     1       8.913  -4.306  -8.662  1.00  0.00    -0.354 N 
ATOM     48  C   UNL     1       6.658  -3.296 -12.213  1.00  0.00     0.074 A 
ATOM     49  C   UNL     1       5.988  -2.021 -12.065  1.00  0.00     0.031 C 
ATOM     50  C   UNL     1       9.546  -4.090  -6.527  1.00  0.00     0.029 A 
ATOM     51  C   UNL     1       9.593  -4.985  -7.675  1.00  0.00     0.049 A 
ATOM     52  H   UNL     1       8.800  -4.655  -9.576  1.00  0.00     0.167 HD
ATOM     53  C   UNL     1       6.581  -4.076 -13.317  1.00  0.00     0.034 A 
ATOM     54  C   UNL     1      10.180  -6.197  -7.686  1.00  0.00     0.034 A 
ATOM     55  C   UNL     1       7.304  -5.307 -13.483  1.00  0.00     0.049 A 
ATOM     56  C   UNL     1      10.138  -7.008  -8.951  1.00  0.00     0.074 A 
ATOM     57  C   UNL     1       7.386  -6.112 -14.605  1.00  0.00     0.029 A 
ATOM     58  N   UNL     1       8.076  -5.908 -12.500  1.00  0.00    -0.354 N 
ATOM     59  N   UNL     1       9.583  -6.709 -10.101  1.00  0.00    -0.248 NA
ATOM     60  C   UNL     1      10.820  -8.310  -8.931  1.00  0.00     0.031 C 
ATOM     61  C   UNL     1       8.208  -7.203 -14.299  1.00  0.00     0.029 A 
ATOM     62  C   UNL     1       8.636  -7.076 -12.987  1.00  0.00     0.049 A 
ATOM     63  H   UNL     1       8.207  -5.556 -11.591  1.00  0.00     0.167 HD
ATOM     64  C   UNL     1       9.863  -7.774 -10.946  1.00  0.00     0.074 A 
ATOM     65  C   UNL     1      10.663  -8.713 -10.186  1.00  0.00     0.031 C 
ATOM     66  C   UNL     1       9.472  -7.971 -12.229  1.00  0.00     0.034 A 
BRANCH  53  67
ATOM     67  C   UNL     1       5.744  -3.576 -14.463  1.00  0.00     0.023 A 
ATOM     68  C   UNL     1       6.229  -2.514 -15.253  1.00  0.00     0.012 A 
ATOM     69  C   UNL     1       4.509  -4.171 -14.785  1.00  0.00     0.148 A 
ATOM     70  C   UNL     1       5.484  -2.029 -16.326  1.00  0.00     0.002 A 
ATOM     71  C   UNL     1       3.788  -3.704 -15.879  1.00  0.00     0.091 A 
ATOM     72  F   UNL     1       4.054  -5.164 -14.008  1.00  0.00    -0.205 F 
ATOM     73  C   UNL     1       4.269  -2.629 -16.644  1.00  0.00     0.022 A 
BRANCH  71  74
ATOM     74  S   UNL     1       2.238  -4.445 -16.407  1.00  0.00     0.127 S 
ATOM     75  O   UNL     1       1.271  -3.426 -15.999  1.00  0.00    -0.237 OA
ATOM     76  O   UNL     1       2.428  -4.562 -17.853  1.00  0.00    -0.237 OA
ATOM     77  O   UNL     1       2.143  -5.716 -15.703  1.00  0.00    -0.744 OA
ENDBRANCH  71  74
ENDBRANCH  53  67
BRANCH  54  78
ATOM     78  C   UNL     1      10.922  -6.682  -6.487  1.00  0.00     0.023 A 
ATOM     79  C   UNL     1      12.329  -6.734  -6.530  1.00  0.00     0.012 A 
ATOM     80  C   UNL     1      10.260  -7.052  -5.300  1.00  0.00     0.148 A 
ATOM     81  C   UNL     1      13.061  -7.170  -5.425  1.00  0.00     0.002 A 
ATOM     82  C   UNL     1      10.998  -7.439  -4.186  1.00  0.00     0.091 A 
ATOM     83  F   UNL     1       8.920  -7.015  -5.278  1.00  0.00    -0.205 F 
ATOM     84  C   UNL     1      12.398  -7.512  -4.250  1.00  0.00     0.022 A 
BRANCH  82  85
ATOM     85  S   UNL     1      10.214  -7.764  -2.601  1.00  0.00     0.127 S 
ATOM     86  O   UNL     1      10.096  -9.218  -2.616  1.00  0.00    -0.237 OA
ATOM     87  O   UNL     1      11.194  -7.235  -1.651  1.00  0.00    -0.237 OA
ATOM     88  O   UNL     1       8.964  -7.015  -2.638  1.00  0.00    -0.744 OA
ENDBRANCH  82  85
ENDBRANCH  54  78
BRANCH  66  89
ATOM     89  C   UNL     1       9.901  -9.248 -12.895  1.00  0.00     0.023 A 
ATOM     90  C   UNL     1       9.235 -10.447 -12.575  1.00  0.00     0.012 A 
ATOM     91  C   UNL     1      10.893  -9.248 -13.894  1.00  0.00     0.148 A 
ATOM     92  C   UNL     1       9.561 -11.634 -13.228  1.00  0.00     0.002 A 
ATOM     93  C   UNL     1      11.185 -10.427 -14.570  1.00  0.00     0.091 A 
ATOM     94  F   UNL     1      11.528  -8.100 -14.165  1.00  0.00    -0.205 F 
ATOM     95  C   UNL     1      10.526 -11.621 -14.234  1.00  0.00     0.022 A 
BRANCH  93  96
ATOM     96  S   UNL     1      12.349 -10.486 -15.937  1.00  0.00     0.127 S 
ATOM     97  O   UNL     1      13.502 -11.137 -15.318  1.00  0.00    -0.237 OA
ATOM     98  O   UNL     1      11.638 -11.307 -16.918  1.00  0.00    -0.237 OA
ATOM     99  O   UNL     1      12.554  -9.103 -16.345  1.00  0.00    -0.744 OA
ENDBRANCH  93  96
ENDBRANCH  66  89
ENDBRANCH  40  41
ENDBRANCH  32  35
ENDBRANCH  30  31
ENDBRANCH   1  30
TORSDOF 16
