REMARK SMILES O=C(NCCCNC(=O)[C@H](Cc1ccc(O)cc1)NC(=O)c1ccc(Cl)s1)c1ccc(-c2c3nc(c(-c4cccc(S(=O)(=O)[O-])c4F)c4ccc([nH]4)c(-c4cccc(S(=O)(=O)[O-])c4F)c4nc(c(-c5cccc(S(=O)(=O)[O-])c5F)c5ccc2[nH]5)C=C4)C=C3)cc1
REMARK SMILES IDX 5 1 4 2 3 3 1 4 2 5 28 7 29 8 90 9 30 10 89 11 31 12 32 13
REMARK SMILES IDX 33 14 83 15 34 16 88 17 82 18 84 19 35 20 87 21 81 22 80 23
REMARK SMILES IDX 36 25 68 26 48 27 67 28 49 29 52 30 66 31 85 32 50 33 51 34
REMARK SMILES IDX 65 36 86 37 53 38 37 39 38 40 46 41 39 42 41 43 47 44 40 45
REMARK SMILES IDX 42 46 43 47 44 48 45 49 69 50 70 51 78 52 71 53 73 54 79 55
REMARK SMILES IDX 72 56 74 57 75 58 76 59 77 60 54 61 55 62 63 63 56 64 58 65
REMARK SMILES IDX 64 66 57 67 59 68 60 69 61 70 62 71 6 72 7 73 8 74 9 76
REMARK SMILES IDX 10 77 19 78 20 79 21 81 22 82 23 83 27 84 24 85 25 86 26 87
REMARK SMILES IDX 11 88 12 89 13 90 18 91 14 92 17 93 15 94 16 95
REMARK H PARENT 3 6 84 24 52 35 7 75 19 80 16 96
REMARK Flexibility Score: inf
ROOT
ATOM      1  C   UNL     1       5.085  -2.510  -1.252  1.00  0.00     0.042 C 
ENDROOT
BRANCH   1   2
ATOM      2  C   UNL     1       5.613  -2.937   0.114  1.00  0.00     0.118 C 
BRANCH   2   3
ATOM      3  N   UNL     1       5.766  -1.806   1.020  1.00  0.00    -0.352 N 
ATOM      4  O   UNL     1       5.215  -0.116   2.363  1.00  0.00    -0.269 OA
ATOM      5  C   UNL     1       4.917  -1.233   1.938  1.00  0.00     0.251 C 
ATOM      6  H   UNL     1       6.645  -1.368   0.964  1.00  0.00     0.163 HD
BRANCH   5   7
ATOM      7  C   UNL     1       3.674  -1.891   2.424  1.00  0.00     0.039 A 
ATOM      8  C   UNL     1       3.570  -3.271   2.591  1.00  0.00     0.014 A 
ATOM      9  C   UNL     1       2.613  -1.080   2.857  1.00  0.00     0.014 A 
ATOM     10  C   UNL     1       2.387  -3.840   3.069  1.00  0.00     0.010 A 
ATOM     11  C   UNL     1       1.461  -1.645   3.423  1.00  0.00     0.010 A 
ATOM     12  C   UNL     1       1.326  -3.036   3.518  1.00  0.00    -0.014 A 
BRANCH  12  13
ATOM     13  C   UNL     1       0.151  -3.677   4.174  1.00  0.00     0.031 A 
ATOM     14  C   UNL     1      -1.232  -3.587   3.587  1.00  0.00     0.074 A 
ATOM     15  C   UNL     1       0.341  -4.368   5.317  1.00  0.00     0.049 A 
ATOM     16  N   UNL     1      -2.330  -4.182   3.983  1.00  0.00    -0.248 NA
ATOM     17  C   UNL     1      -1.415  -2.712   2.419  1.00  0.00     0.031 C 
ATOM     18  C   UNL     1       1.614  -4.469   6.035  1.00  0.00     0.029 A 
ATOM     19  N   UNL     1      -0.521  -5.128   6.068  1.00  0.00    -0.354 N 
ATOM     20  C   UNL     1      -3.338  -3.729   3.140  1.00  0.00     0.074 A 
ATOM     21  C   UNL     1      -2.724  -2.800   2.216  1.00  0.00     0.031 C 
ATOM     22  C   UNL     1       1.466  -5.292   7.083  1.00  0.00     0.029 A 
ATOM     23  C   UNL     1       0.082  -5.752   7.137  1.00  0.00     0.049 A 
ATOM     24  H   UNL     1      -1.480  -5.219   5.862  1.00  0.00     0.167 HD
ATOM     25  C   UNL     1      -4.648  -4.074   3.119  1.00  0.00     0.034 A 
ATOM     26  C   UNL     1      -0.412  -6.613   8.048  1.00  0.00     0.034 A 
ATOM     27  C   UNL     1      -5.250  -5.043   3.998  1.00  0.00     0.049 A 
ATOM     28  C   UNL     1      -1.851  -7.035   7.955  1.00  0.00     0.074 A 
ATOM     29  C   UNL     1      -6.553  -5.515   3.996  1.00  0.00     0.029 A 
ATOM     30  N   UNL     1      -4.595  -5.691   5.032  1.00  0.00    -0.354 N 
ATOM     31  N   UNL     1      -2.745  -6.714   7.054  1.00  0.00    -0.248 NA
ATOM     32  C   UNL     1      -2.341  -7.956   8.991  1.00  0.00     0.031 C 
ATOM     33  C   UNL     1      -6.683  -6.449   5.030  1.00  0.00     0.029 A 
ATOM     34  C   UNL     1      -5.463  -6.556   5.678  1.00  0.00     0.049 A 
ATOM     35  H   UNL     1      -3.650  -5.556   5.273  1.00  0.00     0.167 HD
ATOM     36  C   UNL     1      -3.900  -7.404   7.402  1.00  0.00     0.074 A 
ATOM     37  C   UNL     1      -3.582  -8.186   8.580  1.00  0.00     0.031 C 
ATOM     38  C   UNL     1      -5.121  -7.370   6.815  1.00  0.00     0.034 A 
BRANCH  25  39
ATOM     39  C   UNL     1      -5.518  -3.450   2.061  1.00  0.00     0.023 A 
ATOM     40  C   UNL     1      -5.446  -3.937   0.740  1.00  0.00     0.012 A 
ATOM     41  C   UNL     1      -6.445  -2.438   2.375  1.00  0.00     0.148 A 
ATOM     42  C   UNL     1      -6.269  -3.413  -0.256  1.00  0.00     0.002 A 
ATOM     43  C   UNL     1      -7.284  -1.941   1.382  1.00  0.00     0.091 A 
ATOM     44  F   UNL     1      -6.482  -1.966   3.630  1.00  0.00    -0.205 F 
ATOM     45  C   UNL     1      -7.194  -2.423   0.067  1.00  0.00     0.022 A 
BRANCH  43  46
ATOM     46  S   UNL     1      -8.544  -0.709   1.735  1.00  0.00     0.127 S 
ATOM     47  O   UNL     1      -7.861   0.530   1.368  1.00  0.00    -0.237 OA
ATOM     48  O   UNL     1      -9.630  -1.094   0.831  1.00  0.00    -0.237 OA
ATOM     49  O   UNL     1      -8.858  -0.870   3.148  1.00  0.00    -0.744 OA
ENDBRANCH  43  46
ENDBRANCH  25  39
BRANCH  26  50
ATOM     50  C   UNL     1       0.500  -7.211   9.064  1.00  0.00     0.023 A 
ATOM     51  C   UNL     1       0.859  -8.568   8.947  1.00  0.00     0.012 A 
ATOM     52  C   UNL     1       1.066  -6.439  10.096  1.00  0.00     0.148 A 
ATOM     53  C   UNL     1       1.754  -9.148   9.846  1.00  0.00     0.002 A 
ATOM     54  C   UNL     1       2.000  -7.008  10.954  1.00  0.00     0.091 A 
ATOM     55  F   UNL     1       0.695  -5.156  10.211  1.00  0.00    -0.205 F 
ATOM     56  C   UNL     1       2.337  -8.365  10.840  1.00  0.00     0.022 A 
BRANCH  54  57
ATOM     57  S   UNL     1       2.897  -6.015  12.153  1.00  0.00     0.127 S 
ATOM     58  O   UNL     1       2.108  -6.216  13.364  1.00  0.00    -0.237 OA
ATOM     59  O   UNL     1       4.216  -6.649  12.165  1.00  0.00    -0.237 OA
ATOM     60  O   UNL     1       2.895  -4.667  11.597  1.00  0.00    -0.744 OA
ENDBRANCH  54  57
ENDBRANCH  26  50
BRANCH  38  61
ATOM     61  C   UNL     1      -6.211  -8.198   7.438  1.00  0.00     0.023 A 
ATOM     62  C   UNL     1      -6.834  -7.739   8.616  1.00  0.00     0.012 A 
ATOM     63  C   UNL     1      -6.661  -9.388   6.836  1.00  0.00     0.148 A 
ATOM     64  C   UNL     1      -7.874  -8.463   9.197  1.00  0.00     0.002 A 
ATOM     65  C   UNL     1      -7.722 -10.088   7.403  1.00  0.00     0.091 A 
ATOM     66  F   UNL     1      -6.039  -9.826   5.731  1.00  0.00    -0.205 F 
ATOM     67  C   UNL     1      -8.325  -9.631   8.585  1.00  0.00     0.022 A 
BRANCH  65  68
ATOM     68  S   UNL     1      -8.400 -11.558   6.624  1.00  0.00     0.127 S 
ATOM     69  O   UNL     1      -7.671 -12.625   7.305  1.00  0.00    -0.237 OA
ATOM     70  O   UNL     1      -9.822 -11.477   6.966  1.00  0.00    -0.237 OA
ATOM     71  O   UNL     1      -8.122 -11.402   5.202  1.00  0.00    -0.744 OA
ENDBRANCH  65  68
ENDBRANCH  38  61
ENDBRANCH  12  13
ENDBRANCH   5   7
ENDBRANCH   2   3
ENDBRANCH   1   2
BRANCH   1  72
ATOM     72  C   UNL     1       6.115  -1.784  -2.110  1.00  0.00     0.117 C 
BRANCH  72  73
ATOM     73  N   UNL     1       7.091  -2.674  -2.704  1.00  0.00    -0.354 N 
ATOM     74  C   UNL     1       7.205  -3.281  -3.907  1.00  0.00     0.242 C 
ATOM     75  H   UNL     1       7.838  -2.883  -2.098  1.00  0.00     0.163 HD
ATOM     76  O   UNL     1       8.270  -3.901  -4.067  1.00  0.00    -0.273 OA
BRANCH  74  77
ATOM     77  C   UNL     1       6.114  -3.410  -5.000  1.00  0.00     0.176 C 
BRANCH  77  78
ATOM     78  N   UNL     1       5.605  -4.787  -4.926  1.00  0.00    -0.339 N 
ATOM     79  C   UNL     1       5.637  -5.787  -5.866  1.00  0.00     0.262 C 
ATOM     80  H   UNL     1       5.177  -5.029  -4.074  1.00  0.00     0.164 HD
ATOM     81  O   UNL     1       4.940  -6.781  -5.675  1.00  0.00    -0.268 OA
BRANCH  79  82
ATOM     82  C   UNL     1       6.457  -5.611  -7.043  1.00  0.00     0.093 A 
ATOM     83  C   UNL     1       7.830  -5.475  -7.133  1.00  0.00     0.027 A 
ATOM     84  S   UNL     1       5.718  -5.622  -8.590  1.00  0.00    -0.118 S 
ATOM     85  C   UNL     1       8.272  -5.364  -8.485  1.00  0.00     0.033 A 
ATOM     86  C   UNL     1       7.214  -5.423  -9.355  1.00  0.00     0.094 A 
ATOM     87  Cl  UNL     1       7.291  -5.323 -11.068  1.00  0.00    -0.072 Cl
ENDBRANCH  79  82
ENDBRANCH  77  78
BRANCH  77  88
ATOM     88  C   UNL     1       5.013  -2.349  -5.257  1.00  0.00     0.070 C 
BRANCH  88  89
ATOM     89  C   UNL     1       3.611  -2.702  -4.799  1.00  0.00    -0.045 A 
ATOM     90  C   UNL     1       2.899  -3.734  -5.435  1.00  0.00     0.007 A 
ATOM     91  C   UNL     1       3.002  -2.049  -3.724  1.00  0.00     0.007 A 
ATOM     92  C   UNL     1       1.704  -4.220  -4.903  1.00  0.00     0.046 A 
ATOM     93  C   UNL     1       1.806  -2.531  -3.187  1.00  0.00     0.046 A 
ATOM     94  C   UNL     1       1.189  -3.636  -3.755  1.00  0.00     0.115 A 
BRANCH  94  95
ATOM     95  O   UNL     1       0.073  -4.124  -3.148  1.00  0.00    -0.508 OA
ATOM     96  H   UNL     1      -0.368  -4.870  -3.507  1.00  0.00     0.293 HD
ENDBRANCH  94  95
ENDBRANCH  88  89
ENDBRANCH  77  88
ENDBRANCH  74  77
ENDBRANCH  72  73
ENDBRANCH   1  72
TORSDOF 18
