REMARK SMILES CC1CC[NH+]([C@H](c2ccc(F)cc2)c2ccc([C@@H](C)C(=O)NCCCNC(=O)c3ccc(-c4c5nc(c(-c6cccc(S(=O)(=O)[O-])c6F)c6ccc([nH]6)c(-c6cccc(S(=O)(=O)[O-])c6F)c6nc(c(-c7cccc(S(=O)(=O)[O-])c7F)c7ccc4[nH]7)C=C6)C=C5)cc3)cc2-c2ccc(C(F)(F)F)cc2)CC1
REMARK SMILES IDX 24 1 23 2 22 3 20 4 21 5 18 7 19 8 17 9 14 10 15 11 93 12
REMARK SMILES IDX 16 13 92 14 6 15 5 16 1 17 2 18 3 19 105 20 4 21 104 22 7 24
REMARK SMILES IDX 8 25 13 26 9 27 12 28 10 29 11 30 94 31 95 32 103 33 96 34
REMARK SMILES IDX 102 35 97 36 98 37 99 38 100 39 101 40 25 41 26 42 27 43
REMARK SMILES IDX 28 45 29 46 30 47 91 48 31 49 90 50 32 51 33 52 34 53 84 54
REMARK SMILES IDX 35 55 89 56 83 57 85 58 36 59 88 60 82 61 81 62 37 64 69 65
REMARK SMILES IDX 49 66 68 67 50 68 53 69 67 70 86 71 51 72 52 73 66 75 87 76
REMARK SMILES IDX 54 77 38 78 39 79 47 80 40 81 42 82 48 83 41 84 43 85 44 86
REMARK SMILES IDX 45 87 46 88 70 89 71 90 79 91 72 92 74 93 80 94 73 95 75 96
REMARK SMILES IDX 76 97 77 98 78 99 55 100 56 101 64 102 57 103 59 104 65 105
REMARK SMILES IDX 58 106 60 107 61 108 62 109 63 110
REMARK H PARENT 22 6 5 23 26 44 85 63 53 74
REMARK Flexibility Score: inf
ROOT
ATOM      1  C   UNL     1       1.008   5.310  -4.036  1.00  0.00     0.042 C 
ENDROOT
BRANCH   1   2
ATOM      2  C   UNL     1       2.236   5.995  -4.638  1.00  0.00     0.117 C 
BRANCH   2   3
ATOM      3  N   UNL     1       3.239   6.330  -3.642  1.00  0.00    -0.356 N 
ATOM      4  C   UNL     1       4.396   5.729  -3.247  1.00  0.00     0.227 C 
ATOM      5  O   UNL     1       5.017   6.306  -2.343  1.00  0.00    -0.274 OA
ATOM      6  H   UNL     1       3.042   7.160  -3.151  1.00  0.00     0.163 HD
BRANCH   4   7
ATOM      7  C   UNL     1       4.970   4.430  -3.847  1.00  0.00     0.105 C 
ATOM      8  C   UNL     1       5.264   4.504  -5.343  1.00  0.00     0.023 C 
BRANCH   7   9
ATOM      9  C   UNL     1       4.232   3.183  -3.396  1.00  0.00    -0.035 A 
ATOM     10  C   UNL     1       2.647   1.085  -2.254  1.00  0.00     0.022 A 
ATOM     11  C   UNL     1       2.211   1.867  -3.336  1.00  0.00     0.011 A 
ATOM     12  C   UNL     1       4.000   1.261  -1.856  1.00  0.00    -0.009 A 
ATOM     13  C   UNL     1       3.015   2.824  -3.946  1.00  0.00     0.005 A 
ATOM     14  C   UNL     1       4.734   2.360  -2.378  1.00  0.00     0.013 A 
BRANCH  10  15
ATOM     15  C   UNL     1       1.693   0.040  -1.599  1.00  0.00     0.247 C 
BRANCH  15  16
ATOM     16  N   UNL     1       0.279   0.013  -2.072  1.00  0.00    -0.325 N 
ATOM     17  C   UNL     1      -3.062   1.376  -4.583  1.00  0.00     0.008 C 
ATOM     18  C   UNL     1      -1.762   1.104  -3.841  1.00  0.00    -0.003 C 
ATOM     19  C   UNL     1      -1.248  -0.309  -4.101  1.00  0.00     0.065 C 
ATOM     20  C   UNL     1      -1.933   1.237  -2.333  1.00  0.00     0.065 C 
ATOM     21  C   UNL     1       0.089  -0.574  -3.399  1.00  0.00     0.263 C 
ATOM     22  C   UNL     1      -0.575   1.119  -1.641  1.00  0.00     0.263 C 
ATOM     23  H   UNL     1      -0.170  -0.705  -1.503  1.00  0.00     0.348 HD
ENDBRANCH  15  16
BRANCH  15  24
ATOM     24  C   UNL     1       1.752   0.026  -0.058  1.00  0.00     0.014 A 
ATOM     25  C   UNL     1       1.601   1.197   0.710  1.00  0.00     0.013 A 
ATOM     26  C   UNL     1       1.957  -1.194   0.616  1.00  0.00     0.013 A 
ATOM     27  C   UNL     1       1.657   1.148   2.105  1.00  0.00     0.040 A 
ATOM     28  C   UNL     1       2.046  -1.235   2.009  1.00  0.00     0.040 A 
ATOM     29  C   UNL     1       1.891  -0.065   2.740  1.00  0.00     0.123 A 
ATOM     30  F   UNL     1       1.974  -0.106   4.077  1.00  0.00    -0.207 F 
ENDBRANCH  15  24
ENDBRANCH  10  15
BRANCH  12  31
ATOM     31  C   UNL     1       4.719   0.313  -0.981  1.00  0.00    -0.018 A 
ATOM     32  C   UNL     1       5.292   0.715   0.234  1.00  0.00     0.009 A 
ATOM     33  C   UNL     1       4.885  -1.025  -1.379  1.00  0.00     0.009 A 
ATOM     34  C   UNL     1       5.979  -0.200   1.040  1.00  0.00     0.014 A 
ATOM     35  C   UNL     1       5.559  -1.944  -0.571  1.00  0.00     0.014 A 
ATOM     36  C   UNL     1       6.109  -1.542   0.652  1.00  0.00     0.056 A 
BRANCH  36  37
ATOM     37  C   UNL     1       6.848  -2.520   1.529  1.00  0.00     0.416 C 
ATOM     38  F   UNL     1       8.194  -2.298   1.529  1.00  0.00    -0.166 F 
ATOM     39  F   UNL     1       6.463  -2.465   2.834  1.00  0.00    -0.166 F 
ATOM     40  F   UNL     1       6.692  -3.820   1.150  1.00  0.00    -0.166 F 
ENDBRANCH  36  37
ENDBRANCH  12  31
ENDBRANCH   7   9
ENDBRANCH   4   7
ENDBRANCH   2   3
ENDBRANCH   1   2
BRANCH   1  41
ATOM     41  C   UNL     1      -0.070   6.254  -3.526  1.00  0.00     0.118 C 
BRANCH  41  42
ATOM     42  N   UNL     1      -0.734   6.966  -4.607  1.00  0.00    -0.352 N 
ATOM     43  C   UNL     1      -2.053   7.004  -4.984  1.00  0.00     0.251 C 
ATOM     44  H   UNL     1      -0.134   7.514  -5.164  1.00  0.00     0.163 HD
ATOM     45  O   UNL     1      -2.334   7.522  -6.064  1.00  0.00    -0.269 OA
BRANCH  43  46
ATOM     46  C   UNL     1      -3.134   6.443  -4.136  1.00  0.00     0.039 A 
ATOM     47  C   UNL     1      -4.268   5.913  -4.765  1.00  0.00     0.014 A 
ATOM     48  C   UNL     1      -3.093   6.500  -2.741  1.00  0.00     0.014 A 
ATOM     49  C   UNL     1      -5.333   5.421  -4.003  1.00  0.00     0.010 A 
ATOM     50  C   UNL     1      -4.115   5.927  -1.983  1.00  0.00     0.010 A 
ATOM     51  C   UNL     1      -5.259   5.404  -2.602  1.00  0.00    -0.014 A 
BRANCH  51  52
ATOM     52  C   UNL     1      -6.368   4.866  -1.768  1.00  0.00     0.031 A 
ATOM     53  C   UNL     1      -7.085   5.760  -0.791  1.00  0.00     0.074 A 
ATOM     54  C   UNL     1      -6.676   3.554  -1.823  1.00  0.00     0.049 A 
ATOM     55  N   UNL     1      -8.026   5.452   0.062  1.00  0.00    -0.248 NA
ATOM     56  C   UNL     1      -6.686   7.178  -0.753  1.00  0.00     0.031 C 
ATOM     57  C   UNL     1      -6.019   2.577  -2.686  1.00  0.00     0.029 A 
ATOM     58  N   UNL     1      -7.590   2.806  -1.121  1.00  0.00    -0.354 N 
ATOM     59  C   UNL     1      -8.310   6.622   0.755  1.00  0.00     0.074 A 
ATOM     60  C   UNL     1      -7.417   7.641   0.251  1.00  0.00     0.031 C 
ATOM     61  C   UNL     1      -6.523   1.357  -2.449  1.00  0.00     0.029 A 
ATOM     62  C   UNL     1      -7.534   1.460  -1.403  1.00  0.00     0.049 A 
ATOM     63  H   UNL     1      -8.225   3.196  -0.477  1.00  0.00     0.167 HD
ATOM     64  C   UNL     1      -9.257   6.837   1.697  1.00  0.00     0.034 A 
ATOM     65  C   UNL     1      -8.211   0.419  -0.879  1.00  0.00     0.034 A 
ATOM     66  C   UNL     1     -10.184   5.835   2.146  1.00  0.00     0.049 A 
ATOM     67  C   UNL     1      -9.278   0.691   0.144  1.00  0.00     0.074 A 
ATOM     68  C   UNL     1     -11.253   5.988   3.012  1.00  0.00     0.029 A 
ATOM     69  N   UNL     1     -10.155   4.501   1.775  1.00  0.00    -0.354 N 
ATOM     70  N   UNL     1      -9.645   1.839   0.658  1.00  0.00    -0.248 NA
ATOM     71  C   UNL     1     -10.057  -0.459   0.625  1.00  0.00     0.031 C 
ATOM     72  C   UNL     1     -11.853   4.739   3.186  1.00  0.00     0.029 A 
ATOM     73  C   UNL     1     -11.177   3.815   2.405  1.00  0.00     0.049 A 
ATOM     74  H   UNL     1      -9.504   4.101   1.154  1.00  0.00     0.167 HD
ATOM     75  C   UNL     1     -10.720   1.558   1.491  1.00  0.00     0.074 A 
ATOM     76  C   UNL     1     -10.957   0.132   1.402  1.00  0.00     0.031 C 
ATOM     77  C   UNL     1     -11.438   2.406   2.266  1.00  0.00     0.034 A 
BRANCH  64  78
ATOM     78  C   UNL     1      -9.405   8.224   2.261  1.00  0.00     0.023 A 
ATOM     79  C   UNL     1      -9.989   9.233   1.470  1.00  0.00     0.012 A 
ATOM     80  C   UNL     1      -9.091   8.493   3.608  1.00  0.00     0.148 A 
ATOM     81  C   UNL     1     -10.249  10.493   2.006  1.00  0.00     0.002 A 
ATOM     82  C   UNL     1      -9.393   9.738   4.147  1.00  0.00     0.091 A 
ATOM     83  F   UNL     1      -8.521   7.523   4.336  1.00  0.00    -0.205 F 
ATOM     84  C   UNL     1      -9.965  10.740   3.346  1.00  0.00     0.022 A 
BRANCH  82  85
ATOM     85  S   UNL     1      -9.149  10.133   5.883  1.00  0.00     0.127 S 
ATOM     86  O   UNL     1      -8.146  11.194   5.804  1.00  0.00    -0.237 OA
ATOM     87  O   UNL     1     -10.482  10.582   6.283  1.00  0.00    -0.237 OA
ATOM     88  O   UNL     1      -8.698   8.903   6.519  1.00  0.00    -0.744 OA
ENDBRANCH  82  85
ENDBRANCH  64  78
BRANCH  65  89
ATOM     89  C   UNL     1      -7.948  -0.962  -1.379  1.00  0.00     0.023 A 
ATOM     90  C   UNL     1      -8.916  -1.609  -2.170  1.00  0.00     0.012 A 
ATOM     91  C   UNL     1      -6.724  -1.612  -1.123  1.00  0.00     0.148 A 
ATOM     92  C   UNL     1      -8.683  -2.889  -2.675  1.00  0.00     0.002 A 
ATOM     93  C   UNL     1      -6.476  -2.864  -1.676  1.00  0.00     0.091 A 
ATOM     94  F   UNL     1      -5.818  -0.984  -0.361  1.00  0.00    -0.205 F 
ATOM     95  C   UNL     1      -7.460  -3.512  -2.438  1.00  0.00     0.022 A 
BRANCH  93  96
ATOM     96  S   UNL     1      -4.880  -3.679  -1.544  1.00  0.00     0.127 S 
ATOM     97  O   UNL     1      -5.183  -4.786  -0.641  1.00  0.00    -0.237 OA
ATOM     98  O   UNL     1      -4.623  -4.067  -2.931  1.00  0.00    -0.237 OA
ATOM     99  O   UNL     1      -3.967  -2.668  -1.026  1.00  0.00    -0.744 OA
ENDBRANCH  93  96
ENDBRANCH  65  89
BRANCH  77 100
ATOM    100  C   UNL     1     -12.575   1.840   3.074  1.00  0.00     0.023 A 
ATOM    101  C   UNL     1     -12.299   1.079   4.226  1.00  0.00     0.012 A 
ATOM    102  C   UNL     1     -13.908   2.176   2.766  1.00  0.00     0.148 A 
ATOM    103  C   UNL     1     -13.335   0.648   5.052  1.00  0.00     0.002 A 
ATOM    104  C   UNL     1     -14.931   1.787   3.622  1.00  0.00     0.091 A 
ATOM    105  F   UNL     1     -14.147   2.890   1.656  1.00  0.00    -0.205 F 
ATOM    106  C   UNL     1     -14.647   1.015   4.760  1.00  0.00     0.022 A 
BRANCH 104 107
ATOM    107  S   UNL     1     -16.635   2.303   3.388  1.00  0.00     0.127 S 
ATOM    108  O   UNL     1     -17.284   1.039   3.042  1.00  0.00    -0.237 OA
ATOM    109  O   UNL     1     -16.983   2.827   4.708  1.00  0.00    -0.237 OA
ATOM    110  O   UNL     1     -16.614   3.300   2.326  1.00  0.00    -0.744 OA
ENDBRANCH 104 107
ENDBRANCH  77 100
ENDBRANCH  51  52
ENDBRANCH  43  46
ENDBRANCH  41  42
ENDBRANCH   1  41
TORSDOF 19
