REMARK SMILES C[C@H](CC(=O)N1CCC2(CC1)CN(CCCC(=O)NCCCNC(=O)c1ccc(-c3c4nc(c(-c5cccc(S(=O)(=O)[O-])c5F)c5ccc([nH]5)c(-c5cccc(S(=O)(=O)[O-])c5F)c5nc(c(-c6cccc(S(=O)(=O)[O-])c6F)c6ccc3[nH]6)C=C5)C=C4)cc1)C(=O)O2)n1ccnc1
REMARK SMILES IDX 17 1 18 2 19 3 16 5 15 6 14 7 13 8 4 9 5 10 6 11 7 12 11 13
REMARK SMILES IDX 8 14 10 15 9 16 12 17 91 18 89 19 90 20 3 21 2 22 1 23 92 24
REMARK SMILES IDX 93 25 96 26 94 27 95 28 20 29 21 30 22 31 23 32 24 33 25 35
REMARK SMILES IDX 26 36 27 37 88 38 28 39 87 40 29 41 30 42 31 43 81 44 32 45
REMARK SMILES IDX 86 46 80 47 82 48 33 49 85 50 79 51 78 52 34 54 66 55 46 56
REMARK SMILES IDX 65 57 47 58 50 59 64 60 83 61 48 62 49 63 63 65 84 66 51 67
REMARK SMILES IDX 35 68 36 69 44 70 37 71 39 72 45 73 38 74 40 75 41 76 42 77
REMARK SMILES IDX 43 78 67 79 68 80 76 81 69 82 71 83 77 84 70 85 72 86 73 87
REMARK SMILES IDX 74 88 75 89 52 90 53 91 61 92 54 93 56 94 62 95 55 96 57 97
REMARK SMILES IDX 58 98 59 99 60 100
REMARK H PARENT 19 4 23 34 82 53 50 64
REMARK Flexibility Score: inf
ROOT
ATOM      1  C   UNL     1      -4.980  -6.079   0.799  1.00  0.00     0.220 C 
ATOM      2  O   UNL     1      -4.991  -7.240   1.215  1.00  0.00    -0.275 OA
ATOM      3  N   UNL     1      -4.885  -5.091   1.725  1.00  0.00    -0.356 N 
ATOM      4  H   UNL     1      -4.853  -5.409   2.656  1.00  0.00     0.163 HD
ENDROOT
BRANCH   1   5
ATOM      5  C   UNL     1      -4.938  -5.805  -0.693  1.00  0.00     0.102 C 
BRANCH   5   6
ATOM      6  C   UNL     1      -6.164  -5.234  -1.403  1.00  0.00     0.031 C 
BRANCH   6   7
ATOM      7  C   UNL     1      -6.505  -3.743  -1.355  1.00  0.00     0.124 C 
BRANCH   7   8
ATOM      8  N   UNL     1      -5.534  -2.731  -1.756  1.00  0.00    -0.304 N 
ATOM      9  C   UNL     1      -0.126   0.700  -1.172  1.00  0.00     0.224 C 
ATOM     10  O   UNL     1       0.579   1.405  -1.896  1.00  0.00    -0.275 OA
ATOM     11  N   UNL     1      -1.406   0.303  -1.544  1.00  0.00    -0.342 N 
ATOM     12  C   UNL     1      -1.834   0.175  -2.932  1.00  0.00     0.123 C 
ATOM     13  C   UNL     1      -2.506   0.206  -0.617  1.00  0.00     0.123 C 
ATOM     14  C   UNL     1      -2.550  -1.180  -3.134  1.00  0.00     0.072 C 
ATOM     15  C   UNL     1      -3.090  -1.185  -0.649  1.00  0.00     0.072 C 
ATOM     16  C   UNL     1      -3.620  -1.480  -2.064  1.00  0.00     0.135 C 
ATOM     17  C   UNL     1      -4.164  -2.904  -2.144  1.00  0.00     0.172 C 
ATOM     18  O   UNL     1      -4.790  -0.674  -2.284  1.00  0.00    -0.441 OA
ATOM     19  C   UNL     1      -5.885  -1.404  -1.897  1.00  0.00     0.410 C 
ATOM     20  O   UNL     1      -6.988  -0.917  -1.710  1.00  0.00    -0.224 OA
BRANCH   9  21
ATOM     21  C   UNL     1       0.498  -0.004   0.048  1.00  0.00     0.125 C 
BRANCH  21  22
ATOM     22  C   UNL     1       0.608   0.652   1.440  1.00  0.00     0.094 C 
ATOM     23  C   UNL     1       1.505   1.887   1.502  1.00  0.00     0.032 C 
BRANCH  22  24
ATOM     24  N   UNL     1      -0.667   0.835   2.112  1.00  0.00    -0.334 N 
ATOM     25  C   UNL     1      -1.435  -0.179   2.630  1.00  0.00     0.107 A 
ATOM     26  C   UNL     1      -1.383   1.994   2.223  1.00  0.00     0.199 A 
ATOM     27  C   UNL     1      -2.650   0.412   2.884  1.00  0.00     0.130 A 
ATOM     28  N   UNL     1      -2.604   1.757   2.637  1.00  0.00    -0.245 NA
ENDBRANCH  22  24
ENDBRANCH  21  22
ENDBRANCH   9  21
ENDBRANCH   7   8
ENDBRANCH   6   7
ENDBRANCH   5   6
ENDBRANCH   1   5
BRANCH   3  29
ATOM     29  C   UNL     1      -4.824  -3.654   1.581  1.00  0.00     0.117 C 
BRANCH  29  30
ATOM     30  C   UNL     1      -6.092  -2.979   2.087  1.00  0.00     0.042 C 
BRANCH  30  31
ATOM     31  C   UNL     1      -6.172  -2.891   3.601  1.00  0.00     0.118 C 
BRANCH  31  32
ATOM     32  N   UNL     1      -5.212  -1.956   4.178  1.00  0.00    -0.352 N 
ATOM     33  C   UNL     1      -5.447  -0.849   4.964  1.00  0.00     0.251 C 
ATOM     34  H   UNL     1      -4.266  -2.142   3.978  1.00  0.00     0.163 HD
ATOM     35  O   UNL     1      -4.523  -0.140   5.345  1.00  0.00    -0.269 OA
BRANCH  33  36
ATOM     36  C   UNL     1      -6.821  -0.534   5.373  1.00  0.00     0.039 A 
ATOM     37  C   UNL     1      -7.350   0.744   5.173  1.00  0.00     0.014 A 
ATOM     38  C   UNL     1      -7.577  -1.544   5.964  1.00  0.00     0.014 A 
ATOM     39  C   UNL     1      -8.676   0.992   5.532  1.00  0.00     0.010 A 
ATOM     40  C   UNL     1      -8.918  -1.327   6.212  1.00  0.00     0.010 A 
ATOM     41  C   UNL     1      -9.473  -0.051   6.030  1.00  0.00    -0.014 A 
BRANCH  41  42
ATOM     42  C   UNL     1     -10.889   0.137   6.420  1.00  0.00     0.031 A 
ATOM     43  C   UNL     1     -11.298  -0.163   7.838  1.00  0.00     0.074 A 
ATOM     44  C   UNL     1     -11.810   0.421   5.481  1.00  0.00     0.049 A 
ATOM     45  N   UNL     1     -12.495  -0.252   8.351  1.00  0.00    -0.248 NA
ATOM     46  C   UNL     1     -10.213  -0.453   8.794  1.00  0.00     0.031 C 
ATOM     47  C   UNL     1     -11.533   0.667   4.064  1.00  0.00     0.029 A 
ATOM     48  N   UNL     1     -13.176   0.510   5.573  1.00  0.00    -0.354 N 
ATOM     49  C   UNL     1     -12.311  -0.667   9.665  1.00  0.00     0.074 A 
ATOM     50  C   UNL     1     -10.891  -0.850   9.860  1.00  0.00     0.031 C 
ATOM     51  C   UNL     1     -12.691   0.884   3.421  1.00  0.00     0.029 A 
ATOM     52  C   UNL     1     -13.793   0.745   4.366  1.00  0.00     0.049 A 
ATOM     53  H   UNL     1     -13.667   0.415   6.420  1.00  0.00     0.167 HD
ATOM     54  C   UNL     1     -13.241  -0.858  10.629  1.00  0.00     0.034 A 
ATOM     55  C   UNL     1     -15.102   0.818   4.058  1.00  0.00     0.034 A 
ATOM     56  C   UNL     1     -14.644  -0.624  10.431  1.00  0.00     0.049 A 
ATOM     57  C   UNL     1     -16.114   0.634   5.156  1.00  0.00     0.074 A 
ATOM     58  C   UNL     1     -15.664  -0.681  11.362  1.00  0.00     0.029 A 
ATOM     59  N   UNL     1     -15.225  -0.300   9.215  1.00  0.00    -0.354 N 
ATOM     60  N   UNL     1     -15.917   0.383   6.428  1.00  0.00    -0.248 NA
ATOM     61  C   UNL     1     -17.529   0.771   4.784  1.00  0.00     0.031 C 
ATOM     62  C   UNL     1     -16.869  -0.436  10.698  1.00  0.00     0.029 A 
ATOM     63  C   UNL     1     -16.593  -0.173   9.365  1.00  0.00     0.049 A 
ATOM     64  H   UNL     1     -14.736  -0.178   8.369  1.00  0.00     0.167 HD
ATOM     65  C   UNL     1     -17.176   0.381   7.017  1.00  0.00     0.074 A 
ATOM     66  C   UNL     1     -18.128   0.664   5.962  1.00  0.00     0.031 C 
ATOM     67  C   UNL     1     -17.516   0.161   8.310  1.00  0.00     0.034 A 
BRANCH  54  68
ATOM     68  C   UNL     1     -12.767  -1.316  11.984  1.00  0.00     0.023 A 
ATOM     69  C   UNL     1     -11.995  -0.455  12.792  1.00  0.00     0.012 A 
ATOM     70  C   UNL     1     -13.121  -2.588  12.475  1.00  0.00     0.148 A 
ATOM     71  C   UNL     1     -11.545  -0.869  14.045  1.00  0.00     0.002 A 
ATOM     72  C   UNL     1     -12.715  -2.972  13.747  1.00  0.00     0.091 A 
ATOM     73  F   UNL     1     -13.836  -3.402  11.686  1.00  0.00    -0.205 F 
ATOM     74  C   UNL     1     -11.914  -2.122  14.526  1.00  0.00     0.022 A 
BRANCH  72  75
ATOM     75  S   UNL     1     -13.211  -4.529  14.492  1.00  0.00     0.127 S 
ATOM     76  O   UNL     1     -11.943  -5.258  14.524  1.00  0.00    -0.237 OA
ATOM     77  O   UNL     1     -13.699  -4.099  15.803  1.00  0.00    -0.237 OA
ATOM     78  O   UNL     1     -14.230  -5.089  13.617  1.00  0.00    -0.744 OA
ENDBRANCH  72  75
ENDBRANCH  54  68
BRANCH  55  79
ATOM     79  C   UNL     1     -15.527   1.143   2.668  1.00  0.00     0.023 A 
ATOM     80  C   UNL     1     -16.116   2.397   2.407  1.00  0.00     0.012 A 
ATOM     81  C   UNL     1     -15.336   0.240   1.605  1.00  0.00     0.148 A 
ATOM     82  C   UNL     1     -16.540   2.730   1.121  1.00  0.00     0.002 A 
ATOM     83  C   UNL     1     -15.714   0.599   0.316  1.00  0.00     0.091 A 
ATOM     84  F   UNL     1     -14.777  -0.948   1.875  1.00  0.00    -0.205 F 
ATOM     85  C   UNL     1     -16.332   1.836   0.075  1.00  0.00     0.022 A 
BRANCH  83  86
ATOM     86  S   UNL     1     -15.386  -0.439  -1.113  1.00  0.00     0.127 S 
ATOM     87  O   UNL     1     -16.736  -0.827  -1.516  1.00  0.00    -0.237 OA
ATOM     88  O   UNL     1     -14.719   0.498  -2.017  1.00  0.00    -0.237 OA
ATOM     89  O   UNL     1     -14.539  -1.521  -0.631  1.00  0.00    -0.744 OA
ENDBRANCH  83  86
ENDBRANCH  55  79
BRANCH  67  90
ATOM     90  C   UNL     1     -18.970   0.278   8.683  1.00  0.00     0.023 A 
ATOM     91  C   UNL     1     -19.888  -0.712   8.282  1.00  0.00     0.012 A 
ATOM     92  C   UNL     1     -19.403   1.329   9.517  1.00  0.00     0.148 A 
ATOM     93  C   UNL     1     -21.222  -0.641   8.680  1.00  0.00     0.002 A 
ATOM     94  C   UNL     1     -20.719   1.362   9.956  1.00  0.00     0.091 A 
ATOM     95  F   UNL     1     -18.514   2.268   9.873  1.00  0.00    -0.205 F 
ATOM     96  C   UNL     1     -21.633   0.386   9.527  1.00  0.00     0.022 A 
BRANCH  94  97
ATOM     97  S   UNL     1     -21.311   2.582  11.133  1.00  0.00     0.127 S 
ATOM     98  O   UNL     1     -22.226   3.370  10.308  1.00  0.00    -0.237 OA
ATOM     99  O   UNL     1     -21.964   1.745  12.140  1.00  0.00    -0.237 OA
ATOM    100  O   UNL     1     -20.133   3.294  11.607  1.00  0.00    -0.744 OA
ENDBRANCH  94  97
ENDBRANCH  67  90
ENDBRANCH  41  42
ENDBRANCH  33  36
ENDBRANCH  31  32
ENDBRANCH  30  31
ENDBRANCH  29  30
ENDBRANCH   3  29
TORSDOF 19
