REMARK SMILES COc1cccc([C@@H]2[NH2+][C@@](C)(C(=O)NCCCNC(=O)c3ccc(-c4c5nc(c(-c6cccc(S(=O)(=O)[O-])c6F)c6ccc([nH]6)c(-c6cccc(S(=O)(=O)[O-])c6F)c6nc(c(-c7cccc(S(=O)(=O)[O-])c7F)c7ccc4[nH]7)C=C6)C=C5)cc3)[C@@H]3C(=O)N(C)C(=O)[C@@H]32)c1O
REMARK SMILES IDX 16 1 15 2 14 3 12 4 13 5 10 7 8 8 9 9 91 10 84 13 89 14
REMARK SMILES IDX 11 15 85 16 87 17 90 18 86 19 88 20 7 21 3 22 4 23 92 24
REMARK SMILES IDX 5 25 6 26 2 27 1 28 93 29 17 31 18 32 19 33 20 35 21 36
REMARK SMILES IDX 22 37 83 38 23 39 82 40 24 41 25 42 26 43 76 44 27 45 81 46
REMARK SMILES IDX 75 47 77 48 28 49 80 50 74 51 73 52 29 54 61 55 41 56 60 57
REMARK SMILES IDX 42 58 45 59 59 60 78 61 43 62 44 63 58 65 79 66 46 67 30 68
REMARK SMILES IDX 31 69 39 70 32 71 34 72 40 73 33 74 35 75 36 76 37 77 38 78
REMARK SMILES IDX 62 79 63 80 71 81 64 82 66 83 72 84 65 85 67 86 68 87 69 88
REMARK SMILES IDX 70 89 47 90 48 91 56 92 49 93 51 94 57 95 50 96 52 97 53 98
REMARK SMILES IDX 54 99 55 100
REMARK H PARENT 14 6 9 11 9 12 93 30 18 34 77 53 45 64
REMARK Flexibility Score: inf
ROOT
ATOM      1  C   UNL     1      -0.872  -5.109   7.077  1.00  0.00     0.042 C 
ENDROOT
BRANCH   1   2
ATOM      2  C   UNL     1      -0.394  -5.307   5.647  1.00  0.00     0.118 C 
BRANCH   2   3
ATOM      3  N   UNL     1      -1.495  -5.543   4.730  1.00  0.00    -0.351 N 
ATOM      4  C   UNL     1      -1.901  -4.843   3.634  1.00  0.00     0.281 C 
ATOM      5  O   UNL     1      -2.946  -5.226   3.097  1.00  0.00    -0.268 OA
ATOM      6  H   UNL     1      -2.037  -6.340   4.933  1.00  0.00     0.163 HD
BRANCH   4   7
ATOM      7  C   UNL     1      -1.058  -3.659   3.057  1.00  0.00     0.185 C 
ATOM      8  C   UNL     1      -1.865  -1.482   3.757  1.00  0.00     0.232 C 
ATOM      9  N   UNL     1      -0.958  -2.604   4.107  1.00  0.00    -0.326 N 
ATOM     10  C   UNL     1      -2.691  -1.950   2.550  1.00  0.00     0.161 C 
ATOM     11  H   UNL     1      -1.230  -2.994   5.009  1.00  0.00     0.347 HD
ATOM     12  H   UNL     1       0.002  -2.265   4.162  1.00  0.00     0.347 HD
ATOM     13  C   UNL     1      -1.847  -3.037   1.904  1.00  0.00     0.169 C 
ATOM     14  C   UNL     1      -2.853  -0.957   1.433  1.00  0.00     0.239 C 
ATOM     15  C   UNL     1       0.296  -4.241   2.617  1.00  0.00     0.091 C 
ATOM     16  C   UNL     1      -1.132  -2.304   0.794  1.00  0.00     0.240 C 
ATOM     17  N   UNL     1      -1.867  -1.182   0.512  1.00  0.00    -0.285 N 
ATOM     18  O   UNL     1      -3.700  -0.074   1.388  1.00  0.00    -0.274 OA
ATOM     19  O   UNL     1      -0.146  -2.687   0.186  1.00  0.00    -0.274 OA
ATOM     20  C   UNL     1      -1.611  -0.300  -0.598  1.00  0.00     0.156 C 
BRANCH   8  21
ATOM     21  C   UNL     1      -1.156  -0.143   3.554  1.00  0.00     0.056 A 
ATOM     22  C   UNL     1       0.546   1.237   2.460  1.00  0.00     0.161 A 
ATOM     23  C   UNL     1      -0.142   2.392   2.814  1.00  0.00     0.050 A 
ATOM     24  C   UNL     1       0.067  -0.008   2.879  1.00  0.00     0.166 A 
ATOM     25  C   UNL     1      -1.315   2.293   3.566  1.00  0.00     0.005 A 
ATOM     26  C   UNL     1      -1.822   1.039   3.925  1.00  0.00     0.014 A 
BRANCH  22  27
ATOM     27  O   UNL     1       1.746   1.349   1.809  1.00  0.00    -0.493 OA
ATOM     28  C   UNL     1       1.674   0.959   0.435  1.00  0.00     0.278 C 
ENDBRANCH  22  27
BRANCH  24  29
ATOM     29  O   UNL     1       0.806  -1.128   2.631  1.00  0.00    -0.504 OA
ATOM     30  H   UNL     1       1.626  -1.059   2.182  1.00  0.00     0.293 HD
ENDBRANCH  24  29
ENDBRANCH   8  21
ENDBRANCH   4   7
ENDBRANCH   2   3
ENDBRANCH   1   2
BRANCH   1  31
ATOM     31  C   UNL     1      -1.665  -6.281   7.638  1.00  0.00     0.118 C 
BRANCH  31  32
ATOM     32  N   UNL     1      -0.914  -7.531   7.644  1.00  0.00    -0.352 N 
ATOM     33  C   UNL     1      -0.591  -8.361   8.689  1.00  0.00     0.251 C 
ATOM     34  H   UNL     1      -0.589  -7.825   6.762  1.00  0.00     0.163 HD
ATOM     35  O   UNL     1       0.194  -9.287   8.505  1.00  0.00    -0.269 OA
BRANCH  33  36
ATOM     36  C   UNL     1      -1.166  -8.129  10.032  1.00  0.00     0.039 A 
ATOM     37  C   UNL     1      -0.343  -8.273  11.151  1.00  0.00     0.014 A 
ATOM     38  C   UNL     1      -2.507  -7.773  10.192  1.00  0.00     0.014 A 
ATOM     39  C   UNL     1      -0.851  -7.997  12.423  1.00  0.00     0.010 A 
ATOM     40  C   UNL     1      -2.980  -7.399  11.446  1.00  0.00     0.010 A 
ATOM     41  C   UNL     1      -2.164  -7.521  12.578  1.00  0.00    -0.014 A 
BRANCH  41  42
ATOM     42  C   UNL     1      -2.691  -7.147  13.916  1.00  0.00     0.031 A 
ATOM     43  C   UNL     1      -3.890  -7.856  14.489  1.00  0.00     0.074 A 
ATOM     44  C   UNL     1      -2.131  -6.122  14.588  1.00  0.00     0.049 A 
ATOM     45  N   UNL     1      -4.497  -7.656  15.630  1.00  0.00    -0.248 NA
ATOM     46  C   UNL     1      -4.507  -8.908  13.663  1.00  0.00     0.031 C 
ATOM     47  C   UNL     1      -1.022  -5.297  14.103  1.00  0.00     0.029 A 
ATOM     48  N   UNL     1      -2.429  -5.585  15.816  1.00  0.00    -0.354 N 
ATOM     49  C   UNL     1      -5.580  -8.528  15.645  1.00  0.00     0.074 A 
ATOM     50  C   UNL     1      -5.574  -9.229  14.380  1.00  0.00     0.031 C 
ATOM     51  C   UNL     1      -0.722  -4.373  15.029  1.00  0.00     0.029 A 
ATOM     52  C   UNL     1      -1.636  -4.514  16.157  1.00  0.00     0.049 A 
ATOM     53  H   UNL     1      -3.143  -5.933  16.397  1.00  0.00     0.167 HD
ATOM     54  C   UNL     1      -6.481  -8.750  16.632  1.00  0.00     0.034 A 
ATOM     55  C   UNL     1      -1.647  -3.729  17.253  1.00  0.00     0.034 A 
ATOM     56  C   UNL     1      -6.463  -8.076  17.902  1.00  0.00     0.049 A 
ATOM     57  C   UNL     1      -2.634  -4.022  18.350  1.00  0.00     0.074 A 
ATOM     58  C   UNL     1      -7.277  -8.290  19.000  1.00  0.00     0.029 A 
ATOM     59  N   UNL     1      -5.598  -7.048  18.241  1.00  0.00    -0.354 N 
ATOM     60  N   UNL     1      -3.548  -4.960  18.410  1.00  0.00    -0.248 NA
ATOM     61  C   UNL     1      -2.565  -3.173  19.547  1.00  0.00     0.031 C 
ATOM     62  C   UNL     1      -6.927  -7.367  19.991  1.00  0.00     0.029 A 
ATOM     63  C   UNL     1      -5.865  -6.607  19.526  1.00  0.00     0.049 A 
ATOM     64  H   UNL     1      -4.896  -6.684  17.655  1.00  0.00     0.167 HD
ATOM     65  C   UNL     1      -4.136  -4.838  19.664  1.00  0.00     0.074 A 
ATOM     66  C   UNL     1      -3.458  -3.751  20.338  1.00  0.00     0.031 C 
ATOM     67  C   UNL     1      -5.154  -5.554  20.203  1.00  0.00     0.034 A 
BRANCH  54  68
ATOM     68  C   UNL     1      -7.537  -9.799  16.393  1.00  0.00     0.023 A 
ATOM     69  C   UNL     1      -7.172 -11.160  16.339  1.00  0.00     0.012 A 
ATOM     70  C   UNL     1      -8.896  -9.446  16.281  1.00  0.00     0.148 A 
ATOM     71  C   UNL     1      -8.134 -12.149  16.136  1.00  0.00     0.002 A 
ATOM     72  C   UNL     1      -9.856 -10.440  16.129  1.00  0.00     0.091 A 
ATOM     73  F   UNL     1      -9.224  -8.147  16.315  1.00  0.00    -0.205 F 
ATOM     74  C   UNL     1      -9.476 -11.790  16.043  1.00  0.00     0.022 A 
BRANCH  72  75
ATOM     75  S   UNL     1     -11.617 -10.091  16.084  1.00  0.00     0.127 S 
ATOM     76  O   UNL     1     -11.945 -10.411  14.695  1.00  0.00    -0.237 OA
ATOM     77  O   UNL     1     -12.142 -11.038  17.068  1.00  0.00    -0.237 OA
ATOM     78  O   UNL     1     -11.760  -8.689  16.452  1.00  0.00    -0.744 OA
ENDBRANCH  72  75
ENDBRANCH  54  68
BRANCH  55  79
ATOM     79  C   UNL     1      -0.651  -2.629  17.393  1.00  0.00     0.023 A 
ATOM     80  C   UNL     1       0.368  -2.733  18.360  1.00  0.00     0.012 A 
ATOM     81  C   UNL     1      -0.697  -1.492  16.564  1.00  0.00     0.148 A 
ATOM     82  C   UNL     1       1.299  -1.708  18.525  1.00  0.00     0.002 A 
ATOM     83  C   UNL     1       0.269  -0.501  16.694  1.00  0.00     0.091 A 
ATOM     84  F   UNL     1      -1.679  -1.409  15.655  1.00  0.00    -0.205 F 
ATOM     85  C   UNL     1       1.256  -0.597  17.687  1.00  0.00     0.022 A 
BRANCH  83  86
ATOM     86  S   UNL     1       0.370   0.899  15.574  1.00  0.00     0.127 S 
ATOM     87  O   UNL     1       0.002   2.009  16.449  1.00  0.00    -0.237 OA
ATOM     88  O   UNL     1       1.778   0.866  15.179  1.00  0.00    -0.237 OA
ATOM     89  O   UNL     1      -0.564   0.609  14.494  1.00  0.00    -0.744 OA
ENDBRANCH  83  86
ENDBRANCH  55  79
BRANCH  67  90
ATOM     90  C   UNL     1      -5.572  -5.217  21.612  1.00  0.00     0.023 A 
ATOM     91  C   UNL     1      -6.238  -4.005  21.882  1.00  0.00     0.012 A 
ATOM     92  C   UNL     1      -5.353  -6.133  22.660  1.00  0.00     0.148 A 
ATOM     93  C   UNL     1      -6.639  -3.690  23.180  1.00  0.00     0.002 A 
ATOM     94  C   UNL     1      -5.805  -5.837  23.940  1.00  0.00     0.091 A 
ATOM     95  F   UNL     1      -4.703  -7.274  22.388  1.00  0.00    -0.205 F 
ATOM     96  C   UNL     1      -6.433  -4.610  24.205  1.00  0.00     0.022 A 
BRANCH  94  97
ATOM     97  S   UNL     1      -5.674  -7.003  25.300  1.00  0.00     0.127 S 
ATOM     98  O   UNL     1      -4.634  -6.386  26.122  1.00  0.00    -0.237 OA
ATOM     99  O   UNL     1      -7.017  -6.955  25.879  1.00  0.00    -0.237 OA
ATOM    100  O   UNL     1      -5.319  -8.282  24.701  1.00  0.00    -0.744 OA
ENDBRANCH  94  97
ENDBRANCH  67  90
ENDBRANCH  41  42
ENDBRANCH  33  36
ENDBRANCH  31  32
ENDBRANCH   1  31
TORSDOF 16
