REMARK SMILES CC[NH+](CC)[C@](C)(C(=O)NCCCNC(=O)c1ccc(-c2c3nc(c(-c4cccc(S(=O)(=O)[O-])c4F)c4ccc([nH]4)c(-c4cccc(S(=O)(=O)[O-])c4F)c4nc(c(-c5cccc(S(=O)(=O)[O-])c5F)c5ccc2[nH]5)C=C4)C=C3)cc1)c1cc(F)c(C)cc1F
REMARK SMILES IDX 12 1 11 2 10 3 8 4 9 5 6 7 7 8 3 9 2 11 1 12 4 13 5 14 80 15
REMARK SMILES IDX 81 16 87 17 82 18 86 19 88 20 83 21 84 22 85 23 13 24 14 25
REMARK SMILES IDX 15 26 16 28 17 29 18 30 79 31 19 32 78 33 20 34 21 35 22 36
REMARK SMILES IDX 72 37 23 38 77 39 71 40 73 41 24 42 76 43 70 44 69 45 25 47
REMARK SMILES IDX 57 48 37 49 56 50 38 51 41 52 55 53 74 54 39 55 40 56 54 58
REMARK SMILES IDX 75 59 42 60 26 61 27 62 35 63 28 64 30 65 36 66 29 67 31 68
REMARK SMILES IDX 32 69 33 70 34 71 58 72 59 73 67 74 60 75 62 76 68 77 61 78
REMARK SMILES IDX 63 79 64 80 65 81 66 82 43 83 44 84 52 85 45 86 47 87 53 88
REMARK SMILES IDX 46 89 48 90 49 91 50 92 51 93
REMARK H PARENT 10 6 3 10 14 27 73 46 41 57
REMARK Flexibility Score: inf
ROOT
ATOM      1  C   UNL     1       0.004  -0.029   1.232  1.00  0.00     0.042 C 
ENDROOT
BRANCH   1   2
ATOM      2  C   UNL     1       1.071   0.703   0.445  1.00  0.00     0.118 C 
BRANCH   2   3
ATOM      3  N   UNL     1       2.014  -0.179  -0.215  1.00  0.00    -0.350 N 
ATOM      4  C   UNL     1       2.762  -0.006  -1.348  1.00  0.00     0.286 C 
ATOM      5  O   UNL     1       3.741  -0.761  -1.434  1.00  0.00    -0.267 OA
ATOM      6  H   UNL     1       2.136  -1.050   0.226  1.00  0.00     0.163 HD
BRANCH   4   7
ATOM      7  C   UNL     1       2.397   1.038  -2.482  1.00  0.00     0.202 C 
ATOM      8  C   UNL     1       0.864   0.939  -2.775  1.00  0.00     0.096 C 
BRANCH   7   9
ATOM      9  N   UNL     1       2.858   2.447  -2.171  1.00  0.00    -0.319 N 
ATOM     10  H   UNL     1       3.821   2.361  -2.498  1.00  0.00     0.349 HD
BRANCH   9  11
ATOM     11  C   UNL     1       3.096   2.888  -0.792  1.00  0.00     0.259 C 
ATOM     12  C   UNL     1       4.275   2.278  -0.036  1.00  0.00     0.071 C 
ENDBRANCH   9  11
BRANCH   9  13
ATOM     13  C   UNL     1       2.100   3.469  -2.933  1.00  0.00     0.259 C 
ATOM     14  C   UNL     1       2.804   4.820  -3.065  1.00  0.00     0.071 C 
ENDBRANCH   9  13
ENDBRANCH   7   9
BRANCH   7  15
ATOM     15  C   UNL     1       3.067   0.505  -3.810  1.00  0.00     0.060 A 
ATOM     16  C   UNL     1       2.707  -0.775  -4.301  1.00  0.00     0.053 A 
ATOM     17  C   UNL     1       3.984   1.229  -4.588  1.00  0.00     0.133 A 
ATOM     18  C   UNL     1       3.174  -1.244  -5.529  1.00  0.00     0.126 A 
ATOM     19  C   UNL     1       4.435   0.762  -5.829  1.00  0.00     0.046 A 
ATOM     20  F   UNL     1       4.458   2.422  -4.206  1.00  0.00    -0.206 F 
ATOM     21  F   UNL     1       2.786  -2.456  -5.951  1.00  0.00    -0.207 F 
ATOM     22  C   UNL     1       4.007  -0.468  -6.330  1.00  0.00    -0.012 A 
ATOM     23  C   UNL     1       4.458  -0.963  -7.667  1.00  0.00     0.047 C 
ENDBRANCH   7  15
ENDBRANCH   4   7
ENDBRANCH   2   3
ENDBRANCH   1   2
BRANCH   1  24
ATOM     24  C   UNL     1       0.564  -0.834   2.396  1.00  0.00     0.118 C 
BRANCH  24  25
ATOM     25  N   UNL     1       1.291  -0.022   3.370  1.00  0.00    -0.352 N 
ATOM     26  C   UNL     1       0.981   0.311   4.672  1.00  0.00     0.251 C 
ATOM     27  H   UNL     1       2.143   0.348   3.043  1.00  0.00     0.163 HD
ATOM     28  O   UNL     1       1.652   1.137   5.269  1.00  0.00    -0.269 OA
BRANCH  26  29
ATOM     29  C   UNL     1      -0.189  -0.318   5.322  1.00  0.00     0.039 A 
ATOM     30  C   UNL     1      -1.067   0.470   6.070  1.00  0.00     0.014 A 
ATOM     31  C   UNL     1      -0.439  -1.677   5.149  1.00  0.00     0.014 A 
ATOM     32  C   UNL     1      -2.254  -0.092   6.549  1.00  0.00     0.010 A 
ATOM     33  C   UNL     1      -1.673  -2.195   5.507  1.00  0.00     0.010 A 
ATOM     34  C   UNL     1      -2.594  -1.414   6.219  1.00  0.00    -0.014 A 
BRANCH  34  35
ATOM     35  C   UNL     1      -3.897  -2.018   6.598  1.00  0.00     0.031 A 
ATOM     36  C   UNL     1      -3.925  -3.291   7.402  1.00  0.00     0.074 A 
ATOM     37  C   UNL     1      -5.044  -1.499   6.114  1.00  0.00     0.049 A 
ATOM     38  N   UNL     1      -4.944  -4.050   7.714  1.00  0.00    -0.248 NA
ATOM     39  C   UNL     1      -2.629  -3.809   7.874  1.00  0.00     0.031 C 
ATOM     40  C   UNL     1      -5.147  -0.323   5.246  1.00  0.00     0.029 A 
ATOM     41  N   UNL     1      -6.345  -1.910   6.265  1.00  0.00    -0.354 N 
ATOM     42  C   UNL     1      -4.406  -5.155   8.362  1.00  0.00     0.074 A 
ATOM     43  C   UNL     1      -2.969  -4.996   8.351  1.00  0.00     0.031 C 
ATOM     44  C   UNL     1      -6.440  -0.091   4.967  1.00  0.00     0.029 A 
ATOM     45  C   UNL     1      -7.256  -1.119   5.603  1.00  0.00     0.049 A 
ATOM     46  H   UNL     1      -6.602  -2.698   6.796  1.00  0.00     0.167 HD
ATOM     47  C   UNL     1      -5.047  -6.189   8.957  1.00  0.00     0.034 A 
ATOM     48  C   UNL     1      -8.598  -1.210   5.525  1.00  0.00     0.034 A 
ATOM     49  C   UNL     1      -6.477  -6.298   9.040  1.00  0.00     0.049 A 
ATOM     50  C   UNL     1      -9.294  -2.325   6.259  1.00  0.00     0.074 A 
ATOM     51  C   UNL     1      -7.232  -7.248   9.704  1.00  0.00     0.029 A 
ATOM     52  N   UNL     1      -7.369  -5.416   8.451  1.00  0.00    -0.354 N 
ATOM     53  N   UNL     1      -8.776  -3.281   6.991  1.00  0.00    -0.248 NA
ATOM     54  C   UNL     1     -10.762  -2.353   6.185  1.00  0.00     0.031 C 
ATOM     55  C   UNL     1      -8.583  -6.939   9.515  1.00  0.00     0.029 A 
ATOM     56  C   UNL     1      -8.668  -5.792   8.740  1.00  0.00     0.049 A 
ATOM     57  H   UNL     1      -7.115  -4.636   7.907  1.00  0.00     0.167 HD
ATOM     58  C   UNL     1      -9.852  -4.000   7.497  1.00  0.00     0.074 A 
ATOM     59  C   UNL     1     -11.052  -3.358   7.000  1.00  0.00     0.031 C 
ATOM     60  C   UNL     1      -9.849  -5.101   8.289  1.00  0.00     0.034 A 
BRANCH  47  61
ATOM     61  C   UNL     1      -4.196  -7.234   9.630  1.00  0.00     0.023 A 
ATOM     62  C   UNL     1      -3.495  -6.901  10.809  1.00  0.00     0.012 A 
ATOM     63  C   UNL     1      -4.093  -8.541   9.116  1.00  0.00     0.148 A 
ATOM     64  C   UNL     1      -2.666  -7.831  11.434  1.00  0.00     0.002 A 
ATOM     65  C   UNL     1      -3.302  -9.478   9.772  1.00  0.00     0.091 A 
ATOM     66  F   UNL     1      -4.743  -8.838   7.981  1.00  0.00    -0.205 F 
ATOM     67  C   UNL     1      -2.577  -9.121  10.921  1.00  0.00     0.022 A 
BRANCH  65  68
ATOM     68  S   UNL     1      -3.190 -11.187   9.229  1.00  0.00     0.127 S 
ATOM     69  O   UNL     1      -1.901 -11.194   8.539  1.00  0.00    -0.237 OA
ATOM     70  O   UNL     1      -3.205 -11.919  10.497  1.00  0.00    -0.237 OA
ATOM     71  O   UNL     1      -4.359 -11.411   8.391  1.00  0.00    -0.744 OA
ENDBRANCH  65  68
ENDBRANCH  47  61
BRANCH  48  72
ATOM     72  C   UNL     1      -9.375  -0.152   4.821  1.00  0.00     0.023 A 
ATOM     73  C   UNL     1     -10.127   0.760   5.588  1.00  0.00     0.012 A 
ATOM     74  C   UNL     1      -9.345  -0.009   3.421  1.00  0.00     0.148 A 
ATOM     75  C   UNL     1     -10.857   1.778   4.974  1.00  0.00     0.002 A 
ATOM     76  C   UNL     1     -10.036   1.038   2.818  1.00  0.00     0.091 A 
ATOM     77  F   UNL     1      -8.630  -0.890   2.707  1.00  0.00    -0.205 F 
ATOM     78  C   UNL     1     -10.804   1.923   3.591  1.00  0.00     0.022 A 
BRANCH  76  79
ATOM     79  S   UNL     1      -9.925   1.381   1.058  1.00  0.00     0.127 S 
ATOM     80  O   UNL     1     -11.259   1.006   0.595  1.00  0.00    -0.237 OA
ATOM     81  O   UNL     1      -9.650   2.818   1.046  1.00  0.00    -0.237 OA
ATOM     82  O   UNL     1      -8.829   0.558   0.565  1.00  0.00    -0.744 OA
ENDBRANCH  76  79
ENDBRANCH  48  72
BRANCH  60  83
ATOM     83  C   UNL     1     -11.181  -5.665   8.704  1.00  0.00     0.023 A 
ATOM     84  C   UNL     1     -11.955  -6.383   7.772  1.00  0.00     0.012 A 
ATOM     85  C   UNL     1     -11.624  -5.555  10.036  1.00  0.00     0.148 A 
ATOM     86  C   UNL     1     -13.164  -6.962   8.154  1.00  0.00     0.002 A 
ATOM     87  C   UNL     1     -12.807  -6.173  10.421  1.00  0.00     0.091 A 
ATOM     88  F   UNL     1     -10.882  -4.848  10.902  1.00  0.00    -0.205 F 
ATOM     89  C   UNL     1     -13.584  -6.868   9.479  1.00  0.00     0.022 A 
BRANCH  87  90
ATOM     90  S   UNL     1     -13.372  -6.182  12.126  1.00  0.00     0.127 S 
ATOM     91  O   UNL     1     -14.449  -5.195  12.089  1.00  0.00    -0.237 OA
ATOM     92  O   UNL     1     -13.818  -7.566  12.300  1.00  0.00    -0.237 OA
ATOM     93  O   UNL     1     -12.213  -5.819  12.931  1.00  0.00    -0.744 OA
ENDBRANCH  87  90
ENDBRANCH  60  83
ENDBRANCH  34  35
ENDBRANCH  26  29
ENDBRANCH  24  25
ENDBRANCH   1  24
TORSDOF 17
