REMARK SMILES Cc1cc(-n2nc(C)c(C(=O)NCCCNC(=O)c3ccc(-c4c5nc(c(-c6cccc(S(=O)(=O)[O-])c6F)c6ccc([nH]6)c(-c6cccc(S(=O)(=O)[O-])c6F)c6nc(c(-c7cccc(S(=O)(=O)[O-])c7F)c7ccc4[nH]7)C=C6)C=C5)cc3)c2Cl)nc(C)n1
REMARK SMILES IDX 15 1 14 2 13 3 12 4 10 5 11 6 9 8 5 9 6 10 82 11 7 12 83 13
REMARK SMILES IDX 8 14 4 15 1 16 2 17 3 18 87 19 85 20 84 21 86 22 16 23 17 24
REMARK SMILES IDX 18 26 19 27 20 28 81 29 21 30 80 31 22 32 23 33 24 34 74 35
REMARK SMILES IDX 25 36 79 37 73 38 75 39 26 40 78 41 72 42 71 43 27 45 59 46
REMARK SMILES IDX 39 47 58 48 40 49 43 50 57 51 76 52 41 53 42 54 56 56 77 57
REMARK SMILES IDX 44 58 28 59 29 60 37 61 30 62 32 63 38 64 31 65 33 66 34 67
REMARK SMILES IDX 35 68 36 69 60 70 61 71 69 72 62 73 64 74 70 75 63 76 65 77
REMARK SMILES IDX 66 78 67 79 68 80 45 81 46 82 54 83 47 84 49 85 55 86 48 87
REMARK SMILES IDX 50 88 51 89 52 90 53 91
REMARK H PARENT 12 7 16 25 75 44 43 55
REMARK Flexibility Score: inf
ROOT
ATOM      1  C   UNL     1      -3.357  -7.094  -3.246  1.00  0.00     0.118 C 
ENDROOT
BRANCH   1   2
ATOM      2  C   UNL     1      -2.277  -6.523  -2.367  1.00  0.00     0.042 C 
BRANCH   2   3
ATOM      3  C   UNL     1      -1.564  -7.560  -1.487  1.00  0.00     0.118 C 
BRANCH   3   4
ATOM      4  N   UNL     1      -0.327  -8.016  -2.087  1.00  0.00    -0.352 N 
ATOM      5  C   UNL     1       0.978  -7.610  -1.992  1.00  0.00     0.256 C 
ATOM      6  O   UNL     1       1.778  -8.307  -2.618  1.00  0.00    -0.269 OA
ATOM      7  H   UNL     1      -0.451  -8.783  -2.692  1.00  0.00     0.163 HD
BRANCH   5   8
ATOM      8  C   UNL     1       1.450  -6.486  -1.185  1.00  0.00     0.100 A 
ATOM      9  N   UNL     1       1.738  -4.683   0.107  1.00  0.00    -0.203 N 
ATOM     10  N   UNL     1       3.001  -5.076  -0.151  1.00  0.00    -0.170 NA
ATOM     11  C   UNL     1       0.831  -5.373  -0.662  1.00  0.00     0.147 A 
ATOM     12  C   UNL     1       2.836  -6.211  -0.859  1.00  0.00     0.074 A 
ATOM     13  Cl  UNL     1      -0.652  -4.567  -0.928  1.00  0.00    -0.061 Cl
ATOM     14  C   UNL     1       4.066  -6.960  -1.250  1.00  0.00     0.070 C 
BRANCH   9  15
ATOM     15  C   UNL     1       1.413  -3.540   0.890  1.00  0.00     0.159 A 
ATOM     16  C   UNL     1       1.105   0.076   0.080  1.00  0.00     0.067 C 
ATOM     17  C   UNL     1       0.988  -1.250   0.770  1.00  0.00     0.043 A 
ATOM     18  C   UNL     1       1.771  -2.314   0.365  1.00  0.00     0.072 A 
ATOM     19  N   UNL     1      -0.024  -1.380   1.660  1.00  0.00    -0.238 NA
ATOM     20  C   UNL     1      -0.264  -2.607   2.150  1.00  0.00     0.128 A 
ATOM     21  N   UNL     1       0.417  -3.704   1.797  1.00  0.00    -0.214 NA
ATOM     22  C   UNL     1      -1.475  -2.810   3.006  1.00  0.00     0.090 C 
ENDBRANCH   9  15
ENDBRANCH   5   8
ENDBRANCH   3   4
ENDBRANCH   2   3
ENDBRANCH   1   2
BRANCH   1  23
ATOM     23  N   UNL     1      -4.474  -7.561  -2.428  1.00  0.00    -0.352 N 
ATOM     24  C   UNL     1      -5.586  -8.278  -2.802  1.00  0.00     0.251 C 
ATOM     25  H   UNL     1      -4.423  -7.329  -1.472  1.00  0.00     0.163 HD
ATOM     26  O   UNL     1      -6.578  -8.287  -2.094  1.00  0.00    -0.269 OA
BRANCH  24  27
ATOM     27  C   UNL     1      -5.548  -9.017  -4.073  1.00  0.00     0.039 A 
ATOM     28  C   UNL     1      -6.690  -9.102  -4.870  1.00  0.00     0.014 A 
ATOM     29  C   UNL     1      -4.348  -9.608  -4.466  1.00  0.00     0.014 A 
ATOM     30  C   UNL     1      -6.589  -9.740  -6.097  1.00  0.00     0.010 A 
ATOM     31  C   UNL     1      -4.201 -10.068  -5.745  1.00  0.00     0.010 A 
ATOM     32  C   UNL     1      -5.335 -10.200  -6.528  1.00  0.00    -0.014 A 
BRANCH  32  33
ATOM     33  C   UNL     1      -5.166 -10.750  -7.855  1.00  0.00     0.031 A 
ATOM     34  C   UNL     1      -5.521  -9.806  -8.936  1.00  0.00     0.074 A 
ATOM     35  C   UNL     1      -4.598 -11.948  -8.087  1.00  0.00     0.049 A 
ATOM     36  N   UNL     1      -6.648  -9.751  -9.563  1.00  0.00    -0.248 NA
ATOM     37  C   UNL     1      -4.622  -8.678  -9.215  1.00  0.00     0.031 C 
ATOM     38  C   UNL     1      -3.916 -12.842  -7.144  1.00  0.00     0.029 A 
ATOM     39  N   UNL     1      -4.432 -12.581  -9.275  1.00  0.00    -0.354 N 
ATOM     40  C   UNL     1      -6.483  -8.758 -10.518  1.00  0.00     0.074 A 
ATOM     41  C   UNL     1      -5.343  -7.984 -10.101  1.00  0.00     0.031 C 
ATOM     42  C   UNL     1      -3.235 -13.788  -7.831  1.00  0.00     0.029 A 
ATOM     43  C   UNL     1      -3.575 -13.675  -9.235  1.00  0.00     0.049 A 
ATOM     44  H   UNL     1      -4.883 -12.289 -10.100  1.00  0.00     0.167 HD
ATOM     45  C   UNL     1      -7.113  -8.844 -11.721  1.00  0.00     0.034 A 
ATOM     46  C   UNL     1      -3.178 -14.405 -10.305  1.00  0.00     0.034 A 
ATOM     47  C   UNL     1      -8.117  -9.880 -11.715  1.00  0.00     0.049 A 
ATOM     48  C   UNL     1      -4.229 -14.214 -11.335  1.00  0.00     0.074 A 
ATOM     49  C   UNL     1      -9.259 -10.135 -10.983  1.00  0.00     0.029 A 
ATOM     50  N   UNL     1      -7.746 -11.076 -12.283  1.00  0.00    -0.354 N 
ATOM     51  N   UNL     1      -5.457 -14.630 -11.199  1.00  0.00    -0.248 NA
ATOM     52  C   UNL     1      -4.018 -13.202 -12.356  1.00  0.00     0.031 C 
ATOM     53  C   UNL     1      -9.268 -11.549 -10.792  1.00  0.00     0.029 A 
ATOM     54  C   UNL     1      -8.171 -12.090 -11.468  1.00  0.00     0.049 A 
ATOM     55  H   UNL     1      -7.259 -11.184 -13.132  1.00  0.00     0.167 HD
ATOM     56  C   UNL     1      -6.224 -13.629 -11.779  1.00  0.00     0.074 A 
ATOM     57  C   UNL     1      -5.286 -12.852 -12.584  1.00  0.00     0.031 C 
ATOM     58  C   UNL     1      -7.481 -13.355 -11.322  1.00  0.00     0.034 A 
BRANCH  45  59
ATOM     59  C   UNL     1      -6.570  -8.293 -13.015  1.00  0.00     0.023 A 
ATOM     60  C   UNL     1      -7.444  -8.262 -14.124  1.00  0.00     0.012 A 
ATOM     61  C   UNL     1      -5.201  -8.057 -13.270  1.00  0.00     0.148 A 
ATOM     62  C   UNL     1      -6.975  -8.028 -15.420  1.00  0.00     0.002 A 
ATOM     63  C   UNL     1      -4.751  -7.742 -14.546  1.00  0.00     0.091 A 
ATOM     64  F   UNL     1      -4.295  -8.274 -12.313  1.00  0.00    -0.205 F 
ATOM     65  C   UNL     1      -5.629  -7.753 -15.630  1.00  0.00     0.022 A 
BRANCH  63  66
ATOM     66  S   UNL     1      -3.028  -7.340 -14.861  1.00  0.00     0.127 S 
ATOM     67  O   UNL     1      -2.568  -8.543 -15.547  1.00  0.00    -0.237 OA
ATOM     68  O   UNL     1      -3.149  -6.150 -15.703  1.00  0.00    -0.237 OA
ATOM     69  O   UNL     1      -2.443  -7.085 -13.550  1.00  0.00    -0.744 OA
ENDBRANCH  63  66
ENDBRANCH  45  59
BRANCH  46  70
ATOM     70  C   UNL     1      -1.883 -15.053 -10.625  1.00  0.00     0.023 A 
ATOM     71  C   UNL     1      -1.814 -15.891 -11.760  1.00  0.00     0.012 A 
ATOM     72  C   UNL     1      -0.670 -14.615 -10.052  1.00  0.00     0.148 A 
ATOM     73  C   UNL     1      -0.589 -16.204 -12.359  1.00  0.00     0.002 A 
ATOM     74  C   UNL     1       0.548 -14.939 -10.647  1.00  0.00     0.091 A 
ATOM     75  F   UNL     1      -0.710 -13.801  -8.989  1.00  0.00    -0.205 F 
ATOM     76  C   UNL     1       0.591 -15.713 -11.814  1.00  0.00     0.022 A 
BRANCH  74  77
ATOM     77  S   UNL     1       2.116 -14.334 -10.006  1.00  0.00     0.127 S 
ATOM     78  O   UNL     1       2.967 -15.520 -10.104  1.00  0.00    -0.237 OA
ATOM     79  O   UNL     1       2.439 -13.269 -10.951  1.00  0.00    -0.237 OA
ATOM     80  O   UNL     1       1.841 -13.909  -8.639  1.00  0.00    -0.744 OA
ENDBRANCH  74  77
ENDBRANCH  46  70
BRANCH  58  81
ATOM     81  C   UNL     1      -8.126 -14.349 -10.388  1.00  0.00     0.023 A 
ATOM     82  C   UNL     1      -7.693 -14.529  -9.057  1.00  0.00     0.012 A 
ATOM     83  C   UNL     1      -9.322 -14.954 -10.805  1.00  0.00     0.148 A 
ATOM     84  C   UNL     1      -8.448 -15.292  -8.159  1.00  0.00     0.002 A 
ATOM     85  C   UNL     1     -10.089 -15.676  -9.900  1.00  0.00     0.091 A 
ATOM     86  F   UNL     1      -9.715 -14.762 -12.073  1.00  0.00    -0.205 F 
ATOM     87  C   UNL     1      -9.654 -15.851  -8.577  1.00  0.00     0.022 A 
BRANCH  85  88
ATOM     88  S   UNL     1     -11.705 -16.323 -10.336  1.00  0.00     0.127 S 
ATOM     89  O   UNL     1     -11.490 -17.766 -10.247  1.00  0.00    -0.237 OA
ATOM     90  O   UNL     1     -12.555 -15.765  -9.284  1.00  0.00    -0.237 OA
ATOM     91  O   UNL     1     -11.998 -15.823 -11.673  1.00  0.00    -0.744 OA
ENDBRANCH  85  88
ENDBRANCH  58  81
ENDBRANCH  32  33
ENDBRANCH  24  27
ENDBRANCH   1  23
TORSDOF 14
