REMARK SMILES CC(C)CCc1cc2c(cc1Cl)C=C(C(=O)NCCCNC(=O)c1ccc(-c3c4nc(c(-c5cccc(S(=O)(=O)[O-])c5F)c5ccc([nH]5)c(-c5cccc(S(=O)(=O)[O-])c5F)c5nc(c(-c6cccc(S(=O)(=O)[O-])c6F)c6ccc3[nH]6)C=C5)C=C4)cc1)[C@@H](C(F)(F)F)O2
REMARK SMILES IDX 19 1 18 2 17 3 15 4 16 5 14 7 6 8 7 9 11 10 8 11 10 12 12 13
REMARK SMILES IDX 9 14 92 15 13 16 87 17 5 18 4 19 2 20 1 21 3 22 88 23 89 24
REMARK SMILES IDX 90 25 91 26 20 27 21 28 22 29 23 31 24 32 25 33 86 34 26 35
REMARK SMILES IDX 85 36 27 37 28 38 29 39 79 40 30 41 84 42 78 43 80 44 31 45
REMARK SMILES IDX 83 46 77 47 76 48 32 50 64 51 44 52 63 53 45 54 48 55 62 56
REMARK SMILES IDX 81 57 46 58 47 59 61 61 82 62 49 63 33 64 34 65 42 66 35 67
REMARK SMILES IDX 37 68 43 69 36 70 38 71 39 72 40 73 41 74 65 75 66 76 74 77
REMARK SMILES IDX 67 78 69 79 75 80 68 81 70 82 71 83 72 84 73 85 50 86 51 87
REMARK SMILES IDX 59 88 52 89 54 90 60 91 53 92 55 93 56 94 57 95 58 96
REMARK H PARENT 17 6 21 30 80 49 48 60
REMARK Flexibility Score: inf
ROOT
ATOM      1  C   UNL     1       1.498  -4.267   9.501  1.00  0.00     0.042 C 
ENDROOT
BRANCH   1   2
ATOM      2  C   UNL     1       2.246  -4.844   8.309  1.00  0.00     0.118 C 
BRANCH   2   3
ATOM      3  N   UNL     1       1.506  -5.916   7.660  1.00  0.00    -0.352 N 
ATOM      4  C   UNL     1       0.751  -6.067   6.546  1.00  0.00     0.251 C 
ATOM      5  O   UNL     1       0.317  -7.207   6.351  1.00  0.00    -0.270 OA
ATOM      6  H   UNL     1       1.571  -6.757   8.168  1.00  0.00     0.163 HD
BRANCH   4   7
ATOM      7  C   UNL     1       0.426  -4.980   5.581  1.00  0.00     0.067 C 
ATOM      8  C   UNL     1      -1.359  -2.197   1.767  1.00  0.00    -0.026 A 
ATOM      9  C   UNL     1      -0.856  -1.923   3.046  1.00  0.00     0.052 A 
ATOM     10  C   UNL     1      -1.594  -3.547   1.437  1.00  0.00     0.045 A 
ATOM     11  C   UNL     1      -0.498  -2.953   3.910  1.00  0.00     0.128 A 
ATOM     12  C   UNL     1      -1.280  -4.582   2.333  1.00  0.00     0.032 A 
ATOM     13  Cl  UNL     1      -2.290  -4.003  -0.080  1.00  0.00    -0.084 Cl
ATOM     14  C   UNL     1      -0.710  -4.285   3.571  1.00  0.00     0.019 A 
ATOM     15  O   UNL     1       0.057  -2.578   5.101  1.00  0.00    -0.475 OA
ATOM     16  C   UNL     1      -0.362  -5.319   4.541  1.00  0.00     0.025 C 
ATOM     17  C   UNL     1       0.932  -3.570   5.700  1.00  0.00     0.314 C 
BRANCH   8  18
ATOM     18  C   UNL     1      -1.672  -1.076   0.794  1.00  0.00     0.037 C 
BRANCH  18  19
ATOM     19  C   UNL     1      -1.063   0.312   1.077  1.00  0.00     0.008 C 
BRANCH  19  20
ATOM     20  C   UNL     1       0.481   0.381   1.054  1.00  0.00    -0.017 C 
ATOM     21  C   UNL     1       1.052   0.120  -0.339  1.00  0.00     0.007 C 
ATOM     22  C   UNL     1       0.946   1.746   1.566  1.00  0.00     0.007 C 
ENDBRANCH  19  20
ENDBRANCH  18  19
ENDBRANCH   8  18
BRANCH  17  23
ATOM     23  C   UNL     1       2.366  -3.416   5.149  1.00  0.00     0.429 C 
ATOM     24  F   UNL     1       2.921  -2.256   5.579  1.00  0.00    -0.167 F 
ATOM     25  F   UNL     1       3.188  -4.412   5.560  1.00  0.00    -0.167 F 
ATOM     26  F   UNL     1       2.415  -3.410   3.797  1.00  0.00    -0.167 F 
ENDBRANCH  17  23
ENDBRANCH   4   7
ENDBRANCH   2   3
ENDBRANCH   1   2
BRANCH   1  27
ATOM     27  C   UNL     1       1.621  -5.143  10.741  1.00  0.00     0.118 C 
BRANCH  27  28
ATOM     28  N   UNL     1       2.995  -5.202  11.237  1.00  0.00    -0.352 N 
ATOM     29  C   UNL     1       3.546  -4.713  12.397  1.00  0.00     0.251 C 
ATOM     30  H   UNL     1       3.627  -5.669  10.645  1.00  0.00     0.163 HD
ATOM     31  O   UNL     1       4.769  -4.661  12.508  1.00  0.00    -0.269 OA
BRANCH  29  32
ATOM     32  C   UNL     1       2.674  -4.238  13.490  1.00  0.00     0.039 A 
ATOM     33  C   UNL     1       1.503  -4.928  13.799  1.00  0.00     0.014 A 
ATOM     34  C   UNL     1       3.025  -3.096  14.215  1.00  0.00     0.014 A 
ATOM     35  C   UNL     1       0.588  -4.369  14.677  1.00  0.00     0.010 A 
ATOM     36  C   UNL     1       2.153  -2.598  15.189  1.00  0.00     0.010 A 
ATOM     37  C   UNL     1       0.902  -3.200  15.390  1.00  0.00    -0.014 A 
BRANCH  37  38
ATOM     38  C   UNL     1      -0.097  -2.660  16.348  1.00  0.00     0.031 A 
ATOM     39  C   UNL     1      -0.699  -1.294  16.158  1.00  0.00     0.074 A 
ATOM     40  C   UNL     1      -0.516  -3.450  17.358  1.00  0.00     0.049 A 
ATOM     41  N   UNL     1      -1.635  -0.710  16.861  1.00  0.00    -0.248 NA
ATOM     42  C   UNL     1      -0.189  -0.470  15.049  1.00  0.00     0.031 C 
ATOM     43  C   UNL     1       0.013  -4.784  17.655  1.00  0.00     0.029 A 
ATOM     44  N   UNL     1      -1.499  -3.268  18.296  1.00  0.00    -0.354 N 
ATOM     45  C   UNL     1      -1.790   0.558  16.316  1.00  0.00     0.074 A 
ATOM     46  C   UNL     1      -0.855   0.665  15.219  1.00  0.00     0.031 C 
ATOM     47  C   UNL     1      -0.699  -5.329  18.650  1.00  0.00     0.029 A 
ATOM     48  C   UNL     1      -1.689  -4.362  19.108  1.00  0.00     0.049 A 
ATOM     49  H   UNL     1      -2.018  -2.436  18.380  1.00  0.00     0.167 HD
ATOM     50  C   UNL     1      -2.649   1.536  16.686  1.00  0.00     0.034 A 
ATOM     51  C   UNL     1      -2.561  -4.569  20.113  1.00  0.00     0.034 A 
ATOM     52  C   UNL     1      -3.625   1.402  17.731  1.00  0.00     0.049 A 
ATOM     53  C   UNL     1      -3.523  -3.479  20.479  1.00  0.00     0.074 A 
ATOM     54  C   UNL     1      -4.577   2.321  18.136  1.00  0.00     0.029 A 
ATOM     55  N   UNL     1      -3.782   0.281  18.530  1.00  0.00    -0.354 N 
ATOM     56  N   UNL     1      -3.701  -2.317  19.900  1.00  0.00    -0.248 NA
ATOM     57  C   UNL     1      -4.406  -3.725  21.627  1.00  0.00     0.031 C 
ATOM     58  C   UNL     1      -5.307   1.758  19.186  1.00  0.00     0.029 A 
ATOM     59  C   UNL     1      -4.813   0.486  19.429  1.00  0.00     0.049 A 
ATOM     60  H   UNL     1      -3.240  -0.538  18.468  1.00  0.00     0.167 HD
ATOM     61  C   UNL     1      -4.719  -1.694  20.608  1.00  0.00     0.074 A 
ATOM     62  C   UNL     1      -5.136  -2.616  21.645  1.00  0.00     0.031 C 
ATOM     63  C   UNL     1      -5.244  -0.460  20.425  1.00  0.00     0.034 A 
BRANCH  50  64
ATOM     64  C   UNL     1      -2.619   2.835  15.928  1.00  0.00     0.023 A 
ATOM     65  C   UNL     1      -3.273   2.923  14.684  1.00  0.00     0.012 A 
ATOM     66  C   UNL     1      -2.048   3.989  16.498  1.00  0.00     0.148 A 
ATOM     67  C   UNL     1      -3.355   4.142  14.013  1.00  0.00     0.002 A 
ATOM     68  C   UNL     1      -2.158   5.207  15.836  1.00  0.00     0.091 A 
ATOM     69  F   UNL     1      -1.421   3.875  17.677  1.00  0.00    -0.205 F 
ATOM     70  C   UNL     1      -2.808   5.284  14.593  1.00  0.00     0.022 A 
BRANCH  68  71
ATOM     71  S   UNL     1      -1.539   6.748  16.521  1.00  0.00     0.127 S 
ATOM     72  O   UNL     1      -0.481   7.088  15.570  1.00  0.00    -0.237 OA
ATOM     73  O   UNL     1      -2.719   7.609  16.454  1.00  0.00    -0.237 OA
ATOM     74  O   UNL     1      -1.082   6.437  17.869  1.00  0.00    -0.744 OA
ENDBRANCH  68  71
ENDBRANCH  50  64
BRANCH  51  75
ATOM     75  C   UNL     1      -2.579  -5.890  20.797  1.00  0.00     0.023 A 
ATOM     76  C   UNL     1      -3.626  -6.791  20.526  1.00  0.00     0.012 A 
ATOM     77  C   UNL     1      -1.516  -6.293  21.628  1.00  0.00     0.148 A 
ATOM     78  C   UNL     1      -3.613  -8.074  21.073  1.00  0.00     0.002 A 
ATOM     79  C   UNL     1      -1.486  -7.588  22.130  1.00  0.00     0.091 A 
ATOM     80  F   UNL     1      -0.536  -5.412  21.872  1.00  0.00    -0.205 F 
ATOM     81  C   UNL     1      -2.538  -8.477  21.862  1.00  0.00     0.022 A 
BRANCH  79  82
ATOM     82  S   UNL     1      -0.085  -8.235  23.049  1.00  0.00     0.127 S 
ATOM     83  O   UNL     1      -0.671  -8.456  24.368  1.00  0.00    -0.237 OA
ATOM     84  O   UNL     1       0.226  -9.453  22.299  1.00  0.00    -0.237 OA
ATOM     85  O   UNL     1       0.943  -7.205  22.982  1.00  0.00    -0.744 OA
ENDBRANCH  79  82
ENDBRANCH  51  75
BRANCH  63  86
ATOM     86  C   UNL     1      -6.335  -0.013  21.355  1.00  0.00     0.023 A 
ATOM     87  C   UNL     1      -5.990   0.482  22.627  1.00  0.00     0.012 A 
ATOM     88  C   UNL     1      -7.672   0.046  20.919  1.00  0.00     0.148 A 
ATOM     89  C   UNL     1      -6.966   1.032  23.456  1.00  0.00     0.002 A 
ATOM     90  C   UNL     1      -8.633   0.624  21.737  1.00  0.00     0.091 A 
ATOM     91  F   UNL     1      -7.968  -0.441  19.705  1.00  0.00    -0.205 F 
ATOM     92  C   UNL     1      -8.283   1.114  23.007  1.00  0.00     0.022 A 
BRANCH  90  93
ATOM     93  S   UNL     1     -10.338   0.847  21.220  1.00  0.00     0.127 S 
ATOM     94  O   UNL     1     -11.049  -0.025  22.154  1.00  0.00    -0.237 OA
ATOM     95  O   UNL     1     -10.543   2.278  21.443  1.00  0.00    -0.237 OA
ATOM     96  O   UNL     1     -10.396   0.433  19.825  1.00  0.00    -0.744 OA
ENDBRANCH  90  93
ENDBRANCH  63  86
ENDBRANCH  37  38
ENDBRANCH  29  32
ENDBRANCH  27  28
ENDBRANCH   1  27
TORSDOF 17
