REMARK SMILES COc1cc(/C=N/[NH+]=C2\S[C@H](CC(=O)NCCCNC(=O)c3ccc(-c4c5nc(c(-c6cccc(S(=O)(=O)[O-])c6F)c6ccc([nH]6)c(-c6cccc(S(=O)(=O)[O-])c6F)c6nc(c(-c7cccc(S(=O)(=O)[O-])c7F)c7ccc4[nH]7)C=C6)C=C5)cc3)C(=O)N2C)cc(OC)c1OC
REMARK SMILES IDX 16 1 15 2 13 3 14 4 12 6 11 7 8 8 9 9 10 11 87 12 85 13
REMARK SMILES IDX 88 14 86 15 7 16 6 17 5 18 3 19 4 20 93 21 90 22 89 23 2 24
REMARK SMILES IDX 1 25 94 26 95 27 91 28 92 29 17 30 18 31 19 32 20 33 21 35
REMARK SMILES IDX 22 36 23 37 84 38 24 39 83 40 25 41 26 42 27 43 77 44 28 45
REMARK SMILES IDX 82 46 76 47 78 48 29 49 81 50 75 51 74 52 30 54 62 55 42 56
REMARK SMILES IDX 61 57 43 58 46 59 60 60 79 61 44 62 45 63 59 65 80 66 47 67
REMARK SMILES IDX 31 68 32 69 40 70 33 71 35 72 41 73 34 74 36 75 37 76 38 77
REMARK SMILES IDX 39 78 63 79 64 80 72 81 65 82 67 83 73 84 66 85 68 86 69 87
REMARK SMILES IDX 70 88 71 89 48 90 49 91 57 92 50 93 52 94 58 95 51 96 53 97
REMARK SMILES IDX 54 98 55 99 56 100
REMARK H PARENT 15 5 8 10 19 34 78 53 46 64
REMARK Flexibility Score: inf
ROOT
ATOM      1  C   UNL     1      -6.468   0.460   5.914  1.00  0.00     0.117 C 
ENDROOT
BRANCH   1   2
ATOM      2  N   UNL     1      -6.186  -0.072   7.237  1.00  0.00    -0.356 N 
ATOM      3  C   UNL     1      -5.303  -1.032   7.625  1.00  0.00     0.221 C 
ATOM      4  O   UNL     1      -5.200  -1.297   8.822  1.00  0.00    -0.275 OA
ATOM      5  H   UNL     1      -6.717   0.323   7.966  1.00  0.00     0.163 HD
BRANCH   3   6
ATOM      6  C   UNL     1      -4.412  -1.689   6.603  1.00  0.00     0.127 C 
BRANCH   6   7
ATOM      7  C   UNL     1      -5.185  -2.594   5.657  1.00  0.00     0.183 C 
ATOM      8  N   UNL     1      -2.515  -4.963   4.318  1.00  0.00    -0.142 N 
ATOM      9  C   UNL     1      -3.596  -4.375   4.726  1.00  0.00     0.339 C 
ATOM     10  H   UNL     1      -2.247  -5.869   4.593  1.00  0.00     0.343 HD
ATOM     11  S   UNL     1      -4.183  -2.819   4.169  1.00  0.00    -0.020 SA
ATOM     12  N   UNL     1      -4.425  -4.867   5.694  1.00  0.00    -0.191 N 
ATOM     13  C   UNL     1      -5.348  -3.988   6.220  1.00  0.00     0.324 C 
ATOM     14  C   UNL     1      -4.362  -6.218   6.207  1.00  0.00     0.301 C 
ATOM     15  O   UNL     1      -6.168  -4.262   7.088  1.00  0.00    -0.245 OA
BRANCH   8  16
ATOM     16  N   UNL     1      -1.774  -4.164   3.444  1.00  0.00    -0.093 NA
ATOM     17  C   UNL     1      -0.537  -4.527   3.369  1.00  0.00     0.166 C 
BRANCH  17  18
ATOM     18  C   UNL     1       0.450  -3.711   2.636  1.00  0.00     0.004 A 
ATOM     19  C   UNL     1       1.142  -1.631   1.608  1.00  0.00     0.165 A 
ATOM     20  C   UNL     1       0.143  -2.425   2.191  1.00  0.00     0.060 A 
ATOM     21  C   UNL     1       2.463  -2.108   1.471  1.00  0.00     0.203 A 
ATOM     22  C   UNL     1       2.748  -3.421   1.907  1.00  0.00     0.165 A 
ATOM     23  C   UNL     1       1.739  -4.209   2.482  1.00  0.00     0.060 A 
BRANCH  19  24
ATOM     24  O   UNL     1       0.829  -0.327   1.315  1.00  0.00    -0.493 OA
ATOM     25  C   UNL     1      -0.046  -0.223   0.190  1.00  0.00     0.278 C 
ENDBRANCH  19  24
BRANCH  21  26
ATOM     26  O   UNL     1       3.518  -1.372   1.002  1.00  0.00    -0.490 OA
ATOM     27  C   UNL     1       3.279  -0.254   0.163  1.00  0.00     0.278 C 
ENDBRANCH  21  26
BRANCH  22  28
ATOM     28  O   UNL     1       3.942  -4.100   1.871  1.00  0.00    -0.493 OA
ATOM     29  C   UNL     1       5.095  -3.451   1.360  1.00  0.00     0.278 C 
ENDBRANCH  22  28
ENDBRANCH  17  18
ENDBRANCH   8  16
ENDBRANCH   6   7
ENDBRANCH   3   6
ENDBRANCH   1   2
BRANCH   1  30
ATOM     30  C   UNL     1      -7.823  -0.000   5.384  1.00  0.00     0.042 C 
BRANCH  30  31
ATOM     31  C   UNL     1      -9.008   0.456   6.224  1.00  0.00     0.118 C 
BRANCH  31  32
ATOM     32  N   UNL     1      -9.191   1.898   6.186  1.00  0.00    -0.352 N 
ATOM     33  C   UNL     1     -10.271   2.628   5.759  1.00  0.00     0.251 C 
ATOM     34  H   UNL     1      -8.429   2.427   6.515  1.00  0.00     0.163 HD
ATOM     35  O   UNL     1     -10.156   3.847   5.617  1.00  0.00    -0.269 OA
BRANCH  33  36
ATOM     36  C   UNL     1     -11.557   1.965   5.453  1.00  0.00     0.039 A 
ATOM     37  C   UNL     1     -12.279   2.378   4.329  1.00  0.00     0.014 A 
ATOM     38  C   UNL     1     -12.067   0.956   6.275  1.00  0.00     0.014 A 
ATOM     39  C   UNL     1     -13.480   1.744   4.002  1.00  0.00     0.010 A 
ATOM     40  C   UNL     1     -13.220   0.270   5.902  1.00  0.00     0.010 A 
ATOM     41  C   UNL     1     -13.946   0.664   4.769  1.00  0.00    -0.014 A 
BRANCH  41  42
ATOM     42  C   UNL     1     -15.187  -0.067   4.402  1.00  0.00     0.031 A 
ATOM     43  C   UNL     1     -16.366  -0.081   5.338  1.00  0.00     0.074 A 
ATOM     44  C   UNL     1     -15.223  -0.788   3.263  1.00  0.00     0.049 A 
ATOM     45  N   UNL     1     -17.508  -0.707   5.216  1.00  0.00    -0.248 NA
ATOM     46  C   UNL     1     -16.235   0.685   6.589  1.00  0.00     0.031 C 
ATOM     47  C   UNL     1     -14.118  -0.920   2.311  1.00  0.00     0.029 A 
ATOM     48  N   UNL     1     -16.217  -1.569   2.728  1.00  0.00    -0.354 N 
ATOM     49  C   UNL     1     -18.214  -0.444   6.384  1.00  0.00     0.074 A 
ATOM     50  C   UNL     1     -17.359   0.372   7.218  1.00  0.00     0.031 C 
ATOM     51  C   UNL     1     -14.496  -1.730   1.308  1.00  0.00     0.029 A 
ATOM     52  C   UNL     1     -15.855  -2.198   1.559  1.00  0.00     0.049 A 
ATOM     53  H   UNL     1     -17.105  -1.669   3.141  1.00  0.00     0.167 HD
ATOM     54  C   UNL     1     -19.470  -0.820   6.721  1.00  0.00     0.034 A 
ATOM     55  C   UNL     1     -16.538  -3.060   0.780  1.00  0.00     0.034 A 
ATOM     56  C   UNL     1     -20.336  -1.591   5.870  1.00  0.00     0.049 A 
ATOM     57  C   UNL     1     -17.948  -3.426   1.156  1.00  0.00     0.074 A 
ATOM     58  C   UNL     1     -21.657  -1.943   6.080  1.00  0.00     0.029 A 
ATOM     59  N   UNL     1     -19.966  -2.134   4.650  1.00  0.00    -0.354 N 
ATOM     60  N   UNL     1     -18.657  -3.030   2.185  1.00  0.00    -0.248 NA
ATOM     61  C   UNL     1     -18.668  -4.326   0.242  1.00  0.00     0.031 C 
ATOM     62  C   UNL     1     -22.080  -2.719   4.995  1.00  0.00     0.029 A 
ATOM     63  C   UNL     1     -21.030  -2.827   4.098  1.00  0.00     0.049 A 
ATOM     64  H   UNL     1     -19.077  -2.041   4.236  1.00  0.00     0.167 HD
ATOM     65  C   UNL     1     -19.914  -3.603   2.026  1.00  0.00     0.074 A 
ATOM     66  C   UNL     1     -19.876  -4.355   0.789  1.00  0.00     0.031 C 
ATOM     67  C   UNL     1     -20.996  -3.526   2.839  1.00  0.00     0.034 A 
BRANCH  54  68
ATOM     68  C   UNL     1     -20.010  -0.353   8.049  1.00  0.00     0.023 A 
ATOM     69  C   UNL     1     -20.335   1.008   8.227  1.00  0.00     0.012 A 
ATOM     70  C   UNL     1     -20.253  -1.263   9.097  1.00  0.00     0.148 A 
ATOM     71  C   UNL     1     -20.859   1.462   9.436  1.00  0.00     0.002 A 
ATOM     72  C   UNL     1     -20.818  -0.810  10.284  1.00  0.00     0.091 A 
ATOM     73  F   UNL     1     -19.919  -2.549   8.918  1.00  0.00    -0.205 F 
ATOM     74  C   UNL     1     -21.110   0.552  10.459  1.00  0.00     0.022 A 
BRANCH  72  75
ATOM     75  S   UNL     1     -21.256  -1.914  11.632  1.00  0.00     0.127 S 
ATOM     76  O   UNL     1     -20.246  -1.572  12.633  1.00  0.00    -0.237 OA
ATOM     77  O   UNL     1     -22.613  -1.476  11.961  1.00  0.00    -0.237 OA
ATOM     78  O   UNL     1     -21.168  -3.263  11.091  1.00  0.00    -0.744 OA
ENDBRANCH  72  75
ENDBRANCH  54  68
BRANCH  55  79
ATOM     79  C   UNL     1     -15.919  -3.582  -0.471  1.00  0.00     0.023 A 
ATOM     80  C   UNL     1     -16.410  -3.147  -1.717  1.00  0.00     0.012 A 
ATOM     81  C   UNL     1     -14.832  -4.478  -0.435  1.00  0.00     0.148 A 
ATOM     82  C   UNL     1     -15.853  -3.620  -2.906  1.00  0.00     0.002 A 
ATOM     83  C   UNL     1     -14.246  -4.901  -1.623  1.00  0.00     0.091 A 
ATOM     84  F   UNL     1     -14.386  -4.888   0.760  1.00  0.00    -0.205 F 
ATOM     85  C   UNL     1     -14.765  -4.487  -2.859  1.00  0.00     0.022 A 
BRANCH  83  86
ATOM     86  S   UNL     1     -12.759  -5.910  -1.654  1.00  0.00     0.127 S 
ATOM     87  O   UNL     1     -13.281  -7.196  -2.114  1.00  0.00    -0.237 OA
ATOM     88  O   UNL     1     -11.931  -5.197  -2.630  1.00  0.00    -0.237 OA
ATOM     89  O   UNL     1     -12.239  -5.885  -0.297  1.00  0.00    -0.744 OA
ENDBRANCH  83  86
ENDBRANCH  55  79
BRANCH  67  90
ATOM     90  C   UNL     1     -22.249  -4.242   2.405  1.00  0.00     0.023 A 
ATOM     91  C   UNL     1     -22.310  -5.647   2.469  1.00  0.00     0.012 A 
ATOM     92  C   UNL     1     -23.390  -3.516   2.009  1.00  0.00     0.148 A 
ATOM     93  C   UNL     1     -23.477  -6.322   2.114  1.00  0.00     0.002 A 
ATOM     94  C   UNL     1     -24.565  -4.193   1.704  1.00  0.00     0.091 A 
ATOM     95  F   UNL     1     -23.306  -2.180   1.937  1.00  0.00    -0.205 F 
ATOM     96  C   UNL     1     -24.607  -5.596   1.744  1.00  0.00     0.022 A 
BRANCH  94  97
ATOM     97  S   UNL     1     -26.095  -3.336   1.312  1.00  0.00     0.127 S 
ATOM     98  O   UNL     1     -26.209  -3.574  -0.126  1.00  0.00    -0.237 OA
ATOM     99  O   UNL     1     -27.073  -4.056   2.129  1.00  0.00    -0.237 OA
ATOM    100  O   UNL     1     -25.888  -1.948   1.702  1.00  0.00    -0.744 OA
ENDBRANCH  94  97
ENDBRANCH  67  90
ENDBRANCH  41  42
ENDBRANCH  33  36
ENDBRANCH  31  32
ENDBRANCH  30  31
ENDBRANCH   1  30
TORSDOF 19
