REMARK SMILES N#C/C(=C\c1ccc(-c2cc(C(F)(F)F)ccc2Cl)o1)C(=O)NCCCNC(=O)c1ccc(-c2c3nc(c(-c4cccc(S(=O)(=O)[O-])c4F)c4ccc([nH]4)c(-c4cccc(S(=O)(=O)[O-])c4F)c4nc(c(-c5cccc(S(=O)(=O)[O-])c5F)c5ccc2[nH]5)C=C4)C=C3)cc1
REMARK SMILES IDX 25 1 24 2 23 3 21 4 22 5 3 7 4 8 2 9 1 10 5 11 6 12 20 13
REMARK SMILES IDX 7 14 8 15 9 16 10 17 18 18 11 19 17 20 19 21 16 22 12 23
REMARK SMILES IDX 13 24 14 25 15 26 26 27 27 28 28 29 29 31 30 32 31 33 92 34
REMARK SMILES IDX 32 35 91 36 33 37 34 38 35 39 85 40 36 41 90 42 84 43 86 44
REMARK SMILES IDX 37 45 89 46 83 47 82 48 38 50 70 51 50 52 69 53 51 54 54 55
REMARK SMILES IDX 68 56 87 57 52 58 53 59 67 61 88 62 55 63 39 64 40 65 48 66
REMARK SMILES IDX 41 67 43 68 49 69 42 70 44 71 45 72 46 73 47 74 71 75 72 76
REMARK SMILES IDX 80 77 73 78 75 79 81 80 74 81 76 82 77 83 78 84 79 85 56 86
REMARK SMILES IDX 57 87 65 88 58 89 60 90 66 91 59 92 61 93 62 94 63 95 64 96
REMARK H PARENT 23 6 27 30 86 49 54 60
REMARK Flexibility Score: inf
ROOT
ATOM      1  C   UNL     1       7.675  -0.610   0.376  1.00  0.00     0.042 C 
ENDROOT
BRANCH   1   2
ATOM      2  C   UNL     1       6.885   0.161  -0.685  1.00  0.00     0.118 C 
BRANCH   2   3
ATOM      3  N   UNL     1       5.823  -0.641  -1.266  1.00  0.00    -0.351 N 
ATOM      4  C   UNL     1       4.490  -0.747  -1.009  1.00  0.00     0.262 C 
ATOM      5  O   UNL     1       3.834  -1.474  -1.757  1.00  0.00    -0.268 OA
ATOM      6  H   UNL     1       6.129  -1.229  -1.994  1.00  0.00     0.163 HD
BRANCH   4   7
ATOM      7  C   UNL     1       3.805  -0.026   0.093  1.00  0.00     0.120 C 
ATOM      8  C   UNL     1       4.365   0.566   1.178  1.00  0.00     0.072 C 
BRANCH   7   9
ATOM      9  C   UNL     1       2.285  -0.026   0.093  1.00  0.00     0.105 C 
ATOM     10  N   UNL     1       1.024  -0.026   0.093  1.00  0.00    -0.192 NA
ENDBRANCH   7   9
BRANCH   8  11
ATOM     11  C   UNL     1       3.603   1.206   2.219  1.00  0.00     0.129 A 
ATOM     12  C   UNL     1       2.561   0.701   2.994  1.00  0.00     0.051 A 
ATOM     13  O   UNL     1       3.836   2.505   2.650  1.00  0.00    -0.457 OA
ATOM     14  C   UNL     1       2.125   1.717   3.869  1.00  0.00     0.051 A 
ATOM     15  C   UNL     1       2.952   2.794   3.652  1.00  0.00     0.136 A 
BRANCH  15  16
ATOM     16  C   UNL     1       3.049   4.101   4.296  1.00  0.00     0.036 A 
ATOM     17  C   UNL     1       2.896   5.274   3.532  1.00  0.00     0.026 A 
ATOM     18  C   UNL     1       3.200   4.230   5.690  1.00  0.00     0.052 A 
ATOM     19  C   UNL     1       2.865   6.547   4.140  1.00  0.00     0.056 A 
ATOM     20  C   UNL     1       3.187   5.490   6.298  1.00  0.00     0.022 A 
ATOM     21  Cl  UNL     1       3.412   2.866   6.736  1.00  0.00    -0.084 Cl
ATOM     22  C   UNL     1       3.015   6.640   5.531  1.00  0.00     0.014 A 
BRANCH  19  23
ATOM     23  C   UNL     1       2.656   7.791   3.308  1.00  0.00     0.416 C 
ATOM     24  F   UNL     1       3.660   8.003   2.416  1.00  0.00    -0.166 F 
ATOM     25  F   UNL     1       1.506   7.744   2.579  1.00  0.00    -0.166 F 
ATOM     26  F   UNL     1       2.571   8.932   4.051  1.00  0.00    -0.166 F 
ENDBRANCH  19  23
ENDBRANCH  15  16
ENDBRANCH   8  11
ENDBRANCH   4   7
ENDBRANCH   2   3
ENDBRANCH   1   2
BRANCH   1  27
ATOM     27  C   UNL     1       8.693  -1.590  -0.211  1.00  0.00     0.118 C 
BRANCH  27  28
ATOM     28  N   UNL     1       9.716  -0.900  -0.983  1.00  0.00    -0.352 N 
ATOM     29  C   UNL     1      11.081  -0.902  -0.872  1.00  0.00     0.251 C 
ATOM     30  H   UNL     1       9.367  -0.335  -1.710  1.00  0.00     0.163 HD
ATOM     31  O   UNL     1      11.716  -0.037  -1.472  1.00  0.00    -0.269 OA
BRANCH  29  32
ATOM     32  C   UNL     1      11.796  -1.916  -0.066  1.00  0.00     0.039 A 
ATOM     33  C   UNL     1      12.975  -1.533   0.581  1.00  0.00     0.014 A 
ATOM     34  C   UNL     1      11.378  -3.249  -0.015  1.00  0.00     0.014 A 
ATOM     35  C   UNL     1      13.716  -2.474   1.298  1.00  0.00     0.010 A 
ATOM     36  C   UNL     1      12.083  -4.174   0.758  1.00  0.00     0.010 A 
ATOM     37  C   UNL     1      13.265  -3.800   1.411  1.00  0.00    -0.014 A 
BRANCH  37  38
ATOM     38  C   UNL     1      14.022  -4.784   2.226  1.00  0.00     0.031 A 
ATOM     39  C   UNL     1      14.667  -5.985   1.587  1.00  0.00     0.074 A 
ATOM     40  C   UNL     1      14.089  -4.610   3.561  1.00  0.00     0.049 A 
ATOM     41  N   UNL     1      15.376  -6.932   2.147  1.00  0.00    -0.248 NA
ATOM     42  C   UNL     1      14.479  -6.159   0.138  1.00  0.00     0.031 C 
ATOM     43  C   UNL     1      13.429  -3.535   4.306  1.00  0.00     0.029 A 
ATOM     44  N   UNL     1      14.727  -5.341   4.531  1.00  0.00    -0.354 N 
ATOM     45  C   UNL     1      15.702  -7.821   1.129  1.00  0.00     0.074 A 
ATOM     46  C   UNL     1      15.080  -7.322  -0.079  1.00  0.00     0.031 C 
ATOM     47  C   UNL     1      13.703  -3.671   5.613  1.00  0.00     0.029 A 
ATOM     48  C   UNL     1      14.539  -4.851   5.803  1.00  0.00     0.049 A 
ATOM     49  H   UNL     1      15.268  -6.140   4.335  1.00  0.00     0.167 HD
ATOM     50  C   UNL     1      16.477  -8.930   1.185  1.00  0.00     0.034 A 
ATOM     51  C   UNL     1      14.992  -5.302   6.989  1.00  0.00     0.034 A 
ATOM     52  C   UNL     1      17.123  -9.402   2.381  1.00  0.00     0.049 A 
ATOM     53  C   UNL     1      15.897  -6.504   7.011  1.00  0.00     0.074 A 
ATOM     54  C   UNL     1      17.979 -10.481   2.530  1.00  0.00     0.029 A 
ATOM     55  N   UNL     1      16.988  -8.825   3.634  1.00  0.00    -0.354 N 
ATOM     56  N   UNL     1      16.321  -7.236   6.010  1.00  0.00    -0.248 NA
ATOM     57  C   UNL     1      16.423  -6.913   8.320  1.00  0.00     0.031 C 
ATOM     58  C   UNL     1      18.353 -10.561   3.876  1.00  0.00     0.029 A 
ATOM     59  C   UNL     1      17.745  -9.522   4.561  1.00  0.00     0.049 A 
ATOM     60  H   UNL     1      16.435  -8.036   3.836  1.00  0.00     0.167 HD
ATOM     61  C   UNL     1      17.183  -8.175   6.564  1.00  0.00     0.074 A 
ATOM     62  C   UNL     1      17.251  -7.891   7.983  1.00  0.00     0.031 C 
ATOM     63  C   UNL     1      17.841  -9.195   5.960  1.00  0.00     0.034 A 
BRANCH  50  64
ATOM     64  C   UNL     1      16.739  -9.673  -0.101  1.00  0.00     0.023 A 
ATOM     65  C   UNL     1      17.601  -9.103  -1.060  1.00  0.00     0.012 A 
ATOM     66  C   UNL     1      16.210 -10.960  -0.326  1.00  0.00     0.148 A 
ATOM     67  C   UNL     1      17.914  -9.787  -2.233  1.00  0.00     0.002 A 
ATOM     68  C   UNL     1      16.560 -11.654  -1.480  1.00  0.00     0.091 A 
ATOM     69  F   UNL     1      15.381 -11.480   0.590  1.00  0.00    -0.205 F 
ATOM     70  C   UNL     1      17.404 -11.066  -2.437  1.00  0.00     0.022 A 
BRANCH  68  71
ATOM     71  S   UNL     1      16.019 -13.335  -1.811  1.00  0.00     0.127 S 
ATOM     72  O   UNL     1      15.148 -13.142  -2.968  1.00  0.00    -0.237 OA
ATOM     73  O   UNL     1      17.282 -14.011  -2.103  1.00  0.00    -0.237 OA
ATOM     74  O   UNL     1      15.349 -13.789  -0.599  1.00  0.00    -0.744 OA
ENDBRANCH  68  71
ENDBRANCH  50  64
BRANCH  51  75
ATOM     75  C   UNL     1      14.654  -4.575   8.245  1.00  0.00     0.023 A 
ATOM     76  C   UNL     1      15.664  -3.886   8.943  1.00  0.00     0.012 A 
ATOM     77  C   UNL     1      13.338  -4.552   8.745  1.00  0.00     0.148 A 
ATOM     78  C   UNL     1      15.380  -3.225  10.139  1.00  0.00     0.002 A 
ATOM     79  C   UNL     1      13.050  -3.842   9.905  1.00  0.00     0.091 A 
ATOM     80  F   UNL     1      12.390  -5.226   8.078  1.00  0.00    -0.205 F 
ATOM     81  C   UNL     1      14.072  -3.195  10.615  1.00  0.00     0.022 A 
BRANCH  79  82
ATOM     82  S   UNL     1      11.366  -3.638  10.497  1.00  0.00     0.127 S 
ATOM     83  O   UNL     1      11.302  -4.626  11.569  1.00  0.00    -0.237 OA
ATOM     84  O   UNL     1      11.361  -2.244  10.940  1.00  0.00    -0.237 OA
ATOM     85  O   UNL     1      10.520  -3.894   9.336  1.00  0.00    -0.744 OA
ENDBRANCH  79  82
ENDBRANCH  51  75
BRANCH  63  86
ATOM     86  C   UNL     1      18.707 -10.067   6.831  1.00  0.00     0.023 A 
ATOM     87  C   UNL     1      18.105 -10.956   7.744  1.00  0.00     0.012 A 
ATOM     88  C   UNL     1      20.110 -10.034   6.720  1.00  0.00     0.148 A 
ATOM     89  C   UNL     1      18.888 -11.767   8.565  1.00  0.00     0.002 A 
ATOM     90  C   UNL     1      20.883 -10.881   7.507  1.00  0.00     0.091 A 
ATOM     91  F   UNL     1      20.667  -9.168   5.861  1.00  0.00    -0.205 F 
ATOM     92  C   UNL     1      20.274 -11.737   8.440  1.00  0.00     0.022 A 
BRANCH  90  93
ATOM     93  S   UNL     1      22.669 -10.972   7.345  1.00  0.00     0.127 S 
ATOM     94  O   UNL     1      23.114 -10.209   8.509  1.00  0.00    -0.237 OA
ATOM     95  O   UNL     1      22.918 -12.412   7.428  1.00  0.00    -0.237 OA
ATOM     96  O   UNL     1      22.980 -10.383   6.049  1.00  0.00    -0.744 OA
ENDBRANCH  90  93
ENDBRANCH  63  86
ENDBRANCH  37  38
ENDBRANCH  29  32
ENDBRANCH  27  28
ENDBRANCH   1  27
TORSDOF 17
