REMARK SMILES C[C@@H]1C[C@@H](C)CN(C(=O)CCn2ccc(C(=O)NCCCNC(=O)c3ccc(-c4c5nc(c(-c6cccc(S(=O)(=O)[O-])c6F)c6ccc([nH]6)c(-c6cccc(S(=O)(=O)[O-])c6F)c6nc(c(-c7cccc(S(=O)(=O)[O-])c7F)c7ccc4[nH]7)C=C6)C=C5)cc3)n2)C1
REMARK SMILES IDX 20 1 19 2 18 3 16 4 17 5 15 7 12 8 13 9 88 10 14 11 11 12
REMARK SMILES IDX 10 13 8 14 1 15 2 16 3 17 89 18 4 19 7 20 6 21 5 22 9 23
REMARK SMILES IDX 21 24 22 25 23 26 24 28 25 29 26 30 87 31 27 32 86 33 28 34
REMARK SMILES IDX 29 35 30 36 80 37 31 38 85 39 79 40 81 41 32 42 84 43 78 44
REMARK SMILES IDX 77 45 33 47 65 48 45 49 64 50 46 51 49 52 63 53 82 54 47 55
REMARK SMILES IDX 48 56 62 58 83 59 50 60 34 61 35 62 43 63 36 64 38 65 44 66
REMARK SMILES IDX 37 67 39 68 40 69 41 70 42 71 66 72 67 73 75 74 68 75 70 76
REMARK SMILES IDX 76 77 69 78 71 79 72 80 73 81 74 82 51 83 52 84 60 85 53 86
REMARK SMILES IDX 55 87 61 88 54 89 56 90 57 91 58 92 59 93
REMARK H PARENT 18 6 22 27 81 46 49 57
REMARK Flexibility Score: inf
ROOT
ATOM      1  C   UNL     1      -2.270   7.004  -2.882  1.00  0.00     0.042 C 
ENDROOT
BRANCH   1   2
ATOM      2  C   UNL     1      -2.150   6.088  -1.666  1.00  0.00     0.118 C 
BRANCH   2   3
ATOM      3  N   UNL     1      -3.253   5.143  -1.609  1.00  0.00    -0.351 N 
ATOM      4  C   UNL     1      -3.437   3.938  -2.257  1.00  0.00     0.271 C 
ATOM      5  O   UNL     1      -4.534   3.398  -2.144  1.00  0.00    -0.267 OA
ATOM      6  H   UNL     1      -3.989   5.405  -1.010  1.00  0.00     0.163 HD
BRANCH   4   7
ATOM      7  C   UNL     1      -2.313   3.257  -2.927  1.00  0.00     0.150 A 
ATOM      8  N   UNL     1      -0.296   2.782  -3.380  1.00  0.00    -0.271 N 
ATOM      9  C   UNL     1      -0.949   1.601  -3.546  1.00  0.00     0.109 A 
ATOM     10  N   UNL     1      -1.120   3.821  -3.181  1.00  0.00    -0.168 NA
ATOM     11  C   UNL     1      -2.271   1.874  -3.272  1.00  0.00     0.056 A 
BRANCH   8  12
ATOM     12  C   UNL     1       1.136   3.007  -3.309  1.00  0.00     0.154 C 
BRANCH  12  13
ATOM     13  C   UNL     1       1.556   3.829  -2.090  1.00  0.00     0.124 C 
BRANCH  13  14
ATOM     14  C   UNL     1       1.951   2.952  -0.924  1.00  0.00     0.224 C 
ATOM     15  C   UNL     1       1.261  -0.301   0.293  1.00  0.00     0.009 C 
ATOM     16  C   UNL     1       0.857   0.647   1.426  1.00  0.00     0.006 C 
ATOM     17  C   UNL     1      -0.662   0.859   1.484  1.00  0.00     0.010 C 
ATOM     18  C   UNL     1       1.558   2.002   1.294  1.00  0.00     0.122 C 
ATOM     19  C   UNL     1      -1.187   1.710   0.316  1.00  0.00     0.006 C 
ATOM     20  N   UNL     1       1.072   2.722   0.121  1.00  0.00    -0.342 N 
ATOM     21  C   UNL     1      -0.367   3.011   0.165  1.00  0.00     0.122 C 
ATOM     22  C   UNL     1      -2.683   1.978   0.504  1.00  0.00     0.009 C 
ATOM     23  O   UNL     1       3.091   2.471  -0.929  1.00  0.00    -0.275 OA
ENDBRANCH  13  14
ENDBRANCH  12  13
ENDBRANCH   8  12
ENDBRANCH   4   7
ENDBRANCH   2   3
ENDBRANCH   1   2
BRANCH   1  24
ATOM     24  C   UNL     1      -3.373   8.034  -2.680  1.00  0.00     0.118 C 
BRANCH  24  25
ATOM     25  N   UNL     1      -2.955   9.097  -1.769  1.00  0.00    -0.352 N 
ATOM     26  C   UNL     1      -3.670  10.210  -1.378  1.00  0.00     0.251 C 
ATOM     27  H   UNL     1      -2.052   9.008  -1.386  1.00  0.00     0.163 HD
ATOM     28  O   UNL     1      -3.097  11.173  -0.897  1.00  0.00    -0.269 OA
BRANCH  26  29
ATOM     29  C   UNL     1      -5.132  10.222  -1.572  1.00  0.00     0.039 A 
ATOM     30  C   UNL     1      -5.744  11.357  -2.107  1.00  0.00     0.014 A 
ATOM     31  C   UNL     1      -5.882   9.094  -1.238  1.00  0.00     0.014 A 
ATOM     32  C   UNL     1      -7.107  11.319  -2.383  1.00  0.00     0.010 A 
ATOM     33  C   UNL     1      -7.213   9.024  -1.596  1.00  0.00     0.010 A 
ATOM     34  C   UNL     1      -7.835  10.139  -2.155  1.00  0.00    -0.014 A 
BRANCH  34  35
ATOM     35  C   UNL     1      -9.193  10.027  -2.689  1.00  0.00     0.031 A 
ATOM     36  C   UNL     1      -9.295  10.326  -4.145  1.00  0.00     0.074 A 
ATOM     37  C   UNL     1     -10.242   9.510  -2.014  1.00  0.00     0.049 A 
ATOM     38  N   UNL     1      -9.895  11.327  -4.702  1.00  0.00    -0.248 NA
ATOM     39  C   UNL     1      -8.515   9.502  -5.083  1.00  0.00     0.031 C 
ATOM     40  C   UNL     1     -10.221   8.888  -0.686  1.00  0.00     0.029 A 
ATOM     41  N   UNL     1     -11.525   9.294  -2.432  1.00  0.00    -0.354 N 
ATOM     42  C   UNL     1      -9.789  11.104  -6.073  1.00  0.00     0.074 A 
ATOM     43  C   UNL     1      -8.763  10.112  -6.244  1.00  0.00     0.031 C 
ATOM     44  C   UNL     1     -11.337   8.147  -0.522  1.00  0.00     0.029 A 
ATOM     45  C   UNL     1     -12.218   8.371  -1.652  1.00  0.00     0.049 A 
ATOM     46  H   UNL     1     -11.922   9.749  -3.210  1.00  0.00     0.167 HD
ATOM     47  C   UNL     1     -10.759  11.534  -6.926  1.00  0.00     0.034 A 
ATOM     48  C   UNL     1     -13.410   7.792  -1.932  1.00  0.00     0.034 A 
ATOM     49  C   UNL     1     -11.623  12.501  -6.296  1.00  0.00     0.049 A 
ATOM     50  C   UNL     1     -14.101   8.654  -2.912  1.00  0.00     0.074 A 
ATOM     51  C   UNL     1     -11.465  13.729  -5.688  1.00  0.00     0.029 A 
ATOM     52  N   UNL     1     -12.854  12.034  -5.914  1.00  0.00    -0.354 N 
ATOM     53  N   UNL     1     -14.558   9.841  -2.631  1.00  0.00    -0.248 NA
ATOM     54  C   UNL     1     -14.002   8.339  -4.327  1.00  0.00     0.031 C 
ATOM     55  C   UNL     1     -12.437  13.757  -4.644  1.00  0.00     0.029 A 
ATOM     56  C   UNL     1     -13.177  12.574  -4.702  1.00  0.00     0.049 A 
ATOM     57  H   UNL     1     -13.415  11.410  -6.430  1.00  0.00     0.167 HD
ATOM     58  C   UNL     1     -14.336  10.568  -3.790  1.00  0.00     0.074 A 
ATOM     59  C   UNL     1     -14.170   9.562  -4.834  1.00  0.00     0.031 C 
ATOM     60  C   UNL     1     -13.998  11.890  -3.724  1.00  0.00     0.034 A 
BRANCH  47  61
ATOM     61  C   UNL     1     -11.218  10.780  -8.163  1.00  0.00     0.023 A 
ATOM     62  C   UNL     1     -12.167  11.422  -8.994  1.00  0.00     0.012 A 
ATOM     63  C   UNL     1     -11.015   9.399  -8.384  1.00  0.00     0.148 A 
ATOM     64  C   UNL     1     -12.917  10.716  -9.941  1.00  0.00     0.002 A 
ATOM     65  C   UNL     1     -11.698   8.720  -9.388  1.00  0.00     0.091 A 
ATOM     66  F   UNL     1     -10.268   8.684  -7.540  1.00  0.00    -0.205 F 
ATOM     67  C   UNL     1     -12.677   9.364 -10.145  1.00  0.00     0.022 A 
BRANCH  65  68
ATOM     68  S   UNL     1     -11.380   6.984  -9.730  1.00  0.00     0.127 S 
ATOM     69  O   UNL     1     -12.575   6.354  -9.176  1.00  0.00    -0.237 OA
ATOM     70  O   UNL     1     -11.295   6.979 -11.191  1.00  0.00    -0.237 OA
ATOM     71  O   UNL     1     -10.122   6.680  -9.060  1.00  0.00    -0.744 OA
ENDBRANCH  65  68
ENDBRANCH  47  61
BRANCH  48  72
ATOM     72  C   UNL     1     -13.956   6.469  -1.552  1.00  0.00     0.023 A 
ATOM     73  C   UNL     1     -15.347   6.248  -1.615  1.00  0.00     0.012 A 
ATOM     74  C   UNL     1     -13.108   5.349  -1.414  1.00  0.00     0.148 A 
ATOM     75  C   UNL     1     -15.874   4.952  -1.595  1.00  0.00     0.002 A 
ATOM     76  C   UNL     1     -13.638   4.062  -1.389  1.00  0.00     0.091 A 
ATOM     77  F   UNL     1     -11.783   5.539  -1.405  1.00  0.00    -0.205 F 
ATOM     78  C   UNL     1     -15.020   3.858  -1.495  1.00  0.00     0.022 A 
BRANCH  76  79
ATOM     79  S   UNL     1     -12.595   2.601  -1.284  1.00  0.00     0.127 S 
ATOM     80  O   UNL     1     -13.275   1.815  -0.252  1.00  0.00    -0.237 OA
ATOM     81  O   UNL     1     -12.700   2.058  -2.635  1.00  0.00    -0.237 OA
ATOM     82  O   UNL     1     -11.277   3.084  -0.893  1.00  0.00    -0.744 OA
ENDBRANCH  76  79
ENDBRANCH  48  72
BRANCH  60  83
ATOM     83  C   UNL     1     -14.287  12.627  -2.440  1.00  0.00     0.023 A 
ATOM     84  C   UNL     1     -13.733  12.255  -1.198  1.00  0.00     0.012 A 
ATOM     85  C   UNL     1     -15.062  13.797  -2.511  1.00  0.00     0.148 A 
ATOM     86  C   UNL     1     -13.986  13.006  -0.047  1.00  0.00     0.002 A 
ATOM     87  C   UNL     1     -15.268  14.570  -1.375  1.00  0.00     0.091 A 
ATOM     88  F   UNL     1     -15.586  14.144  -3.697  1.00  0.00    -0.205 F 
ATOM     89  C   UNL     1     -14.744  14.171  -0.137  1.00  0.00     0.022 A 
BRANCH  87  90
ATOM     90  S   UNL     1     -16.134  16.138  -1.470  1.00  0.00     0.127 S 
ATOM     91  O   UNL     1     -17.481  15.771  -1.038  1.00  0.00    -0.237 OA
ATOM     92  O   UNL     1     -15.393  16.971  -0.521  1.00  0.00    -0.237 OA
ATOM     93  O   UNL     1     -16.010  16.572  -2.857  1.00  0.00    -0.744 OA
ENDBRANCH  87  90
ENDBRANCH  60  83
ENDBRANCH  34  35
ENDBRANCH  26  29
ENDBRANCH  24  25
ENDBRANCH   1  24
TORSDOF 16
