REMARK SMILES C[C@H](NC1=[NH+]S(=O)(=O)c2ccccc21)C(=O)NCCCNC(=O)c1ccc(-c2c3nc(c(-c4cccc(S(=O)(=O)[O-])c4F)c4ccc([nH]4)c(-c4cccc(S(=O)(=O)[O-])c4F)c4nc(c(-c5cccc(S(=O)(=O)[O-])c5F)c5ccc2[nH]5)C=C4)C=C3)cc1
REMARK SMILES IDX 20 1 19 2 18 3 17 4 15 5 16 6 2 8 1 9 3 10 4 11 5 13 14 14
REMARK SMILES IDX 6 15 9 17 13 18 7 19 8 20 10 21 12 22 11 23 21 24 22 25
REMARK SMILES IDX 23 27 24 28 25 29 86 30 26 31 85 32 27 33 28 34 29 35 79 36
REMARK SMILES IDX 30 37 84 38 78 39 80 40 31 41 83 42 77 43 76 44 32 46 64 47
REMARK SMILES IDX 44 48 63 49 45 50 48 51 62 52 81 53 46 54 47 55 61 57 82 58
REMARK SMILES IDX 49 59 33 60 34 61 42 62 35 63 37 64 43 65 36 66 38 67 39 68
REMARK SMILES IDX 40 69 41 70 65 71 66 72 74 73 67 74 69 75 75 76 68 77 70 78
REMARK SMILES IDX 71 79 72 80 73 81 50 82 51 83 59 84 52 85 54 86 60 87 53 88
REMARK SMILES IDX 55 89 56 90 57 91 58 92
REMARK H PARENT 17 7 3 12 5 16 21 26 80 45 48 56
REMARK Flexibility Score: inf
ROOT
ATOM      1  C   UNL     1      -3.153  -2.332   1.396  1.00  0.00     0.118 C 
ENDROOT
BRANCH   1   2
ATOM      2  C   UNL     1      -1.673  -2.290   1.040  1.00  0.00     0.042 C 
BRANCH   2   3
ATOM      3  C   UNL     1      -1.357  -2.396  -0.448  1.00  0.00     0.118 C 
BRANCH   3   4
ATOM      4  N   UNL     1      -1.665  -1.168  -1.162  1.00  0.00    -0.352 N 
ATOM      5  C   UNL     1      -0.865  -0.136  -1.557  1.00  0.00     0.264 C 
ATOM      6  O   UNL     1      -1.422   0.823  -2.104  1.00  0.00    -0.270 OA
ATOM      7  H   UNL     1      -2.614  -1.063  -1.403  1.00  0.00     0.163 HD
BRANCH   5   8
ATOM      8  C   UNL     1       0.667  -0.121  -1.347  1.00  0.00     0.258 C 
ATOM      9  C   UNL     1       1.383  -1.130  -2.229  1.00  0.00     0.069 C 
BRANCH   8  10
ATOM     10  N   UNL     1       1.004  -0.112   0.081  1.00  0.00    -0.262 N 
ATOM     11  C   UNL     1       1.538  -1.123   0.836  1.00  0.00     0.292 C 
ATOM     12  H   UNL     1       0.821   0.729   0.559  1.00  0.00     0.306 HD
ATOM     13  N   UNL     1       2.182  -2.147   0.358  1.00  0.00    -0.162 N 
ATOM     14  C   UNL     1       1.325  -1.147   2.308  1.00  0.00     0.087 A 
ATOM     15  S   UNL     1       2.560  -3.219   1.540  1.00  0.00     0.329 S 
ATOM     16  H   UNL     1       2.412  -2.263  -0.592  1.00  0.00     0.327 HD
ATOM     17  C   UNL     1       1.800  -2.337   2.826  1.00  0.00     0.124 A 
ATOM     18  C   UNL     1       0.622  -0.264   3.114  1.00  0.00     0.018 A 
ATOM     19  O   UNL     1       3.983  -3.220   1.775  1.00  0.00    -0.179 OA
ATOM     20  O   UNL     1       1.797  -4.437   1.335  1.00  0.00    -0.179 OA
ATOM     21  C   UNL     1       1.569  -2.743   4.126  1.00  0.00     0.025 A 
ATOM     22  C   UNL     1       0.385  -0.637   4.442  1.00  0.00     0.001 A 
ATOM     23  C   UNL     1       0.846  -1.871   4.941  1.00  0.00     0.002 A 
ENDBRANCH   8  10
ENDBRANCH   5   8
ENDBRANCH   3   4
ENDBRANCH   2   3
ENDBRANCH   1   2
BRANCH   1  24
ATOM     24  N   UNL     1      -3.740  -3.647   1.206  1.00  0.00    -0.352 N 
ATOM     25  C   UNL     1      -4.301  -4.526   2.100  1.00  0.00     0.251 C 
ATOM     26  H   UNL     1      -3.735  -3.964   0.274  1.00  0.00     0.163 HD
ATOM     27  O   UNL     1      -4.582  -5.657   1.705  1.00  0.00    -0.269 OA
BRANCH  25  28
ATOM     28  C   UNL     1      -4.571  -4.162   3.515  1.00  0.00     0.039 A 
ATOM     29  C   UNL     1      -4.444  -5.160   4.490  1.00  0.00     0.014 A 
ATOM     30  C   UNL     1      -5.027  -2.897   3.894  1.00  0.00     0.014 A 
ATOM     31  C   UNL     1      -4.739  -4.884   5.830  1.00  0.00     0.010 A 
ATOM     32  C   UNL     1      -5.246  -2.600   5.243  1.00  0.00     0.010 A 
ATOM     33  C   UNL     1      -5.127  -3.595   6.224  1.00  0.00    -0.014 A 
BRANCH  33  34
ATOM     34  C   UNL     1      -5.433  -3.285   7.647  1.00  0.00     0.031 A 
ATOM     35  C   UNL     1      -6.821  -2.865   8.059  1.00  0.00     0.074 A 
ATOM     36  C   UNL     1      -4.449  -3.321   8.568  1.00  0.00     0.049 A 
ATOM     37  N   UNL     1      -7.264  -2.535   9.246  1.00  0.00    -0.248 NA
ATOM     38  C   UNL     1      -7.838  -2.780   6.998  1.00  0.00     0.031 C 
ATOM     39  C   UNL     1      -3.045  -3.631   8.294  1.00  0.00     0.029 A 
ATOM     40  N   UNL     1      -4.477  -3.076   9.919  1.00  0.00    -0.354 N 
ATOM     41  C   UNL     1      -8.592  -2.164   9.069  1.00  0.00     0.074 A 
ATOM     42  C   UNL     1      -8.877  -2.283   7.655  1.00  0.00     0.031 C 
ATOM     43  C   UNL     1      -2.349  -3.567   9.441  1.00  0.00     0.029 A 
ATOM     44  C   UNL     1      -3.250  -3.198  10.529  1.00  0.00     0.049 A 
ATOM     45  H   UNL     1      -5.299  -2.837  10.406  1.00  0.00     0.167 HD
ATOM     46  C   UNL     1      -9.506  -1.795   9.998  1.00  0.00     0.034 A 
ATOM     47  C   UNL     1      -2.891  -3.040  11.818  1.00  0.00     0.034 A 
ATOM     48  C   UNL     1      -9.252  -1.751  11.413  1.00  0.00     0.049 A 
ATOM     49  C   UNL     1      -3.943  -2.715  12.844  1.00  0.00     0.074 A 
ATOM     50  C   UNL     1     -10.140  -1.483  12.440  1.00  0.00     0.029 A 
ATOM     51  N   UNL     1      -8.021  -1.991  12.002  1.00  0.00    -0.354 N 
ATOM     52  N   UNL     1      -5.229  -2.530  12.673  1.00  0.00    -0.248 NA
ATOM     53  C   UNL     1      -3.503  -2.619  14.244  1.00  0.00     0.031 C 
ATOM     54  C   UNL     1      -9.446  -1.564  13.652  1.00  0.00     0.029 A 
ATOM     55  C   UNL     1      -8.126  -1.881  13.379  1.00  0.00     0.049 A 
ATOM     56  H   UNL     1      -7.194  -2.207  11.514  1.00  0.00     0.167 HD
ATOM     57  C   UNL     1      -5.757  -2.326  13.944  1.00  0.00     0.074 A 
ATOM     58  C   UNL     1      -4.654  -2.434  14.877  1.00  0.00     0.031 C 
ATOM     59  C   UNL     1      -7.035  -2.053  14.302  1.00  0.00     0.034 A 
BRANCH  46  60
ATOM     60  C   UNL     1     -10.901  -1.487   9.521  1.00  0.00     0.023 A 
ATOM     61  C   UNL     1     -11.748  -2.549   9.144  1.00  0.00     0.012 A 
ATOM     62  C   UNL     1     -11.393  -0.168   9.498  1.00  0.00     0.148 A 
ATOM     63  C   UNL     1     -13.053  -2.302   8.723  1.00  0.00     0.002 A 
ATOM     64  C   UNL     1     -12.709   0.067   9.111  1.00  0.00     0.091 A 
ATOM     65  F   UNL     1     -10.566   0.832   9.835  1.00  0.00    -0.205 F 
ATOM     66  C   UNL     1     -13.537  -0.997   8.717  1.00  0.00     0.022 A 
BRANCH  64  67
ATOM     67  S   UNL     1     -13.437   1.710   9.138  1.00  0.00     0.127 S 
ATOM     68  O   UNL     1     -13.391   2.076   7.723  1.00  0.00    -0.237 OA
ATOM     69  O   UNL     1     -14.781   1.450   9.656  1.00  0.00    -0.237 OA
ATOM     70  O   UNL     1     -12.593   2.501  10.023  1.00  0.00    -0.744 OA
ENDBRANCH  64  67
ENDBRANCH  46  60
BRANCH  47  71
ATOM     71  C   UNL     1      -1.479  -3.285  12.223  1.00  0.00     0.023 A 
ATOM     72  C   UNL     1      -1.165  -4.449  12.951  1.00  0.00     0.012 A 
ATOM     73  C   UNL     1      -0.444  -2.407  11.853  1.00  0.00     0.148 A 
ATOM     74  C   UNL     1       0.152  -4.723  13.322  1.00  0.00     0.002 A 
ATOM     75  C   UNL     1       0.873  -2.713  12.178  1.00  0.00     0.091 A 
ATOM     76  F   UNL     1      -0.762  -1.293  11.178  1.00  0.00    -0.205 F 
ATOM     77  C   UNL     1       1.173  -3.863  12.925  1.00  0.00     0.022 A 
BRANCH  75  78
ATOM     78  S   UNL     1       2.245  -1.726  11.569  1.00  0.00     0.127 S 
ATOM     79  O   UNL     1       2.527  -0.863  12.711  1.00  0.00    -0.237 OA
ATOM     80  O   UNL     1       3.263  -2.740  11.295  1.00  0.00    -0.237 OA
ATOM     81  O   UNL     1       1.732  -1.067  10.373  1.00  0.00    -0.744 OA
ENDBRANCH  75  78
ENDBRANCH  47  71
BRANCH  59  82
ATOM     82  C   UNL     1      -7.325  -1.867  15.767  1.00  0.00     0.023 A 
ATOM     83  C   UNL     1      -6.946  -0.667  16.399  1.00  0.00     0.012 A 
ATOM     84  C   UNL     1      -8.035  -2.839  16.497  1.00  0.00     0.148 A 
ATOM     85  C   UNL     1      -7.247  -0.447  17.743  1.00  0.00     0.002 A 
ATOM     86  C   UNL     1      -8.366  -2.597  17.826  1.00  0.00     0.091 A 
ATOM     87  F   UNL     1      -8.367  -3.987  15.887  1.00  0.00    -0.205 F 
ATOM     88  C   UNL     1      -7.967  -1.406  18.453  1.00  0.00     0.022 A 
BRANCH  86  89
ATOM     89  S   UNL     1      -9.364  -3.750  18.777  1.00  0.00     0.127 S 
ATOM     90  O   UNL     1      -8.344  -4.500  19.506  1.00  0.00    -0.237 OA
ATOM     91  O   UNL     1     -10.175  -2.859  19.610  1.00  0.00    -0.237 OA
ATOM     92  O   UNL     1     -10.129  -4.506  17.794  1.00  0.00    -0.744 OA
ENDBRANCH  86  89
ENDBRANCH  59  82
ENDBRANCH  33  34
ENDBRANCH  25  28
ENDBRANCH   1  24
TORSDOF 14
