REMARK SMILES O=C(NCCCNC(=O)[C@@H]1CCN(C(=O)c2c(F)cc(Br)cc2F)C1)c1ccc(-c2c3nc(c(-c4cccc(S(=O)(=O)[O-])c4F)c4ccc([nH]4)c(-c4cccc(S(=O)(=O)[O-])c4F)c4nc(c(-c5cccc(S(=O)(=O)[O-])c5F)c5ccc2[nH]5)C=C4)C=C3)cc1
REMARK SMILES IDX 4 1 3 2 1 3 2 4 26 6 27 7 88 8 28 9 87 10 29 11 30 12 31 13
REMARK SMILES IDX 81 14 32 15 86 16 80 17 82 18 33 19 85 20 79 21 78 22 34 24
REMARK SMILES IDX 66 25 46 26 65 27 47 28 50 29 64 30 83 31 48 32 49 33 63 35
REMARK SMILES IDX 84 36 51 37 35 38 36 39 44 40 37 41 39 42 45 43 38 44 40 45
REMARK SMILES IDX 41 46 42 47 43 48 67 49 68 50 76 51 69 52 71 53 77 54 70 55
REMARK SMILES IDX 72 56 73 57 74 58 75 59 52 60 53 61 61 62 54 63 56 64 62 65
REMARK SMILES IDX 55 66 57 67 58 68 59 69 60 70 5 71 6 72 7 73 8 74 9 76 10 77
REMARK SMILES IDX 11 78 25 79 12 80 13 81 14 82 15 83 16 84 17 85 23 86 18 87
REMARK SMILES IDX 19 88 22 89 24 90 20 91 21 92
REMARK H PARENT 3 5 82 23 50 34 7 75
REMARK Flexibility Score: inf
ROOT
ATOM      1  C   UNL     1       4.587  -1.334  -0.765  1.00  0.00     0.118 C 
ENDROOT
BRANCH   1   2
ATOM      2  N   UNL     1       3.180  -0.953  -0.779  1.00  0.00    -0.352 N 
ATOM      3  O   UNL     1       1.267   0.026  -0.139  1.00  0.00    -0.269 OA
ATOM      4  C   UNL     1       2.494  -0.004  -0.060  1.00  0.00     0.251 C 
ATOM      5  H   UNL     1       2.626  -1.464  -1.413  1.00  0.00     0.163 HD
BRANCH   4   6
ATOM      6  C   UNL     1       3.202   0.952   0.823  1.00  0.00     0.039 A 
ATOM      7  C   UNL     1       4.397   1.557   0.432  1.00  0.00     0.014 A 
ATOM      8  C   UNL     1       2.638   1.275   2.062  1.00  0.00     0.014 A 
ATOM      9  C   UNL     1       5.111   2.337   1.340  1.00  0.00     0.010 A 
ATOM     10  C   UNL     1       3.314   2.130   2.940  1.00  0.00     0.010 A 
ATOM     11  C   UNL     1       4.584   2.626   2.609  1.00  0.00    -0.014 A 
BRANCH  11  12
ATOM     12  C   UNL     1       5.374   3.458   3.558  1.00  0.00     0.031 A 
ATOM     13  C   UNL     1       5.866   2.893   4.866  1.00  0.00     0.074 A 
ATOM     14  C   UNL     1       5.676   4.729   3.224  1.00  0.00     0.049 A 
ATOM     15  N   UNL     1       6.640   3.451   5.762  1.00  0.00    -0.248 NA
ATOM     16  C   UNL     1       5.428   1.534   5.222  1.00  0.00     0.031 C 
ATOM     17  C   UNL     1       5.215   5.413   2.014  1.00  0.00     0.029 A 
ATOM     18  N   UNL     1       6.446   5.668   3.862  1.00  0.00    -0.354 N 
ATOM     19  C   UNL     1       6.747   2.534   6.802  1.00  0.00     0.074 A 
ATOM     20  C   UNL     1       5.950   1.386   6.432  1.00  0.00     0.031 C 
ATOM     21  C   UNL     1       5.742   6.646   1.978  1.00  0.00     0.029 A 
ATOM     22  C   UNL     1       6.547   6.856   3.176  1.00  0.00     0.049 A 
ATOM     23  H   UNL     1       6.885   5.507   4.729  1.00  0.00     0.167 HD
ATOM     24  C   UNL     1       7.461   2.629   7.950  1.00  0.00     0.034 A 
ATOM     25  C   UNL     1       7.217   7.987   3.472  1.00  0.00     0.034 A 
ATOM     26  C   UNL     1       8.297   3.748   8.295  1.00  0.00     0.049 A 
ATOM     27  C   UNL     1       8.047   8.040   4.724  1.00  0.00     0.074 A 
ATOM     28  C   UNL     1       9.119   3.901   9.399  1.00  0.00     0.029 A 
ATOM     29  N   UNL     1       8.419   4.907   7.545  1.00  0.00    -0.354 N 
ATOM     30  N   UNL     1       8.254   7.103   5.617  1.00  0.00    -0.248 NA
ATOM     31  C   UNL     1       8.765   9.294   4.991  1.00  0.00     0.031 C 
ATOM     32  C   UNL     1       9.728   5.158   9.322  1.00  0.00     0.029 A 
ATOM     33  C   UNL     1       9.298   5.782   8.162  1.00  0.00     0.049 A 
ATOM     34  H   UNL     1       7.950   5.083   6.697  1.00  0.00     0.167 HD
ATOM     35  C   UNL     1       9.149   7.642   6.533  1.00  0.00     0.074 A 
ATOM     36  C   UNL     1       9.464   8.979   6.073  1.00  0.00     0.031 C 
ATOM     37  C   UNL     1       9.651   7.085   7.663  1.00  0.00     0.034 A 
BRANCH  24  38
ATOM     38  C   UNL     1       7.412   1.465   8.907  1.00  0.00     0.023 A 
ATOM     39  C   UNL     1       8.114   0.283   8.599  1.00  0.00     0.012 A 
ATOM     40  C   UNL     1       6.735   1.565  10.139  1.00  0.00     0.148 A 
ATOM     41  C   UNL     1       8.121  -0.793   9.487  1.00  0.00     0.002 A 
ATOM     42  C   UNL     1       6.778   0.503  11.036  1.00  0.00     0.091 A 
ATOM     43  F   UNL     1       6.053   2.688  10.406  1.00  0.00    -0.205 F 
ATOM     44  C   UNL     1       7.462  -0.678  10.709  1.00  0.00     0.022 A 
BRANCH  42  45
ATOM     45  S   UNL     1       6.024   0.588  12.665  1.00  0.00     0.127 S 
ATOM     46  O   UNL     1       4.826  -0.229  12.478  1.00  0.00    -0.237 OA
ATOM     47  O   UNL     1       7.048  -0.020  13.515  1.00  0.00    -0.237 OA
ATOM     48  O   UNL     1       5.789   2.002  12.921  1.00  0.00    -0.744 OA
ENDBRANCH  42  45
ENDBRANCH  24  38
BRANCH  25  49
ATOM     49  C   UNL     1       7.194   9.130   2.517  1.00  0.00     0.023 A 
ATOM     50  C   UNL     1       8.360   9.452   1.796  1.00  0.00     0.012 A 
ATOM     51  C   UNL     1       6.018   9.870   2.288  1.00  0.00     0.148 A 
ATOM     52  C   UNL     1       8.362  10.504   0.880  1.00  0.00     0.002 A 
ATOM     53  C   UNL     1       6.011  10.880   1.332  1.00  0.00     0.091 A 
ATOM     54  F   UNL     1       4.923   9.562   2.998  1.00  0.00    -0.205 F 
ATOM     55  C   UNL     1       7.186  11.209   0.639  1.00  0.00     0.022 A 
BRANCH  53  56
ATOM     56  S   UNL     1       4.505  11.738   0.862  1.00  0.00     0.127 S 
ATOM     57  O   UNL     1       4.678  13.028   1.523  1.00  0.00    -0.237 OA
ATOM     58  O   UNL     1       4.616  11.773  -0.597  1.00  0.00    -0.237 OA
ATOM     59  O   UNL     1       3.416  10.908   1.357  1.00  0.00    -0.744 OA
ENDBRANCH  53  56
ENDBRANCH  25  49
BRANCH  37  60
ATOM     60  C   UNL     1      10.623   7.905   8.469  1.00  0.00     0.023 A 
ATOM     61  C   UNL     1      10.155   8.994   9.231  1.00  0.00     0.012 A 
ATOM     62  C   UNL     1      11.988   7.560   8.521  1.00  0.00     0.148 A 
ATOM     63  C   UNL     1      11.037   9.747  10.007  1.00  0.00     0.002 A 
ATOM     64  C   UNL     1      12.852   8.287   9.332  1.00  0.00     0.091 A 
ATOM     65  F   UNL     1      12.420   6.535   7.771  1.00  0.00    -0.205 F 
ATOM     66  C   UNL     1      12.381   9.387  10.066  1.00  0.00     0.022 A 
BRANCH  64  67
ATOM     67  S   UNL     1      14.577   7.828   9.532  1.00  0.00     0.127 S 
ATOM     68  O   UNL     1      15.244   8.766   8.632  1.00  0.00    -0.237 OA
ATOM     69  O   UNL     1      14.809   8.080  10.956  1.00  0.00    -0.237 OA
ATOM     70  O   UNL     1      14.656   6.423   9.154  1.00  0.00    -0.744 OA
ENDBRANCH  64  67
ENDBRANCH  37  60
ENDBRANCH  11  12
ENDBRANCH   4   6
ENDBRANCH   1   2
BRANCH   1  71
ATOM     71  C   UNL     1       4.815  -2.784  -0.337  1.00  0.00     0.042 C 
BRANCH  71  72
ATOM     72  C   UNL     1       4.175  -3.823  -1.253  1.00  0.00     0.117 C 
BRANCH  72  73
ATOM     73  N   UNL     1       4.685  -3.751  -2.612  1.00  0.00    -0.356 N 
ATOM     74  C   UNL     1       5.705  -4.426  -3.210  1.00  0.00     0.224 C 
ATOM     75  H   UNL     1       4.217  -3.111  -3.194  1.00  0.00     0.163 HD
ATOM     76  O   UNL     1       5.991  -4.125  -4.370  1.00  0.00    -0.275 OA
BRANCH  74  77
ATOM     77  C   UNL     1       6.441  -5.520  -2.457  1.00  0.00     0.099 C 
ATOM     78  C   UNL     1       7.954  -5.414  -2.678  1.00  0.00     0.037 C 
ATOM     79  C   UNL     1       6.075  -6.897  -3.023  1.00  0.00     0.133 C 
ATOM     80  C   UNL     1       8.212  -6.275  -3.902  1.00  0.00     0.120 C 
ATOM     81  N   UNL     1       7.242  -7.349  -3.769  1.00  0.00    -0.338 N 
BRANCH  81  82
ATOM     82  C   UNL     1       7.286  -8.618  -4.316  1.00  0.00     0.259 C 
ATOM     83  O   UNL     1       6.367  -9.428  -4.219  1.00  0.00    -0.269 OA
BRANCH  82  84
ATOM     84  C   UNL     1       8.492  -9.037  -5.041  1.00  0.00     0.111 A 
ATOM     85  C   UNL     1       9.713  -9.166  -4.383  1.00  0.00     0.140 A 
ATOM     86  C   UNL     1       8.407  -9.382  -6.387  1.00  0.00     0.140 A 
ATOM     87  F   UNL     1       9.821  -8.885  -3.076  1.00  0.00    -0.206 F 
ATOM     88  C   UNL     1      10.854  -9.577  -5.068  1.00  0.00     0.056 A 
ATOM     89  C   UNL     1       9.537  -9.807  -7.085  1.00  0.00     0.056 A 
ATOM     90  F   UNL     1       7.246  -9.295  -7.051  1.00  0.00    -0.206 F 
ATOM     91  C   UNL     1      10.760  -9.893  -6.421  1.00  0.00     0.023 A 
ATOM     92  Br  UNL     1      12.302 -10.446  -7.363  1.00  0.00    -0.051 Br
ENDBRANCH  82  84
ENDBRANCH  81  82
ENDBRANCH  74  77
ENDBRANCH  72  73
ENDBRANCH  71  72
ENDBRANCH   1  71
TORSDOF 15
