REMARK SMILES O=C(CC1(NC(=O)Cc2ccc(F)cc2F)CCCC1)NCCCNC(=O)c1ccc(-c2c3nc(c(-c4cccc(S(=O)(=O)[O-])c4F)c4ccc([nH]4)c(-c4cccc(S(=O)(=O)[O-])c4F)c4nc(c(-c5cccc(S(=O)(=O)[O-])c5F)c5ccc2[nH]5)C=C4)C=C3)cc1
REMARK SMILES IDX 22 1 21 2 1 3 2 4 3 6 4 7 17 8 20 9 18 10 19 11 5 12 6 13
REMARK SMILES IDX 7 15 8 16 9 17 10 18 15 19 11 20 14 21 16 22 12 23 13 24
REMARK SMILES IDX 23 25 24 26 25 27 26 28 27 30 28 31 29 32 90 33 30 34 89 35
REMARK SMILES IDX 31 36 32 37 33 38 83 39 34 40 88 41 82 42 84 43 35 44 87 45
REMARK SMILES IDX 81 46 80 47 36 49 68 50 48 51 67 52 49 53 52 54 66 55 85 56
REMARK SMILES IDX 50 57 51 58 65 60 86 61 53 62 37 63 38 64 46 65 39 66 41 67
REMARK SMILES IDX 47 68 40 69 42 70 43 71 44 72 45 73 69 74 70 75 78 76 71 77
REMARK SMILES IDX 73 78 79 79 72 80 74 81 75 82 76 83 77 84 54 85 55 86 63 87
REMARK SMILES IDX 56 88 58 89 64 90 57 91 59 92 60 93 61 94 62 95
REMARK H PARENT 21 5 5 14 25 29 84 48 52 59
REMARK Flexibility Score: inf
ROOT
ATOM      1  C   UNL     1       2.281   3.061   0.665  1.00  0.00     0.117 C 
ENDROOT
BRANCH   1   2
ATOM      2  N   UNL     1       2.699   1.737   0.217  1.00  0.00    -0.356 N 
ATOM      3  O   UNL     1       0.600   1.082  -0.401  1.00  0.00    -0.275 OA
ATOM      4  C   UNL     1       1.815   0.882  -0.397  1.00  0.00     0.222 C 
ATOM      5  H   UNL     1       3.631   1.450   0.358  1.00  0.00     0.163 HD
BRANCH   4   6
ATOM      6  C   UNL     1       2.372  -0.344  -1.114  1.00  0.00     0.128 C 
BRANCH   6   7
ATOM      7  C   UNL     1       3.672  -0.238  -1.931  1.00  0.00     0.049 C 
ATOM      8  C   UNL     1       3.612  -1.195  -3.146  1.00  0.00     0.029 C 
ATOM      9  C   UNL     1       3.767   1.151  -2.616  1.00  0.00     0.029 C 
ATOM     10  C   UNL     1       4.481  -0.551  -4.218  1.00  0.00     0.003 C 
ATOM     11  C   UNL     1       4.344   0.947  -4.013  1.00  0.00     0.003 C 
BRANCH   7  12
ATOM     12  N   UNL     1       4.944  -0.472  -1.188  1.00  0.00    -0.350 N 
ATOM     13  C   UNL     1       5.449  -1.434  -0.365  1.00  0.00     0.224 C 
ATOM     14  H   UNL     1       5.587   0.260  -1.329  1.00  0.00     0.164 HD
ATOM     15  O   UNL     1       6.676  -1.417  -0.209  1.00  0.00    -0.275 OA
BRANCH  13  16
ATOM     16  C   UNL     1       4.609  -2.467   0.366  1.00  0.00     0.138 C 
BRANCH  16  17
ATOM     17  C   UNL     1       3.731  -1.902   1.458  1.00  0.00    -0.003 A 
ATOM     18  C   UNL     1       4.095  -0.774   2.203  1.00  0.00     0.010 A 
ATOM     19  C   UNL     1       2.470  -2.478   1.685  1.00  0.00     0.129 A 
ATOM     20  C   UNL     1       3.154  -0.165   3.034  1.00  0.00     0.040 A 
ATOM     21  C   UNL     1       1.520  -1.851   2.478  1.00  0.00     0.078 A 
ATOM     22  F   UNL     1       2.126  -3.596   1.029  1.00  0.00    -0.207 F 
ATOM     23  C   UNL     1       1.863  -0.673   3.118  1.00  0.00     0.126 A 
ATOM     24  F   UNL     1       0.937   0.002   3.809  1.00  0.00    -0.207 F 
ENDBRANCH  16  17
ENDBRANCH  13  16
ENDBRANCH   7  12
ENDBRANCH   6   7
ENDBRANCH   4   6
ENDBRANCH   1   2
BRANCH   1  25
ATOM     25  C   UNL     1       2.405   3.319   2.165  1.00  0.00     0.042 C 
BRANCH  25  26
ATOM     26  C   UNL     1       3.828   3.321   2.717  1.00  0.00     0.118 C 
BRANCH  26  27
ATOM     27  N   UNL     1       4.610   4.481   2.336  1.00  0.00    -0.352 N 
ATOM     28  C   UNL     1       5.492   5.214   3.098  1.00  0.00     0.251 C 
ATOM     29  H   UNL     1       4.494   4.786   1.407  1.00  0.00     0.163 HD
ATOM     30  O   UNL     1       6.036   6.197   2.609  1.00  0.00    -0.269 OA
BRANCH  28  31
ATOM     31  C   UNL     1       5.761   4.851   4.512  1.00  0.00     0.039 A 
ATOM     32  C   UNL     1       5.672   5.860   5.475  1.00  0.00     0.014 A 
ATOM     33  C   UNL     1       6.141   3.560   4.894  1.00  0.00     0.014 A 
ATOM     34  C   UNL     1       5.939   5.573   6.818  1.00  0.00     0.010 A 
ATOM     35  C   UNL     1       6.363   3.265   6.247  1.00  0.00     0.010 A 
ATOM     36  C   UNL     1       6.279   4.271   7.223  1.00  0.00    -0.014 A 
BRANCH  36  37
ATOM     37  C   UNL     1       6.544   3.987   8.664  1.00  0.00     0.031 A 
ATOM     38  C   UNL     1       7.921   3.600   9.139  1.00  0.00     0.074 A 
ATOM     39  C   UNL     1       5.541   4.081   9.561  1.00  0.00     0.049 A 
ATOM     40  N   UNL     1       8.347   3.403  10.362  1.00  0.00    -0.248 NA
ATOM     41  C   UNL     1       8.952   3.395   8.110  1.00  0.00     0.031 C 
ATOM     42  C   UNL     1       4.146   4.382   9.236  1.00  0.00     0.029 A 
ATOM     43  N   UNL     1       5.536   3.927  10.927  1.00  0.00    -0.354 N 
ATOM     44  C   UNL     1       9.683   3.033  10.251  1.00  0.00     0.074 A 
ATOM     45  C   UNL     1       9.989   3.000   8.837  1.00  0.00     0.031 C 
ATOM     46  C   UNL     1       3.425   4.406  10.369  1.00  0.00     0.029 A 
ATOM     47  C   UNL     1       4.297   4.101  11.500  1.00  0.00     0.049 A 
ATOM     48  H   UNL     1       6.344   3.713  11.447  1.00  0.00     0.167 HD
ATOM     49  C   UNL     1      10.582   2.771  11.232  1.00  0.00     0.034 A 
ATOM     50  C   UNL     1       3.902   4.024  12.787  1.00  0.00     0.034 A 
ATOM     51  C   UNL     1      10.287   2.824  12.640  1.00  0.00     0.049 A 
ATOM     52  C   UNL     1       4.925   3.752  13.859  1.00  0.00     0.074 A 
ATOM     53  C   UNL     1      11.153   2.650  13.707  1.00  0.00     0.029 A 
ATOM     54  N   UNL     1       9.032   3.051  13.181  1.00  0.00    -0.354 N 
ATOM     55  N   UNL     1       6.217   3.568  13.740  1.00  0.00    -0.248 NA
ATOM     56  C   UNL     1       4.440   3.717  15.247  1.00  0.00     0.031 C 
ATOM     57  C   UNL     1      10.413   2.734  14.891  1.00  0.00     0.029 A 
ATOM     58  C   UNL     1       9.095   3.004  14.565  1.00  0.00     0.049 A 
ATOM     59  H   UNL     1       8.214   3.221  12.659  1.00  0.00     0.167 HD
ATOM     60  C   UNL     1       6.704   3.433  15.036  1.00  0.00     0.074 A 
ATOM     61  C   UNL     1       5.571   3.580  15.925  1.00  0.00     0.031 C 
ATOM     62  C   UNL     1       7.974   3.196  15.449  1.00  0.00     0.034 A 
BRANCH  49  63
ATOM     63  C   UNL     1      11.995   2.437  10.819  1.00  0.00     0.023 A 
ATOM     64  C   UNL     1      12.819   3.443  10.275  1.00  0.00     0.012 A 
ATOM     65  C   UNL     1      12.528   1.150  11.032  1.00  0.00     0.148 A 
ATOM     66  C   UNL     1      14.138   3.166   9.914  1.00  0.00     0.002 A 
ATOM     67  C   UNL     1      13.857   0.893  10.714  1.00  0.00     0.091 A 
ATOM     68  F   UNL     1      11.728   0.201  11.538  1.00  0.00    -0.205 F 
ATOM     69  C   UNL     1      14.659   1.896  10.142  1.00  0.00     0.022 A 
BRANCH  67  70
ATOM     70  S   UNL     1      14.649  -0.685  11.045  1.00  0.00     0.127 S 
ATOM     71  O   UNL     1      14.849  -1.204   9.692  1.00  0.00    -0.237 OA
ATOM     72  O   UNL     1      15.877  -0.276  11.728  1.00  0.00    -0.237 OA
ATOM     73  O   UNL     1      13.716  -1.439  11.870  1.00  0.00    -0.744 OA
ENDBRANCH  67  70
ENDBRANCH  49  63
BRANCH  50  74
ATOM     74  C   UNL     1       2.474   4.262  13.145  1.00  0.00     0.023 A 
ATOM     75  C   UNL     1       2.117   5.415  13.871  1.00  0.00     0.012 A 
ATOM     76  C   UNL     1       1.468   3.355  12.761  1.00  0.00     0.148 A 
ATOM     77  C   UNL     1       0.790   5.643  14.238  1.00  0.00     0.002 A 
ATOM     78  C   UNL     1       0.140   3.618  13.078  1.00  0.00     0.091 A 
ATOM     79  F   UNL     1       1.829   2.257  12.082  1.00  0.00    -0.205 F 
ATOM     80  C   UNL     1      -0.199   4.751  13.833  1.00  0.00     0.022 A 
BRANCH  78  81
ATOM     81  S   UNL     1      -1.212   2.594  12.488  1.00  0.00     0.127 S 
ATOM     82  O   UNL     1      -1.682   1.977  13.725  1.00  0.00    -0.237 OA
ATOM     83  O   UNL     1      -2.115   3.592  11.914  1.00  0.00    -0.237 OA
ATOM     84  O   UNL     1      -0.622   1.686  11.513  1.00  0.00    -0.744 OA
ENDBRANCH  78  81
ENDBRANCH  50  74
BRANCH  62  85
ATOM     85  C   UNL     1       8.227   3.121  16.934  1.00  0.00     0.023 A 
ATOM     86  C   UNL     1       7.753   2.021  17.677  1.00  0.00     0.012 A 
ATOM     87  C   UNL     1       8.991   4.112  17.582  1.00  0.00     0.148 A 
ATOM     88  C   UNL     1       8.002   1.929  19.047  1.00  0.00     0.002 A 
ATOM     89  C   UNL     1       9.280   3.987  18.936  1.00  0.00     0.091 A 
ATOM     90  F   UNL     1       9.419   5.161  16.864  1.00  0.00    -0.205 F 
ATOM     91  C   UNL     1       8.774   2.905  19.673  1.00  0.00     0.022 A 
BRANCH  89  92
ATOM     92  S   UNL     1      10.348   5.142  19.805  1.00  0.00     0.127 S 
ATOM     93  O   UNL     1       9.392   5.849  20.655  1.00  0.00    -0.237 OA
ATOM     94  O   UNL     1      11.255   4.245  20.523  1.00  0.00    -0.237 OA
ATOM     95  O   UNL     1      10.987   5.951  18.777  1.00  0.00    -0.744 OA
ENDBRANCH  89  92
ENDBRANCH  62  85
ENDBRANCH  36  37
ENDBRANCH  28  31
ENDBRANCH  26  27
ENDBRANCH  25  26
ENDBRANCH   1  25
TORSDOF 17
