REMARK SMILES CC(C)c1ccc(-c2cnc([C@@H]3[NH2+][C@H](C(=O)NCCCNC(=O)c4ccc(-c5c6nc(c(-c7cccc(S(=O)(=O)[O-])c7F)c7ccc([nH]7)c(-c7cccc(S(=O)(=O)[O-])c7F)c7nc(c(-c8cccc(S(=O)(=O)[O-])c8F)c8ccc5[nH]8)C=C7)C=C6)cc4)C(C)(C)S3)s2)cc1
REMARK SMILES IDX 19 1 18 2 17 3 15 4 16 5 14 7 12 8 13 9 90 10 87 13 88 14
REMARK SMILES IDX 89 15 11 16 8 17 9 18 91 19 10 20 7 21 4 22 5 23 93 24 6 25
REMARK SMILES IDX 92 26 2 27 1 28 3 29 20 30 21 31 22 32 23 34 24 35 25 36
REMARK SMILES IDX 86 37 26 38 85 39 27 40 28 41 29 42 79 43 30 44 84 45 78 46
REMARK SMILES IDX 80 47 31 48 83 49 77 50 76 51 32 53 64 54 44 55 63 56 45 57
REMARK SMILES IDX 48 58 62 59 81 60 46 61 47 62 61 64 82 65 49 66 33 67 34 68
REMARK SMILES IDX 42 69 35 70 37 71 43 72 36 73 38 74 39 75 40 76 41 77 65 78
REMARK SMILES IDX 66 79 74 80 67 81 69 82 75 83 68 84 70 85 71 86 72 87 73 88
REMARK SMILES IDX 50 89 51 90 59 91 52 92 54 93 60 94 53 95 55 96 56 97 57 98
REMARK SMILES IDX 58 99
REMARK H PARENT 17 6 13 11 13 12 21 33 80 52 48 63
REMARK Flexibility Score: inf
ROOT
ATOM      1  C   UNL     1     -15.387   0.494  -0.975  1.00  0.00     0.042 C 
ENDROOT
BRANCH   1   2
ATOM      2  C   UNL     1     -14.159  -0.257  -1.499  1.00  0.00     0.118 C 
BRANCH   2   3
ATOM      3  N   UNL     1     -13.226   0.638  -2.156  1.00  0.00    -0.351 N 
ATOM      4  C   UNL     1     -12.390   1.512  -1.511  1.00  0.00     0.279 C 
ATOM      5  O   UNL     1     -12.448   2.678  -1.886  1.00  0.00    -0.268 OA
ATOM      6  H   UNL     1     -13.190   0.615  -3.139  1.00  0.00     0.163 HD
BRANCH   4   7
ATOM      7  C   UNL     1     -11.450   0.965  -0.408  1.00  0.00     0.289 C 
ATOM      8  C   UNL     1      -9.259   1.965  -0.723  1.00  0.00     0.304 C 
ATOM      9  N   UNL     1     -10.064   0.741  -0.943  1.00  0.00    -0.318 N 
ATOM     10  S   UNL     1      -9.900   2.825   0.745  1.00  0.00    -0.079 SA
ATOM     11  H   UNL     1      -9.632  -0.044  -0.457  1.00  0.00     0.348 HD
ATOM     12  H   UNL     1     -10.108   0.532  -1.941  1.00  0.00     0.348 HD
ATOM     13  C   UNL     1     -11.373   1.763   0.911  1.00  0.00     0.078 C 
ATOM     14  C   UNL     1     -11.099   0.809   2.091  1.00  0.00     0.030 C 
ATOM     15  C   UNL     1     -12.611   2.600   1.235  1.00  0.00     0.030 C 
BRANCH   8  16
ATOM     16  C   UNL     1      -9.161   2.878  -1.928  1.00  0.00     0.162 A 
ATOM     17  C   UNL     1      -8.446   4.142  -3.894  1.00  0.00     0.055 A 
ATOM     18  C   UNL     1      -9.732   4.375  -3.449  1.00  0.00     0.132 A 
ATOM     19  S   UNL     1      -7.730   2.933  -2.903  1.00  0.00    -0.112 S 
ATOM     20  N   UNL     1     -10.099   3.714  -2.311  1.00  0.00    -0.242 NA
BRANCH  17  21
ATOM     21  C   UNL     1      -7.749   4.826  -4.983  1.00  0.00    -0.007 A 
ATOM     22  C   UNL     1      -6.558   6.261  -7.129  1.00  0.00    -0.045 A 
ATOM     23  C   UNL     1      -6.322   4.885  -6.947  1.00  0.00     0.004 A 
ATOM     24  C   UNL     1      -7.398   6.903  -6.216  1.00  0.00     0.004 A 
ATOM     25  C   UNL     1      -6.903   4.176  -5.885  1.00  0.00     0.010 A 
ATOM     26  C   UNL     1      -7.982   6.197  -5.163  1.00  0.00     0.010 A 
BRANCH  22  27
ATOM     27  C   UNL     1      -5.918   6.991  -8.303  1.00  0.00     0.013 C 
ATOM     28  C   UNL     1      -6.401   8.434  -8.512  1.00  0.00     0.012 C 
ATOM     29  C   UNL     1      -4.390   6.993  -8.177  1.00  0.00     0.012 C 
ENDBRANCH  22  27
ENDBRANCH  17  21
ENDBRANCH   8  16
ENDBRANCH   4   7
ENDBRANCH   2   3
ENDBRANCH   1   2
BRANCH   1  30
ATOM     30  C   UNL     1     -16.124   1.338  -2.017  1.00  0.00     0.118 C 
BRANCH  30  31
ATOM     31  N   UNL     1     -16.615   0.549  -3.137  1.00  0.00    -0.352 N 
ATOM     32  C   UNL     1     -17.893   0.362  -3.601  1.00  0.00     0.251 C 
ATOM     33  H   UNL     1     -15.918   0.072  -3.643  1.00  0.00     0.163 HD
ATOM     34  O   UNL     1     -18.096  -0.485  -4.468  1.00  0.00    -0.269 OA
BRANCH  32  35
ATOM     35  C   UNL     1     -19.027   1.145  -3.058  1.00  0.00     0.039 A 
ATOM     36  C   UNL     1     -20.233   0.483  -2.804  1.00  0.00     0.014 A 
ATOM     37  C   UNL     1     -18.931   2.521  -2.834  1.00  0.00     0.014 A 
ATOM     38  C   UNL     1     -21.318   1.186  -2.271  1.00  0.00     0.010 A 
ATOM     39  C   UNL     1     -19.991   3.207  -2.239  1.00  0.00     0.010 A 
ATOM     40  C   UNL     1     -21.197   2.549  -1.953  1.00  0.00    -0.014 A 
BRANCH  40  41
ATOM     41  C   UNL     1     -22.311   3.287  -1.300  1.00  0.00     0.031 A 
ATOM     42  C   UNL     1     -22.980   4.442  -1.996  1.00  0.00     0.074 A 
ATOM     43  C   UNL     1     -22.671   2.967  -0.041  1.00  0.00     0.049 A 
ATOM     44  N   UNL     1     -23.935   5.224  -1.562  1.00  0.00    -0.248 NA
ATOM     45  C   UNL     1     -22.499   4.778  -3.346  1.00  0.00     0.031 C 
ATOM     46  C   UNL     1     -22.050   1.920   0.775  1.00  0.00     0.029 A 
ATOM     47  N   UNL     1     -23.626   3.507   0.785  1.00  0.00    -0.354 N 
ATOM     48  C   UNL     1     -24.145   6.164  -2.565  1.00  0.00     0.074 A 
ATOM     49  C   UNL     1     -23.198   5.871  -3.619  1.00  0.00     0.031 C 
ATOM     50  C   UNL     1     -22.639   1.895   1.981  1.00  0.00     0.029 A 
ATOM     51  C   UNL     1     -23.659   2.937   2.037  1.00  0.00     0.049 A 
ATOM     52  H   UNL     1     -24.230   4.233   0.508  1.00  0.00     0.167 HD
ATOM     53  C   UNL     1     -25.060   7.162  -2.618  1.00  0.00     0.034 A 
ATOM     54  C   UNL     1     -24.419   3.224   3.113  1.00  0.00     0.034 A 
ATOM     55  C   UNL     1     -26.032   7.424  -1.590  1.00  0.00     0.049 A 
ATOM     56  C   UNL     1     -25.458   4.307   3.010  1.00  0.00     0.074 A 
ATOM     57  C   UNL     1     -27.059   8.352  -1.594  1.00  0.00     0.029 A 
ATOM     58  N   UNL     1     -26.095   6.765  -0.372  1.00  0.00    -0.354 N 
ATOM     59  N   UNL     1     -25.753   5.073   1.988  1.00  0.00    -0.248 NA
ATOM     60  C   UNL     1     -26.296   4.540   4.196  1.00  0.00     0.031 C 
ATOM     61  C   UNL     1     -27.731   8.267  -0.370  1.00  0.00     0.029 A 
ATOM     62  C   UNL     1     -27.137   7.271   0.387  1.00  0.00     0.049 A 
ATOM     63  H   UNL     1     -25.488   6.044  -0.088  1.00  0.00     0.167 HD
ATOM     64  C   UNL     1     -26.830   5.853   2.394  1.00  0.00     0.074 A 
ATOM     65  C   UNL     1     -27.151   5.450   3.748  1.00  0.00     0.031 C 
ATOM     66  C   UNL     1     -27.485   6.825   1.712  1.00  0.00     0.034 A 
BRANCH  53  67
ATOM     67  C   UNL     1     -25.096   8.014  -3.861  1.00  0.00     0.023 A 
ATOM     68  C   UNL     1     -25.590   7.467  -5.062  1.00  0.00     0.012 A 
ATOM     69  C   UNL     1     -24.708   9.368  -3.827  1.00  0.00     0.148 A 
ATOM     70  C   UNL     1     -25.665   8.241  -6.219  1.00  0.00     0.002 A 
ATOM     71  C   UNL     1     -24.826  10.146  -4.974  1.00  0.00     0.091 A 
ATOM     72  F   UNL     1     -24.223   9.868  -2.682  1.00  0.00    -0.205 F 
ATOM     73  C   UNL     1     -25.293   9.582  -6.173  1.00  0.00     0.022 A 
BRANCH  71  74
ATOM     74  S   UNL     1     -24.450  11.903  -4.997  1.00  0.00     0.127 S 
ATOM     75  O   UNL     1     -23.206  11.929  -5.764  1.00  0.00    -0.237 OA
ATOM     76  O   UNL     1     -25.609  12.458  -5.698  1.00  0.00    -0.237 OA
ATOM     77  O   UNL     1     -24.336  12.306  -3.602  1.00  0.00    -0.744 OA
ENDBRANCH  71  74
ENDBRANCH  53  67
BRANCH  54  78
ATOM     78  C   UNL     1     -24.273   2.421   4.361  1.00  0.00     0.023 A 
ATOM     79  C   UNL     1     -25.300   1.533   4.734  1.00  0.00     0.012 A 
ATOM     80  C   UNL     1     -23.116   2.507   5.159  1.00  0.00     0.148 A 
ATOM     81  C   UNL     1     -25.193   0.769   5.896  1.00  0.00     0.002 A 
ATOM     82  C   UNL     1     -22.991   1.701   6.285  1.00  0.00     0.091 A 
ATOM     83  F   UNL     1     -22.154   3.367   4.795  1.00  0.00    -0.205 F 
ATOM     84  C   UNL     1     -24.036   0.845   6.665  1.00  0.00     0.022 A 
BRANCH  82  85
ATOM     85  S   UNL     1     -21.481   1.634   7.256  1.00  0.00     0.127 S 
ATOM     86  O   UNL     1     -21.878   2.330   8.477  1.00  0.00    -0.237 OA
ATOM     87  O   UNL     1     -21.282   0.191   7.407  1.00  0.00    -0.237 OA
ATOM     88  O   UNL     1     -20.466   2.295   6.449  1.00  0.00    -0.744 OA
ENDBRANCH  82  85
ENDBRANCH  54  78
BRANCH  66  89
ATOM     89  C   UNL     1     -28.639   7.507   2.400  1.00  0.00     0.023 A 
ATOM     90  C   UNL     1     -28.392   8.416   3.447  1.00  0.00     0.012 A 
ATOM     91  C   UNL     1     -29.962   7.302   1.960  1.00  0.00     0.148 A 
ATOM     92  C   UNL     1     -29.446   9.086   4.068  1.00  0.00     0.002 A 
ATOM     93  C   UNL     1     -31.003   8.009   2.551  1.00  0.00     0.091 A 
ATOM     94  F   UNL     1     -30.180   6.418   0.975  1.00  0.00    -0.205 F 
ATOM     95  C   UNL     1     -30.748   8.892   3.613  1.00  0.00     0.022 A 
BRANCH  93  96
ATOM     96  S   UNL     1     -32.698   7.893   1.967  1.00  0.00     0.127 S 
ATOM     97  O   UNL     1     -33.321   7.089   3.017  1.00  0.00    -0.237 OA
ATOM     98  O   UNL     1     -33.117   9.295   1.944  1.00  0.00    -0.237 OA
ATOM     99  O   UNL     1     -32.626   7.264   0.655  1.00  0.00    -0.744 OA
ENDBRANCH  93  96
ENDBRANCH  66  89
ENDBRANCH  40  41
ENDBRANCH  32  35
ENDBRANCH  30  31
ENDBRANCH   1  30
TORSDOF 16
