REMARK SMILES O=C(CSc1nnc(-c2ccncc2)s1)Nc1cccc(C(=O)NCCCNC(=O)c2ccc(-c3c4nc(c(-c5cccc(S(=O)(=O)[O-])c5F)c5ccc([nH]5)c(-c5cccc(S(=O)(=O)[O-])c5F)c5nc(c(-c6cccc(S(=O)(=O)[O-])c6F)c6ccc3[nH]6)C=C5)C=C4)cc2)c1
REMARK SMILES IDX 25 1 24 2 22 3 23 4 21 6 17 7 18 8 94 9 19 10 20 11 16 12
REMARK SMILES IDX 1 13 2 14 3 16 4 17 5 18 6 19 15 20 7 21 8 22 9 23 10 24
REMARK SMILES IDX 14 25 11 26 13 27 12 28 26 29 27 30 28 31 29 32 30 34 31 35
REMARK SMILES IDX 32 36 93 37 33 38 92 39 34 40 35 41 36 42 86 43 37 44 91 45
REMARK SMILES IDX 85 46 87 47 38 48 90 49 84 50 83 51 39 53 71 54 51 55 70 56
REMARK SMILES IDX 52 57 55 58 69 59 88 60 53 61 54 62 68 64 89 65 56 66 40 67
REMARK SMILES IDX 41 68 49 69 42 70 44 71 50 72 43 73 45 74 46 75 47 76 48 77
REMARK SMILES IDX 72 78 73 79 81 80 74 81 76 82 82 83 75 84 77 85 78 86 79 87
REMARK SMILES IDX 80 88 57 89 58 90 66 91 59 92 61 93 67 94 60 95 62 96 63 97
REMARK SMILES IDX 64 98 65 99
REMARK H PARENT 24 5 16 15 28 33 87 52 55 63
REMARK Flexibility Score: inf
ROOT
ATOM      1  C   UNL     1      -0.349   2.908  -1.158  1.00  0.00     0.118 C 
ENDROOT
BRANCH   1   2
ATOM      2  N   UNL     1      -0.907   2.904  -2.509  1.00  0.00    -0.352 N 
ATOM      3  C   UNL     1      -0.602   2.165  -3.634  1.00  0.00     0.251 C 
ATOM      4  O   UNL     1      -1.246   2.364  -4.663  1.00  0.00    -0.269 OA
ATOM      5  H   UNL     1      -1.639   3.549  -2.641  1.00  0.00     0.163 HD
BRANCH   3   6
ATOM      6  C   UNL     1       0.522   1.191  -3.667  1.00  0.00     0.041 A 
ATOM      7  C   UNL     1       2.178  -0.107  -2.480  1.00  0.00     0.041 A 
ATOM      8  C   UNL     1       2.902  -0.263  -3.663  1.00  0.00     0.026 A 
ATOM      9  C   UNL     1       0.918   0.478  -2.539  1.00  0.00     0.040 A 
ATOM     10  C   UNL     1       2.409   0.260  -4.862  1.00  0.00     0.003 A 
ATOM     11  C   UNL     1       1.243   1.029  -4.855  1.00  0.00     0.014 A 
BRANCH   7  12
ATOM     12  N   UNL     1       2.797  -0.455  -1.260  1.00  0.00    -0.325 N 
ATOM     13  O   UNL     1       1.197   0.227   0.295  1.00  0.00    -0.274 OA
ATOM     14  C   UNL     1       2.300  -0.244   0.019  1.00  0.00     0.234 C 
ATOM     15  H   UNL     1       3.676  -0.894  -1.323  1.00  0.00     0.169 HD
BRANCH  14  16
ATOM     16  C   UNL     1       3.252  -0.602   1.147  1.00  0.00     0.177 C 
BRANCH  16  17
ATOM     17  S   UNL     1       4.251  -2.075   0.828  1.00  0.00    -0.084 SA
BRANCH  17  18
ATOM     18  C   UNL     1       3.085  -3.382   0.777  1.00  0.00     0.175 A 
ATOM     19  N   UNL     1       3.437  -4.592   1.158  1.00  0.00    -0.131 NA
ATOM     20  S   UNL     1       1.504  -3.304   0.126  1.00  0.00    -0.086 S 
ATOM     21  N   UNL     1       2.446  -5.528   0.922  1.00  0.00    -0.137 NA
ATOM     22  C   UNL     1       1.398  -5.000   0.323  1.00  0.00     0.148 A 
BRANCH  22  23
ATOM     23  C   UNL     1       0.216  -5.734  -0.121  1.00  0.00     0.015 A 
ATOM     24  C   UNL     1      -0.338  -5.537  -1.390  1.00  0.00     0.031 A 
ATOM     25  C   UNL     1      -0.363  -6.681   0.725  1.00  0.00     0.031 A 
ATOM     26  C   UNL     1      -1.442  -6.288  -1.752  1.00  0.00     0.111 A 
ATOM     27  C   UNL     1      -1.472  -7.375   0.274  1.00  0.00     0.111 A 
ATOM     28  N   UNL     1      -2.022  -7.201  -0.946  1.00  0.00    -0.265 NA
ENDBRANCH  22  23
ENDBRANCH  17  18
ENDBRANCH  16  17
ENDBRANCH  14  16
ENDBRANCH   7  12
ENDBRANCH   3   6
ENDBRANCH   1   2
BRANCH   1  29
ATOM     29  C   UNL     1       0.161   4.255  -0.682  1.00  0.00     0.042 C 
BRANCH  29  30
ATOM     30  C   UNL     1      -0.916   5.295  -0.443  1.00  0.00     0.118 C 
BRANCH  30  31
ATOM     31  N   UNL     1      -1.848   4.920   0.615  1.00  0.00    -0.352 N 
ATOM     32  C   UNL     1      -2.042   5.441   1.873  1.00  0.00     0.251 C 
ATOM     33  H   UNL     1      -2.440   4.166   0.389  1.00  0.00     0.163 HD
ATOM     34  O   UNL     1      -2.770   4.849   2.663  1.00  0.00    -0.269 OA
BRANCH  32  35
ATOM     35  C   UNL     1      -1.372   6.696   2.287  1.00  0.00     0.039 A 
ATOM     36  C   UNL     1      -0.909   6.821   3.601  1.00  0.00     0.014 A 
ATOM     37  C   UNL     1      -1.219   7.759   1.397  1.00  0.00     0.014 A 
ATOM     38  C   UNL     1      -0.235   7.982   3.994  1.00  0.00     0.010 A 
ATOM     39  C   UNL     1      -0.446   8.858   1.752  1.00  0.00     0.010 A 
ATOM     40  C   UNL     1       0.035   8.996   3.061  1.00  0.00    -0.014 A 
BRANCH  40  41
ATOM     41  C   UNL     1       0.787  10.224   3.428  1.00  0.00     0.031 A 
ATOM     42  C   UNL     1       0.142  11.576   3.262  1.00  0.00     0.074 A 
ATOM     43  C   UNL     1       2.075  10.132   3.816  1.00  0.00     0.049 A 
ATOM     44  N   UNL     1       0.660  12.765   3.434  1.00  0.00    -0.248 NA
ATOM     45  C   UNL     1      -1.259  11.598   2.806  1.00  0.00     0.031 C 
ATOM     46  C   UNL     1       2.836   8.886   3.941  1.00  0.00     0.029 A 
ATOM     47  N   UNL     1       2.981  11.107   4.151  1.00  0.00    -0.354 N 
ATOM     48  C   UNL     1      -0.331  13.668   3.067  1.00  0.00     0.074 A 
ATOM     49  C   UNL     1      -1.466  12.893   2.619  1.00  0.00     0.031 C 
ATOM     50  C   UNL     1       4.088   9.172   4.334  1.00  0.00     0.029 A 
ATOM     51  C   UNL     1       4.232  10.619   4.452  1.00  0.00     0.049 A 
ATOM     52  H   UNL     1       2.757  12.066   4.173  1.00  0.00     0.167 HD
ATOM     53  C   UNL     1      -0.315  15.021   3.128  1.00  0.00     0.034 A 
ATOM     54  C   UNL     1       5.369  11.266   4.776  1.00  0.00     0.034 A 
ATOM     55  C   UNL     1       0.797  15.785   3.621  1.00  0.00     0.049 A 
ATOM     56  C   UNL     1       5.348  12.768   4.875  1.00  0.00     0.074 A 
ATOM     57  C   UNL     1       0.886  17.153   3.805  1.00  0.00     0.029 A 
ATOM     58  N   UNL     1       2.017  15.249   4.003  1.00  0.00    -0.354 N 
ATOM     59  N   UNL     1       4.355  13.597   4.663  1.00  0.00    -0.248 NA
ATOM     60  C   UNL     1       6.596  13.423   5.297  1.00  0.00     0.031 C 
ATOM     61  C   UNL     1       2.172  17.447   4.271  1.00  0.00     0.029 A 
ATOM     62  C   UNL     1       2.868  16.258   4.416  1.00  0.00     0.049 A 
ATOM     63  H   UNL     1       2.244  14.291   3.983  1.00  0.00     0.167 HD
ATOM     64  C   UNL     1       4.842  14.863   4.968  1.00  0.00     0.074 A 
ATOM     65  C   UNL     1       6.215  14.689   5.395  1.00  0.00     0.031 C 
ATOM     66  C   UNL     1       4.213  16.062   4.892  1.00  0.00     0.034 A 
BRANCH  53  67
ATOM     67  C   UNL     1      -1.558  15.758   2.697  1.00  0.00     0.023 A 
ATOM     68  C   UNL     1      -2.729  15.671   3.478  1.00  0.00     0.012 A 
ATOM     69  C   UNL     1      -1.554  16.574   1.550  1.00  0.00     0.148 A 
ATOM     70  C   UNL     1      -3.888  16.350   3.103  1.00  0.00     0.002 A 
ATOM     71  C   UNL     1      -2.697  17.289   1.210  1.00  0.00     0.091 A 
ATOM     72  F   UNL     1      -0.439  16.630   0.807  1.00  0.00    -0.205 F 
ATOM     73  C   UNL     1      -3.868  17.167   1.976  1.00  0.00     0.022 A 
BRANCH  71  74
ATOM     74  S   UNL     1      -2.751  18.435  -0.173  1.00  0.00     0.127 S 
ATOM     75  O   UNL     1      -3.648  17.741  -1.096  1.00  0.00    -0.237 OA
ATOM     76  O   UNL     1      -3.319  19.633   0.445  1.00  0.00    -0.237 OA
ATOM     77  O   UNL     1      -1.376  18.579  -0.630  1.00  0.00    -0.744 OA
ENDBRANCH  71  74
ENDBRANCH  53  67
BRANCH  54  78
ATOM     78  C   UNL     1       6.604  10.495   5.096  1.00  0.00     0.023 A 
ATOM     79  C   UNL     1       7.085  10.475   6.420  1.00  0.00     0.012 A 
ATOM     80  C   UNL     1       7.295   9.771   4.105  1.00  0.00     0.148 A 
ATOM     81  C   UNL     1       8.252   9.783   6.744  1.00  0.00     0.002 A 
ATOM     82  C   UNL     1       8.424   9.035   4.446  1.00  0.00     0.091 A 
ATOM     83  F   UNL     1       6.827   9.807   2.850  1.00  0.00    -0.205 F 
ATOM     84  C   UNL     1       8.916   9.056   5.760  1.00  0.00     0.022 A 
BRANCH  82  85
ATOM     85  S   UNL     1       9.268   7.965   3.276  1.00  0.00     0.127 S 
ATOM     86  O   UNL     1      10.533   8.668   3.084  1.00  0.00    -0.237 OA
ATOM     87  O   UNL     1       9.365   6.713   4.028  1.00  0.00    -0.237 OA
ATOM     88  O   UNL     1       8.400   7.896   2.107  1.00  0.00    -0.744 OA
ENDBRANCH  82  85
ENDBRANCH  54  78
BRANCH  66  89
ATOM     89  C   UNL     1       4.977  17.282   5.336  1.00  0.00     0.023 A 
ATOM     90  C   UNL     1       6.035  17.780   4.550  1.00  0.00     0.012 A 
ATOM     91  C   UNL     1       4.591  17.977   6.499  1.00  0.00     0.148 A 
ATOM     92  C   UNL     1       6.721  18.931   4.936  1.00  0.00     0.002 A 
ATOM     93  C   UNL     1       5.243  19.153   6.847  1.00  0.00     0.091 A 
ATOM     94  F   UNL     1       3.593  17.476   7.242  1.00  0.00    -0.205 F 
ATOM     95  C   UNL     1       6.317  19.624   6.075  1.00  0.00     0.022 A 
BRANCH  93  96
ATOM     96  S   UNL     1       4.724  20.165   8.238  1.00  0.00     0.127 S 
ATOM     97  O   UNL     1       5.814  19.946   9.187  1.00  0.00    -0.237 OA
ATOM     98  O   UNL     1       4.688  21.504   7.649  1.00  0.00    -0.237 OA
ATOM     99  O   UNL     1       3.425  19.649   8.649  1.00  0.00    -0.744 OA
ENDBRANCH  93  96
ENDBRANCH  66  89
ENDBRANCH  40  41
ENDBRANCH  32  35
ENDBRANCH  30  31
ENDBRANCH  29  30
ENDBRANCH   1  29
TORSDOF 18
