REMARK SMILES O=C(NCCCNC(=O)c1cnc2c(ccn2C2CCCCC2)c1)c1ccc(-c2c3nc(c(-c4cccc(S(=O)(=O)[O-])c4F)c4ccc([nH]4)c(-c4cccc(S(=O)(=O)[O-])c4F)c4nc(c(-c5cccc(S(=O)(=O)[O-])c5F)c5ccc2[nH]5)C=C4)C=C3)cc1
REMARK SMILES IDX 4 1 3 2 1 3 2 4 25 6 26 7 87 8 27 9 86 10 28 11 29 12 30 13
REMARK SMILES IDX 80 14 31 15 85 16 79 17 81 18 32 19 84 20 78 21 77 22 33 24
REMARK SMILES IDX 65 25 45 26 64 27 46 28 49 29 63 30 82 31 47 32 48 33 62 35
REMARK SMILES IDX 83 36 50 37 34 38 35 39 43 40 36 41 38 42 44 43 37 44 39 45
REMARK SMILES IDX 40 46 41 47 42 48 66 49 67 50 75 51 68 52 70 53 76 54 69 55
REMARK SMILES IDX 71 56 72 57 73 58 74 59 51 60 52 61 60 62 53 63 55 64 61 65
REMARK SMILES IDX 54 66 56 67 57 68 58 69 59 70 5 71 6 72 7 73 8 74 9 76 10 77
REMARK SMILES IDX 11 78 24 79 12 80 14 81 13 82 15 83 17 84 16 85 18 86 19 87
REMARK SMILES IDX 23 88 20 89 22 90 21 91
REMARK H PARENT 3 5 81 23 49 34 7 75
REMARK Flexibility Score: inf
ROOT
ATOM      1  C   UNL     1       4.624  -0.927   0.892  1.00  0.00     0.118 C 
ENDROOT
BRANCH   1   2
ATOM      2  N   UNL     1       3.218  -1.093   0.573  1.00  0.00    -0.352 N 
ATOM      3  O   UNL     1       1.217  -0.854  -0.344  1.00  0.00    -0.269 OA
ATOM      4  C   UNL     1       2.277  -0.304  -0.037  1.00  0.00     0.251 C 
ATOM      5  H   UNL     1       2.861  -1.966   0.856  1.00  0.00     0.163 HD
BRANCH   4   6
ATOM      6  C   UNL     1       2.421   1.160  -0.252  1.00  0.00     0.039 A 
ATOM      7  C   UNL     1       3.630   1.853  -0.230  1.00  0.00     0.014 A 
ATOM      8  C   UNL     1       1.228   1.886  -0.439  1.00  0.00     0.014 A 
ATOM      9  C   UNL     1       3.640   3.239  -0.247  1.00  0.00     0.010 A 
ATOM     10  C   UNL     1       1.235   3.276  -0.493  1.00  0.00     0.010 A 
ATOM     11  C   UNL     1       2.442   3.950  -0.349  1.00  0.00    -0.014 A 
BRANCH  11  12
ATOM     12  C   UNL     1       2.545   5.399  -0.436  1.00  0.00     0.031 A 
ATOM     13  C   UNL     1       3.252   5.894  -1.648  1.00  0.00     0.074 A 
ATOM     14  C   UNL     1       2.014   6.256   0.456  1.00  0.00     0.049 A 
ATOM     15  N   UNL     1       4.409   6.470  -1.714  1.00  0.00    -0.248 NA
ATOM     16  C   UNL     1       2.647   5.596  -2.953  1.00  0.00     0.031 C 
ATOM     17  C   UNL     1       1.062   5.974   1.531  1.00  0.00     0.029 A 
ATOM     18  N   UNL     1       2.149   7.611   0.505  1.00  0.00    -0.354 N 
ATOM     19  C   UNL     1       4.580   6.805  -3.055  1.00  0.00     0.074 A 
ATOM     20  C   UNL     1       3.549   6.114  -3.787  1.00  0.00     0.031 C 
ATOM     21  C   UNL     1       0.535   7.141   1.969  1.00  0.00     0.029 A 
ATOM     22  C   UNL     1       1.210   8.245   1.309  1.00  0.00     0.049 A 
ATOM     23  H   UNL     1       2.851   8.098   0.014  1.00  0.00     0.167 HD
ATOM     24  C   UNL     1       5.415   7.803  -3.454  1.00  0.00     0.034 A 
ATOM     25  C   UNL     1       0.971   9.578   1.351  1.00  0.00     0.034 A 
ATOM     26  C   UNL     1       6.356   8.175  -2.437  1.00  0.00     0.049 A 
ATOM     27  C   UNL     1       2.192  10.252   0.850  1.00  0.00     0.074 A 
ATOM     28  C   UNL     1       7.352   7.528  -1.733  1.00  0.00     0.029 A 
ATOM     29  N   UNL     1       6.110   9.340  -1.755  1.00  0.00    -0.354 N 
ATOM     30  N   UNL     1       3.339  10.240   1.470  1.00  0.00    -0.248 NA
ATOM     31  C   UNL     1       2.236  10.657  -0.545  1.00  0.00     0.031 C 
ATOM     32  C   UNL     1       7.306   8.097  -0.427  1.00  0.00     0.029 A 
ATOM     33  C   UNL     1       6.309   9.074  -0.427  1.00  0.00     0.049 A 
ATOM     34  H   UNL     1       5.841  10.202  -2.146  1.00  0.00     0.167 HD
ATOM     35  C   UNL     1       4.283  10.219   0.454  1.00  0.00     0.074 A 
ATOM     36  C   UNL     1       3.554  10.598  -0.752  1.00  0.00     0.031 C 
ATOM     37  C   UNL     1       5.499   9.627   0.635  1.00  0.00     0.034 A 
BRANCH  24  38
ATOM     38  C   UNL     1       5.153   8.685  -4.647  1.00  0.00     0.023 A 
ATOM     39  C   UNL     1       6.209   9.488  -5.129  1.00  0.00     0.012 A 
ATOM     40  C   UNL     1       3.857   8.960  -5.138  1.00  0.00     0.148 A 
ATOM     41  C   UNL     1       5.980  10.523  -6.043  1.00  0.00     0.002 A 
ATOM     42  C   UNL     1       3.648   9.933  -6.106  1.00  0.00     0.091 A 
ATOM     43  F   UNL     1       2.794   8.378  -4.570  1.00  0.00    -0.205 F 
ATOM     44  C   UNL     1       4.702  10.736  -6.545  1.00  0.00     0.022 A 
BRANCH  42  45
ATOM     45  S   UNL     1       2.019  10.202  -6.813  1.00  0.00     0.127 S 
ATOM     46  O   UNL     1       1.581  11.392  -6.089  1.00  0.00    -0.237 OA
ATOM     47  O   UNL     1       2.335  10.416  -8.226  1.00  0.00    -0.237 OA
ATOM     48  O   UNL     1       1.284   8.973  -6.549  1.00  0.00    -0.744 OA
ENDBRANCH  42  45
ENDBRANCH  24  38
BRANCH  25  49
ATOM     49  C   UNL     1      -0.302  10.320   1.532  1.00  0.00     0.023 A 
ATOM     50  C   UNL     1      -0.255  11.712   1.762  1.00  0.00     0.012 A 
ATOM     51  C   UNL     1      -1.546   9.752   1.180  1.00  0.00     0.148 A 
ATOM     52  C   UNL     1      -1.386  12.517   1.584  1.00  0.00     0.002 A 
ATOM     53  C   UNL     1      -2.673  10.555   1.019  1.00  0.00     0.091 A 
ATOM     54  F   UNL     1      -1.610   8.443   0.904  1.00  0.00    -0.205 F 
ATOM     55  C   UNL     1      -2.592  11.941   1.200  1.00  0.00     0.022 A 
BRANCH  53  56
ATOM     56  S   UNL     1      -4.262   9.876   0.522  1.00  0.00     0.127 S 
ATOM     57  O   UNL     1      -5.191  10.595   1.394  1.00  0.00    -0.237 OA
ATOM     58  O   UNL     1      -4.328  10.249  -0.885  1.00  0.00    -0.237 OA
ATOM     59  O   UNL     1      -4.178   8.444   0.799  1.00  0.00    -0.744 OA
ENDBRANCH  53  56
ENDBRANCH  25  49
BRANCH  37  60
ATOM     60  C   UNL     1       5.902   9.245   2.035  1.00  0.00     0.023 A 
ATOM     61  C   UNL     1       5.246   8.216   2.742  1.00  0.00     0.012 A 
ATOM     62  C   UNL     1       7.088   9.787   2.557  1.00  0.00     0.148 A 
ATOM     63  C   UNL     1       5.761   7.742   3.951  1.00  0.00     0.002 A 
ATOM     64  C   UNL     1       7.617   9.286   3.740  1.00  0.00     0.091 A 
ATOM     65  F   UNL     1       7.702  10.754   1.858  1.00  0.00    -0.205 F 
ATOM     66  C   UNL     1       6.954   8.267   4.443  1.00  0.00     0.022 A 
BRANCH  64  67
ATOM     67  S   UNL     1       9.208   9.826   4.372  1.00  0.00     0.127 S 
ATOM     68  O   UNL     1       8.831  10.501   5.612  1.00  0.00    -0.237 OA
ATOM     69  O   UNL     1       9.913   8.557   4.556  1.00  0.00    -0.237 OA
ATOM     70  O   UNL     1       9.783  10.688   3.346  1.00  0.00    -0.744 OA
ENDBRANCH  64  67
ENDBRANCH  37  60
ENDBRANCH  11  12
ENDBRANCH   4   6
ENDBRANCH   1   2
BRANCH   1  71
ATOM     71  C   UNL     1       4.929  -0.134   2.163  1.00  0.00     0.042 C 
BRANCH  71  72
ATOM     72  C   UNL     1       4.401  -0.758   3.452  1.00  0.00     0.118 C 
BRANCH  72  73
ATOM     73  N   UNL     1       4.910  -2.106   3.669  1.00  0.00    -0.352 N 
ATOM     74  C   UNL     1       5.749  -2.613   4.629  1.00  0.00     0.252 C 
ATOM     75  H   UNL     1       4.597  -2.769   3.012  1.00  0.00     0.163 HD
ATOM     76  O   UNL     1       6.206  -3.742   4.491  1.00  0.00    -0.269 OA
BRANCH  74  77
ATOM     77  C   UNL     1       6.103  -1.837   5.830  1.00  0.00     0.058 A 
ATOM     78  C   UNL     1       5.136  -1.162   6.561  1.00  0.00     0.127 A 
ATOM     79  C   UNL     1       7.414  -1.876   6.314  1.00  0.00     0.027 A 
ATOM     80  N   UNL     1       5.357  -0.449   7.687  1.00  0.00    -0.238 NA
ATOM     81  C   UNL     1       7.693  -1.164   7.494  1.00  0.00     0.020 A 
ATOM     82  C   UNL     1       6.642  -0.478   8.097  1.00  0.00     0.140 A 
ATOM     83  C   UNL     1       8.844  -0.946   8.297  1.00  0.00     0.030 A 
ATOM     84  N   UNL     1       7.141   0.177   9.199  1.00  0.00    -0.329 N 
ATOM     85  C   UNL     1       8.477  -0.120   9.339  1.00  0.00     0.088 A 
BRANCH  84  86
ATOM     86  C   UNL     1       6.385   1.074  10.074  1.00  0.00     0.088 C 
ATOM     87  C   UNL     1       5.940   2.347   9.333  1.00  0.00     0.025 C 
ATOM     88  C   UNL     1       5.219   0.356  10.776  1.00  0.00     0.025 C 
ATOM     89  C   UNL     1       5.099   3.262  10.218  1.00  0.00     0.002 C 
ATOM     90  C   UNL     1       4.390   1.307  11.633  1.00  0.00     0.002 C 
ATOM     91  C   UNL     1       3.919   2.514  10.830  1.00  0.00     0.000 C 
ENDBRANCH  84  86
ENDBRANCH  74  77
ENDBRANCH  72  73
ENDBRANCH  71  72
ENDBRANCH   1  71
TORSDOF 14
