REMARK SMILES O=C(NCCCNC(=O)[C@@H]1C=C[C@@H](NS(=O)(=O)c2ccc(F)c(F)c2F)C1)c1ccc(-c2c3nc(c(-c4cccc(S(=O)(=O)[O-])c4F)c4ccc([nH]4)c(-c4cccc(S(=O)(=O)[O-])c4F)c4nc(c(-c5cccc(S(=O)(=O)[O-])c5F)c5ccc2[nH]5)C=C4)C=C3)cc1
REMARK SMILES IDX 5 1 4 2 3 3 1 4 2 5 28 7 29 8 90 9 30 10 89 11 31 12 32 13
REMARK SMILES IDX 33 14 83 15 34 16 88 17 82 18 84 19 35 20 87 21 81 22 80 23
REMARK SMILES IDX 36 25 68 26 48 27 67 28 49 29 52 30 66 31 85 32 50 33 51 34
REMARK SMILES IDX 65 36 86 37 53 38 37 39 38 40 46 41 39 42 41 43 47 44 40 45
REMARK SMILES IDX 42 46 43 47 44 48 45 49 69 50 70 51 78 52 71 53 73 54 79 55
REMARK SMILES IDX 72 56 74 57 75 58 76 59 77 60 54 61 55 62 63 63 56 64 58 65
REMARK SMILES IDX 64 66 57 67 59 68 60 69 61 70 62 71 6 72 7 73 8 74 9 76
REMARK SMILES IDX 10 77 11 78 27 79 12 80 13 81 14 82 15 84 16 85 17 86 18 87
REMARK SMILES IDX 19 88 25 89 20 90 23 91 26 92 21 93 24 94 22 95
REMARK H PARENT 3 6 84 24 52 35 7 75 14 83
REMARK Flexibility Score: inf
ROOT
ATOM      1  C   UNL     1       4.987  -3.018  -0.751  1.00  0.00     0.042 C 
ENDROOT
BRANCH   1   2
ATOM      2  C   UNL     1       5.832  -2.777   0.496  1.00  0.00     0.118 C 
BRANCH   2   3
ATOM      3  N   UNL     1       5.863  -1.374   0.884  1.00  0.00    -0.352 N 
ATOM      4  O   UNL     1       5.288   0.483   2.004  1.00  0.00    -0.269 OA
ATOM      5  C   UNL     1       5.329  -0.745   1.984  1.00  0.00     0.251 C 
ATOM      6  H   UNL     1       6.342  -0.782   0.260  1.00  0.00     0.163 HD
BRANCH   5   7
ATOM      7  C   UNL     1       4.789  -1.527   3.120  1.00  0.00     0.039 A 
ATOM      8  C   UNL     1       5.440  -2.670   3.586  1.00  0.00     0.014 A 
ATOM      9  C   UNL     1       3.625  -1.086   3.760  1.00  0.00     0.014 A 
ATOM     10  C   UNL     1       4.848  -3.456   4.571  1.00  0.00     0.010 A 
ATOM     11  C   UNL     1       3.082  -1.827   4.816  1.00  0.00     0.010 A 
ATOM     12  C   UNL     1       3.664  -3.042   5.203  1.00  0.00    -0.014 A 
BRANCH  12  13
ATOM     13  C   UNL     1       3.095  -3.876   6.296  1.00  0.00     0.031 A 
ATOM     14  C   UNL     1       1.738  -4.516   6.167  1.00  0.00     0.074 A 
ATOM     15  C   UNL     1       3.826  -4.074   7.411  1.00  0.00     0.049 A 
ATOM     16  N   UNL     1       1.138  -5.338   6.991  1.00  0.00    -0.248 NA
ATOM     17  C   UNL     1       0.946  -4.188   4.972  1.00  0.00     0.031 C 
ATOM     18  C   UNL     1       5.130  -3.463   7.680  1.00  0.00     0.029 A 
ATOM     19  N   UNL     1       3.591  -4.851   8.517  1.00  0.00    -0.354 N 
ATOM     20  C   UNL     1      -0.113  -5.590   6.440  1.00  0.00     0.074 A 
ATOM     21  C   UNL     1      -0.192  -4.827   5.213  1.00  0.00     0.031 C 
ATOM     22  C   UNL     1       5.601  -3.924   8.848  1.00  0.00     0.029 A 
ATOM     23  C   UNL     1       4.618  -4.829   9.432  1.00  0.00     0.049 A 
ATOM     24  H   UNL     1       2.767  -5.375   8.643  1.00  0.00     0.167 HD
ATOM     25  C   UNL     1      -1.098  -6.397   6.903  1.00  0.00     0.034 A 
ATOM     26  C   UNL     1       4.759  -5.471  10.608  1.00  0.00     0.034 A 
ATOM     27  C   UNL     1      -0.996  -7.200   8.092  1.00  0.00     0.049 A 
ATOM     28  C   UNL     1       3.675  -6.405  11.064  1.00  0.00     0.074 A 
ATOM     29  C   UNL     1      -1.908  -8.112   8.595  1.00  0.00     0.029 A 
ATOM     30  N   UNL     1       0.079  -7.189   8.966  1.00  0.00    -0.354 N 
ATOM     31  N   UNL     1       2.566  -6.742  10.452  1.00  0.00    -0.248 NA
ATOM     32  C   UNL     1       3.876  -7.071  12.359  1.00  0.00     0.031 C 
ATOM     33  C   UNL     1      -1.387  -8.645   9.780  1.00  0.00     0.029 A 
ATOM     34  C   UNL     1      -0.147  -8.071  10.010  1.00  0.00     0.049 A 
ATOM     35  H   UNL     1       0.886  -6.635   8.861  1.00  0.00     0.167 HD
ATOM     36  C   UNL     1       1.948  -7.676  11.273  1.00  0.00     0.074 A 
ATOM     37  C   UNL     1       2.820  -7.873  12.414  1.00  0.00     0.031 C 
ATOM     38  C   UNL     1       0.755  -8.298  11.109  1.00  0.00     0.034 A 
BRANCH  25  39
ATOM     39  C   UNL     1      -2.365  -6.495   6.092  1.00  0.00     0.023 A 
ATOM     40  C   UNL     1      -2.369  -7.247   4.900  1.00  0.00     0.012 A 
ATOM     41  C   UNL     1      -3.562  -5.905   6.541  1.00  0.00     0.148 A 
ATOM     42  C   UNL     1      -3.539  -7.390   4.155  1.00  0.00     0.002 A 
ATOM     43  C   UNL     1      -4.733  -6.082   5.811  1.00  0.00     0.091 A 
ATOM     44  F   UNL     1      -3.535  -5.172   7.663  1.00  0.00    -0.205 F 
ATOM     45  C   UNL     1      -4.722  -6.817   4.615  1.00  0.00     0.022 A 
BRANCH  43  46
ATOM     46  S   UNL     1      -6.317  -5.439   6.367  1.00  0.00     0.127 S 
ATOM     47  O   UNL     1      -6.467  -4.255   5.522  1.00  0.00    -0.237 OA
ATOM     48  O   UNL     1      -7.231  -6.535   6.045  1.00  0.00    -0.237 OA
ATOM     49  O   UNL     1      -6.161  -5.183   7.792  1.00  0.00    -0.744 OA
ENDBRANCH  43  46
ENDBRANCH  25  39
BRANCH  26  50
ATOM     50  C   UNL     1       6.017  -5.309  11.390  1.00  0.00     0.023 A 
ATOM     51  C   UNL     1       6.917  -6.389  11.477  1.00  0.00     0.012 A 
ATOM     52  C   UNL     1       6.355  -4.083  11.994  1.00  0.00     0.148 A 
ATOM     53  C   UNL     1       8.121  -6.256  12.169  1.00  0.00     0.002 A 
ATOM     54  C   UNL     1       7.582  -3.941  12.633  1.00  0.00     0.091 A 
ATOM     55  F   UNL     1       5.477  -3.072  11.919  1.00  0.00    -0.205 F 
ATOM     56  C   UNL     1       8.460  -5.030  12.734  1.00  0.00     0.022 A 
BRANCH  54  57
ATOM     57  S   UNL     1       8.151  -2.354  13.253  1.00  0.00     0.127 S 
ATOM     58  O   UNL     1       7.923  -2.494  14.688  1.00  0.00    -0.237 OA
ATOM     59  O   UNL     1       9.558  -2.352  12.850  1.00  0.00    -0.237 OA
ATOM     60  O   UNL     1       7.336  -1.358  12.569  1.00  0.00    -0.744 OA
ENDBRANCH  54  57
ENDBRANCH  26  50
BRANCH  38  61
ATOM     61  C   UNL     1       0.326  -9.266  12.179  1.00  0.00     0.023 A 
ATOM     62  C   UNL     1      -0.129  -8.774  13.418  1.00  0.00     0.012 A 
ATOM     63  C   UNL     1       0.316 -10.653  11.940  1.00  0.00     0.148 A 
ATOM     64  C   UNL     1      -0.559  -9.650  14.414  1.00  0.00     0.002 A 
ATOM     65  C   UNL     1      -0.153 -11.518  12.922  1.00  0.00     0.091 A 
ATOM     66  F   UNL     1       0.776 -11.106  10.764  1.00  0.00    -0.205 F 
ATOM     67  C   UNL     1      -0.582 -11.020  14.162  1.00  0.00     0.022 A 
BRANCH  65  68
ATOM     68  S   UNL     1      -0.296 -13.287  12.639  1.00  0.00     0.127 S 
ATOM     69  O   UNL     1       0.916 -13.791  13.280  1.00  0.00    -0.237 OA
ATOM     70  O   UNL     1      -1.538 -13.621  13.336  1.00  0.00    -0.237 OA
ATOM     71  O   UNL     1      -0.362 -13.447  11.192  1.00  0.00    -0.744 OA
ENDBRANCH  65  68
ENDBRANCH  38  61
ENDBRANCH  12  13
ENDBRANCH   5   7
ENDBRANCH   2   3
ENDBRANCH   1   2
BRANCH   1  72
ATOM     72  C   UNL     1       5.611  -2.467  -2.029  1.00  0.00     0.117 C 
BRANCH  72  73
ATOM     73  N   UNL     1       6.837  -3.170  -2.365  1.00  0.00    -0.356 N 
ATOM     74  C   UNL     1       7.026  -4.203  -3.236  1.00  0.00     0.226 C 
ATOM     75  H   UNL     1       7.646  -2.857  -1.900  1.00  0.00     0.163 HD
ATOM     76  O   UNL     1       8.124  -4.762  -3.249  1.00  0.00    -0.274 OA
BRANCH  74  77
ATOM     77  C   UNL     1       5.896  -4.594  -4.193  1.00  0.00     0.103 C 
ATOM     78  C   UNL     1       4.827  -5.418  -3.540  1.00  0.00    -0.016 C 
ATOM     79  C   UNL     1       6.396  -5.561  -5.279  1.00  0.00     0.042 C 
ATOM     80  C   UNL     1       4.912  -6.710  -3.876  1.00  0.00    -0.011 C 
ATOM     81  C   UNL     1       6.077  -6.977  -4.763  1.00  0.00     0.093 C 
BRANCH  81  82
ATOM     82  N   UNL     1       5.746  -7.820  -5.904  1.00  0.00    -0.204 NA
ATOM     83  H   UNL     1       6.537  -7.748  -6.545  1.00  0.00     0.142 HD
BRANCH  82  84
ATOM     84  S   UNL     1       5.413  -9.456  -5.764  1.00  0.00     0.244 S 
ATOM     85  O   UNL     1       4.597  -9.653  -4.591  1.00  0.00    -0.207 OA
ATOM     86  O   UNL     1       4.971  -9.843  -7.087  1.00  0.00    -0.207 OA
BRANCH  84  87
ATOM     87  C   UNL     1       6.950 -10.266  -5.496  1.00  0.00     0.121 A 
ATOM     88  C   UNL     1       8.178  -9.597  -5.489  1.00  0.00     0.028 A 
ATOM     89  C   UNL     1       6.892 -11.636  -5.245  1.00  0.00     0.181 A 
ATOM     90  C   UNL     1       9.344 -10.307  -5.188  1.00  0.00     0.044 A 
ATOM     91  C   UNL     1       8.054 -12.339  -4.961  1.00  0.00     0.195 A 
ATOM     92  F   UNL     1       5.725 -12.294  -5.284  1.00  0.00    -0.202 F 
ATOM     93  C   UNL     1       9.272 -11.674  -4.923  1.00  0.00     0.161 A 
ATOM     94  F   UNL     1       8.001 -13.658  -4.727  1.00  0.00    -0.200 F 
ATOM     95  F   UNL     1      10.397 -12.344  -4.638  1.00  0.00    -0.204 F 
ENDBRANCH  84  87
ENDBRANCH  82  84
ENDBRANCH  81  82
ENDBRANCH  74  77
ENDBRANCH  72  73
ENDBRANCH   1  72
TORSDOF 16
