REMARK SMILES CCC(CC)(NC(=O)Nc1cc(Cl)cc(Cl)c1)C(=O)NCCCNC(=O)c1ccc(-c2c3nc(c(-c4cccc(S(=O)(=O)[O-])c4F)c4ccc([nH]4)c(-c4cccc(S(=O)(=O)[O-])c4F)c4nc(c(-c5cccc(S(=O)(=O)[O-])c5F)c5ccc2[nH]5)C=C4)C=C3)cc1
REMARK SMILES IDX 22 1 21 2 20 3 18 4 19 5 3 7 2 8 1 9 4 10 5 11 6 12 7 13
REMARK SMILES IDX 8 15 9 16 10 18 11 19 17 20 12 21 15 22 13 23 14 24 16 25
REMARK SMILES IDX 23 26 24 27 25 28 26 30 27 31 28 32 89 33 29 34 88 35 30 36
REMARK SMILES IDX 31 37 32 38 82 39 33 40 87 41 81 42 83 43 34 44 86 45 80 46
REMARK SMILES IDX 79 47 35 49 67 50 47 51 66 52 48 53 51 54 65 55 84 56 49 57
REMARK SMILES IDX 50 58 64 60 85 61 52 62 36 63 37 64 45 65 38 66 40 67 46 68
REMARK SMILES IDX 39 69 41 70 42 71 43 72 44 73 68 74 69 75 77 76 70 77 72 78
REMARK SMILES IDX 78 79 71 80 73 81 74 82 75 83 76 84 53 85 54 86 62 87 55 88
REMARK SMILES IDX 57 89 63 90 56 91 58 92 59 93 60 94 61 95
REMARK H PARENT 20 6 6 14 9 17 24 29 83 48 51 59
REMARK Flexibility Score: inf
ROOT
ATOM      1  C   UNL     1       2.375   1.263   6.409  1.00  0.00     0.042 C 
ENDROOT
BRANCH   1   2
ATOM      2  C   UNL     1       1.797   2.055   5.223  1.00  0.00     0.117 C 
BRANCH   2   3
ATOM      3  N   UNL     1       2.390   1.650   3.954  1.00  0.00    -0.354 N 
ATOM      4  C   UNL     1       1.806   1.537   2.696  1.00  0.00     0.245 C 
ATOM      5  O   UNL     1       2.054   2.327   1.790  1.00  0.00    -0.272 OA
ATOM      6  H   UNL     1       3.347   1.422   3.994  1.00  0.00     0.163 HD
BRANCH   4   7
ATOM      7  C   UNL     1       0.740   0.412   2.576  1.00  0.00     0.120 C 
BRANCH   7   8
ATOM      8  C   UNL     1       0.579  -0.460   1.313  1.00  0.00     0.035 C 
ATOM      9  C   UNL     1       0.672   0.199  -0.044  1.00  0.00     0.007 C 
ENDBRANCH   7   8
BRANCH   7  10
ATOM     10  C   UNL     1      -0.531   1.337   2.771  1.00  0.00     0.035 C 
ATOM     11  C   UNL     1      -1.949   0.837   2.588  1.00  0.00     0.007 C 
ENDBRANCH   7  10
BRANCH   7  12
ATOM     12  N   UNL     1       1.044  -0.543   3.675  1.00  0.00    -0.323 N 
ATOM     13  C   UNL     1       2.091  -1.347   3.963  1.00  0.00     0.320 C 
ATOM     14  H   UNL     1       0.321  -0.603   4.341  1.00  0.00     0.166 HD
ATOM     15  O   UNL     1       1.889  -2.197   4.837  1.00  0.00    -0.248 OA
ATOM     16  N   UNL     1       3.353  -1.307   3.461  1.00  0.00    -0.308 N 
ATOM     17  H   UNL     1       3.958  -1.854   4.012  1.00  0.00     0.171 HD
BRANCH  16  18
ATOM     18  C   UNL     1       4.063  -0.718   2.385  1.00  0.00     0.045 A 
ATOM     19  C   UNL     1       4.565   0.589   2.370  1.00  0.00     0.046 A 
ATOM     20  C   UNL     1       4.552  -1.574   1.396  1.00  0.00     0.046 A 
ATOM     21  C   UNL     1       5.228   1.110   1.253  1.00  0.00     0.044 A 
ATOM     22  C   UNL     1       5.290  -1.073   0.314  1.00  0.00     0.044 A 
ATOM     23  Cl  UNL     1       5.641   2.782   1.199  1.00  0.00    -0.084 Cl
ATOM     24  C   UNL     1       5.571   0.283   0.200  1.00  0.00     0.041 A 
ATOM     25  Cl  UNL     1       5.877  -2.153  -0.889  1.00  0.00    -0.084 Cl
ENDBRANCH  16  18
ENDBRANCH   7  12
ENDBRANCH   4   7
ENDBRANCH   2   3
ENDBRANCH   1   2
BRANCH   1  26
ATOM     26  C   UNL     1       3.894   1.115   6.465  1.00  0.00     0.118 C 
BRANCH  26  27
ATOM     27  N   UNL     1       4.586   2.386   6.472  1.00  0.00    -0.352 N 
ATOM     28  C   UNL     1       5.440   2.914   7.411  1.00  0.00     0.251 C 
ATOM     29  H   UNL     1       4.421   2.958   5.688  1.00  0.00     0.163 HD
ATOM     30  O   UNL     1       5.796   4.081   7.312  1.00  0.00    -0.269 OA
BRANCH  28  31
ATOM     31  C   UNL     1       5.905   2.094   8.555  1.00  0.00     0.039 A 
ATOM     32  C   UNL     1       5.897   2.674   9.825  1.00  0.00     0.014 A 
ATOM     33  C   UNL     1       6.377   0.787   8.392  1.00  0.00     0.014 A 
ATOM     34  C   UNL     1       6.317   1.933  10.932  1.00  0.00     0.010 A 
ATOM     35  C   UNL     1       6.727   0.024   9.511  1.00  0.00     0.010 A 
ATOM     36  C   UNL     1       6.710   0.590  10.794  1.00  0.00    -0.014 A 
BRANCH  36  37
ATOM     37  C   UNL     1       7.065  -0.210  12.000  1.00  0.00     0.031 A 
ATOM     38  C   UNL     1       8.450  -0.772  12.191  1.00  0.00     0.074 A 
ATOM     39  C   UNL     1       6.119  -0.452  12.932  1.00  0.00     0.049 A 
ATOM     40  N   UNL     1       8.941  -1.417  13.219  1.00  0.00    -0.248 NA
ATOM     41  C   UNL     1       9.401  -0.610  11.080  1.00  0.00     0.031 C 
ATOM     42  C   UNL     1       4.715  -0.048  12.833  1.00  0.00     0.029 A 
ATOM     43  N   UNL     1       6.192  -1.099  14.141  1.00  0.00    -0.354 N 
ATOM     44  C   UNL     1      10.245  -1.756  12.875  1.00  0.00     0.074 A 
ATOM     45  C   UNL     1      10.456  -1.279  11.525  1.00  0.00     0.031 C 
ATOM     46  C   UNL     1       4.066  -0.431  13.944  1.00  0.00     0.029 A 
ATOM     47  C   UNL     1       4.997  -1.130  14.823  1.00  0.00     0.049 A 
ATOM     48  H   UNL     1       7.020  -1.503  14.487  1.00  0.00     0.167 HD
ATOM     49  C   UNL     1      11.191  -2.380  13.620  1.00  0.00     0.034 A 
ATOM     50  C   UNL     1       4.683  -1.655  16.024  1.00  0.00     0.034 A 
ATOM     51  C   UNL     1      10.990  -2.835  14.972  1.00  0.00     0.049 A 
ATOM     52  C   UNL     1       5.763  -2.299  16.850  1.00  0.00     0.074 A 
ATOM     53  C   UNL     1      11.911  -3.403  15.835  1.00  0.00     0.029 A 
ATOM     54  N   UNL     1       9.784  -2.789  15.654  1.00  0.00    -0.354 N 
ATOM     55  N   UNL     1       7.035  -2.455  16.572  1.00  0.00    -0.248 NA
ATOM     56  C   UNL     1       5.374  -2.797  18.177  1.00  0.00     0.031 C 
ATOM     57  C   UNL     1      11.255  -3.733  17.026  1.00  0.00     0.029 A 
ATOM     58  C   UNL     1       9.934  -3.329  16.922  1.00  0.00     0.049 A 
ATOM     59  H   UNL     1       8.944  -2.426  15.292  1.00  0.00     0.167 HD
ATOM     60  C   UNL     1       7.603  -3.036  17.700  1.00  0.00     0.074 A 
ATOM     61  C   UNL     1       6.542  -3.174  18.676  1.00  0.00     0.031 C 
ATOM     62  C   UNL     1       8.885  -3.430  17.904  1.00  0.00     0.034 A 
BRANCH  49  63
ATOM     63  C   UNL     1      12.556  -2.572  13.004  1.00  0.00     0.023 A 
ATOM     64  C   UNL     1      13.387  -1.454  12.787  1.00  0.00     0.012 A 
ATOM     65  C   UNL     1      13.043  -3.860  12.703  1.00  0.00     0.148 A 
ATOM     66  C   UNL     1      14.663  -1.608  12.246  1.00  0.00     0.002 A 
ATOM     67  C   UNL     1      14.335  -4.010  12.209  1.00  0.00     0.091 A 
ATOM     68  F   UNL     1      12.236  -4.912  12.900  1.00  0.00    -0.205 F 
ATOM     69  C   UNL     1      15.140  -2.885  11.968  1.00  0.00     0.022 A 
BRANCH  67  70
ATOM     70  S   UNL     1      15.075  -5.617  11.897  1.00  0.00     0.127 S 
ATOM     71  O   UNL     1      15.160  -5.624  10.437  1.00  0.00    -0.237 OA
ATOM     72  O   UNL     1      16.362  -5.500  12.582  1.00  0.00    -0.237 OA
ATOM     73  O   UNL     1      14.166  -6.598  12.473  1.00  0.00    -0.744 OA
ENDBRANCH  67  70
ENDBRANCH  49  63
BRANCH  50  74
ATOM     74  C   UNL     1       3.294  -1.533  16.551  1.00  0.00     0.023 A 
ATOM     75  C   UNL     1       3.038  -0.701  17.659  1.00  0.00     0.012 A 
ATOM     76  C   UNL     1       2.224  -2.225  15.951  1.00  0.00     0.148 A 
ATOM     77  C   UNL     1       1.749  -0.592  18.184  1.00  0.00     0.002 A 
ATOM     78  C   UNL     1       0.934  -2.064  16.440  1.00  0.00     0.091 A 
ATOM     79  F   UNL     1       2.490  -3.019  14.904  1.00  0.00    -0.205 F 
ATOM     80  C   UNL     1       0.697  -1.264  17.569  1.00  0.00     0.022 A 
BRANCH  78  81
ATOM     81  S   UNL     1      -0.499  -2.782  15.631  1.00  0.00     0.127 S 
ATOM     82  O   UNL     1      -0.915  -3.793  16.599  1.00  0.00    -0.237 OA
ATOM     83  O   UNL     1      -1.391  -1.627  15.521  1.00  0.00    -0.237 OA
ATOM     84  O   UNL     1      -0.017  -3.290  14.353  1.00  0.00    -0.744 OA
ENDBRANCH  78  81
ENDBRANCH  50  74
BRANCH  62  85
ATOM     85  C   UNL     1       9.225  -4.013  19.253  1.00  0.00     0.023 A 
ATOM     86  C   UNL     1       8.713  -5.272  19.631  1.00  0.00     0.012 A 
ATOM     87  C   UNL     1      10.078  -3.325  20.139  1.00  0.00     0.148 A 
ATOM     88  C   UNL     1       8.999  -5.809  20.886  1.00  0.00     0.002 A 
ATOM     89  C   UNL     1      10.404  -3.891  21.366  1.00  0.00     0.091 A 
ATOM     90  F   UNL     1      10.543  -2.121  19.775  1.00  0.00    -0.205 F 
ATOM     91  C   UNL     1       9.851  -5.124  21.749  1.00  0.00     0.022 A 
BRANCH  89  92
ATOM     92  S   UNL     1      11.571  -3.126  22.497  1.00  0.00     0.127 S 
ATOM     93  O   UNL     1      10.682  -2.600  23.531  1.00  0.00    -0.237 OA
ATOM     94  O   UNL     1      12.389  -4.264  22.917  1.00  0.00    -0.237 OA
ATOM     95  O   UNL     1      12.287  -2.126  21.716  1.00  0.00    -0.744 OA
ENDBRANCH  89  92
ENDBRANCH  62  85
ENDBRANCH  36  37
ENDBRANCH  28  31
ENDBRANCH  26  27
ENDBRANCH   1  26
TORSDOF 17
