REMARK SMILES CC[C@@H](Oc1ccccc1/C=C1/SC(=O)N(c2ccc(C)c(C)c2)C1=O)C(=O)NCCCNC(=O)c1ccc(-c2c3nc(c(-c4cccc(S(=O)(=O)[O-])c4F)c4ccc([nH]4)c(-c4cccc(S(=O)(=O)[O-])c4F)c4nc(c(-c5cccc(S(=O)(=O)[O-])c5F)c5ccc2[nH]5)C=C4)C=C3)cc1
REMARK SMILES IDX 30 1 29 2 27 3 28 4 3 6 2 7 1 8 4 9 5 10 6 11 10 12 7 13
REMARK SMILES IDX 9 14 8 15 11 16 12 17 13 18 25 19 14 20 16 21 26 22 15 23
REMARK SMILES IDX 17 24 18 25 24 26 19 27 22 28 20 29 23 30 21 31 31 32 32 33
REMARK SMILES IDX 33 34 34 35 35 37 36 38 37 39 98 40 38 41 97 42 39 43 40 44
REMARK SMILES IDX 41 45 91 46 42 47 96 48 90 49 92 50 43 51 95 52 89 53 88 54
REMARK SMILES IDX 44 56 76 57 56 58 75 59 57 60 60 61 74 62 93 63 58 64 59 65
REMARK SMILES IDX 73 67 94 68 61 69 45 70 46 71 54 72 47 73 49 74 55 75 48 76
REMARK SMILES IDX 50 77 51 78 52 79 53 80 77 81 78 82 86 83 79 84 81 85 87 86
REMARK SMILES IDX 80 87 82 88 83 89 84 90 85 91 62 92 63 93 71 94 64 95 66 96
REMARK SMILES IDX 72 97 65 98 67 99 68 100 69 101 70 102
REMARK H PARENT 29 5 33 36 92 55 60 66
REMARK Flexibility Score: inf
ROOT
ATOM      1  C   UNL     1      -1.691   3.108   1.828  1.00  0.00     0.118 C 
ENDROOT
BRANCH   1   2
ATOM      2  N   UNL     1      -0.426   3.641   2.305  1.00  0.00    -0.353 N 
ATOM      3  C   UNL     1       0.853   3.405   1.888  1.00  0.00     0.261 C 
ATOM      4  O   UNL     1       1.747   4.089   2.400  1.00  0.00    -0.271 OA
ATOM      5  H   UNL     1      -0.504   4.277   3.052  1.00  0.00     0.163 HD
BRANCH   3   6
ATOM      6  C   UNL     1       1.212   2.272   0.901  1.00  0.00     0.261 C 
BRANCH   6   7
ATOM      7  C   UNL     1       1.197   0.939   1.669  1.00  0.00     0.052 C 
ATOM      8  C   UNL     1       2.309  -0.004   1.223  1.00  0.00     0.008 C 
ENDBRANCH   6   7
BRANCH   6   9
ATOM      9  O   UNL     1       0.291   2.224  -0.190  1.00  0.00    -0.480 OA
BRANCH   9  10
ATOM     10  C   UNL     1       0.838   1.910  -1.405  1.00  0.00     0.127 A 
ATOM     11  C   UNL     1       1.499   2.903  -2.129  1.00  0.00     0.047 A 
ATOM     12  C   UNL     1       0.589   0.646  -1.977  1.00  0.00     0.018 A 
ATOM     13  C   UNL     1       1.957   2.627  -3.417  1.00  0.00     0.004 A 
ATOM     14  C   UNL     1       1.072   0.376  -3.260  1.00  0.00     0.012 A 
ATOM     15  C   UNL     1       1.751   1.365  -3.978  1.00  0.00     0.001 A 
BRANCH  12  16
ATOM     16  C   UNL     1      -0.151  -0.390  -1.242  1.00  0.00     0.033 C 
ATOM     17  C   UNL     1      -1.458  -0.328  -0.951  1.00  0.00     0.084 C 
ATOM     18  S   UNL     1      -2.215  -1.336   0.224  1.00  0.00    -0.022 SA
ATOM     19  C   UNL     1      -2.437   0.666  -1.469  1.00  0.00     0.272 C 
ATOM     20  C   UNL     1      -3.639  -0.301   0.304  1.00  0.00     0.298 C 
ATOM     21  N   UNL     1      -3.595   0.618  -0.711  1.00  0.00    -0.236 N 
ATOM     22  O   UNL     1      -2.211   1.405  -2.418  1.00  0.00    -0.268 OA
ATOM     23  O   UNL     1      -4.490  -0.440   1.176  1.00  0.00    -0.260 OA
BRANCH  21  24
ATOM     24  C   UNL     1      -4.653   1.517  -0.981  1.00  0.00     0.053 A 
ATOM     25  C   UNL     1      -5.170   1.587  -2.276  1.00  0.00     0.027 A 
ATOM     26  C   UNL     1      -5.111   2.413  -0.013  1.00  0.00     0.030 A 
ATOM     27  C   UNL     1      -6.152   2.521  -2.592  1.00  0.00     0.006 A 
ATOM     28  C   UNL     1      -6.008   3.442  -0.360  1.00  0.00    -0.046 A 
ATOM     29  C   UNL     1      -6.588   3.452  -1.641  1.00  0.00    -0.048 A 
ATOM     30  C   UNL     1      -6.299   4.515   0.652  1.00  0.00     0.044 C 
ATOM     31  C   UNL     1      -7.607   4.473  -2.062  1.00  0.00     0.044 C 
ENDBRANCH  21  24
ENDBRANCH  12  16
ENDBRANCH   9  10
ENDBRANCH   6   9
ENDBRANCH   3   6
ENDBRANCH   1   2
BRANCH   1  32
ATOM     32  C   UNL     1      -2.292   2.066   2.762  1.00  0.00     0.042 C 
BRANCH  32  33
ATOM     33  C   UNL     1      -2.903   2.620   4.043  1.00  0.00     0.118 C 
BRANCH  33  34
ATOM     34  N   UNL     1      -3.934   3.624   3.816  1.00  0.00    -0.352 N 
ATOM     35  C   UNL     1      -5.293   3.609   3.998  1.00  0.00     0.251 C 
ATOM     36  H   UNL     1      -3.588   4.476   3.464  1.00  0.00     0.163 HD
ATOM     37  O   UNL     1      -5.936   4.616   3.705  1.00  0.00    -0.269 OA
BRANCH  35  38
ATOM     38  C   UNL     1      -6.014   2.440   4.542  1.00  0.00     0.039 A 
ATOM     39  C   UNL     1      -7.273   2.120   4.012  1.00  0.00     0.014 A 
ATOM     40  C   UNL     1      -5.547   1.767   5.670  1.00  0.00     0.014 A 
ATOM     41  C   UNL     1      -8.070   1.150   4.628  1.00  0.00     0.010 A 
ATOM     42  C   UNL     1      -6.304   0.746   6.234  1.00  0.00     0.010 A 
ATOM     43  C   UNL     1      -7.597   0.474   5.759  1.00  0.00    -0.014 A 
BRANCH  43  44
ATOM     44  C   UNL     1      -8.476  -0.398   6.577  1.00  0.00     0.031 A 
ATOM     45  C   UNL     1      -8.821   0.039   7.979  1.00  0.00     0.074 A 
ATOM     46  C   UNL     1      -8.882  -1.593   6.115  1.00  0.00     0.049 A 
ATOM     47  N   UNL     1      -9.410  -0.626   8.937  1.00  0.00    -0.248 NA
ATOM     48  C   UNL     1      -8.403   1.399   8.365  1.00  0.00     0.031 C 
ATOM     49  C   UNL     1      -8.574  -2.141   4.795  1.00  0.00     0.029 A 
ATOM     50  N   UNL     1      -9.607  -2.583   6.730  1.00  0.00    -0.354 N 
ATOM     51  C   UNL     1      -9.377   0.206  10.051  1.00  0.00     0.074 A 
ATOM     52  C   UNL     1      -8.681   1.412   9.659  1.00  0.00     0.031 C 
ATOM     53  C   UNL     1      -9.084  -3.381   4.707  1.00  0.00     0.029 A 
ATOM     54  C   UNL     1      -9.729  -3.723   5.971  1.00  0.00     0.049 A 
ATOM     55  H   UNL     1     -10.001  -2.486   7.627  1.00  0.00     0.167 HD
ATOM     56  C   UNL     1      -9.905   0.001  11.282  1.00  0.00     0.034 A 
ATOM     57  C   UNL     1     -10.284  -4.913   6.274  1.00  0.00     0.034 A 
ATOM     58  C   UNL     1     -10.652  -1.173  11.639  1.00  0.00     0.049 A 
ATOM     59  C   UNL     1     -10.934  -5.091   7.620  1.00  0.00     0.074 A 
ATOM     60  C   UNL     1     -11.289  -1.463  12.832  1.00  0.00     0.029 A 
ATOM     61  N   UNL     1     -10.875  -2.250  10.794  1.00  0.00    -0.354 N 
ATOM     62  N   UNL     1     -10.986  -4.255   8.630  1.00  0.00    -0.248 NA
ATOM     63  C   UNL     1     -11.644  -6.357   7.854  1.00  0.00     0.031 C 
ATOM     64  C   UNL     1     -11.894  -2.719  12.709  1.00  0.00     0.029 A 
ATOM     65  C   UNL     1     -11.653  -3.200  11.431  1.00  0.00     0.049 A 
ATOM     66  H   UNL     1     -10.531  -2.327   9.875  1.00  0.00     0.167 HD
ATOM     67  C   UNL     1     -11.767  -4.873   9.600  1.00  0.00     0.074 A 
ATOM     68  C   UNL     1     -12.180  -6.148   9.049  1.00  0.00     0.031 C 
ATOM     69  C   UNL     1     -12.103  -4.434  10.839  1.00  0.00     0.034 A 
BRANCH  56  70
ATOM     70  C   UNL     1      -9.736   1.097  12.306  1.00  0.00     0.023 A 
ATOM     71  C   UNL     1     -10.421   2.319  12.137  1.00  0.00     0.012 A 
ATOM     72  C   UNL     1      -8.926   0.915  13.444  1.00  0.00     0.148 A 
ATOM     73  C   UNL     1     -10.264   3.357  13.054  1.00  0.00     0.002 A 
ATOM     74  C   UNL     1      -8.814   1.937  14.381  1.00  0.00     0.091 A 
ATOM     75  F   UNL     1      -8.264  -0.243  13.581  1.00  0.00    -0.205 F 
ATOM     76  C   UNL     1      -9.469   3.163  14.180  1.00  0.00     0.022 A 
BRANCH  74  77
ATOM     77  S   UNL     1      -7.881   1.756  15.906  1.00  0.00     0.127 S 
ATOM     78  O   UNL     1      -6.716   2.598  15.642  1.00  0.00    -0.237 OA
ATOM     79  O   UNL     1      -8.809   2.296  16.901  1.00  0.00    -0.237 OA
ATOM     80  O   UNL     1      -7.609   0.332  16.042  1.00  0.00    -0.744 OA
ENDBRANCH  74  77
ENDBRANCH  56  70
BRANCH  57  81
ATOM     81  C   UNL     1     -10.311  -5.995   5.250  1.00  0.00     0.023 A 
ATOM     82  C   UNL     1     -11.531  -6.327   4.628  1.00  0.00     0.012 A 
ATOM     83  C   UNL     1      -9.135  -6.659   4.851  1.00  0.00     0.148 A 
ATOM     84  C   UNL     1     -11.585  -7.319   3.649  1.00  0.00     0.002 A 
ATOM     85  C   UNL     1      -9.186  -7.609   3.836  1.00  0.00     0.091 A 
ATOM     86  F   UNL     1      -7.986  -6.337   5.461  1.00  0.00    -0.205 F 
ATOM     87  C   UNL     1     -10.412  -7.951   3.245  1.00  0.00     0.022 A 
BRANCH  85  88
ATOM     88  S   UNL     1      -7.712  -8.381   3.159  1.00  0.00     0.127 S 
ATOM     89  O   UNL     1      -7.847  -9.755   3.637  1.00  0.00    -0.237 OA
ATOM     90  O   UNL     1      -7.913  -8.207   1.720  1.00  0.00    -0.237 OA
ATOM     91  O   UNL     1      -6.588  -7.630   3.703  1.00  0.00    -0.744 OA
ENDBRANCH  85  88
ENDBRANCH  57  81
BRANCH  69  92
ATOM     92  C   UNL     1     -13.005  -5.310  11.668  1.00  0.00     0.023 A 
ATOM     93  C   UNL     1     -12.506  -6.498  12.236  1.00  0.00     0.012 A 
ATOM     94  C   UNL     1     -14.331  -4.917  11.938  1.00  0.00     0.148 A 
ATOM     95  C   UNL     1     -13.324  -7.300  13.031  1.00  0.00     0.002 A 
ATOM     96  C   UNL     1     -15.125  -5.696  12.770  1.00  0.00     0.091 A 
ATOM     97  F   UNL     1     -14.795  -3.793  11.371  1.00  0.00    -0.205 F 
ATOM     98  C   UNL     1     -14.628  -6.894  13.307  1.00  0.00     0.022 A 
BRANCH  96  99
ATOM     99  S   UNL     1     -16.781  -5.194  13.254  1.00  0.00     0.127 S 
ATOM    100  O   UNL     1     -17.611  -6.043  12.401  1.00  0.00    -0.237 OA
ATOM    101  O   UNL     1     -16.811  -5.542  14.675  1.00  0.00    -0.237 OA
ATOM    102  O   UNL     1     -16.856  -3.764  12.985  1.00  0.00    -0.744 OA
ENDBRANCH  96  99
ENDBRANCH  69  92
ENDBRANCH  43  44
ENDBRANCH  35  38
ENDBRANCH  33  34
ENDBRANCH  32  33
ENDBRANCH   1  32
TORSDOF 18
