REMARK SMILES Cc1oc(C)c(S(=O)(=O)Nn2c(C)ccc2C)c1C(=O)NCCCNC(=O)c1ccc(-c2c3nc(c(-c4cccc(S(=O)(=O)[O-])c4F)c4ccc([nH]4)c(-c4cccc(S(=O)(=O)[O-])c4F)c4nc(c(-c5cccc(S(=O)(=O)[O-])c5F)c5ccc2[nH]5)C=C4)C=C3)cc1
REMARK SMILES IDX 23 1 22 2 21 3 19 4 20 5 18 7 1 8 2 9 3 10 4 11 6 12 5 13
REMARK SMILES IDX 7 14 8 15 9 16 10 17 11 19 12 20 16 21 13 22 14 23 15 24
REMARK SMILES IDX 17 25 24 26 25 27 26 28 27 30 28 31 29 32 90 33 30 34 89 35
REMARK SMILES IDX 31 36 32 37 33 38 83 39 34 40 88 41 82 42 84 43 35 44 87 45
REMARK SMILES IDX 81 46 80 47 36 49 68 50 48 51 67 52 49 53 52 54 66 55 85 56
REMARK SMILES IDX 50 57 51 58 65 60 86 61 53 62 37 63 38 64 46 65 39 66 41 67
REMARK SMILES IDX 47 68 40 69 42 70 43 71 44 72 45 73 69 74 70 75 78 76 71 77
REMARK SMILES IDX 73 78 79 79 72 80 74 81 75 82 76 83 77 84 54 85 55 86 63 87
REMARK SMILES IDX 56 88 58 89 64 90 57 91 59 92 60 93 61 94 62 95
REMARK H PARENT 21 6 10 18 25 29 84 48 52 59
REMARK Flexibility Score: inf
ROOT
ATOM      1  C   UNL     1       4.471   1.448  -1.935  1.00  0.00     0.042 C 
ENDROOT
BRANCH   1   2
ATOM      2  C   UNL     1       4.043   1.021  -0.509  1.00  0.00     0.118 C 
BRANCH   2   3
ATOM      3  N   UNL     1       3.188   1.903   0.280  1.00  0.00    -0.352 N 
ATOM      4  C   UNL     1       1.944   1.776   0.867  1.00  0.00     0.256 C 
ATOM      5  O   UNL     1       1.655   2.573   1.760  1.00  0.00    -0.269 OA
ATOM      6  H   UNL     1       3.590   2.789   0.429  1.00  0.00     0.163 HD
BRANCH   4   7
ATOM      7  C   UNL     1       0.947   0.799   0.462  1.00  0.00     0.101 A 
ATOM      8  C   UNL     1       2.140  -1.565   0.710  1.00  0.00     0.088 C 
ATOM      9  C   UNL     1       1.068  -0.586   0.432  1.00  0.00     0.115 A 
ATOM     10  O   UNL     1      -0.129  -1.175   0.163  1.00  0.00    -0.464 OA
ATOM     11  C   UNL     1      -1.062  -0.197   0.086  1.00  0.00     0.122 A 
ATOM     12  C   UNL     1      -0.462   1.040   0.240  1.00  0.00     0.143 A 
ATOM     13  C   UNL     1      -2.461  -0.657  -0.084  1.00  0.00     0.089 C 
BRANCH  12  14
ATOM     14  S   UNL     1      -1.413   2.474   0.229  1.00  0.00     0.279 S 
ATOM     15  O   UNL     1      -2.161   2.383  -1.012  1.00  0.00    -0.200 OA
ATOM     16  O   UNL     1      -2.122   2.379   1.490  1.00  0.00    -0.200 OA
BRANCH  14  17
ATOM     17  N   UNL     1      -0.695   3.943   0.278  1.00  0.00    -0.216 N 
ATOM     18  H   UNL     1      -1.188   4.640   0.768  1.00  0.00     0.202 HD
BRANCH  17  19
ATOM     19  N   UNL     1       0.510   4.341  -0.274  1.00  0.00    -0.256 N 
ATOM     20  C   UNL     1       1.122   3.959  -1.444  1.00  0.00     0.038 A 
ATOM     21  C   UNL     1       1.265   5.307   0.364  1.00  0.00     0.038 A 
ATOM     22  C   UNL     1       0.599   3.042  -2.489  1.00  0.00     0.067 C 
ATOM     23  C   UNL     1       2.310   4.670  -1.511  1.00  0.00     0.025 A 
ATOM     24  C   UNL     1       2.430   5.462  -0.355  1.00  0.00     0.025 A 
ATOM     25  C   UNL     1       0.889   5.976   1.641  1.00  0.00     0.067 C 
ENDBRANCH  17  19
ENDBRANCH  14  17
ENDBRANCH  12  14
ENDBRANCH   4   7
ENDBRANCH   2   3
ENDBRANCH   1   2
BRANCH   1  26
ATOM     26  C   UNL     1       5.072   2.848  -2.197  1.00  0.00     0.118 C 
BRANCH  26  27
ATOM     27  N   UNL     1       6.501   2.869  -2.457  1.00  0.00    -0.352 N 
ATOM     28  C   UNL     1       7.266   3.399  -3.487  1.00  0.00     0.251 C 
ATOM     29  H   UNL     1       7.034   2.415  -1.764  1.00  0.00     0.163 HD
ATOM     30  O   UNL     1       8.485   3.237  -3.357  1.00  0.00    -0.269 OA
BRANCH  28  31
ATOM     31  C   UNL     1       6.739   3.969  -4.792  1.00  0.00     0.039 A 
ATOM     32  C   UNL     1       7.110   3.274  -5.935  1.00  0.00     0.014 A 
ATOM     33  C   UNL     1       6.174   5.239  -5.024  1.00  0.00     0.014 A 
ATOM     34  C   UNL     1       6.864   3.793  -7.240  1.00  0.00     0.010 A 
ATOM     35  C   UNL     1       6.020   5.813  -6.376  1.00  0.00     0.010 A 
ATOM     36  C   UNL     1       6.383   5.119  -7.546  1.00  0.00    -0.014 A 
BRANCH  36  37
ATOM     37  C   UNL     1       6.807   5.691  -9.012  1.00  0.00     0.031 A 
ATOM     38  C   UNL     1       8.191   5.163  -9.172  1.00  0.00     0.074 A 
ATOM     39  C   UNL     1       6.463   6.540 -10.071  1.00  0.00     0.049 A 
ATOM     40  N   UNL     1       9.062   5.353  -8.222  1.00  0.00    -0.248 NA
ATOM     41  C   UNL     1       8.561   4.108 -10.119  1.00  0.00     0.031 C 
ATOM     42  C   UNL     1       5.323   7.463 -10.186  1.00  0.00     0.029 A 
ATOM     43  N   UNL     1       7.083   6.780 -11.350  1.00  0.00    -0.354 N 
ATOM     44  C   UNL     1      10.216   4.779  -8.652  1.00  0.00     0.074 A 
ATOM     45  C   UNL     1       9.780   3.815  -9.650  1.00  0.00     0.031 C 
ATOM     46  C   UNL     1       5.239   8.020 -11.433  1.00  0.00     0.029 A 
ATOM     47  C   UNL     1       6.342   7.585 -12.291  1.00  0.00     0.049 A 
ATOM     48  H   UNL     1       7.969   6.412 -11.572  1.00  0.00     0.167 HD
ATOM     49  C   UNL     1      11.313   5.587  -8.623  1.00  0.00     0.034 A 
ATOM     50  C   UNL     1       6.619   7.953 -13.608  1.00  0.00     0.034 A 
ATOM     51  C   UNL     1      11.808   5.880  -9.935  1.00  0.00     0.049 A 
ATOM     52  C   UNL     1       8.083   7.894 -13.753  1.00  0.00     0.074 A 
ATOM     53  C   UNL     1      11.974   5.116 -11.075  1.00  0.00     0.029 A 
ATOM     54  N   UNL     1      11.729   7.194 -10.345  1.00  0.00    -0.354 N 
ATOM     55  N   UNL     1       8.824   8.878 -13.338  1.00  0.00    -0.248 NA
ATOM     56  C   UNL     1       8.782   6.880 -14.534  1.00  0.00     0.031 C 
ATOM     57  C   UNL     1      11.478   5.919 -12.127  1.00  0.00     0.029 A 
ATOM     58  C   UNL     1      11.357   7.227 -11.677  1.00  0.00     0.049 A 
ATOM     59  H   UNL     1      11.909   7.980  -9.781  1.00  0.00     0.167 HD
ATOM     60  C   UNL     1      10.078   8.357 -13.344  1.00  0.00     0.074 A 
ATOM     61  C   UNL     1      10.036   7.292 -14.327  1.00  0.00     0.031 C 
ATOM     62  C   UNL     1      10.769   8.447 -12.182  1.00  0.00     0.034 A 
BRANCH  49  63
ATOM     63  C   UNL     1      11.349   6.506  -7.417  1.00  0.00     0.023 A 
ATOM     64  C   UNL     1      12.196   6.132  -6.360  1.00  0.00     0.012 A 
ATOM     65  C   UNL     1      10.376   7.517  -7.186  1.00  0.00     0.148 A 
ATOM     66  C   UNL     1      12.037   6.694  -5.090  1.00  0.00     0.002 A 
ATOM     67  C   UNL     1      10.145   7.981  -5.894  1.00  0.00     0.091 A 
ATOM     68  F   UNL     1       9.648   7.962  -8.224  1.00  0.00    -0.205 F 
ATOM     69  C   UNL     1      10.988   7.582  -4.848  1.00  0.00     0.022 A 
BRANCH  67  70
ATOM     70  S   UNL     1       8.641   8.874  -5.442  1.00  0.00     0.127 S 
ATOM     71  O   UNL     1       8.212   8.185  -4.219  1.00  0.00    -0.237 OA
ATOM     72  O   UNL     1       9.126  10.232  -5.218  1.00  0.00    -0.237 OA
ATOM     73  O   UNL     1       7.710   8.712  -6.553  1.00  0.00    -0.744 OA
ENDBRANCH  67  70
ENDBRANCH  49  63
BRANCH  50  74
ATOM     74  C   UNL     1       6.068   8.644 -14.906  1.00  0.00     0.023 A 
ATOM     75  C   UNL     1       6.944   9.553 -15.605  1.00  0.00     0.012 A 
ATOM     76  C   UNL     1       5.012   8.135 -15.693  1.00  0.00     0.148 A 
ATOM     77  C   UNL     1       6.886   9.810 -16.986  1.00  0.00     0.002 A 
ATOM     78  C   UNL     1       4.924   8.442 -17.081  1.00  0.00     0.091 A 
ATOM     79  F   UNL     1       4.158   7.271 -15.130  1.00  0.00    -0.205 F 
ATOM     80  C   UNL     1       5.879   9.240 -17.730  1.00  0.00     0.022 A 
BRANCH  78  81
ATOM     81  S   UNL     1       3.635   7.788 -18.167  1.00  0.00     0.127 S 
ATOM     82  O   UNL     1       3.381   8.906 -19.080  1.00  0.00    -0.237 OA
ATOM     83  O   UNL     1       4.309   6.648 -18.785  1.00  0.00    -0.237 OA
ATOM     84  O   UNL     1       2.521   7.473 -17.285  1.00  0.00    -0.744 OA
ENDBRANCH  78  81
ENDBRANCH  50  74
BRANCH  62  85
ATOM     85  C   UNL     1      10.630   9.730 -11.370  1.00  0.00     0.023 A 
ATOM     86  C   UNL     1       9.410  10.398 -11.101  1.00  0.00     0.012 A 
ATOM     87  C   UNL     1      11.799  10.309 -10.852  1.00  0.00     0.148 A 
ATOM     88  C   UNL     1       9.365  11.608 -10.398  1.00  0.00     0.002 A 
ATOM     89  C   UNL     1      11.748  11.477 -10.094  1.00  0.00     0.091 A 
ATOM     90  F   UNL     1      12.971   9.712 -11.120  1.00  0.00    -0.205 F 
ATOM     91  C   UNL     1      10.536  12.141  -9.878  1.00  0.00     0.022 A 
BRANCH  89  92
ATOM     92  S   UNL     1      13.244  12.115  -9.345  1.00  0.00     0.127 S 
ATOM     93  O   UNL     1      13.761  12.989 -10.396  1.00  0.00    -0.237 OA
ATOM     94  O   UNL     1      12.763  12.816  -8.157  1.00  0.00    -0.237 OA
ATOM     95  O   UNL     1      14.048  10.930  -9.058  1.00  0.00    -0.744 OA
ENDBRANCH  89  92
ENDBRANCH  62  85
ENDBRANCH  36  37
ENDBRANCH  28  31
ENDBRANCH  26  27
ENDBRANCH   1  26
TORSDOF 16
