REMARK SMILES O=C(CCC(=O)/[NH+]=C1\S[C@H]2CS(=O)(=O)C[C@@H]2N1c1ccc(Oc2ccccc2)cc1)NCCCNC(=O)c1ccc(-c2c3nc(c(-c4cccc(S(=O)(=O)[O-])c4F)c4ccc([nH]4)c(-c4cccc(S(=O)(=O)[O-])c4F)c4nc(c(-c5cccc(S(=O)(=O)[O-])c5F)c5ccc2[nH]5)C=C4)C=C3)cc1
REMARK SMILES IDX 32 1 31 2 2 3 1 4 3 6 4 7 5 8 6 9 7 10 8 11 9 13 17 14 10 15
REMARK SMILES IDX 16 16 11 17 15 18 12 19 13 20 14 21 18 22 19 23 30 24 20 25
REMARK SMILES IDX 29 26 21 27 22 28 23 29 24 30 28 31 25 32 27 33 26 34 33 35
REMARK SMILES IDX 34 36 35 37 36 38 37 40 38 41 39 42 100 43 40 44 99 45 41 46
REMARK SMILES IDX 42 47 43 48 93 49 44 50 98 51 92 52 94 53 45 54 97 55 91 56
REMARK SMILES IDX 90 57 46 59 78 60 58 61 77 62 59 63 62 64 76 65 95 66 60 67
REMARK SMILES IDX 61 68 75 70 96 71 63 72 47 73 48 74 56 75 49 76 51 77 57 78
REMARK SMILES IDX 50 79 52 80 53 81 54 82 55 83 79 84 80 85 88 86 81 87 83 88
REMARK SMILES IDX 89 89 82 90 84 91 85 92 86 93 87 94 64 95 65 96 73 97 66 98
REMARK SMILES IDX 68 99 74 100 67 101 69 102 70 103 71 104 72 105
REMARK H PARENT 31 5 7 12 35 39 94 58 62 69
REMARK Flexibility Score: inf
ROOT
ATOM      1  C   UNL     1       2.296  -0.760  -2.622  1.00  0.00     0.117 C 
ENDROOT
BRANCH   1   2
ATOM      2  N   UNL     1       3.721  -0.844  -2.348  1.00  0.00    -0.356 N 
ATOM      3  C   UNL     1       4.384  -1.391  -1.296  1.00  0.00     0.220 C 
ATOM      4  O   UNL     1       5.613  -1.481  -1.348  1.00  0.00    -0.275 OA
ATOM      5  H   UNL     1       4.299  -0.439  -3.035  1.00  0.00     0.163 HD
BRANCH   3   6
ATOM      6  C   UNL     1       3.628  -1.865  -0.085  1.00  0.00     0.112 C 
BRANCH   6   7
ATOM      7  C   UNL     1       3.301  -0.840   0.995  1.00  0.00     0.138 C 
BRANCH   7   8
ATOM      8  C   UNL     1       3.186   0.662   0.713  1.00  0.00     0.308 C 
ATOM      9  O   UNL     1       2.326   1.298   1.319  1.00  0.00    -0.247 OA
ATOM     10  N   UNL     1       3.970   1.264  -0.238  1.00  0.00    -0.204 N 
ATOM     11  C   UNL     1       5.255   1.321  -0.146  1.00  0.00     0.319 C 
ATOM     12  H   UNL     1       3.535   1.668  -1.022  1.00  0.00     0.316 HD
ATOM     13  S   UNL     1       6.189   0.630   1.217  1.00  0.00    -0.029 SA
ATOM     14  N   UNL     1       6.137   1.798  -1.116  1.00  0.00    -0.217 N 
ATOM     15  C   UNL     1       7.738   1.163   0.480  1.00  0.00     0.120 C 
ATOM     16  C   UNL     1       7.456   1.202  -1.023  1.00  0.00     0.212 C 
ATOM     17  C   UNL     1       8.974   0.313   0.590  1.00  0.00     0.156 C 
ATOM     18  C   UNL     1       8.678   1.885  -1.597  1.00  0.00     0.188 C 
ATOM     19  S   UNL     1      10.000   1.061  -0.690  1.00  0.00     0.155 S 
ATOM     20  O   UNL     1      10.831   2.070  -0.069  1.00  0.00    -0.229 OA
ATOM     21  O   UNL     1      10.546   0.006  -1.516  1.00  0.00    -0.229 OA
BRANCH  14  22
ATOM     22  C   UNL     1       5.931   2.843  -2.014  1.00  0.00     0.128 A 
ATOM     23  C   UNL     1       6.160   2.703  -3.392  1.00  0.00     0.056 A 
ATOM     24  C   UNL     1       5.603   4.110  -1.534  1.00  0.00     0.056 A 
ATOM     25  C   UNL     1       6.028   3.797  -4.262  1.00  0.00     0.051 A 
ATOM     26  C   UNL     1       5.516   5.207  -2.396  1.00  0.00     0.051 A 
ATOM     27  C   UNL     1       5.671   5.057  -3.771  1.00  0.00     0.127 A 
BRANCH  27  28
ATOM     28  O   UNL     1       5.453   6.022  -4.723  1.00  0.00    -0.457 OA
BRANCH  28  29
ATOM     29  C   UNL     1       4.583   7.086  -4.473  1.00  0.00     0.127 A 
ATOM     30  C   UNL     1       3.503   7.465  -5.846  1.00  0.00     0.047 A 
ATOM     31  C   UNL     1       4.959   8.248  -3.199  1.00  0.00     0.047 A 
ATOM     32  C   UNL     1       2.747   9.055  -6.076  1.00  0.00     0.004 A 
ATOM     33  C   UNL     1       4.361   9.940  -3.310  1.00  0.00     0.004 A 
ATOM     34  C   UNL     1       3.142  10.419  -4.963  1.00  0.00     0.000 A 
ENDBRANCH  28  29
ENDBRANCH  27  28
ENDBRANCH  14  22
ENDBRANCH   7   8
ENDBRANCH   6   7
ENDBRANCH   3   6
ENDBRANCH   1   2
BRANCH   1  35
ATOM     35  C   UNL     1       1.671   0.612  -2.424  1.00  0.00     0.042 C 
BRANCH  35  36
ATOM     36  C   UNL     1       2.453   1.772  -3.006  1.00  0.00     0.118 C 
BRANCH  36  37
ATOM     37  N   UNL     1       2.326   1.892  -4.448  1.00  0.00    -0.352 N 
ATOM     38  C   UNL     1       1.905   2.957  -5.210  1.00  0.00     0.251 C 
ATOM     39  H   UNL     1       2.580   1.089  -4.958  1.00  0.00     0.163 HD
ATOM     40  O   UNL     1       1.737   2.787  -6.417  1.00  0.00    -0.269 OA
BRANCH  38  41
ATOM     41  C   UNL     1       1.687   4.302  -4.621  1.00  0.00     0.039 A 
ATOM     42  C   UNL     1       0.791   5.188  -5.223  1.00  0.00     0.014 A 
ATOM     43  C   UNL     1       2.444   4.748  -3.540  1.00  0.00     0.014 A 
ATOM     44  C   UNL     1       0.738   6.516  -4.790  1.00  0.00     0.010 A 
ATOM     45  C   UNL     1       2.323   6.033  -3.039  1.00  0.00     0.010 A 
ATOM     46  C   UNL     1       1.569   6.956  -3.741  1.00  0.00    -0.014 A 
BRANCH  46  47
ATOM     47  C   UNL     1       1.622   8.362  -3.318  1.00  0.00     0.031 A 
ATOM     48  C   UNL     1       2.796   9.324  -3.685  1.00  0.00     0.074 A 
ATOM     49  C   UNL     1       0.549   8.759  -2.583  1.00  0.00     0.049 A 
ATOM     50  N   UNL     1       2.658  10.914  -3.122  1.00  0.00    -0.248 NA
ATOM     51  C   UNL     1       4.590   9.393  -4.984  1.00  0.00     0.031 C 
ATOM     52  C   UNL     1      -0.528   7.842  -2.164  1.00  0.00     0.029 A 
ATOM     53  N   UNL     1       0.148   9.971  -2.055  1.00  0.00    -0.354 N 
ATOM     54  C   UNL     1       3.989  11.929  -3.799  1.00  0.00     0.074 A 
ATOM     55  C   UNL     1       5.109  10.902  -4.905  1.00  0.00     0.031 C 
ATOM     56  C   UNL     1      -1.458   8.514  -1.477  1.00  0.00     0.029 A 
ATOM     57  C   UNL     1      -1.055   9.911  -1.368  1.00  0.00     0.049 A 
ATOM     58  H   UNL     1       0.668  10.801  -2.157  1.00  0.00     0.167 HD
ATOM     59  C   UNL     1       4.224  13.255  -3.714  1.00  0.00     0.034 A 
ATOM     60  C   UNL     1      -1.794  10.834  -0.715  1.00  0.00     0.034 A 
ATOM     61  C   UNL     1       3.364  14.208  -3.102  1.00  0.00     0.049 A 
ATOM     62  C   UNL     1      -1.383  12.280  -0.721  1.00  0.00     0.074 A 
ATOM     63  C   UNL     1       3.536  15.578  -3.079  1.00  0.00     0.029 A 
ATOM     64  N   UNL     1       2.166  13.926  -2.465  1.00  0.00    -0.354 N 
ATOM     65  N   UNL     1      -0.344  12.851  -1.278  1.00  0.00    -0.248 NA
ATOM     66  C   UNL     1      -2.296  13.218  -0.046  1.00  0.00     0.031 C 
ATOM     67  C   UNL     1       2.445  16.136  -2.420  1.00  0.00     0.029 A 
ATOM     68  C   UNL     1       1.577  15.116  -2.066  1.00  0.00     0.049 A 
ATOM     69  H   UNL     1       1.794  13.027  -2.320  1.00  0.00     0.167 HD
ATOM     70  C   UNL     1      -0.505  14.216  -1.063  1.00  0.00     0.074 A 
ATOM     71  C   UNL     1      -1.752  14.387  -0.348  1.00  0.00     0.031 C 
ATOM     72  C   UNL     1       0.304  15.244  -1.410  1.00  0.00     0.034 A 
BRANCH  59  73
ATOM     73  C   UNL     1       5.497  13.718  -4.364  1.00  0.00     0.023 A 
ATOM     74  C   UNL     1       5.623  13.721  -5.769  1.00  0.00     0.012 A 
ATOM     75  C   UNL     1       6.592  14.113  -3.572  1.00  0.00     0.148 A 
ATOM     76  C   UNL     1       6.852  13.991  -6.369  1.00  0.00     0.002 A 
ATOM     77  C   UNL     1       7.789  14.462  -4.182  1.00  0.00     0.091 A 
ATOM     78  F   UNL     1       6.450  14.111  -2.239  1.00  0.00    -0.205 F 
ATOM     79  C   UNL     1       7.933  14.366  -5.576  1.00  0.00     0.022 A 
BRANCH  77  80
ATOM     80  S   UNL     1       9.199  15.082  -3.260  1.00  0.00     0.127 S 
ATOM     81  O   UNL     1      10.162  13.994  -3.423  1.00  0.00    -0.237 OA
ATOM     82  O   UNL     1       9.527  16.304  -3.994  1.00  0.00    -0.237 OA
ATOM     83  O   UNL     1       8.727  15.297  -1.899  1.00  0.00    -0.744 OA
ENDBRANCH  77  80
ENDBRANCH  59  73
BRANCH  60  84
ATOM     84  C   UNL     1      -3.061  10.422  -0.021  1.00  0.00     0.023 A 
ATOM     85  C   UNL     1      -4.315  10.840  -0.513  1.00  0.00     0.012 A 
ATOM     86  C   UNL     1      -3.019   9.607   1.128  1.00  0.00     0.148 A 
ATOM     87  C   UNL     1      -5.495  10.490   0.148  1.00  0.00     0.002 A 
ATOM     88  C   UNL     1      -4.201   9.208   1.743  1.00  0.00     0.091 A 
ATOM     89  F   UNL     1      -1.820   9.226   1.590  1.00  0.00    -0.205 F 
ATOM     90  C   UNL     1      -5.439   9.666   1.268  1.00  0.00     0.022 A 
BRANCH  88  91
ATOM     91  S   UNL     1      -4.232   8.040   3.108  1.00  0.00     0.127 S 
ATOM     92  O   UNL     1      -4.699   8.879   4.209  1.00  0.00    -0.237 OA
ATOM     93  O   UNL     1      -5.200   7.051   2.633  1.00  0.00    -0.237 OA
ATOM     94  O   UNL     1      -2.870   7.540   3.231  1.00  0.00    -0.744 OA
ENDBRANCH  88  91
ENDBRANCH  60  84
BRANCH  72  95
ATOM     95  C   UNL     1      -0.162  16.640  -1.083  1.00  0.00     0.023 A 
ATOM     96  C   UNL     1      -0.179  17.087   0.252  1.00  0.00     0.012 A 
ATOM     97  C   UNL     1      -0.499  17.535  -2.119  1.00  0.00     0.148 A 
ATOM     98  C   UNL     1      -0.564  18.392   0.555  1.00  0.00     0.002 A 
ATOM     99  C   UNL     1      -0.818  18.851  -1.814  1.00  0.00     0.091 A 
ATOM    100  F   UNL     1      -0.488  17.086  -3.382  1.00  0.00    -0.205 F 
ATOM    101  C   UNL     1      -0.869  19.277  -0.477  1.00  0.00     0.022 A 
BRANCH  99 102
ATOM    102  S   UNL     1      -1.102  20.090  -3.082  1.00  0.00     0.127 S 
ATOM    103  O   UNL     1      -2.539  20.327  -2.950  1.00  0.00    -0.237 OA
ATOM    104  O   UNL     1      -0.256  21.195  -2.629  1.00  0.00    -0.237 OA
ATOM    105  O   UNL     1      -0.683  19.484  -4.339  1.00  0.00    -0.744 OA
ENDBRANCH  99 102
ENDBRANCH  72  95
ENDBRANCH  46  47
ENDBRANCH  38  41
ENDBRANCH  36  37
ENDBRANCH  35  36
ENDBRANCH   1  35
TORSDOF 18
