REMARK SMILES Cc1ccc(F)cc1NS(=O)(=O)c1ccc(C(=O)NCCCNC(=O)c2ccc(-c3c4nc(c(-c5cccc(S(=O)(=O)[O-])c5F)c5ccc([nH]5)c(-c5cccc(S(=O)(=O)[O-])c5F)c5nc(c(-c6cccc(S(=O)(=O)[O-])c6F)c6ccc3[nH]6)C=C5)C=C4)cc2)cc1
REMARK SMILES IDX 21 1 20 2 19 3 17 4 18 5 16 7 13 8 14 9 90 10 15 11 89 12
REMARK SMILES IDX 10 13 11 14 12 15 9 16 8 18 1 19 2 20 3 21 4 22 7 23 5 24
REMARK SMILES IDX 6 25 22 26 23 27 24 28 25 30 26 31 27 32 88 33 28 34 87 35
REMARK SMILES IDX 29 36 30 37 31 38 81 39 32 40 86 41 80 42 82 43 33 44 85 45
REMARK SMILES IDX 79 46 78 47 34 49 66 50 46 51 65 52 47 53 50 54 64 55 83 56
REMARK SMILES IDX 48 57 49 58 63 60 84 61 51 62 35 63 36 64 44 65 37 66 39 67
REMARK SMILES IDX 45 68 38 69 40 70 41 71 42 72 43 73 67 74 68 75 76 76 69 77
REMARK SMILES IDX 71 78 77 79 70 80 72 81 73 82 74 83 75 84 52 85 53 86 61 87
REMARK SMILES IDX 54 88 56 89 62 90 55 91 57 92 58 93 59 94 60 95
REMARK H PARENT 19 6 9 17 23 29 82 48 50 59
REMARK Flexibility Score: inf
ROOT
ATOM      1  C   UNL     1      -6.240  -6.306   0.801  1.00  0.00     0.042 C 
ENDROOT
BRANCH   1   2
ATOM      2  C   UNL     1      -5.923  -5.421  -0.399  1.00  0.00     0.118 C 
BRANCH   2   3
ATOM      3  N   UNL     1      -6.073  -4.008  -0.102  1.00  0.00    -0.352 N 
ATOM      4  C   UNL     1      -5.121  -3.023  -0.104  1.00  0.00     0.251 C 
ATOM      5  O   UNL     1      -5.454  -1.842  -0.062  1.00  0.00    -0.269 OA
ATOM      6  H   UNL     1      -6.984  -3.717   0.133  1.00  0.00     0.163 HD
BRANCH   4   7
ATOM      7  C   UNL     1      -3.685  -3.365  -0.179  1.00  0.00     0.039 A 
ATOM      8  C   UNL     1      -0.926  -3.727  -0.168  1.00  0.00     0.087 A 
ATOM      9  C   UNL     1      -1.505  -2.882  -1.122  1.00  0.00     0.023 A 
ATOM     10  C   UNL     1      -1.724  -4.441   0.736  1.00  0.00     0.023 A 
ATOM     11  C   UNL     1      -2.888  -2.684  -1.108  1.00  0.00     0.015 A 
ATOM     12  C   UNL     1      -3.106  -4.254   0.733  1.00  0.00     0.015 A 
BRANCH   8  13
ATOM     13  S   UNL     1       0.832  -3.714   0.112  1.00  0.00     0.261 S 
ATOM     14  O   UNL     1       1.410  -4.615  -0.865  1.00  0.00    -0.201 OA
ATOM     15  O   UNL     1       1.062  -3.882   1.528  1.00  0.00    -0.201 OA
BRANCH  13  16
ATOM     16  N   UNL     1       1.358  -2.189  -0.315  1.00  0.00    -0.279 N 
ATOM     17  H   UNL     1       1.991  -2.142  -1.068  1.00  0.00     0.180 HD
BRANCH  16  18
ATOM     18  C   UNL     1       0.999  -0.943   0.286  1.00  0.00     0.055 A 
ATOM     19  C   UNL     1       3.221   0.065  -0.496  1.00  0.00     0.046 C 
ATOM     20  C   UNL     1       1.815   0.179   0.029  1.00  0.00    -0.027 A 
ATOM     21  C   UNL     1       1.316   1.472   0.276  1.00  0.00     0.008 A 
ATOM     22  C   UNL     1       0.052   1.650   0.828  1.00  0.00     0.039 A 
ATOM     23  C   UNL     1      -0.215  -0.751   0.949  1.00  0.00     0.066 A 
ATOM     24  C   UNL     1      -0.685   0.536   1.192  1.00  0.00     0.125 A 
ATOM     25  F   UNL     1      -1.891   0.700   1.749  1.00  0.00    -0.207 F 
ENDBRANCH  16  18
ENDBRANCH  13  16
ENDBRANCH   8  13
ENDBRANCH   4   7
ENDBRANCH   2   3
ENDBRANCH   1   2
BRANCH   1  26
ATOM     26  C   UNL     1      -7.709  -6.295   1.214  1.00  0.00     0.118 C 
BRANCH  26  27
ATOM     27  N   UNL     1      -8.572  -6.863   0.189  1.00  0.00    -0.352 N 
ATOM     28  C   UNL     1      -9.473  -7.894   0.265  1.00  0.00     0.251 C 
ATOM     29  H   UNL     1      -8.497  -6.442  -0.697  1.00  0.00     0.163 HD
ATOM     30  O   UNL     1      -9.940  -8.353  -0.775  1.00  0.00    -0.269 OA
BRANCH  28  31
ATOM     31  C   UNL     1      -9.890  -8.454   1.571  1.00  0.00     0.039 A 
ATOM     32  C   UNL     1     -10.109  -9.832   1.669  1.00  0.00     0.014 A 
ATOM     33  C   UNL     1     -10.141  -7.630   2.673  1.00  0.00     0.014 A 
ATOM     34  C   UNL     1     -10.558 -10.384   2.871  1.00  0.00     0.010 A 
ATOM     35  C   UNL     1     -10.526  -8.190   3.890  1.00  0.00     0.010 A 
ATOM     36  C   UNL     1     -10.763  -9.568   3.994  1.00  0.00    -0.014 A 
BRANCH  36  37
ATOM     37  C   UNL     1     -11.263 -10.137   5.271  1.00  0.00     0.031 A 
ATOM     38  C   UNL     1     -12.628  -9.761   5.784  1.00  0.00     0.074 A 
ATOM     39  C   UNL     1     -10.468 -10.944   5.999  1.00  0.00     0.049 A 
ATOM     40  N   UNL     1     -13.231 -10.142   6.880  1.00  0.00    -0.248 NA
ATOM     41  C   UNL     1     -13.407  -8.810   4.973  1.00  0.00     0.031 C 
ATOM     42  C   UNL     1      -9.095 -11.315   5.651  1.00  0.00     0.029 A 
ATOM     43  N   UNL     1     -10.692 -11.582   7.193  1.00  0.00    -0.354 N 
ATOM     44  C   UNL     1     -14.438  -9.453   6.910  1.00  0.00     0.074 A 
ATOM     45  C   UNL     1     -14.470  -8.605   5.738  1.00  0.00     0.031 C 
ATOM     46  C   UNL     1      -8.601 -12.118   6.608  1.00  0.00     0.029 A 
ATOM     47  C   UNL     1      -9.617 -12.312   7.639  1.00  0.00     0.049 A 
ATOM     48  H   UNL     1     -11.544 -11.521   7.684  1.00  0.00     0.167 HD
ATOM     49  C   UNL     1     -15.445  -9.542   7.811  1.00  0.00     0.034 A 
ATOM     50  C   UNL     1      -9.471 -13.065   8.747  1.00  0.00     0.034 A 
ATOM     51  C   UNL     1     -15.439 -10.434   8.939  1.00  0.00     0.049 A 
ATOM     52  C   UNL     1     -10.641 -13.224   9.680  1.00  0.00     0.074 A 
ATOM     53  C   UNL     1     -16.442 -10.661   9.865  1.00  0.00     0.029 A 
ATOM     54  N   UNL     1     -14.378 -11.255   9.288  1.00  0.00    -0.354 N 
ATOM     55  N   UNL     1     -11.836 -12.688   9.603  1.00  0.00    -0.248 NA
ATOM     56  C   UNL     1     -10.461 -14.128  10.825  1.00  0.00     0.031 C 
ATOM     57  C   UNL     1     -15.988 -11.625  10.772  1.00  0.00     0.029 A 
ATOM     58  C   UNL     1     -14.704 -11.999  10.409  1.00  0.00     0.049 A 
ATOM     59  H   UNL     1     -13.520 -11.302   8.809  1.00  0.00     0.167 HD
ATOM     60  C   UNL     1     -12.560 -13.218  10.665  1.00  0.00     0.074 A 
ATOM     61  C   UNL     1     -11.676 -14.133  11.358  1.00  0.00     0.031 C 
ATOM     62  C   UNL     1     -13.836 -12.956  11.044  1.00  0.00     0.034 A 
BRANCH  49  63
ATOM     63  C   UNL     1     -16.675  -8.706   7.567  1.00  0.00     0.023 A 
ATOM     64  C   UNL     1     -17.561  -9.074   6.534  1.00  0.00     0.012 A 
ATOM     65  C   UNL     1     -16.980  -7.596   8.377  1.00  0.00     0.148 A 
ATOM     66  C   UNL     1     -18.715  -8.331   6.289  1.00  0.00     0.002 A 
ATOM     67  C   UNL     1     -18.154  -6.883   8.151  1.00  0.00     0.091 A 
ATOM     68  F   UNL     1     -16.114  -7.245   9.338  1.00  0.00    -0.205 F 
ATOM     69  C   UNL     1     -19.016  -7.243   7.103  1.00  0.00     0.022 A 
BRANCH  67  70
ATOM     70  S   UNL     1     -18.661  -5.509   9.193  1.00  0.00     0.127 S 
ATOM     71  O   UNL     1     -18.334  -4.361   8.350  1.00  0.00    -0.237 OA
ATOM     72  O   UNL     1     -20.095  -5.755   9.357  1.00  0.00    -0.237 OA
ATOM     73  O   UNL     1     -17.885  -5.634  10.419  1.00  0.00    -0.744 OA
ENDBRANCH  67  70
ENDBRANCH  49  63
BRANCH  50  74
ATOM     74  C   UNL     1      -8.203 -13.815   8.970  1.00  0.00     0.023 A 
ATOM     75  C   UNL     1      -8.194 -15.213   8.795  1.00  0.00     0.012 A 
ATOM     76  C   UNL     1      -7.005 -13.157   9.304  1.00  0.00     0.148 A 
ATOM     77  C   UNL     1      -7.022 -15.945   8.976  1.00  0.00     0.002 A 
ATOM     78  C   UNL     1      -5.828 -13.888   9.433  1.00  0.00     0.091 A 
ATOM     79  F   UNL     1      -7.035 -11.829   9.482  1.00  0.00    -0.205 F 
ATOM     80  C   UNL     1      -5.837 -15.283   9.284  1.00  0.00     0.022 A 
BRANCH  78  81
ATOM     81  S   UNL     1      -4.238 -13.093   9.696  1.00  0.00     0.127 S 
ATOM     82  O   UNL     1      -4.027 -13.307  11.124  1.00  0.00    -0.237 OA
ATOM     83  O   UNL     1      -3.357 -13.867   8.820  1.00  0.00    -0.237 OA
ATOM     84  O   UNL     1      -4.427 -11.710   9.276  1.00  0.00    -0.744 OA
ENDBRANCH  78  81
ENDBRANCH  50  74
BRANCH  62  85
ATOM     85  C   UNL     1     -14.368 -13.688  12.246  1.00  0.00     0.023 A 
ATOM     86  C   UNL     1     -13.947 -13.307  13.534  1.00  0.00     0.012 A 
ATOM     87  C   UNL     1     -15.335 -14.702  12.105  1.00  0.00     0.148 A 
ATOM     88  C   UNL     1     -14.459 -13.944  14.664  1.00  0.00     0.002 A 
ATOM     89  C   UNL     1     -15.871 -15.304  13.238  1.00  0.00     0.091 A 
ATOM     90  F   UNL     1     -15.708 -15.070  10.870  1.00  0.00    -0.205 F 
ATOM     91  C   UNL     1     -15.428 -14.933  14.517  1.00  0.00     0.022 A 
BRANCH  89  92
ATOM     92  S   UNL     1     -17.187 -16.523  13.124  1.00  0.00     0.127 S 
ATOM     93  O   UNL     1     -16.440 -17.777  13.173  1.00  0.00    -0.237 OA
ATOM     94  O   UNL     1     -17.986 -16.243  14.318  1.00  0.00    -0.237 OA
ATOM     95  O   UNL     1     -17.871 -16.238  11.870  1.00  0.00    -0.744 OA
ENDBRANCH  89  92
ENDBRANCH  62  85
ENDBRANCH  36  37
ENDBRANCH  28  31
ENDBRANCH  26  27
ENDBRANCH   1  26
TORSDOF 16
