REMARK SMILES COc1ccc(S(=O)(=O)N2C[C@H](C)C[C@H](C)C2)cc1C(=O)NCCCNC(=O)c1ccc(-c2c3nc(c(-c4cccc(S(=O)(=O)[O-])c4F)c4ccc([nH]4)c(-c4cccc(S(=O)(=O)[O-])c4F)c4nc(c(-c5cccc(S(=O)(=O)[O-])c5F)c5ccc2[nH]5)C=C4)C=C3)cc1
REMARK SMILES IDX 24 1 23 2 22 3 20 4 21 5 19 7 3 8 4 9 5 10 18 11 6 12 2 13
REMARK SMILES IDX 1 14 7 15 8 16 9 17 10 18 11 19 17 20 12 21 15 22 13 23
REMARK SMILES IDX 14 24 16 25 25 26 26 27 27 28 28 30 29 31 30 32 91 33 31 34
REMARK SMILES IDX 90 35 32 36 33 37 34 38 84 39 35 40 89 41 83 42 85 43 36 44
REMARK SMILES IDX 88 45 82 46 81 47 37 49 69 50 49 51 68 52 50 53 53 54 67 55
REMARK SMILES IDX 86 56 51 57 52 58 66 60 87 61 54 62 38 63 39 64 47 65 40 66
REMARK SMILES IDX 42 67 48 68 41 69 43 70 44 71 45 72 46 73 70 74 71 75 79 76
REMARK SMILES IDX 72 77 74 78 80 79 73 80 75 81 76 82 77 83 78 84 55 85 56 86
REMARK SMILES IDX 64 87 57 88 59 89 65 90 58 91 60 92 61 93 62 94 63 95
REMARK H PARENT 22 6 26 29 85 48 53 59
REMARK Flexibility Score: inf
ROOT
ATOM      1  C   UNL     1       1.848  -0.061   3.004  1.00  0.00     0.042 C 
ENDROOT
BRANCH   1   2
ATOM      2  C   UNL     1       1.232  -0.389   1.650  1.00  0.00     0.118 C 
BRANCH   2   3
ATOM      3  N   UNL     1       2.227  -0.552   0.610  1.00  0.00    -0.352 N 
ATOM      4  C   UNL     1       2.253  -1.365  -0.480  1.00  0.00     0.255 C 
ATOM      5  O   UNL     1       3.236  -1.297  -1.220  1.00  0.00    -0.269 OA
ATOM      6  H   UNL     1       3.020   0.023   0.709  1.00  0.00     0.163 HD
BRANCH   4   7
ATOM      7  C   UNL     1       1.180  -2.331  -0.811  1.00  0.00     0.083 A 
ATOM      8  C   UNL     1      -0.187  -2.062  -0.860  1.00  0.00     0.131 A 
ATOM      9  C   UNL     1      -1.072  -3.058  -1.296  1.00  0.00     0.048 A 
ATOM     10  C   UNL     1      -0.590  -4.274  -1.801  1.00  0.00     0.025 A 
ATOM     11  C   UNL     1       1.639  -3.574  -1.269  1.00  0.00     0.039 A 
ATOM     12  C   UNL     1       0.783  -4.521  -1.814  1.00  0.00     0.083 A 
BRANCH   8  13
ATOM     13  O   UNL     1      -0.745  -0.879  -0.465  1.00  0.00    -0.496 OA
ATOM     14  C   UNL     1      -0.515   0.162  -1.415  1.00  0.00     0.278 C 
ENDBRANCH   8  13
BRANCH  12  15
ATOM     15  S   UNL     1       1.405  -5.986  -2.627  1.00  0.00     0.243 S 
ATOM     16  O   UNL     1       1.286  -7.059  -1.679  1.00  0.00    -0.207 OA
ATOM     17  O   UNL     1       0.721  -6.034  -3.913  1.00  0.00    -0.207 OA
BRANCH  15  18
ATOM     18  N   UNL     1       3.037  -5.721  -2.958  1.00  0.00    -0.197 NA
ATOM     19  C   UNL     1       3.500  -4.843  -4.042  1.00  0.00     0.105 C 
ATOM     20  C   UNL     1       4.109  -6.296  -2.130  1.00  0.00     0.105 C 
ATOM     21  C   UNL     1       4.277  -3.660  -3.456  1.00  0.00     0.001 C 
ATOM     22  C   UNL     1       4.891  -5.180  -1.436  1.00  0.00     0.001 C 
ATOM     23  C   UNL     1       4.889  -2.787  -4.549  1.00  0.00     0.009 C 
ATOM     24  C   UNL     1       5.350  -4.098  -2.436  1.00  0.00     0.009 C 
ATOM     25  C   UNL     1       6.075  -5.737  -0.647  1.00  0.00     0.009 C 
ENDBRANCH  15  18
ENDBRANCH  12  15
ENDBRANCH   4   7
ENDBRANCH   2   3
ENDBRANCH   1   2
BRANCH   1  26
ATOM     26  C   UNL     1       2.880   1.062   2.991  1.00  0.00     0.118 C 
BRANCH  26  27
ATOM     27  N   UNL     1       2.381   2.323   2.453  1.00  0.00    -0.352 N 
ATOM     28  C   UNL     1       1.980   3.478   3.083  1.00  0.00     0.251 C 
ATOM     29  H   UNL     1       2.320   2.352   1.471  1.00  0.00     0.163 HD
ATOM     30  O   UNL     1       1.466   4.380   2.426  1.00  0.00    -0.269 OA
BRANCH  28  31
ATOM     31  C   UNL     1       2.125   3.621   4.548  1.00  0.00     0.039 A 
ATOM     32  C   UNL     1       1.069   4.160   5.288  1.00  0.00     0.014 A 
ATOM     33  C   UNL     1       3.286   3.208   5.197  1.00  0.00     0.014 A 
ATOM     34  C   UNL     1       1.141   4.183   6.684  1.00  0.00     0.010 A 
ATOM     35  C   UNL     1       3.305   3.116   6.583  1.00  0.00     0.010 A 
ATOM     36  C   UNL     1       2.236   3.606   7.347  1.00  0.00    -0.014 A 
BRANCH  36  37
ATOM     37  C   UNL     1       2.294   3.491   8.829  1.00  0.00     0.031 A 
ATOM     38  C   UNL     1       3.459   4.077   9.587  1.00  0.00     0.074 A 
ATOM     39  C   UNL     1       1.373   2.751   9.480  1.00  0.00     0.049 A 
ATOM     40  N   UNL     1       3.764   3.958  10.853  1.00  0.00    -0.248 NA
ATOM     41  C   UNL     1       4.437   4.857   8.809  1.00  0.00     0.031 C 
ATOM     42  C   UNL     1       0.255   2.041   8.855  1.00  0.00     0.029 A 
ATOM     43  N   UNL     1       1.249   2.448  10.814  1.00  0.00    -0.354 N 
ATOM     44  C   UNL     1       4.995   4.585  11.007  1.00  0.00     0.074 A 
ATOM     45  C   UNL     1       5.399   5.052   9.699  1.00  0.00     0.031 C 
ATOM     46  C   UNL     1      -0.450   1.402   9.802  1.00  0.00     0.029 A 
ATOM     47  C   UNL     1       0.180   1.628  11.098  1.00  0.00     0.049 A 
ATOM     48  H   UNL     1       1.866   2.786  11.502  1.00  0.00     0.167 HD
ATOM     49  C   UNL     1       5.709   4.793  12.139  1.00  0.00     0.034 A 
ATOM     50  C   UNL     1      -0.246   1.119  12.271  1.00  0.00     0.034 A 
ATOM     51  C   UNL     1       5.255   4.422  13.450  1.00  0.00     0.049 A 
ATOM     52  C   UNL     1       0.499   1.468  13.530  1.00  0.00     0.074 A 
ATOM     53  C   UNL     1       5.843   4.692  14.673  1.00  0.00     0.029 A 
ATOM     54  N   UNL     1       4.090   3.718  13.711  1.00  0.00    -0.354 N 
ATOM     55  N   UNL     1       1.579   2.198  13.673  1.00  0.00    -0.248 NA
ATOM     56  C   UNL     1      -0.052   0.957  14.794  1.00  0.00     0.031 C 
ATOM     57  C   UNL     1       5.028   4.155  15.676  1.00  0.00     0.029 A 
ATOM     58  C   UNL     1       3.933   3.554  15.076  1.00  0.00     0.049 A 
ATOM     59  H   UNL     1       3.467   3.384  13.027  1.00  0.00     0.167 HD
ATOM     60  C   UNL     1       1.817   2.263  15.041  1.00  0.00     0.074 A 
ATOM     61  C   UNL     1       0.756   1.516  15.685  1.00  0.00     0.031 C 
ATOM     62  C   UNL     1       2.834   2.867  15.703  1.00  0.00     0.034 A 
BRANCH  49  63
ATOM     63  C   UNL     1       7.016   5.532  12.014  1.00  0.00     0.023 A 
ATOM     64  C   UNL     1       7.003   6.914  11.731  1.00  0.00     0.012 A 
ATOM     65  C   UNL     1       8.248   4.880  12.215  1.00  0.00     0.148 A 
ATOM     66  C   UNL     1       8.194   7.627  11.609  1.00  0.00     0.002 A 
ATOM     67  C   UNL     1       9.431   5.607  12.134  1.00  0.00     0.091 A 
ATOM     68  F   UNL     1       8.245   3.562  12.460  1.00  0.00    -0.205 F 
ATOM     69  C   UNL     1       9.407   6.976  11.820  1.00  0.00     0.022 A 
BRANCH  67  70
ATOM     70  S   UNL     1      11.039   4.876  12.465  1.00  0.00     0.127 S 
ATOM     71  O   UNL     1      11.587   4.744  11.116  1.00  0.00    -0.237 OA
ATOM     72  O   UNL     1      11.684   5.901  13.287  1.00  0.00    -0.237 OA
ATOM     73  O   UNL     1      10.770   3.625  13.161  1.00  0.00    -0.744 OA
ENDBRANCH  67  70
ENDBRANCH  49  63
BRANCH  50  74
ATOM     74  C   UNL     1      -1.498   0.312  12.319  1.00  0.00     0.023 A 
ATOM     75  C   UNL     1      -2.655   0.883  12.884  1.00  0.00     0.012 A 
ATOM     76  C   UNL     1      -1.568  -0.986  11.779  1.00  0.00     0.148 A 
ATOM     77  C   UNL     1      -3.852   0.167  12.937  1.00  0.00     0.002 A 
ATOM     78  C   UNL     1      -2.776  -1.676  11.789  1.00  0.00     0.091 A 
ATOM     79  F   UNL     1      -0.454  -1.520  11.257  1.00  0.00    -0.205 F 
ATOM     80  C   UNL     1      -3.915  -1.107  12.380  1.00  0.00     0.022 A 
BRANCH  78  81
ATOM     81  S   UNL     1      -2.978  -3.265  10.976  1.00  0.00     0.127 S 
ATOM     82  O   UNL     1      -2.974  -4.185  12.110  1.00  0.00    -0.237 OA
ATOM     83  O   UNL     1      -4.273  -3.110  10.312  1.00  0.00    -0.237 OA
ATOM     84  O   UNL     1      -1.850  -3.375  10.060  1.00  0.00    -0.744 OA
ENDBRANCH  78  81
ENDBRANCH  50  74
BRANCH  62  85
ATOM     85  C   UNL     1       2.839   2.779  17.204  1.00  0.00     0.023 A 
ATOM     86  C   UNL     1       3.214   1.573  17.827  1.00  0.00     0.012 A 
ATOM     87  C   UNL     1       2.559   3.911  17.994  1.00  0.00     0.148 A 
ATOM     88  C   UNL     1       3.288   1.488  19.217  1.00  0.00     0.002 A 
ATOM     89  C   UNL     1       2.675   3.830  19.377  1.00  0.00     0.091 A 
ATOM     90  F   UNL     1       2.181   5.043  17.382  1.00  0.00    -0.205 F 
ATOM     91  C   UNL     1       3.031   2.618  19.990  1.00  0.00     0.022 A 
BRANCH  89  92
ATOM     92  S   UNL     1       2.452   5.263  20.438  1.00  0.00     0.127 S 
ATOM     93  O   UNL     1       1.105   5.041  20.960  1.00  0.00    -0.237 OA
ATOM     94  O   UNL     1       3.522   5.096  21.422  1.00  0.00    -0.237 OA
ATOM     95  O   UNL     1       2.610   6.423  19.572  1.00  0.00    -0.744 OA
ENDBRANCH  89  92
ENDBRANCH  62  85
ENDBRANCH  36  37
ENDBRANCH  28  31
ENDBRANCH  26  27
ENDBRANCH   1  26
TORSDOF 16
