REMARK SMILES C[C@@H](Oc1ccc(/C=C2\C(=O)[NH+]=C(NCCCNC(=O)c3ccc(-c4c5nc(c(-c6cccc(S(=O)(=O)[O-])c6F)c6ccc([nH]6)c(-c6cccc(S(=O)(=O)[O-])c6F)c6nc(c(-c7cccc(S(=O)(=O)[O-])c7F)c7ccc4[nH]7)C=C6)C=C5)cc3)N(c3ccc4c(c3)OCO4)C2=O)cc1)C(=O)[O-]
REMARK SMILES IDX 16 1 15 2 14 3 8 4 9 5 10 6 94 7 11 8 12 9 84 10 95 11 13 12
REMARK SMILES IDX 7 15 4 16 5 17 97 18 6 19 96 20 3 21 2 22 1 23 98 24 99 25
REMARK SMILES IDX 100 26 85 27 86 28 90 29 87 30 89 31 88 32 91 33 93 34 92 35
REMARK SMILES IDX 17 36 18 37 19 38 20 40 21 41 22 42 83 43 23 44 82 45 24 46
REMARK SMILES IDX 25 47 26 48 76 49 27 50 81 51 75 52 77 53 28 54 80 55 74 56
REMARK SMILES IDX 73 57 29 59 61 60 41 61 60 62 42 63 45 64 59 65 78 66 43 67
REMARK SMILES IDX 44 68 58 70 79 71 46 72 30 73 31 74 39 75 32 76 34 77 40 78
REMARK SMILES IDX 33 79 35 80 36 81 37 82 38 83 62 84 63 85 71 86 64 87 66 88
REMARK SMILES IDX 72 89 65 90 67 91 68 92 69 93 70 94 47 95 48 96 56 97 49 98
REMARK SMILES IDX 51 99 57 100 50 101 52 102 53 103 54 104 55 105
REMARK H PARENT 12 13 14 14 18 39 77 58 45 69
REMARK Flexibility Score: inf
ROOT
ATOM      1  C   UNL     1       7.952  10.126  -1.271  1.00  0.00     0.059 C 
ENDROOT
BRANCH   1   2
ATOM      2  C   UNL     1       7.613   9.229  -2.452  1.00  0.00     0.199 C 
BRANCH   2   3
ATOM      3  N   UNL     1       8.422   8.025  -2.436  1.00  0.00    -0.277 N 
ATOM      4  C   UNL     1       6.290   3.223  -1.675  1.00  0.00     0.031 C 
ATOM      5  C   UNL     1       6.951   4.370  -1.427  1.00  0.00     0.138 C 
ATOM      6  C   UNL     1       6.401   5.582  -0.802  1.00  0.00     0.321 C 
ATOM      7  C   UNL     1       8.368   4.427  -1.833  1.00  0.00     0.328 C 
ATOM      8  O   UNL     1       5.583   5.534   0.109  1.00  0.00    -0.250 OA
ATOM      9  N   UNL     1       6.850   6.750  -1.342  1.00  0.00    -0.210 N 
ATOM     10  N   UNL     1       8.844   5.718  -2.030  1.00  0.00    -0.162 N 
ATOM     11  O   UNL     1       9.020   3.397  -2.013  1.00  0.00    -0.249 OA
ATOM     12  C   UNL     1       8.015   6.827  -1.906  1.00  0.00     0.366 C 
ATOM     13  H   UNL     1       6.278   7.551  -1.304  1.00  0.00     0.270 HD
ATOM     14  H   UNL     1       9.323   8.071  -2.831  1.00  0.00     0.260 HD
BRANCH   4  15
ATOM     15  C   UNL     1       4.877   2.878  -1.460  1.00  0.00    -0.024 A 
ATOM     16  C   UNL     1       2.208   2.041  -1.156  1.00  0.00     0.120 A 
ATOM     17  C   UNL     1       2.495   3.375  -1.428  1.00  0.00     0.047 A 
ATOM     18  C   UNL     1       3.243   1.114  -1.089  1.00  0.00     0.047 A 
ATOM     19  C   UNL     1       3.822   3.789  -1.594  1.00  0.00     0.012 A 
ATOM     20  C   UNL     1       4.568   1.532  -1.226  1.00  0.00     0.012 A 
BRANCH  16  21
ATOM     21  O   UNL     1       0.896   1.665  -1.116  1.00  0.00    -0.485 OA
BRANCH  21  22
ATOM     22  C   UNL     1       0.468   1.134   0.146  1.00  0.00     0.216 C 
ATOM     23  C   UNL     1       0.679  -0.375   0.233  1.00  0.00     0.059 C 
BRANCH  22  24
ATOM     24  C   UNL     1      -1.028   1.390   0.287  1.00  0.00     0.082 C 
ATOM     25  O   UNL     1      -1.611   1.688   1.319  1.00  0.00    -0.546 OA
ATOM     26  O   UNL     1      -1.738   1.161  -0.839  1.00  0.00    -0.546 OA
ENDBRANCH  22  24
ENDBRANCH  21  22
ENDBRANCH  16  21
ENDBRANCH   4  15
BRANCH  10  27
ATOM     27  C   UNL     1      10.170   5.830  -2.521  1.00  0.00     0.115 A 
ATOM     28  C   UNL     1      11.212   6.219  -1.651  1.00  0.00     0.048 A 
ATOM     29  C   UNL     1      10.444   5.395  -3.824  1.00  0.00     0.094 A 
ATOM     30  C   UNL     1      12.545   6.114  -2.063  1.00  0.00     0.054 A 
ATOM     31  C   UNL     1      11.764   5.283  -4.186  1.00  0.00     0.169 A 
ATOM     32  C   UNL     1      12.786   5.614  -3.326  1.00  0.00     0.166 A 
ATOM     33  O   UNL     1      12.217   4.776  -5.364  1.00  0.00    -0.453 OA
ATOM     34  O   UNL     1      14.007   5.331  -3.858  1.00  0.00    -0.454 OA
ATOM     35  C   UNL     1      13.610   4.597  -5.035  1.00  0.00     0.468 C 
ENDBRANCH  10  27
ENDBRANCH   2   3
ENDBRANCH   1   2
BRANCH   1  36
ATOM     36  C   UNL     1       9.396  10.617  -1.263  1.00  0.00     0.119 C 
BRANCH  36  37
ATOM     37  N   UNL     1       9.740  11.385  -2.452  1.00  0.00    -0.352 N 
ATOM     38  C   UNL     1      10.240  12.656  -2.578  1.00  0.00     0.251 C 
ATOM     39  H   UNL     1       9.589  10.916  -3.304  1.00  0.00     0.163 HD
ATOM     40  O   UNL     1      10.284  13.168  -3.695  1.00  0.00    -0.269 OA
BRANCH  38  41
ATOM     41  C   UNL     1      10.717  13.412  -1.398  1.00  0.00     0.039 A 
ATOM     42  C   UNL     1      10.491  14.791  -1.353  1.00  0.00     0.014 A 
ATOM     43  C   UNL     1      11.431  12.793  -0.369  1.00  0.00     0.014 A 
ATOM     44  C   UNL     1      10.954  15.537  -0.268  1.00  0.00     0.010 A 
ATOM     45  C   UNL     1      11.810  13.522   0.756  1.00  0.00     0.010 A 
ATOM     46  C   UNL     1      11.603  14.907   0.807  1.00  0.00    -0.014 A 
BRANCH  46  47
ATOM     47  C   UNL     1      12.092  15.696   1.968  1.00  0.00     0.031 A 
ATOM     48  C   UNL     1      13.564  15.748   2.291  1.00  0.00     0.074 A 
ATOM     49  C   UNL     1      11.209  16.337   2.760  1.00  0.00     0.049 A 
ATOM     50  N   UNL     1      14.176  16.394   3.250  1.00  0.00    -0.248 NA
ATOM     51  C   UNL     1      14.466  14.950   1.442  1.00  0.00     0.031 C 
ATOM     52  C   UNL     1       9.753  16.301   2.604  1.00  0.00     0.029 A 
ATOM     53  N   UNL     1      11.405  17.132   3.860  1.00  0.00    -0.354 N 
ATOM     54  C   UNL     1      15.520  16.059   3.140  1.00  0.00     0.074 A 
ATOM     55  C   UNL     1      15.631  15.117   2.050  1.00  0.00     0.031 C 
ATOM     56  C   UNL     1       9.190  17.056   3.561  1.00  0.00     0.029 A 
ATOM     57  C   UNL     1      10.239  17.606   4.414  1.00  0.00     0.049 A 
ATOM     58  H   UNL     1      12.297  17.344   4.220  1.00  0.00     0.167 HD
ATOM     59  C   UNL     1      16.574  16.516   3.858  1.00  0.00     0.034 A 
ATOM     60  C   UNL     1      10.037  18.396   5.487  1.00  0.00     0.034 A 
ATOM     61  C   UNL     1      16.467  17.480   4.921  1.00  0.00     0.049 A 
ATOM     62  C   UNL     1      11.227  18.926   6.238  1.00  0.00     0.074 A 
ATOM     63  C   UNL     1      17.480  18.063   5.661  1.00  0.00     0.029 A 
ATOM     64  N   UNL     1      15.274  17.997   5.402  1.00  0.00    -0.354 N 
ATOM     65  N   UNL     1      12.503  18.713   6.024  1.00  0.00    -0.248 NA
ATOM     66  C   UNL     1      10.951  19.845   7.351  1.00  0.00     0.031 C 
ATOM     67  C   UNL     1      16.898  18.909   6.610  1.00  0.00     0.029 A 
ATOM     68  C   UNL     1      15.524  18.889   6.431  1.00  0.00     0.049 A 
ATOM     69  H   UNL     1      14.380  17.764   5.062  1.00  0.00     0.167 HD
ATOM     70  C   UNL     1      13.181  19.508   6.942  1.00  0.00     0.074 A 
ATOM     71  C   UNL     1      12.173  20.220   7.700  1.00  0.00     0.031 C 
ATOM     72  C   UNL     1      14.517  19.631   7.144  1.00  0.00     0.034 A 
BRANCH  59  73
ATOM     73  C   UNL     1      17.947  16.011   3.488  1.00  0.00     0.023 A 
ATOM     74  C   UNL     1      18.530  16.402   2.265  1.00  0.00     0.012 A 
ATOM     75  C   UNL     1      18.680  15.193   4.370  1.00  0.00     0.148 A 
ATOM     76  C   UNL     1      19.802  15.957   1.907  1.00  0.00     0.002 A 
ATOM     77  C   UNL     1      19.968  14.795   4.029  1.00  0.00     0.091 A 
ATOM     78  F   UNL     1      18.104  14.814   5.519  1.00  0.00    -0.205 F 
ATOM     79  C   UNL     1      20.524  15.163   2.793  1.00  0.00     0.022 A 
BRANCH  77  80
ATOM     80  S   UNL     1      21.013  13.841   5.136  1.00  0.00     0.127 S 
ATOM     81  O   UNL     1      21.081  12.556   4.442  1.00  0.00    -0.237 OA
ATOM     82  O   UNL     1      22.259  14.609   5.119  1.00  0.00    -0.237 OA
ATOM     83  O   UNL     1      20.328  13.821   6.420  1.00  0.00    -0.744 OA
ENDBRANCH  77  80
ENDBRANCH  59  73
BRANCH  60  84
ATOM     84  C   UNL     1       8.653  18.793   5.872  1.00  0.00     0.023 A 
ATOM     85  C   UNL     1       8.241  20.130   5.710  1.00  0.00     0.012 A 
ATOM     86  C   UNL     1       7.741  17.852   6.388  1.00  0.00     0.148 A 
ATOM     87  C   UNL     1       6.962  20.533   6.094  1.00  0.00     0.002 A 
ATOM     88  C   UNL     1       6.450  18.247   6.714  1.00  0.00     0.091 A 
ATOM     89  F   UNL     1       8.155  16.586   6.541  1.00  0.00    -0.205 F 
ATOM     90  C   UNL     1       6.064  19.591   6.587  1.00  0.00     0.022 A 
BRANCH  88  91
ATOM     91  S   UNL     1       5.188  17.081   7.234  1.00  0.00     0.127 S 
ATOM     92  O   UNL     1       4.995  17.454   8.633  1.00  0.00    -0.237 OA
ATOM     93  O   UNL     1       4.077  17.425   6.346  1.00  0.00    -0.237 OA
ATOM     94  O   UNL     1       5.755  15.759   7.005  1.00  0.00    -0.744 OA
ENDBRANCH  88  91
ENDBRANCH  60  84
BRANCH  72  95
ATOM     95  C   UNL     1      14.975  20.621   8.184  1.00  0.00     0.023 A 
ATOM     96  C   UNL     1      14.746  20.375   9.553  1.00  0.00     0.012 A 
ATOM     97  C   UNL     1      15.672  21.784   7.800  1.00  0.00     0.148 A 
ATOM     98  C   UNL     1      15.158  21.295  10.517  1.00  0.00     0.002 A 
ATOM     99  C   UNL     1      16.129  22.667   8.770  1.00  0.00     0.091 A 
ATOM    100  F   UNL     1      15.865  22.013   6.493  1.00  0.00    -0.205 F 
ATOM    101  C   UNL     1      15.857  22.434  10.127  1.00  0.00     0.022 A 
BRANCH  99 102
ATOM    102  S   UNL     1      17.128  24.104   8.362  1.00  0.00     0.127 S 
ATOM    103  O   UNL     1      16.164  25.191   8.521  1.00  0.00    -0.237 OA
ATOM    104  O   UNL     1      18.171  24.059   9.387  1.00  0.00    -0.237 OA
ATOM    105  O   UNL     1      17.609  23.883   7.005  1.00  0.00    -0.744 OA
ENDBRANCH  99 102
ENDBRANCH  72  95
ENDBRANCH  46  47
ENDBRANCH  38  41
ENDBRANCH  36  37
ENDBRANCH   1  36
TORSDOF 17
