REMARK SMILES CCCCCCNC(=O)Oc1cccc(-c2ccc([C@@H](C)C(=O)NCCCNC(=O)c3ccc(-c4c5nc(c(-c6cccc(S(=O)(=O)[O-])c6F)c6ccc([nH]6)c(-c6cccc(S(=O)(=O)[O-])c6F)c6nc(c(-c7cccc(S(=O)(=O)[O-])c7F)c7ccc4[nH]7)C=C6)C=C5)cc3)cc2Cl)c1
REMARK SMILES IDX 20 1 21 2 19 3 16 4 17 5 95 6 18 7 94 8 96 9 15 10 11 11
REMARK SMILES IDX 12 12 97 13 13 14 14 15 10 16 8 17 7 18 9 20 6 21 5 22 4 23
REMARK SMILES IDX 3 24 2 25 1 26 22 27 23 28 24 29 25 31 26 32 27 33 28 34
REMARK SMILES IDX 29 35 30 37 31 38 32 39 93 40 33 41 92 42 34 43 35 44 36 45
REMARK SMILES IDX 86 46 37 47 91 48 85 49 87 50 38 51 90 52 84 53 83 54 39 56
REMARK SMILES IDX 71 57 51 58 70 59 52 60 55 61 69 62 88 63 53 64 54 65 68 67
REMARK SMILES IDX 89 68 56 69 40 70 41 71 49 72 42 73 44 74 50 75 43 76 45 77
REMARK SMILES IDX 46 78 47 79 48 80 72 81 73 82 81 83 74 84 76 85 82 86 75 87
REMARK SMILES IDX 77 88 78 89 79 90 80 91 57 92 58 93 66 94 59 95 61 96 67 97
REMARK SMILES IDX 60 98 62 99 63 100 64 101 65 102
REMARK H PARENT 7 19 24 30 28 36 87 55 55 66
REMARK Flexibility Score: inf
ROOT
ATOM      1  C   UNL     1      -4.881   8.348 -10.697  1.00  0.00     0.105 C 
ATOM      2  C   UNL     1      -6.069   8.989 -11.412  1.00  0.00     0.023 C 
ENDROOT
BRANCH   1   3
ATOM      3  C   UNL     1      -5.117   7.977  -9.243  1.00  0.00    -0.034 A 
ATOM      4  C   UNL     1      -5.324   7.266  -6.470  1.00  0.00     0.000 A 
ATOM      5  C   UNL     1      -5.689   8.539  -6.949  1.00  0.00     0.010 A 
ATOM      6  C   UNL     1      -4.925   6.326  -7.439  1.00  0.00     0.049 A 
ATOM      7  C   UNL     1      -5.633   8.871  -8.307  1.00  0.00     0.005 A 
ATOM      8  C   UNL     1      -4.789   6.690  -8.791  1.00  0.00     0.025 A 
ATOM      9  Cl  UNL     1      -4.631   4.656  -7.071  1.00  0.00    -0.084 Cl
BRANCH   4  10
ATOM     10  C   UNL     1      -5.349   7.026  -5.006  1.00  0.00    -0.013 A 
ATOM     11  C   UNL     1      -4.297   6.227  -2.961  1.00  0.00     0.133 A 
ATOM     12  C   UNL     1      -5.338   6.724  -2.188  1.00  0.00     0.047 A 
ATOM     13  C   UNL     1      -4.287   6.382  -4.349  1.00  0.00     0.056 A 
ATOM     14  C   UNL     1      -6.392   7.379  -2.813  1.00  0.00     0.004 A 
ATOM     15  C   UNL     1      -6.405   7.512  -4.206  1.00  0.00     0.009 A 
BRANCH  11  16
ATOM     16  O   UNL     1      -3.327   5.458  -2.300  1.00  0.00    -0.410 OA
BRANCH  16  17
ATOM     17  C   UNL     1      -1.985   5.726  -2.514  1.00  0.00     0.412 C 
ATOM     18  N   UNL     1      -1.162   4.843  -1.868  1.00  0.00    -0.321 N 
ATOM     19  H   UNL     1      -0.195   5.014  -1.928  1.00  0.00     0.167 HD
ATOM     20  O   UNL     1      -1.521   6.619  -3.212  1.00  0.00    -0.224 OA
BRANCH  18  21
ATOM     21  C   UNL     1      -1.572   3.682  -1.104  1.00  0.00     0.119 C 
BRANCH  21  22
ATOM     22  C   UNL     1      -1.003   2.393  -1.701  1.00  0.00     0.021 C 
BRANCH  22  23
ATOM     23  C   UNL     1       0.526   2.286  -1.648  1.00  0.00     0.002 C 
BRANCH  23  24
ATOM     24  C   UNL     1       1.138   2.341  -0.244  1.00  0.00    -0.000 C 
BRANCH  24  25
ATOM     25  C   UNL     1       0.656   1.257   0.723  1.00  0.00    -0.003 C 
ATOM     26  C   UNL     1       1.016  -0.151   0.274  1.00  0.00     0.004 C 
ENDBRANCH  24  25
ENDBRANCH  23  24
ENDBRANCH  22  23
ENDBRANCH  21  22
ENDBRANCH  18  21
ENDBRANCH  16  17
ENDBRANCH  11  16
ENDBRANCH   4  10
ENDBRANCH   1   3
BRANCH   1  27
ATOM     27  C   UNL     1      -3.532   9.039 -10.953  1.00  0.00     0.227 C 
ATOM     28  O   UNL     1      -2.607   8.403 -11.475  1.00  0.00    -0.274 OA
ATOM     29  N   UNL     1      -3.270  10.342 -10.661  1.00  0.00    -0.356 N 
ATOM     30  H   UNL     1      -2.369  10.637 -10.927  1.00  0.00     0.163 HD
BRANCH  29  31
ATOM     31  C   UNL     1      -4.066  11.378 -10.034  1.00  0.00     0.117 C 
BRANCH  31  32
ATOM     32  C   UNL     1      -3.710  11.578  -8.563  1.00  0.00     0.042 C 
BRANCH  32  33
ATOM     33  C   UNL     1      -2.483  12.450  -8.335  1.00  0.00     0.118 C 
BRANCH  33  34
ATOM     34  N   UNL     1      -2.717  13.838  -8.713  1.00  0.00    -0.352 N 
ATOM     35  C   UNL     1      -2.724  14.982  -7.953  1.00  0.00     0.251 C 
ATOM     36  H   UNL     1      -2.901  13.979  -9.670  1.00  0.00     0.163 HD
ATOM     37  O   UNL     1      -3.166  16.018  -8.446  1.00  0.00    -0.269 OA
BRANCH  35  38
ATOM     38  C   UNL     1      -2.216  14.986  -6.561  1.00  0.00     0.039 A 
ATOM     39  C   UNL     1      -2.853  15.795  -5.614  1.00  0.00     0.014 A 
ATOM     40  C   UNL     1      -1.089  14.248  -6.192  1.00  0.00     0.014 A 
ATOM     41  C   UNL     1      -2.392  15.822  -4.294  1.00  0.00     0.010 A 
ATOM     42  C   UNL     1      -0.686  14.207  -4.860  1.00  0.00     0.010 A 
ATOM     43  C   UNL     1      -1.320  15.006  -3.898  1.00  0.00    -0.014 A 
BRANCH  43  44
ATOM     44  C   UNL     1      -0.844  14.978  -2.491  1.00  0.00     0.031 A 
ATOM     45  C   UNL     1       0.565  15.399  -2.158  1.00  0.00     0.074 A 
ATOM     46  C   UNL     1      -1.647  14.489  -1.526  1.00  0.00     0.049 A 
ATOM     47  N   UNL     1       1.180  15.384  -1.004  1.00  0.00    -0.248 NA
ATOM     48  C   UNL     1       1.402  15.874  -3.273  1.00  0.00     0.031 C 
ATOM     49  C   UNL     1      -3.002  13.972  -1.735  1.00  0.00     0.029 A 
ATOM     50  N   UNL     1      -1.433  14.318  -0.181  1.00  0.00    -0.354 N 
ATOM     51  C   UNL     1       2.481  15.801  -1.259  1.00  0.00     0.074 A 
ATOM     52  C   UNL     1       2.578  16.034  -2.683  1.00  0.00     0.031 C 
ATOM     53  C   UNL     1      -3.496  13.542  -0.564  1.00  0.00     0.029 A 
ATOM     54  C   UNL     1      -2.487  13.723   0.475  1.00  0.00     0.049 A 
ATOM     55  H   UNL     1      -0.603  14.594   0.272  1.00  0.00     0.167 HD
ATOM     56  C   UNL     1       3.497  15.999  -0.385  1.00  0.00     0.034 A 
ATOM     57  C   UNL     1      -2.622  13.357   1.764  1.00  0.00     0.034 A 
ATOM     58  C   UNL     1       3.380  15.814   1.036  1.00  0.00     0.049 A 
ATOM     59  C   UNL     1      -1.498  13.642   2.724  1.00  0.00     0.074 A 
ATOM     60  C   UNL     1       4.317  16.083   2.018  1.00  0.00     0.029 A 
ATOM     61  N   UNL     1       2.261  15.306   1.678  1.00  0.00    -0.354 N 
ATOM     62  N   UNL     1      -0.333  14.197   2.490  1.00  0.00    -0.248 NA
ATOM     63  C   UNL     1      -1.720  13.289   4.134  1.00  0.00     0.031 C 
ATOM     64  C   UNL     1       3.772  15.715   3.253  1.00  0.00     0.029 A 
ATOM     65  C   UNL     1       2.486  15.244   3.043  1.00  0.00     0.049 A 
ATOM     66  H   UNL     1       1.429  15.030   1.230  1.00  0.00     0.167 HD
ATOM     67  C   UNL     1       0.301  14.290   3.723  1.00  0.00     0.074 A 
ATOM     68  C   UNL     1      -0.619  13.757   4.706  1.00  0.00     0.031 C 
ATOM     69  C   UNL     1       1.539  14.761   4.015  1.00  0.00     0.034 A 
BRANCH  56  70
ATOM     70  C   UNL     1       4.811  16.495  -0.933  1.00  0.00     0.023 A 
ATOM     71  C   UNL     1       4.912  17.819  -1.408  1.00  0.00     0.012 A 
ATOM     72  C   UNL     1       5.958  15.677  -0.921  1.00  0.00     0.148 A 
ATOM     73  C   UNL     1       6.123  18.310  -1.895  1.00  0.00     0.002 A 
ATOM     74  C   UNL     1       7.173  16.189  -1.365  1.00  0.00     0.091 A 
ATOM     75  F   UNL     1       5.840  14.415  -0.484  1.00  0.00    -0.205 F 
ATOM     76  C   UNL     1       7.254  17.499  -1.863  1.00  0.00     0.022 A 
BRANCH  74  77
ATOM     77  S   UNL     1       8.706  15.255  -1.290  1.00  0.00     0.127 S 
ATOM     78  O   UNL     1       8.960  14.991  -2.705  1.00  0.00    -0.237 OA
ATOM     79  O   UNL     1       9.621  16.216  -0.675  1.00  0.00    -0.237 OA
ATOM     80  O   UNL     1       8.422  14.080  -0.477  1.00  0.00    -0.744 OA
ENDBRANCH  74  77
ENDBRANCH  56  70
BRANCH  57  81
ATOM     81  C   UNL     1      -3.900  12.748   2.236  1.00  0.00     0.023 A 
ATOM     82  C   UNL     1      -4.745  13.492   3.082  1.00  0.00     0.012 A 
ATOM     83  C   UNL     1      -4.297  11.458   1.832  1.00  0.00     0.148 A 
ATOM     84  C   UNL     1      -5.945  12.951   3.545  1.00  0.00     0.002 A 
ATOM     85  C   UNL     1      -5.519  10.945   2.253  1.00  0.00     0.091 A 
ATOM     86  F   UNL     1      -3.477  10.763   1.031  1.00  0.00    -0.205 F 
ATOM     87  C   UNL     1      -6.336  11.683   3.124  1.00  0.00     0.022 A 
BRANCH  85  88
ATOM     88  S   UNL     1      -6.166   9.373   1.671  1.00  0.00     0.127 S 
ATOM     89  O   UNL     1      -6.136   8.566   2.888  1.00  0.00    -0.237 OA
ATOM     90  O   UNL     1      -7.505   9.747   1.213  1.00  0.00    -0.237 OA
ATOM     91  O   UNL     1      -5.269   8.939   0.610  1.00  0.00    -0.744 OA
ENDBRANCH  85  88
ENDBRANCH  57  81
BRANCH  69  92
ATOM     92  C   UNL     1       1.967  14.758   5.459  1.00  0.00     0.023 A 
ATOM     93  C   UNL     1       2.283  13.540   6.095  1.00  0.00     0.012 A 
ATOM     94  C   UNL     1       2.133  15.968   6.162  1.00  0.00     0.148 A 
ATOM     95  C   UNL     1       2.725  13.525   7.417  1.00  0.00     0.002 A 
ATOM     96  C   UNL     1       2.622  15.948   7.462  1.00  0.00     0.091 A 
ATOM     97  F   UNL     1       1.810  17.114   5.546  1.00  0.00    -0.205 F 
ATOM     98  C   UNL     1       2.906  14.728   8.096  1.00  0.00     0.022 A 
BRANCH  96  99
ATOM     99  S   UNL     1       2.980  17.452   8.379  1.00  0.00     0.127 S 
ATOM    100  O   UNL     1       1.896  17.467   9.360  1.00  0.00    -0.237 OA
ATOM    101  O   UNL     1       4.303  17.168   8.936  1.00  0.00    -0.237 OA
ATOM    102  O   UNL     1       2.955  18.532   7.402  1.00  0.00    -0.744 OA
ENDBRANCH  96  99
ENDBRANCH  69  92
ENDBRANCH  43  44
ENDBRANCH  35  38
ENDBRANCH  33  34
ENDBRANCH  32  33
ENDBRANCH  31  32
ENDBRANCH  29  31
ENDBRANCH   1  27
TORSDOF 22
