REMARK SMILES C[C@@H](C(=O)NCCCNC(=O)c1ccc(-c2c3nc(c(-c4cccc(S(=O)(=O)[O-])c4F)c4ccc([nH]4)c(-c4cccc(S(=O)(=O)[O-])c4F)c4nc(c(-c5cccc(S(=O)(=O)[O-])c5F)c5ccc2[nH]5)C=C4)C=C3)cc1)N(C)C(=O)NC[C@H]1C[N@H+]2CCC[C@@H]2CO1
REMARK SMILES IDX 6 1 5 2 3 3 4 4 2 6 1 7 75 8 76 9 77 10 78 11 79 12 80 14
REMARK SMILES IDX 81 15 82 16 89 17 83 18 88 19 84 20 87 21 85 23 86 24 7 25
REMARK SMILES IDX 8 26 9 27 10 28 11 30 12 31 13 32 74 33 14 34 73 35 15 36
REMARK SMILES IDX 16 37 17 38 67 39 18 40 72 41 66 42 68 43 19 44 71 45 65 46
REMARK SMILES IDX 64 47 20 49 52 50 32 51 51 52 33 53 36 54 50 55 69 56 34 57
REMARK SMILES IDX 35 58 49 60 70 61 37 62 21 63 22 64 30 65 23 66 25 67 31 68
REMARK SMILES IDX 24 69 26 70 27 71 28 72 29 73 53 74 54 75 62 76 55 77 57 78
REMARK SMILES IDX 63 79 56 80 58 81 59 82 60 83 61 84 38 85 39 86 47 87 40 88
REMARK SMILES IDX 42 89 48 90 41 91 43 92 44 93 45 94 46 95
REMARK H PARENT 5 5 79 13 83 22 9 29 68 48 36 59
REMARK Flexibility Score: inf
ROOT
ATOM      1  C   UNL     1       3.377  -1.919  -0.005  1.00  0.00     0.117 C 
ENDROOT
BRANCH   1   2
ATOM      2  N   UNL     1       2.335  -2.509   0.804  1.00  0.00    -0.354 N 
ATOM      3  C   UNL     1       0.986  -2.318   0.775  1.00  0.00     0.242 C 
ATOM      4  O   UNL     1       0.321  -3.109   1.450  1.00  0.00    -0.273 OA
ATOM      5  H   UNL     1       2.650  -3.149   1.483  1.00  0.00     0.163 HD
BRANCH   3   6
ATOM      6  C   UNL     1       0.359  -1.234  -0.149  1.00  0.00     0.172 C 
ATOM      7  C   UNL     1       0.787   0.207   0.133  1.00  0.00     0.042 C 
BRANCH   6   8
ATOM      8  N   UNL     1      -1.112  -1.396  -0.179  1.00  0.00    -0.316 N 
ATOM      9  C   UNL     1      -1.628  -2.143  -1.311  1.00  0.00     0.149 C 
BRANCH   8  10
ATOM     10  C   UNL     1      -1.810  -1.068   0.956  1.00  0.00     0.317 C 
ATOM     11  O   UNL     1      -1.260  -0.639   1.974  1.00  0.00    -0.249 OA
ATOM     12  N   UNL     1      -3.149  -1.177   1.044  1.00  0.00    -0.335 N 
ATOM     13  H   UNL     1      -3.466  -1.290   1.969  1.00  0.00     0.165 HD
BRANCH  12  14
ATOM     14  C   UNL     1      -4.225  -1.166   0.073  1.00  0.00     0.155 C 
BRANCH  14  15
ATOM     15  C   UNL     1      -5.194  -2.362   0.191  1.00  0.00     0.192 C 
ATOM     16  C   UNL     1      -6.485  -1.992  -0.606  1.00  0.00     0.296 C 
ATOM     17  O   UNL     1      -4.534  -3.545  -0.317  1.00  0.00    -0.364 OA
ATOM     18  N   UNL     1      -7.322  -3.154  -0.907  1.00  0.00    -0.328 N 
ATOM     19  C   UNL     1      -5.442  -4.644  -0.493  1.00  0.00     0.225 C 
ATOM     20  C   UNL     1      -8.392  -2.913  -1.871  1.00  0.00     0.262 C 
ATOM     21  C   UNL     1      -6.487  -4.207  -1.506  1.00  0.00     0.210 C 
ATOM     22  H   UNL     1      -7.744  -3.407  -0.014  1.00  0.00     0.348 HD
ATOM     23  C   UNL     1      -8.606  -4.280  -2.534  1.00  0.00     0.068 C 
ATOM     24  C   UNL     1      -7.546  -5.200  -1.924  1.00  0.00     0.073 C 
ENDBRANCH  14  15
ENDBRANCH  12  14
ENDBRANCH   8  10
ENDBRANCH   6   8
ENDBRANCH   3   6
ENDBRANCH   1   2
BRANCH   1  25
ATOM     25  C   UNL     1       4.219  -0.921   0.777  1.00  0.00     0.042 C 
BRANCH  25  26
ATOM     26  C   UNL     1       4.955  -1.526   1.967  1.00  0.00     0.118 C 
BRANCH  26  27
ATOM     27  N   UNL     1       5.895  -2.565   1.575  1.00  0.00    -0.352 N 
ATOM     28  C   UNL     1       7.244  -2.663   1.798  1.00  0.00     0.251 C 
ATOM     29  H   UNL     1       5.501  -3.314   1.072  1.00  0.00     0.163 HD
ATOM     30  O   UNL     1       7.886  -3.532   1.207  1.00  0.00    -0.269 OA
BRANCH  28  31
ATOM     31  C   UNL     1       7.930  -1.742   2.731  1.00  0.00     0.039 A 
ATOM     32  C   UNL     1       9.221  -1.307   2.418  1.00  0.00     0.014 A 
ATOM     33  C   UNL     1       7.336  -1.349   3.934  1.00  0.00     0.014 A 
ATOM     34  C   UNL     1       9.902  -0.463   3.298  1.00  0.00     0.010 A 
ATOM     35  C   UNL     1       7.978  -0.434   4.763  1.00  0.00     0.010 A 
ATOM     36  C   UNL     1       9.281  -0.009   4.473  1.00  0.00    -0.014 A 
BRANCH  36  37
ATOM     37  C   UNL     1      10.004   0.864   5.433  1.00  0.00     0.031 A 
ATOM     38  C   UNL     1      10.283   0.378   6.832  1.00  0.00     0.074 A 
ATOM     39  C   UNL     1      10.359   2.111   5.069  1.00  0.00     0.049 A 
ATOM     40  N   UNL     1      10.883   0.996   7.816  1.00  0.00    -0.248 NA
ATOM     41  C   UNL     1       9.798  -0.969   7.181  1.00  0.00     0.031 C 
ATOM     42  C   UNL     1      10.065   2.731   3.776  1.00  0.00     0.029 A 
ATOM     43  N   UNL     1      11.024   3.089   5.764  1.00  0.00    -0.354 N 
ATOM     44  C   UNL     1      10.818   0.132   8.904  1.00  0.00     0.074 A 
ATOM     45  C   UNL     1      10.075  -1.032   8.474  1.00  0.00     0.031 C 
ATOM     46  C   UNL     1      10.551   3.982   3.768  1.00  0.00     0.029 A 
ATOM     47  C   UNL     1      11.173   4.261   5.059  1.00  0.00     0.049 A 
ATOM     48  H   UNL     1      11.363   2.965   6.679  1.00  0.00     0.167 HD
ATOM     49  C   UNL     1      11.361   0.271  10.137  1.00  0.00     0.034 A 
ATOM     50  C   UNL     1      11.747   5.427   5.414  1.00  0.00     0.034 A 
ATOM     51  C   UNL     1      12.134   1.411  10.547  1.00  0.00     0.049 A 
ATOM     52  C   UNL     1      12.403   5.535   6.763  1.00  0.00     0.074 A 
ATOM     53  C   UNL     1      12.788   1.624  11.748  1.00  0.00     0.029 A 
ATOM     54  N   UNL     1      12.360   2.534   9.764  1.00  0.00    -0.354 N 
ATOM     55  N   UNL     1      12.463   4.647   7.726  1.00  0.00    -0.248 NA
ATOM     56  C   UNL     1      13.116   6.786   7.057  1.00  0.00     0.031 C 
ATOM     57  C   UNL     1      13.397   2.883  11.696  1.00  0.00     0.029 A 
ATOM     58  C   UNL     1      13.148   3.441  10.452  1.00  0.00     0.049 A 
ATOM     59  H   UNL     1      12.011   2.666   8.854  1.00  0.00     0.167 HD
ATOM     60  C   UNL     1      13.252   5.213   8.721  1.00  0.00     0.074 A 
ATOM     61  C   UNL     1      13.663   6.514   8.234  1.00  0.00     0.031 C 
ATOM     62  C   UNL     1      13.595   4.708   9.932  1.00  0.00     0.034 A 
BRANCH  49  63
ATOM     63  C   UNL     1      11.184  -0.870  11.107  1.00  0.00     0.023 A 
ATOM     64  C   UNL     1      11.850  -2.092  10.868  1.00  0.00     0.012 A 
ATOM     65  C   UNL     1      10.394  -0.732  12.264  1.00  0.00     0.148 A 
ATOM     66  C   UNL     1      11.694  -3.171  11.737  1.00  0.00     0.002 A 
ATOM     67  C   UNL     1      10.284  -1.797  13.153  1.00  0.00     0.091 A 
ATOM     68  F   UNL     1       9.752   0.427  12.468  1.00  0.00    -0.205 F 
ATOM     69  C   UNL     1      10.919  -3.020  12.883  1.00  0.00     0.022 A 
BRANCH  67  70
ATOM     70  S   UNL     1       9.379  -1.677  14.700  1.00  0.00     0.127 S 
ATOM     71  O   UNL     1       8.203  -2.499  14.419  1.00  0.00    -0.237 OA
ATOM     72  O   UNL     1      10.320  -2.267  15.654  1.00  0.00    -0.237 OA
ATOM     73  O   UNL     1       9.120  -0.260  14.904  1.00  0.00    -0.744 OA
ENDBRANCH  67  70
ENDBRANCH  49  63
BRANCH  50  74
ATOM     74  C   UNL     1      11.796   6.553   4.439  1.00  0.00     0.023 A 
ATOM     75  C   UNL     1      13.023   6.905   3.845  1.00  0.00     0.012 A 
ATOM     76  C   UNL     1      10.627   7.245   4.066  1.00  0.00     0.148 A 
ATOM     77  C   UNL     1      13.092   7.949   2.922  1.00  0.00     0.002 A 
ATOM     78  C   UNL     1      10.694   8.247   3.104  1.00  0.00     0.091 A 
ATOM     79  F   UNL     1       9.471   6.897   4.648  1.00  0.00    -0.205 F 
ATOM     80  C   UNL     1      11.928   8.612   2.544  1.00  0.00     0.022 A 
BRANCH  78  81
ATOM     81  S   UNL     1       9.228   9.059   2.459  1.00  0.00     0.127 S 
ATOM     82  O   UNL     1       9.375  10.411   2.999  1.00  0.00    -0.237 OA
ATOM     83  O   UNL     1       9.438   8.952   1.013  1.00  0.00    -0.237 OA
ATOM     84  O   UNL     1       8.099   8.297   2.960  1.00  0.00    -0.744 OA
ENDBRANCH  78  81
ENDBRANCH  50  74
BRANCH  62  85
ATOM     85  C   UNL     1      14.502   5.538  10.802  1.00  0.00     0.023 A 
ATOM     86  C   UNL     1      14.013   6.707  11.418  1.00  0.00     0.012 A 
ATOM     87  C   UNL     1      15.823   5.121  11.059  1.00  0.00     0.148 A 
ATOM     88  C   UNL     1      14.838   7.470  12.245  1.00  0.00     0.002 A 
ATOM     89  C   UNL     1      16.622   5.858  11.925  1.00  0.00     0.091 A 
ATOM     90  F   UNL     1      16.277   4.017  10.448  1.00  0.00    -0.205 F 
ATOM     91  C   UNL     1      16.137   7.039  12.507  1.00  0.00     0.022 A 
BRANCH  89  92
ATOM     92  S   UNL     1      18.271   5.322  12.394  1.00  0.00     0.127 S 
ATOM     93  O   UNL     1      19.113   6.218  11.603  1.00  0.00    -0.237 OA
ATOM     94  O   UNL     1      18.288   5.584  13.834  1.00  0.00    -0.237 OA
ATOM     95  O   UNL     1      18.348   3.911  12.039  1.00  0.00    -0.744 OA
ENDBRANCH  89  92
ENDBRANCH  62  85
ENDBRANCH  36  37
ENDBRANCH  28  31
ENDBRANCH  26  27
ENDBRANCH  25  26
ENDBRANCH   1  25
TORSDOF 17
