REMARK SMILES N#Cc1cc2c(nc1N(CC(=O)NCCCNC(=O)c1ccc(-c3c4nc(c(-c5cccc(S(=O)(=O)[O-])c5F)c5ccc([nH]5)c(-c5cccc(S(=O)(=O)[O-])c5F)c5nc(c(-c6cccc(S(=O)(=O)[O-])c6F)c6ccc3[nH]6)C=C5)C=C4)cc1)CC(F)(F)F)CCC2
REMARK SMILES IDX 15 1 14 2 13 3 11 4 12 5 10 7 9 8 8 9 3 10 4 11 5 12 7 13
REMARK SMILES IDX 6 14 90 15 88 16 89 17 2 18 1 19 83 20 84 21 85 22 86 23
REMARK SMILES IDX 87 24 16 25 17 26 18 27 19 29 20 30 21 31 82 32 22 33 81 34
REMARK SMILES IDX 23 35 24 36 25 37 75 38 26 39 80 40 74 41 76 42 27 43 79 44
REMARK SMILES IDX 73 45 72 46 28 48 60 49 40 50 59 51 41 52 44 53 58 54 77 55
REMARK SMILES IDX 42 56 43 57 57 59 78 60 45 61 29 62 30 63 38 64 31 65 33 66
REMARK SMILES IDX 39 67 32 68 34 69 35 70 36 71 37 72 61 73 62 74 70 75 63 76
REMARK SMILES IDX 65 77 71 78 64 79 66 80 67 81 68 82 69 83 46 84 47 85 55 86
REMARK SMILES IDX 48 87 50 88 56 89 49 90 51 91 52 92 53 93 54 94
REMARK H PARENT 13 6 17 28 76 47 44 58
REMARK Flexibility Score: inf
ROOT
ATOM      1  C   UNL     1       4.449  -1.975   3.470  1.00  0.00     0.042 C 
ENDROOT
BRANCH   1   2
ATOM      2  C   UNL     1       5.325  -2.995   2.752  1.00  0.00     0.117 C 
BRANCH   2   3
ATOM      3  N   UNL     1       4.580  -4.161   2.311  1.00  0.00    -0.354 N 
ATOM      4  C   UNL     1       4.136  -4.470   1.059  1.00  0.00     0.239 C 
ATOM      5  O   UNL     1       3.496  -5.514   0.905  1.00  0.00    -0.273 OA
ATOM      6  H   UNL     1       4.366  -4.818   3.012  1.00  0.00     0.163 HD
BRANCH   4   7
ATOM      7  C   UNL     1       4.428  -3.541  -0.125  1.00  0.00     0.218 C 
BRANCH   7   8
ATOM      8  N   UNL     1       3.581  -2.322  -0.128  1.00  0.00    -0.337 N 
BRANCH   8   9
ATOM      9  C   UNL     1       4.211  -1.087  -0.190  1.00  0.00     0.147 A 
ATOM     10  C   UNL     1       3.591   0.182  -0.307  1.00  0.00     0.095 A 
ATOM     11  C   UNL     1       4.353   1.367  -0.209  1.00  0.00     0.029 A 
ATOM     12  C   UNL     1       5.717   1.265  -0.085  1.00  0.00    -0.025 A 
ATOM     13  N   UNL     1       5.573  -1.137  -0.106  1.00  0.00    -0.234 NA
ATOM     14  C   UNL     1       6.275   0.007  -0.069  1.00  0.00     0.046 A 
ATOM     15  C   UNL     1       6.754   2.325   0.062  1.00  0.00     0.038 C 
ATOM     16  C   UNL     1       7.772   0.082   0.041  1.00  0.00     0.057 C 
ATOM     17  C   UNL     1       8.019   1.550  -0.339  1.00  0.00     0.011 C 
BRANCH  10  18
ATOM     18  C   UNL     1       2.205   0.368  -0.613  1.00  0.00     0.103 C 
ATOM     19  N   UNL     1       1.093   0.486  -0.914  1.00  0.00    -0.192 NA
ENDBRANCH  10  18
ENDBRANCH   8   9
BRANCH   8  20
ATOM     20  C   UNL     1       2.109  -2.569  -0.114  1.00  0.00     0.234 C 
BRANCH  20  21
ATOM     21  C   UNL     1       1.365  -2.287   1.207  1.00  0.00     0.405 C 
ATOM     22  F   UNL     1       1.631  -1.062   1.705  1.00  0.00    -0.169 F 
ATOM     23  F   UNL     1       0.028  -2.381   1.028  1.00  0.00    -0.169 F 
ATOM     24  F   UNL     1       1.699  -3.186   2.164  1.00  0.00    -0.169 F 
ENDBRANCH  20  21
ENDBRANCH   8  20
ENDBRANCH   7   8
ENDBRANCH   4   7
ENDBRANCH   2   3
ENDBRANCH   1   2
BRANCH   1  25
ATOM     25  C   UNL     1       3.858  -2.494   4.777  1.00  0.00     0.118 C 
BRANCH  25  26
ATOM     26  N   UNL     1       4.886  -2.700   5.791  1.00  0.00    -0.352 N 
ATOM     27  C   UNL     1       5.069  -2.057   6.990  1.00  0.00     0.251 C 
ATOM     28  H   UNL     1       5.544  -3.403   5.586  1.00  0.00     0.163 HD
ATOM     29  O   UNL     1       6.130  -2.184   7.594  1.00  0.00    -0.269 OA
BRANCH  27  30
ATOM     30  C   UNL     1       3.995  -1.205   7.544  1.00  0.00     0.039 A 
ATOM     31  C   UNL     1       4.327   0.036   8.092  1.00  0.00     0.014 A 
ATOM     32  C   UNL     1       2.665  -1.635   7.535  1.00  0.00     0.014 A 
ATOM     33  C   UNL     1       3.317   0.869   8.577  1.00  0.00     0.010 A 
ATOM     34  C   UNL     1       1.653  -0.772   7.947  1.00  0.00     0.010 A 
ATOM     35  C   UNL     1       1.968   0.487   8.479  1.00  0.00    -0.014 A 
BRANCH  35  36
ATOM     36  C   UNL     1       0.882   1.397   8.926  1.00  0.00     0.031 A 
ATOM     37  C   UNL     1      -0.018   1.002  10.068  1.00  0.00     0.074 A 
ATOM     38  C   UNL     1       0.686   2.566   8.280  1.00  0.00     0.049 A 
ATOM     39  N   UNL     1      -1.018   1.662  10.591  1.00  0.00    -0.248 NA
ATOM     40  C   UNL     1       0.226  -0.307  10.699  1.00  0.00     0.031 C 
ATOM     41  C   UNL     1       1.460   3.034   7.128  1.00  0.00     0.029 A 
ATOM     42  N   UNL     1      -0.226   3.571   8.493  1.00  0.00    -0.354 N 
ATOM     43  C   UNL     1      -1.524   0.852  11.600  1.00  0.00     0.074 A 
ATOM     44  C   UNL     1      -0.755  -0.371  11.589  1.00  0.00     0.031 C 
ATOM     45  C   UNL     1       1.010   4.243   6.755  1.00  0.00     0.029 A 
ATOM     46  C   UNL     1      -0.109   4.622   7.611  1.00  0.00     0.049 A 
ATOM     47  H   UNL     1      -0.900   3.542   9.210  1.00  0.00     0.167 HD
ATOM     48  C   UNL     1      -2.513   1.120  12.483  1.00  0.00     0.034 A 
ATOM     49  C   UNL     1      -0.824   5.761   7.504  1.00  0.00     0.034 A 
ATOM     50  C   UNL     1      -3.253   2.353  12.512  1.00  0.00     0.049 A 
ATOM     51  C   UNL     1      -1.936   6.014   8.491  1.00  0.00     0.074 A 
ATOM     52  C   UNL     1      -4.245   2.733  13.399  1.00  0.00     0.029 A 
ATOM     53  N   UNL     1      -3.083   3.402  11.624  1.00  0.00    -0.354 N 
ATOM     54  N   UNL     1      -2.311   5.290   9.516  1.00  0.00    -0.248 NA
ATOM     55  C   UNL     1      -2.704   7.259   8.326  1.00  0.00     0.031 C 
ATOM     56  C   UNL     1      -4.697   4.000  13.029  1.00  0.00     0.029 A 
ATOM     57  C   UNL     1      -3.957   4.428  11.938  1.00  0.00     0.049 A 
ATOM     58  H   UNL     1      -2.438   3.416  10.880  1.00  0.00     0.167 HD
ATOM     59  C   UNL     1      -3.321   6.011  10.144  1.00  0.00     0.074 A 
ATOM     60  C   UNL     1      -3.486   7.239   9.397  1.00  0.00     0.031 C 
ATOM     61  C   UNL     1      -4.058   5.677  11.232  1.00  0.00     0.034 A 
BRANCH  48  62
ATOM     62  C   UNL     1      -2.815   0.107  13.557  1.00  0.00     0.023 A 
ATOM     63  C   UNL     1      -1.907  -0.049  14.624  1.00  0.00     0.012 A 
ATOM     64  C   UNL     1      -4.052  -0.565  13.597  1.00  0.00     0.148 A 
ATOM     65  C   UNL     1      -2.222  -0.863  15.711  1.00  0.00     0.002 A 
ATOM     66  C   UNL     1      -4.379  -1.336  14.706  1.00  0.00     0.091 A 
ATOM     67  F   UNL     1      -4.896  -0.411  12.566  1.00  0.00    -0.205 F 
ATOM     68  C   UNL     1      -3.463  -1.491  15.760  1.00  0.00     0.022 A 
BRANCH  66  69
ATOM     69  S   UNL     1      -5.986  -2.112  14.916  1.00  0.00     0.127 S 
ATOM     70  O   UNL     1      -5.624  -3.529  14.971  1.00  0.00    -0.237 OA
ATOM     71  O   UNL     1      -6.433  -1.547  16.188  1.00  0.00    -0.237 OA
ATOM     72  O   UNL     1      -6.778  -1.726  13.757  1.00  0.00    -0.744 OA
ENDBRANCH  66  69
ENDBRANCH  48  62
BRANCH  49  73
ATOM     73  C   UNL     1      -0.477   6.785   6.474  1.00  0.00     0.023 A 
ATOM     74  C   UNL     1      -0.013   8.050   6.888  1.00  0.00     0.012 A 
ATOM     75  C   UNL     1      -0.609   6.526   5.095  1.00  0.00     0.148 A 
ATOM     76  C   UNL     1       0.265   9.051   5.957  1.00  0.00     0.002 A 
ATOM     77  C   UNL     1      -0.267   7.506   4.169  1.00  0.00     0.091 A 
ATOM     78  F   UNL     1      -1.062   5.324   4.714  1.00  0.00    -0.205 F 
ATOM     79  C   UNL     1       0.146   8.777   4.598  1.00  0.00     0.022 A 
BRANCH  77  80
ATOM     80  S   UNL     1      -0.251   7.200   2.399  1.00  0.00     0.127 S 
ATOM     81  O   UNL     1      -1.373   8.017   1.944  1.00  0.00    -0.237 OA
ATOM     82  O   UNL     1       1.071   7.700   2.019  1.00  0.00    -0.237 OA
ATOM     83  O   UNL     1      -0.412   5.761   2.249  1.00  0.00    -0.744 OA
ENDBRANCH  77  80
ENDBRANCH  49  73
BRANCH  61  84
ATOM     84  C   UNL     1      -5.084   6.662  11.731  1.00  0.00     0.023 A 
ATOM     85  C   UNL     1      -6.268   6.875  10.999  1.00  0.00     0.012 A 
ATOM     86  C   UNL     1      -4.931   7.272  12.993  1.00  0.00     0.148 A 
ATOM     87  C   UNL     1      -7.275   7.694  11.505  1.00  0.00     0.002 A 
ATOM     88  C   UNL     1      -5.963   8.039  13.517  1.00  0.00     0.091 A 
ATOM     89  F   UNL     1      -3.791   7.065  13.669  1.00  0.00    -0.205 F 
ATOM     90  C   UNL     1      -7.131   8.262  12.769  1.00  0.00     0.022 A 
BRANCH  88  91
ATOM     91  S   UNL     1      -5.920   8.715  15.181  1.00  0.00     0.127 S 
ATOM     92  O   UNL     1      -5.884  10.153  14.916  1.00  0.00    -0.237 OA
ATOM     93  O   UNL     1      -7.181   8.230  15.742  1.00  0.00    -0.237 OA
ATOM     94  O   UNL     1      -4.724   8.172  15.809  1.00  0.00    -0.744 OA
ENDBRANCH  88  91
ENDBRANCH  61  84
ENDBRANCH  35  36
ENDBRANCH  27  30
ENDBRANCH  25  26
ENDBRANCH   1  25
TORSDOF 18
