REMARK SMILES Cc1ccccc1NC(=O)NC[C@@H]1CC[C@@H](C(=O)NCCCNC(=O)c2ccc(-c3c4nc(c(-c5cccc(S(=O)(=O)[O-])c5F)c5ccc([nH]5)c(-c5cccc(S(=O)(=O)[O-])c5F)c5nc(c(-c6cccc(S(=O)(=O)[O-])c6F)c6ccc3[nH]6)C=C5)C=C4)cc2)O1
REMARK SMILES IDX 21 1 20 2 19 3 17 4 18 5 16 7 13 8 14 9 89 10 15 11 12 12
REMARK SMILES IDX 11 13 8 14 9 15 10 17 7 19 1 20 2 21 3 22 4 23 6 24 5 25
REMARK SMILES IDX 22 26 23 27 24 28 25 30 26 31 27 32 88 33 28 34 87 35 29 36
REMARK SMILES IDX 30 37 31 38 81 39 32 40 86 41 80 42 82 43 33 44 85 45 79 46
REMARK SMILES IDX 78 47 34 49 66 50 46 51 65 52 47 53 50 54 64 55 83 56 48 57
REMARK SMILES IDX 49 58 63 60 84 61 51 62 35 63 36 64 44 65 37 66 39 67 45 68
REMARK SMILES IDX 38 69 40 70 41 71 42 72 43 73 67 74 68 75 76 76 69 77 71 78
REMARK SMILES IDX 77 79 70 80 72 81 73 82 74 83 75 84 52 85 53 86 61 87 54 88
REMARK SMILES IDX 56 89 62 90 55 91 57 92 58 93 59 94 60 95
REMARK H PARENT 19 6 8 16 11 18 23 29 82 48 50 59
REMARK Flexibility Score: inf
ROOT
ATOM      1  C   UNL     1      -7.093   1.007   3.792  1.00  0.00     0.042 C 
ENDROOT
BRANCH   1   2
ATOM      2  C   UNL     1      -7.660   2.267   3.134  1.00  0.00     0.117 C 
BRANCH   2   3
ATOM      3  N   UNL     1      -6.846   3.453   3.368  1.00  0.00    -0.354 N 
ATOM      4  C   UNL     1      -5.831   4.006   2.625  1.00  0.00     0.249 C 
ATOM      5  O   UNL     1      -5.351   5.073   3.013  1.00  0.00    -0.272 OA
ATOM      6  H   UNL     1      -7.059   3.940   4.197  1.00  0.00     0.163 HD
BRANCH   4   7
ATOM      7  C   UNL     1      -5.347   3.331   1.314  1.00  0.00     0.207 C 
ATOM      8  C   UNL     1      -3.123   2.921   0.665  1.00  0.00     0.138 C 
ATOM      9  C   UNL     1      -3.916   1.645   0.487  1.00  0.00     0.037 C 
ATOM     10  O   UNL     1      -4.158   3.932   0.721  1.00  0.00    -0.363 OA
ATOM     11  C   UNL     1      -4.994   1.868   1.500  1.00  0.00     0.045 C 
BRANCH   8  12
ATOM     12  C   UNL     1      -2.085   3.152  -0.452  1.00  0.00     0.149 C 
BRANCH  12  13
ATOM     13  N   UNL     1      -0.847   3.729   0.072  1.00  0.00    -0.335 N 
ATOM     14  N   UNL     1       0.981   2.154   0.101  1.00  0.00    -0.308 N 
ATOM     15  C   UNL     1       0.430   3.371   0.214  1.00  0.00     0.319 C 
ATOM     16  H   UNL     1       1.959   2.228   0.018  1.00  0.00     0.171 HD
ATOM     17  O   UNL     1       1.227   4.297   0.428  1.00  0.00    -0.249 OA
ATOM     18  H   UNL     1      -0.999   4.639   0.416  1.00  0.00     0.165 HD
BRANCH  14  19
ATOM     19  C   UNL     1       0.592   0.803   0.065  1.00  0.00     0.045 A 
ATOM     20  C   UNL     1       3.015   0.004  -0.343  1.00  0.00     0.046 C 
ATOM     21  C   UNL     1       1.527  -0.210  -0.246  1.00  0.00    -0.027 A 
ATOM     22  C   UNL     1       1.091  -1.550  -0.366  1.00  0.00     0.005 A 
ATOM     23  C   UNL     1      -0.237  -1.897  -0.157  1.00  0.00     0.000 A 
ATOM     24  C   UNL     1      -0.689   0.399   0.407  1.00  0.00     0.026 A 
ATOM     25  C   UNL     1      -1.124  -0.922   0.261  1.00  0.00     0.002 A 
ENDBRANCH  14  19
ENDBRANCH  12  13
ENDBRANCH   8  12
ENDBRANCH   4   7
ENDBRANCH   2   3
ENDBRANCH   1   2
BRANCH   1  26
ATOM     26  C   UNL     1      -7.426   0.866   5.270  1.00  0.00     0.118 C 
BRANCH  26  27
ATOM     27  N   UNL     1      -8.316  -0.256   5.553  1.00  0.00    -0.352 N 
ATOM     28  C   UNL     1      -8.723  -0.746   6.790  1.00  0.00     0.251 C 
ATOM     29  H   UNL     1      -8.676  -0.727   4.767  1.00  0.00     0.163 HD
ATOM     30  O   UNL     1      -9.404  -1.746   6.865  1.00  0.00    -0.269 OA
BRANCH  28  31
ATOM     31  C   UNL     1      -8.383   0.065   7.984  1.00  0.00     0.039 A 
ATOM     32  C   UNL     1      -9.443   0.669   8.665  1.00  0.00     0.014 A 
ATOM     33  C   UNL     1      -7.070   0.488   8.172  1.00  0.00     0.014 A 
ATOM     34  C   UNL     1      -9.226   1.879   9.315  1.00  0.00     0.010 A 
ATOM     35  C   UNL     1      -6.867   1.726   8.745  1.00  0.00     0.010 A 
ATOM     36  C   UNL     1      -7.961   2.453   9.236  1.00  0.00    -0.014 A 
BRANCH  36  37
ATOM     37  C   UNL     1      -7.672   3.837   9.572  1.00  0.00     0.031 A 
ATOM     38  C   UNL     1      -7.124   4.171  10.896  1.00  0.00     0.074 A 
ATOM     39  C   UNL     1      -7.760   4.783   8.609  1.00  0.00     0.049 A 
ATOM     40  N   UNL     1      -6.995   5.375  11.335  1.00  0.00    -0.248 NA
ATOM     41  C   UNL     1      -6.737   3.151  11.864  1.00  0.00     0.031 C 
ATOM     42  C   UNL     1      -7.140   6.103   8.608  1.00  0.00     0.029 A 
ATOM     43  N   UNL     1      -8.648   4.823   7.527  1.00  0.00    -0.354 N 
ATOM     44  C   UNL     1      -6.239   5.308  12.481  1.00  0.00     0.074 A 
ATOM     45  C   UNL     1      -6.242   3.914  12.843  1.00  0.00     0.031 C 
ATOM     46  C   UNL     1      -7.842   6.909   7.799  1.00  0.00     0.029 A 
ATOM     47  C   UNL     1      -9.026   6.175   7.391  1.00  0.00     0.049 A 
ATOM     48  H   UNL     1      -8.946   4.064   6.976  1.00  0.00     0.167 HD
ATOM     49  C   UNL     1      -5.581   6.429  12.886  1.00  0.00     0.034 A 
ATOM     50  C   UNL     1     -10.313   6.612   7.523  1.00  0.00     0.034 A 
ATOM     51  C   UNL     1      -6.120   7.624  12.213  1.00  0.00     0.049 A 
ATOM     52  C   UNL     1     -10.505   7.617   8.653  1.00  0.00     0.074 A 
ATOM     53  C   UNL     1      -5.700   8.460  11.193  1.00  0.00     0.029 A 
ATOM     54  N   UNL     1      -7.446   7.950  12.447  1.00  0.00    -0.354 N 
ATOM     55  N   UNL     1      -9.543   8.116   9.381  1.00  0.00    -0.248 NA
ATOM     56  C   UNL     1     -11.826   8.053   9.113  1.00  0.00     0.031 C 
ATOM     57  C   UNL     1      -6.832   9.218  10.754  1.00  0.00     0.029 A 
ATOM     58  C   UNL     1      -7.924   8.869  11.531  1.00  0.00     0.049 A 
ATOM     59  H   UNL     1      -7.984   7.572  13.180  1.00  0.00     0.167 HD
ATOM     60  C   UNL     1     -10.084   8.750  10.471  1.00  0.00     0.074 A 
ATOM     61  C   UNL     1     -11.517   8.730  10.232  1.00  0.00     0.031 C 
ATOM     62  C   UNL     1      -9.348   9.183  11.539  1.00  0.00     0.034 A 
BRANCH  49  63
ATOM     63  C   UNL     1      -4.343   6.460  13.769  1.00  0.00     0.023 A 
ATOM     64  C   UNL     1      -3.736   7.720  13.976  1.00  0.00     0.012 A 
ATOM     65  C   UNL     1      -3.650   5.349  14.316  1.00  0.00     0.148 A 
ATOM     66  C   UNL     1      -2.518   7.869  14.651  1.00  0.00     0.002 A 
ATOM     67  C   UNL     1      -2.457   5.500  15.028  1.00  0.00     0.091 A 
ATOM     68  F   UNL     1      -4.082   4.109  14.099  1.00  0.00    -0.205 F 
ATOM     69  C   UNL     1      -1.879   6.759  15.185  1.00  0.00     0.022 A 
BRANCH  67  70
ATOM     70  S   UNL     1      -1.582   4.099  15.756  1.00  0.00     0.127 S 
ATOM     71  O   UNL     1      -0.357   4.059  14.958  1.00  0.00    -0.237 OA
ATOM     72  O   UNL     1      -1.393   4.534  17.140  1.00  0.00    -0.237 OA
ATOM     73  O   UNL     1      -2.453   2.940  15.602  1.00  0.00    -0.744 OA
ENDBRANCH  67  70
ENDBRANCH  49  63
BRANCH  50  74
ATOM     74  C   UNL     1     -11.320   5.598   7.093  1.00  0.00     0.023 A 
ATOM     75  C   UNL     1     -11.293   5.206   5.732  1.00  0.00     0.012 A 
ATOM     76  C   UNL     1     -11.985   4.781   8.021  1.00  0.00     0.148 A 
ATOM     77  C   UNL     1     -11.793   3.966   5.334  1.00  0.00     0.002 A 
ATOM     78  C   UNL     1     -12.492   3.550   7.614  1.00  0.00     0.091 A 
ATOM     79  F   UNL     1     -12.038   5.170   9.301  1.00  0.00    -0.205 F 
ATOM     80  C   UNL     1     -12.362   3.124   6.283  1.00  0.00     0.022 A 
BRANCH  78  81
ATOM     81  S   UNL     1     -13.209   2.401   8.795  1.00  0.00     0.127 S 
ATOM     82  O   UNL     1     -14.630   2.705   8.668  1.00  0.00    -0.237 OA
ATOM     83  O   UNL     1     -12.803   1.105   8.252  1.00  0.00    -0.237 OA
ATOM     84  O   UNL     1     -12.582   2.737  10.065  1.00  0.00    -0.744 OA
ENDBRANCH  78  81
ENDBRANCH  50  74
BRANCH  62  85
ATOM     85  C   UNL     1      -9.960   9.953  12.689  1.00  0.00     0.023 A 
ATOM     86  C   UNL     1     -10.873  10.997  12.428  1.00  0.00     0.012 A 
ATOM     87  C   UNL     1      -9.538   9.783  14.028  1.00  0.00     0.148 A 
ATOM     88  C   UNL     1     -11.369  11.811  13.451  1.00  0.00     0.002 A 
ATOM     89  C   UNL     1      -9.953  10.662  15.025  1.00  0.00     0.091 A 
ATOM     90  F   UNL     1      -8.774   8.733  14.354  1.00  0.00    -0.205 F 
ATOM     91  C   UNL     1     -10.889  11.661  14.745  1.00  0.00     0.022 A 
BRANCH  89  92
ATOM     92  S   UNL     1      -9.206  10.666  16.662  1.00  0.00     0.127 S 
ATOM     93  O   UNL     1      -8.970  12.095  16.883  1.00  0.00    -0.237 OA
ATOM     94  O   UNL     1     -10.269  10.091  17.481  1.00  0.00    -0.237 OA
ATOM     95  O   UNL     1      -7.990   9.874  16.540  1.00  0.00    -0.744 OA
ENDBRANCH  89  92
ENDBRANCH  62  85
ENDBRANCH  36  37
ENDBRANCH  28  31
ENDBRANCH  26  27
ENDBRANCH   1  26
TORSDOF 16
