REMARK SMILES CC[NH2+][C@@]1(C(=O)NCCCNC(=O)c2ccc(-c3c4nc(c(-c5cccc(S(=O)(=O)[O-])c5F)c5ccc([nH]5)c(-c5cccc(S(=O)(=O)[O-])c5F)c5nc(c(-c6cccc(S(=O)(=O)[O-])c6F)c6ccc3[nH]6)C=C5)C=C4)cc2)CCC[C@@H]1CC[N@@H+](C)C1CCCC1
REMARK SMILES IDX 8 1 7 2 5 3 6 4 4 6 77 7 80 8 78 9 79 10 3 11 2 14 1 15
REMARK SMILES IDX 81 16 82 17 83 18 84 19 85 21 86 22 89 23 87 24 88 25 9 26
REMARK SMILES IDX 10 27 11 28 12 29 13 31 14 32 15 33 76 34 16 35 75 36 17 37
REMARK SMILES IDX 18 38 19 39 69 40 20 41 74 42 68 43 70 44 21 45 73 46 67 47
REMARK SMILES IDX 66 48 22 50 54 51 34 52 53 53 35 54 38 55 52 56 71 57 36 58
REMARK SMILES IDX 37 59 51 61 72 62 39 63 23 64 24 65 32 66 25 67 27 68 33 69
REMARK SMILES IDX 26 70 28 71 29 72 30 73 31 74 55 75 56 76 64 77 57 78 59 79
REMARK SMILES IDX 65 80 58 81 60 82 61 83 62 84 63 85 40 86 41 87 49 88 42 89
REMARK SMILES IDX 44 90 50 91 43 92 45 93 46 94 47 95 48 96
REMARK H PARENT 7 5 3 12 3 13 83 20 11 30 70 49 38 60
REMARK Flexibility Score: inf
ROOT
ATOM      1  C   UNL     1      -0.463  -2.815   6.345  1.00  0.00     0.118 C 
ENDROOT
BRANCH   1   2
ATOM      2  N   UNL     1       0.018  -1.652   5.617  1.00  0.00    -0.351 N 
ATOM      3  C   UNL     1      -0.344  -1.249   4.351  1.00  0.00     0.281 C 
ATOM      4  O   UNL     1      -0.701  -0.069   4.239  1.00  0.00    -0.268 OA
ATOM      5  H   UNL     1       0.677  -1.088   6.082  1.00  0.00     0.163 HD
BRANCH   3   6
ATOM      6  C   UNL     1      -0.379  -2.240   3.112  1.00  0.00     0.178 C 
ATOM      7  C   UNL     1      -1.653  -3.088   3.253  1.00  0.00     0.079 C 
ATOM      8  C   UNL     1       0.850  -3.185   3.019  1.00  0.00     0.066 C 
ATOM      9  C   UNL     1      -1.198  -4.534   3.339  1.00  0.00     0.008 C 
ATOM     10  C   UNL     1       0.318  -4.530   3.544  1.00  0.00     0.011 C 
BRANCH   6  11
ATOM     11  N   UNL     1      -0.420  -1.469   1.824  1.00  0.00    -0.334 N 
ATOM     12  H   UNL     1      -1.118  -0.732   1.927  1.00  0.00     0.347 HD
ATOM     13  H   UNL     1       0.532  -1.134   1.679  1.00  0.00     0.347 HD
BRANCH  11  14
ATOM     14  C   UNL     1      -0.752  -2.232   0.614  1.00  0.00     0.257 C 
ATOM     15  C   UNL     1       0.078  -1.800  -0.588  1.00  0.00     0.071 C 
ENDBRANCH  11  14
ENDBRANCH   6  11
BRANCH   8  16
ATOM     16  C   UNL     1       2.219  -2.731   3.607  1.00  0.00     0.072 C 
BRANCH  16  17
ATOM     17  C   UNL     1       3.096  -1.714   2.806  1.00  0.00     0.262 C 
BRANCH  17  18
ATOM     18  N   UNL     1       3.093  -0.277   3.208  1.00  0.00    -0.335 N 
ATOM     19  C   UNL     1       4.399   0.330   2.935  1.00  0.00     0.332 C 
ATOM     20  H   UNL     1       2.917  -0.242   4.212  1.00  0.00     0.348 HD
BRANCH  18  21
ATOM     21  C   UNL     1       2.011   0.485   2.575  1.00  0.00     0.183 C 
ATOM     22  C   UNL     1       1.716   1.906   3.081  1.00  0.00     0.065 C 
ATOM     23  C   UNL     1       2.034   0.731   1.063  1.00  0.00     0.065 C 
ATOM     24  C   UNL     1       0.573   2.351   2.160  1.00  0.00     0.006 C 
ATOM     25  C   UNL     1       0.821   1.638   0.828  1.00  0.00     0.006 C 
ENDBRANCH  18  21
ENDBRANCH  17  18
ENDBRANCH  16  17
ENDBRANCH   8  16
ENDBRANCH   3   6
ENDBRANCH   1   2
BRANCH   1  26
ATOM     26  C   UNL     1       0.608  -3.700   6.976  1.00  0.00     0.042 C 
BRANCH  26  27
ATOM     27  C   UNL     1       1.097  -3.248   8.343  1.00  0.00     0.118 C 
BRANCH  27  28
ATOM     28  N   UNL     1       0.020  -3.190   9.326  1.00  0.00    -0.352 N 
ATOM     29  C   UNL     1      -0.336  -4.051  10.336  1.00  0.00     0.251 C 
ATOM     30  H   UNL     1      -0.552  -2.393   9.254  1.00  0.00     0.163 HD
ATOM     31  O   UNL     1      -1.445  -3.934  10.852  1.00  0.00    -0.269 OA
BRANCH  29  32
ATOM     32  C   UNL     1       0.588  -5.105  10.811  1.00  0.00     0.039 A 
ATOM     33  C   UNL     1       0.064  -6.328  11.244  1.00  0.00     0.014 A 
ATOM     34  C   UNL     1       1.962  -4.877  10.894  1.00  0.00     0.014 A 
ATOM     35  C   UNL     1       0.923  -7.333  11.699  1.00  0.00     0.010 A 
ATOM     36  C   UNL     1       2.822  -5.912  11.242  1.00  0.00     0.010 A 
ATOM     37  C   UNL     1       2.314  -7.146  11.668  1.00  0.00    -0.014 A 
BRANCH  37  38
ATOM     38  C   UNL     1       3.252  -8.227  12.069  1.00  0.00     0.031 A 
ATOM     39  C   UNL     1       4.233  -8.015  13.191  1.00  0.00     0.074 A 
ATOM     40  C   UNL     1       3.293  -9.366  11.349  1.00  0.00     0.049 A 
ATOM     41  N   UNL     1       5.155  -8.824  13.645  1.00  0.00    -0.248 NA
ATOM     42  C   UNL     1       4.203  -6.707  13.867  1.00  0.00     0.031 C 
ATOM     43  C   UNL     1       2.474  -9.645  10.168  1.00  0.00     0.029 A 
ATOM     44  N   UNL     1       4.075 -10.485  11.484  1.00  0.00    -0.354 N 
ATOM     45  C   UNL     1       5.843  -8.110  14.620  1.00  0.00     0.074 A 
ATOM     46  C   UNL     1       5.260  -6.788  14.661  1.00  0.00     0.031 C 
ATOM     47  C   UNL     1       2.791 -10.858   9.690  1.00  0.00     0.029 A 
ATOM     48  C   UNL     1       3.855 -11.429  10.508  1.00  0.00     0.049 A 
ATOM     49  H   UNL     1       4.730 -10.601  12.209  1.00  0.00     0.167 HD
ATOM     50  C   UNL     1       6.848  -8.524  15.429  1.00  0.00     0.034 A 
ATOM     51  C   UNL     1       4.450 -12.617  10.288  1.00  0.00     0.034 A 
ATOM     52  C   UNL     1       7.394  -9.854  15.410  1.00  0.00     0.049 A 
ATOM     53  C   UNL     1       5.509 -13.090  11.243  1.00  0.00     0.074 A 
ATOM     54  C   UNL     1       8.323 -10.417  16.266  1.00  0.00     0.029 A 
ATOM     55  N   UNL     1       7.073 -10.826  14.473  1.00  0.00    -0.354 N 
ATOM     56  N   UNL     1       6.014 -12.473  12.283  1.00  0.00    -0.248 NA
ATOM     57  C   UNL     1       6.051 -14.437  11.020  1.00  0.00     0.031 C 
ATOM     58  C   UNL     1       8.592 -11.717  15.823  1.00  0.00     0.029 A 
ATOM     59  C   UNL     1       7.802 -11.978  14.714  1.00  0.00     0.049 A 
ATOM     60  H   UNL     1       6.422 -10.713  13.744  1.00  0.00     0.167 HD
ATOM     61  C   UNL     1       6.919 -13.361  12.853  1.00  0.00     0.074 A 
ATOM     62  C   UNL     1       6.868 -14.571  12.056  1.00  0.00     0.031 C 
ATOM     63  C   UNL     1       7.726 -13.185  13.929  1.00  0.00     0.034 A 
BRANCH  50  64
ATOM     64  C   UNL     1       7.393  -7.529  16.424  1.00  0.00     0.023 A 
ATOM     65  C   UNL     1       6.585  -7.090  17.495  1.00  0.00     0.012 A 
ATOM     66  C   UNL     1       8.709  -7.039  16.313  1.00  0.00     0.148 A 
ATOM     67  C   UNL     1       7.054  -6.138  18.400  1.00  0.00     0.002 A 
ATOM     68  C   UNL     1       9.188  -6.131  17.251  1.00  0.00     0.091 A 
ATOM     69  F   UNL     1       9.460  -7.448  15.281  1.00  0.00    -0.205 F 
ATOM     70  C   UNL     1       8.357  -5.666  18.283  1.00  0.00     0.022 A 
BRANCH  68  71
ATOM     71  S   UNL     1      10.881  -5.530  17.234  1.00  0.00     0.127 S 
ATOM     72  O   UNL     1      10.705  -4.165  16.741  1.00  0.00    -0.237 OA
ATOM     73  O   UNL     1      11.255  -5.623  18.646  1.00  0.00    -0.237 OA
ATOM     74  O   UNL     1      11.614  -6.428  16.354  1.00  0.00    -0.744 OA
ENDBRANCH  68  71
ENDBRANCH  50  64
BRANCH  51  75
ATOM     75  C   UNL     1       3.996 -13.456   9.144  1.00  0.00     0.023 A 
ATOM     76  C   UNL     1       3.229 -14.611   9.388  1.00  0.00     0.012 A 
ATOM     77  C   UNL     1       4.248 -13.065   7.815  1.00  0.00     0.148 A 
ATOM     78  C   UNL     1       2.734 -15.372   8.328  1.00  0.00     0.002 A 
ATOM     79  C   UNL     1       3.704 -13.793   6.764  1.00  0.00     0.091 A 
ATOM     80  F   UNL     1       4.984 -11.963   7.608  1.00  0.00    -0.205 F 
ATOM     81  C   UNL     1       2.960 -14.956   7.018  1.00  0.00     0.022 A 
BRANCH  79  82
ATOM     82  S   UNL     1       3.814 -13.255   5.054  1.00  0.00     0.127 S 
ATOM     83  O   UNL     1       4.626 -14.312   4.459  1.00  0.00    -0.237 OA
ATOM     84  O   UNL     1       2.409 -13.252   4.651  1.00  0.00    -0.237 OA
ATOM     85  O   UNL     1       4.433 -11.934   5.093  1.00  0.00    -0.744 OA
ENDBRANCH  79  82
ENDBRANCH  51  75
BRANCH  63  86
ATOM     86  C   UNL     1       8.618 -14.334  14.322  1.00  0.00     0.023 A 
ATOM     87  C   UNL     1       9.723 -14.673  13.515  1.00  0.00     0.012 A 
ATOM     88  C   UNL     1       8.398 -15.037  15.523  1.00  0.00     0.148 A 
ATOM     89  C   UNL     1      10.572 -15.718  13.879  1.00  0.00     0.002 A 
ATOM     90  C   UNL     1       9.279 -16.041  15.905  1.00  0.00     0.091 A 
ATOM     91  F   UNL     1       7.332 -14.713  16.268  1.00  0.00    -0.205 F 
ATOM     92  C   UNL     1      10.357 -16.393  15.078  1.00  0.00     0.022 A 
BRANCH  90  93
ATOM     93  S   UNL     1       9.138 -16.897  17.478  1.00  0.00     0.127 S 
ATOM     94  O   UNL     1       8.671 -18.218  17.058  1.00  0.00    -0.237 OA
ATOM     95  O   UNL     1      10.515 -16.866  17.973  1.00  0.00    -0.237 OA
ATOM     96  O   UNL     1       8.194 -16.124  18.273  1.00  0.00    -0.744 OA
ENDBRANCH  90  93
ENDBRANCH  63  86
ENDBRANCH  37  38
ENDBRANCH  29  32
ENDBRANCH  27  28
ENDBRANCH  26  27
ENDBRANCH   1  26
TORSDOF 19
