REMARK SMILES CCN(Cc1ccccn1)C(=O)[C@H]([NH3+])CCC(=O)NCCCNC(=O)c1ccc(-c2c3nc(c(-c4cccc(S(=O)(=O)[O-])c4F)c4ccc([nH]4)c(-c4cccc(S(=O)(=O)[O-])c4F)c4nc(c(-c5cccc(S(=O)(=O)[O-])c5F)c5ccc2[nH]5)C=C4)C=C3)cc1
REMARK SMILES IDX 17 1 18 2 19 3 16 5 15 6 13 7 11 8 12 9 3 10 2 11 1 12 4 13
REMARK SMILES IDX 5 14 6 15 10 16 7 17 9 18 8 19 14 20 20 24 21 25 22 26 23 27
REMARK SMILES IDX 24 28 25 30 26 31 27 32 88 33 28 34 87 35 29 36 30 37 31 38
REMARK SMILES IDX 81 39 32 40 86 41 80 42 82 43 33 44 85 45 79 46 78 47 34 49
REMARK SMILES IDX 66 50 46 51 65 52 47 53 50 54 64 55 83 56 48 57 49 58 63 60
REMARK SMILES IDX 84 61 51 62 35 63 36 64 44 65 37 66 39 67 45 68 38 69 40 70
REMARK SMILES IDX 41 71 42 72 43 73 67 74 68 75 76 76 69 77 71 78 77 79 70 80
REMARK SMILES IDX 72 81 73 82 74 83 75 84 52 85 53 86 61 87 54 88 56 89 62 90
REMARK SMILES IDX 55 91 57 92 58 93 59 94 60 95
REMARK H PARENT 19 4 14 21 14 22 14 23 23 29 82 48 50 59
REMARK Flexibility Score: inf
ROOT
ATOM      1  C   UNL     1       4.490  -0.101  -5.330  1.00  0.00     0.220 C 
ATOM      2  O   UNL     1       4.994  -0.319  -6.435  1.00  0.00    -0.275 OA
ATOM      3  N   UNL     1       5.331   0.030  -4.267  1.00  0.00    -0.356 N 
ATOM      4  H   UNL     1       6.281  -0.096  -4.494  1.00  0.00     0.163 HD
ENDROOT
BRANCH   1   5
ATOM      5  C   UNL     1       2.987   0.044  -5.182  1.00  0.00     0.106 C 
BRANCH   5   6
ATOM      6  C   UNL     1       2.243  -1.299  -5.163  1.00  0.00     0.085 C 
BRANCH   6   7
ATOM      7  C   UNL     1       2.419  -2.086  -3.862  1.00  0.00     0.271 C 
BRANCH   7   8
ATOM      8  C   UNL     1       1.752  -3.489  -3.912  1.00  0.00     0.281 C 
ATOM      9  O   UNL     1       0.584  -3.610  -4.292  1.00  0.00    -0.268 OA
BRANCH   8  10
ATOM     10  N   UNL     1       2.469  -4.566  -3.381  1.00  0.00    -0.332 N 
BRANCH  10  11
ATOM     11  C   UNL     1       1.715  -5.716  -2.876  1.00  0.00     0.116 C 
ATOM     12  C   UNL     1       1.281  -5.479  -1.435  1.00  0.00     0.027 C 
ENDBRANCH  10  11
BRANCH  10  13
ATOM     13  C   UNL     1       3.926  -4.596  -3.186  1.00  0.00     0.175 C 
BRANCH  13  14
ATOM     14  C   UNL     1       4.716  -4.371  -4.465  1.00  0.00     0.060 A 
ATOM     15  C   UNL     1       4.368  -5.048  -5.634  1.00  0.00     0.026 A 
ATOM     16  N   UNL     1       5.737  -3.474  -4.421  1.00  0.00    -0.259 NA
ATOM     17  C   UNL     1       5.070  -4.780  -6.806  1.00  0.00     0.004 A 
ATOM     18  C   UNL     1       6.407  -3.248  -5.576  1.00  0.00     0.111 A 
ATOM     19  C   UNL     1       6.109  -3.862  -6.780  1.00  0.00     0.020 A 
ENDBRANCH  13  14
ENDBRANCH  10  13
ENDBRANCH   8  10
ENDBRANCH   7   8
BRANCH   7  20
ATOM     20  N   UNL     1       1.836  -1.361  -2.712  1.00  0.00    -0.347 N 
ATOM     21  H   UNL     1       0.830  -1.263  -2.846  1.00  0.00     0.345 HD
ATOM     22  H   UNL     1       2.261  -0.436  -2.643  1.00  0.00     0.345 HD
ATOM     23  H   UNL     1       2.016  -1.882  -1.854  1.00  0.00     0.345 HD
ENDBRANCH   7  20
ENDBRANCH   6   7
ENDBRANCH   5   6
ENDBRANCH   1   5
BRANCH   3  24
ATOM     24  C   UNL     1       5.095   0.320  -2.861  1.00  0.00     0.117 C 
BRANCH  24  25
ATOM     25  C   UNL     1       5.323  -0.884  -1.947  1.00  0.00     0.042 C 
BRANCH  25  26
ATOM     26  C   UNL     1       6.762  -1.389  -1.894  1.00  0.00     0.118 C 
BRANCH  26  27
ATOM     27  N   UNL     1       7.463  -0.848  -0.740  1.00  0.00    -0.352 N 
ATOM     28  C   UNL     1       7.906  -1.476   0.399  1.00  0.00     0.251 C 
ATOM     29  H   UNL     1       7.648   0.118  -0.782  1.00  0.00     0.163 HD
ATOM     30  O   UNL     1       8.207  -0.781   1.369  1.00  0.00    -0.269 OA
BRANCH  28  31
ATOM     31  C   UNL     1       8.030  -2.955   0.491  1.00  0.00     0.039 A 
ATOM     32  C   UNL     1       7.798  -3.565   1.730  1.00  0.00     0.014 A 
ATOM     33  C   UNL     1       8.465  -3.740  -0.581  1.00  0.00     0.014 A 
ATOM     34  C   UNL     1       7.979  -4.945   1.887  1.00  0.00     0.010 A 
ATOM     35  C   UNL     1       8.578  -5.128  -0.443  1.00  0.00     0.010 A 
ATOM     36  C   UNL     1       8.360  -5.745   0.798  1.00  0.00    -0.014 A 
BRANCH  36  37
ATOM     37  C   UNL     1       8.550  -7.215   0.956  1.00  0.00     0.031 A 
ATOM     38  C   UNL     1       9.906  -7.844   0.756  1.00  0.00     0.074 A 
ATOM     39  C   UNL     1       7.490  -8.002   1.232  1.00  0.00     0.049 A 
ATOM     40  N   UNL     1      10.252  -9.104   0.846  1.00  0.00    -0.248 NA
ATOM     41  C   UNL     1      11.013  -6.947   0.388  1.00  0.00     0.031 C 
ATOM     42  C   UNL     1       6.110  -7.537   1.380  1.00  0.00     0.029 A 
ATOM     43  N   UNL     1       7.405  -9.360   1.417  1.00  0.00    -0.354 N 
ATOM     44  C   UNL     1      11.602  -9.156   0.515  1.00  0.00     0.074 A 
ATOM     45  C   UNL     1      12.006  -7.804   0.193  1.00  0.00     0.031 C 
ATOM     46  C   UNL     1       5.317  -8.590   1.636  1.00  0.00     0.029 A 
ATOM     47  C   UNL     1       6.125  -9.807   1.649  1.00  0.00     0.049 A 
ATOM     48  H   UNL     1       8.186  -9.958   1.387  1.00  0.00     0.167 HD
ATOM     49  C   UNL     1      12.440 -10.222   0.509  1.00  0.00     0.034 A 
ATOM     50  C   UNL     1       5.650 -11.053   1.848  1.00  0.00     0.034 A 
ATOM     51  C   UNL     1      12.056 -11.558   0.878  1.00  0.00     0.049 A 
ATOM     52  C   UNL     1       6.608 -12.213   1.883  1.00  0.00     0.074 A 
ATOM     53  C   UNL     1      12.856 -12.683   0.991  1.00  0.00     0.029 A 
ATOM     54  N   UNL     1      10.765 -11.955   1.189  1.00  0.00    -0.354 N 
ATOM     55  N   UNL     1       7.910 -12.212   1.731  1.00  0.00    -0.248 NA
ATOM     56  C   UNL     1       6.037 -13.541   2.156  1.00  0.00     0.031 C 
ATOM     57  C   UNL     1      12.045 -13.764   1.353  1.00  0.00     0.029 A 
ATOM     58  C   UNL     1      10.743 -13.308   1.485  1.00  0.00     0.049 A 
ATOM     59  H   UNL     1       9.979 -11.363   1.198  1.00  0.00     0.167 HD
ATOM     60  C   UNL     1       8.317 -13.528   1.923  1.00  0.00     0.074 A 
ATOM     61  C   UNL     1       7.127 -14.295   2.225  1.00  0.00     0.031 C 
ATOM     62  C   UNL     1       9.564 -14.055   1.839  1.00  0.00     0.034 A 
BRANCH  49  63
ATOM     63  C   UNL     1      13.883  -9.977   0.148  1.00  0.00     0.023 A 
ATOM     64  C   UNL     1      14.722  -9.307   1.062  1.00  0.00     0.012 A 
ATOM     65  C   UNL     1      14.427 -10.467  -1.056  1.00  0.00     0.148 A 
ATOM     66  C   UNL     1      16.069  -9.098   0.771  1.00  0.00     0.002 A 
ATOM     67  C   UNL     1      15.781 -10.293  -1.321  1.00  0.00     0.091 A 
ATOM     68  F   UNL     1      13.612 -11.086  -1.922  1.00  0.00    -0.205 F 
ATOM     69  C   UNL     1      16.600  -9.600  -0.414  1.00  0.00     0.022 A 
BRANCH  67  70
ATOM     70  S   UNL     1      16.577 -10.969  -2.783  1.00  0.00     0.127 S 
ATOM     71  O   UNL     1      16.807  -9.763  -3.578  1.00  0.00    -0.237 OA
ATOM     72  O   UNL     1      17.789 -11.571  -2.226  1.00  0.00    -0.237 OA
ATOM     73  O   UNL     1      15.632 -11.921  -3.349  1.00  0.00    -0.744 OA
ENDBRANCH  67  70
ENDBRANCH  49  63
BRANCH  50  74
ATOM     74  C   UNL     1       4.195 -11.258   2.099  1.00  0.00     0.023 A 
ATOM     75  C   UNL     1       3.759 -11.634   3.384  1.00  0.00     0.012 A 
ATOM     76  C   UNL     1       3.242 -11.043   1.085  1.00  0.00     0.148 A 
ATOM     77  C   UNL     1       2.401 -11.822   3.647  1.00  0.00     0.002 A 
ATOM     78  C   UNL     1       1.888 -11.172   1.370  1.00  0.00     0.091 A 
ATOM     79  F   UNL     1       3.677 -10.703  -0.137  1.00  0.00    -0.205 F 
ATOM     80  C   UNL     1       1.465 -11.579   2.645  1.00  0.00     0.022 A 
BRANCH  78  81
ATOM     81  S   UNL     1       0.620 -10.727   0.177  1.00  0.00     0.127 S 
ATOM     82  O   UNL     1       0.169 -12.035  -0.283  1.00  0.00    -0.237 OA
ATOM     83  O   UNL     1      -0.338  -9.997   1.007  1.00  0.00    -0.237 OA
ATOM     84  O   UNL     1       1.298  -9.896  -0.814  1.00  0.00    -0.744 OA
ENDBRANCH  78  81
ENDBRANCH  50  74
BRANCH  62  85
ATOM     85  C   UNL     1       9.721 -15.530   2.103  1.00  0.00     0.023 A 
ATOM     86  C   UNL     1       9.272 -16.463   1.148  1.00  0.00     0.012 A 
ATOM     87  C   UNL     1      10.377 -15.989   3.263  1.00  0.00     0.148 A 
ATOM     88  C   UNL     1       9.445 -17.831   1.356  1.00  0.00     0.002 A 
ATOM     89  C   UNL     1      10.587 -17.352   3.442  1.00  0.00     0.091 A 
ATOM     90  F   UNL     1      10.780 -15.088   4.170  1.00  0.00    -0.205 F 
ATOM     91  C   UNL     1      10.112 -18.274   2.496  1.00  0.00     0.022 A 
BRANCH  89  92
ATOM     92  S   UNL     1      11.518 -18.006   4.833  1.00  0.00     0.127 S 
ATOM     93  O   UNL     1      10.455 -18.564   5.667  1.00  0.00    -0.237 OA
ATOM     94  O   UNL     1      12.378 -19.002   4.193  1.00  0.00    -0.237 OA
ATOM     95  O   UNL     1      12.233 -16.872   5.403  1.00  0.00    -0.744 OA
ENDBRANCH  89  92
ENDBRANCH  62  85
ENDBRANCH  36  37
ENDBRANCH  28  31
ENDBRANCH  26  27
ENDBRANCH  25  26
ENDBRANCH  24  25
ENDBRANCH   3  24
TORSDOF 21
