REMARK SMILES C[C@@H](CCO)Sc1cc(C(=O)NCCCNC(=O)c2ccc(-c3c4nc(c(-c5cccc(S(=O)(=O)[O-])c5F)c5ccc([nH]5)c(-c5cccc(S(=O)(=O)[O-])c5F)c5nc(c(-c6cccc(S(=O)(=O)[O-])c6F)c6ccc3[nH]6)C=C5)C=C4)cc2)c2ccccc2n1
REMARK SMILES IDX 13 1 12 2 10 3 11 4 9 6 7 7 8 8 88 9 87 10 82 11 86 12 83 13
REMARK SMILES IDX 85 14 84 15 6 16 2 17 1 18 3 19 4 20 5 21 14 23 15 24 16 25
REMARK SMILES IDX 17 26 18 28 19 29 20 30 81 31 21 32 80 33 22 34 23 35 24 36
REMARK SMILES IDX 74 37 25 38 79 39 73 40 75 41 26 42 78 43 72 44 71 45 27 47
REMARK SMILES IDX 59 48 39 49 58 50 40 51 43 52 57 53 76 54 41 55 42 56 56 58
REMARK SMILES IDX 77 59 44 60 28 61 29 62 37 63 30 64 32 65 38 66 31 67 33 68
REMARK SMILES IDX 34 69 35 70 36 71 60 72 61 73 69 74 62 75 64 76 70 77 63 78
REMARK SMILES IDX 65 79 66 80 67 81 68 82 45 83 46 84 54 85 47 86 49 87 55 88
REMARK SMILES IDX 48 89 50 90 51 91 52 92 53 93
REMARK H PARENT 12 5 5 22 16 27 75 46 43 57
REMARK Flexibility Score: inf
ROOT
ATOM      1  C   UNL     1      -3.201   3.212   5.100  1.00  0.00     0.118 C 
ENDROOT
BRANCH   1   2
ATOM      2  N   UNL     1      -2.239   3.292   4.018  1.00  0.00    -0.352 N 
ATOM      3  C   UNL     1      -1.684   2.388   3.157  1.00  0.00     0.252 C 
ATOM      4  O   UNL     1      -0.777   2.830   2.443  1.00  0.00    -0.269 OA
ATOM      5  H   UNL     1      -1.911   4.208   3.870  1.00  0.00     0.163 HD
BRANCH   3   6
ATOM      6  C   UNL     1      -2.133   0.982   2.912  1.00  0.00     0.051 A 
ATOM      7  C   UNL     1      -2.174  -0.698   1.200  1.00  0.00     0.098 A 
ATOM      8  C   UNL     1      -1.958   0.608   1.571  1.00  0.00     0.050 A 
ATOM      9  N   UNL     1      -2.768  -1.585   2.014  1.00  0.00    -0.241 NA
ATOM     10  C   UNL     1      -3.012  -1.233   3.284  1.00  0.00     0.072 A 
ATOM     11  C   UNL     1      -2.592  -0.001   3.829  1.00  0.00     0.013 A 
ATOM     12  C   UNL     1      -3.617  -2.184   4.096  1.00  0.00     0.029 A 
ATOM     13  C   UNL     1      -2.600   0.084   5.237  1.00  0.00     0.011 A 
ATOM     14  C   UNL     1      -3.746  -2.006   5.470  1.00  0.00     0.002 A 
ATOM     15  C   UNL     1      -3.195  -0.880   6.051  1.00  0.00     0.001 A 
BRANCH   7  16
ATOM     16  S   UNL     1      -1.588  -1.329  -0.347  1.00  0.00    -0.103 SA
BRANCH  16  17
ATOM     17  C   UNL     1       0.257  -1.327  -0.138  1.00  0.00     0.052 C 
ATOM     18  C   UNL     1       0.865   0.073  -0.041  1.00  0.00     0.020 C 
BRANCH  17  19
ATOM     19  C   UNL     1       0.836  -2.321   0.889  1.00  0.00     0.043 C 
BRANCH  19  20
ATOM     20  C   UNL     1       0.722  -1.963   2.369  1.00  0.00     0.157 C 
BRANCH  20  21
ATOM     21  O   UNL     1      -0.219  -2.817   3.002  1.00  0.00    -0.396 OA
ATOM     22  H   UNL     1      -1.087  -2.709   2.583  1.00  0.00     0.210 HD
ENDBRANCH  20  21
ENDBRANCH  19  20
ENDBRANCH  17  19
ENDBRANCH  16  17
ENDBRANCH   7  16
ENDBRANCH   3   6
ENDBRANCH   1   2
BRANCH   1  23
ATOM     23  C   UNL     1      -2.459   3.192   6.440  1.00  0.00     0.042 C 
BRANCH  23  24
ATOM     24  C   UNL     1      -2.106   4.569   6.979  1.00  0.00     0.118 C 
BRANCH  24  25
ATOM     25  N   UNL     1      -3.245   5.198   7.624  1.00  0.00    -0.352 N 
ATOM     26  C   UNL     1      -3.465   5.469   8.954  1.00  0.00     0.251 C 
ATOM     27  H   UNL     1      -3.969   5.473   7.017  1.00  0.00     0.163 HD
ATOM     28  O   UNL     1      -4.603   5.761   9.315  1.00  0.00    -0.269 OA
BRANCH  26  29
ATOM     29  C   UNL     1      -2.366   5.408   9.950  1.00  0.00     0.039 A 
ATOM     30  C   UNL     1      -2.657   4.973  11.248  1.00  0.00     0.014 A 
ATOM     31  C   UNL     1      -1.071   5.832   9.644  1.00  0.00     0.014 A 
ATOM     32  C   UNL     1      -1.649   4.930  12.217  1.00  0.00     0.010 A 
ATOM     33  C   UNL     1      -0.048   5.700  10.581  1.00  0.00     0.010 A 
ATOM     34  C   UNL     1      -0.328   5.272  11.886  1.00  0.00    -0.014 A 
BRANCH  34  35
ATOM     35  C   UNL     1       0.766   5.222  12.893  1.00  0.00     0.031 A 
ATOM     36  C   UNL     1       1.513   6.479  13.262  1.00  0.00     0.074 A 
ATOM     37  C   UNL     1       1.144   4.038  13.414  1.00  0.00     0.049 A 
ATOM     38  N   UNL     1       2.541   6.626  14.058  1.00  0.00    -0.248 NA
ATOM     39  C   UNL     1       1.068   7.732  12.627  1.00  0.00     0.031 C 
ATOM     40  C   UNL     1       0.554   2.740  13.080  1.00  0.00     0.029 A 
ATOM     41  N   UNL     1       2.134   3.730  14.314  1.00  0.00    -0.354 N 
ATOM     42  C   UNL     1       2.890   7.970  13.986  1.00  0.00     0.074 A 
ATOM     43  C   UNL     1       1.988   8.590  13.041  1.00  0.00     0.031 C 
ATOM     44  C   UNL     1       1.189   1.778  13.767  1.00  0.00     0.029 A 
ATOM     45  C   UNL     1       2.249   2.382  14.568  1.00  0.00     0.049 A 
ATOM     46  H   UNL     1       2.707   4.409  14.737  1.00  0.00     0.167 HD
ATOM     47  C   UNL     1       3.852   8.637  14.668  1.00  0.00     0.034 A 
ATOM     48  C   UNL     1       3.113   1.710  15.353  1.00  0.00     0.034 A 
ATOM     49  C   UNL     1       4.707   8.030  15.651  1.00  0.00     0.049 A 
ATOM     50  C   UNL     1       4.134   2.481  16.144  1.00  0.00     0.074 A 
ATOM     51  C   UNL     1       5.648   8.635  16.465  1.00  0.00     0.029 A 
ATOM     52  N   UNL     1       4.725   6.677  15.954  1.00  0.00    -0.354 N 
ATOM     53  N   UNL     1       4.345   3.775  16.178  1.00  0.00    -0.248 NA
ATOM     54  C   UNL     1       5.011   1.706  17.034  1.00  0.00     0.031 C 
ATOM     55  C   UNL     1       6.247   7.644  17.250  1.00  0.00     0.029 A 
ATOM     56  C   UNL     1       5.664   6.426  16.940  1.00  0.00     0.049 A 
ATOM     57  H   UNL     1       4.155   5.996  15.531  1.00  0.00     0.167 HD
ATOM     58  C   UNL     1       5.353   3.973  17.115  1.00  0.00     0.074 A 
ATOM     59  C   UNL     1       5.694   2.667  17.642  1.00  0.00     0.031 C 
ATOM     60  C   UNL     1       5.952   5.128  17.495  1.00  0.00     0.034 A 
BRANCH  47  61
ATOM     61  C   UNL     1       3.988  10.118  14.420  1.00  0.00     0.023 A 
ATOM     62  C   UNL     1       2.991  10.996  14.894  1.00  0.00     0.012 A 
ATOM     63  C   UNL     1       5.120  10.648  13.770  1.00  0.00     0.148 A 
ATOM     64  C   UNL     1       3.098  12.371  14.693  1.00  0.00     0.002 A 
ATOM     65  C   UNL     1       5.242  12.025  13.613  1.00  0.00     0.091 A 
ATOM     66  F   UNL     1       6.049   9.800  13.308  1.00  0.00    -0.205 F 
ATOM     67  C   UNL     1       4.227  12.886  14.062  1.00  0.00     0.022 A 
BRANCH  65  68
ATOM     68  S   UNL     1       6.693  12.793  12.884  1.00  0.00     0.127 S 
ATOM     69  O   UNL     1       6.171  13.246  11.595  1.00  0.00    -0.237 OA
ATOM     70  O   UNL     1       6.984  13.867  13.834  1.00  0.00    -0.237 OA
ATOM     71  O   UNL     1       7.707  11.751  12.817  1.00  0.00    -0.744 OA
ENDBRANCH  65  68
ENDBRANCH  47  61
BRANCH  48  72
ATOM     72  C   UNL     1       2.999   0.229  15.485  1.00  0.00     0.023 A 
ATOM     73  C   UNL     1       2.534  -0.321  16.695  1.00  0.00     0.012 A 
ATOM     74  C   UNL     1       3.310  -0.631  14.415  1.00  0.00     0.148 A 
ATOM     75  C   UNL     1       2.409  -1.702  16.848  1.00  0.00     0.002 A 
ATOM     76  C   UNL     1       3.130  -2.003  14.555  1.00  0.00     0.091 A 
ATOM     77  F   UNL     1       3.763  -0.090  13.275  1.00  0.00    -0.205 F 
ATOM     78  C   UNL     1       2.696  -2.542  15.776  1.00  0.00     0.022 A 
BRANCH  76  79
ATOM     79  S   UNL     1       3.345  -3.144  13.185  1.00  0.00     0.127 S 
ATOM     80  O   UNL     1       4.581  -3.831  13.560  1.00  0.00    -0.237 OA
ATOM     81  O   UNL     1       2.134  -3.963  13.280  1.00  0.00    -0.237 OA
ATOM     82  O   UNL     1       3.416  -2.316  11.993  1.00  0.00    -0.744 OA
ENDBRANCH  76  79
ENDBRANCH  48  72
BRANCH  60  83
ATOM     83  C   UNL     1       7.018   5.047  18.555  1.00  0.00     0.023 A 
ATOM     84  C   UNL     1       8.282   4.513  18.237  1.00  0.00     0.012 A 
ATOM     85  C   UNL     1       6.792   5.573  19.843  1.00  0.00     0.148 A 
ATOM     86  C   UNL     1       9.296   4.475  19.194  1.00  0.00     0.002 A 
ATOM     87  C   UNL     1       7.822   5.576  20.776  1.00  0.00     0.091 A 
ATOM     88  F   UNL     1       5.576   6.059  20.131  1.00  0.00    -0.205 F 
ATOM     89  C   UNL     1       9.070   5.017  20.457  1.00  0.00     0.022 A 
BRANCH  87  90
ATOM     90  S   UNL     1       7.651   6.339  22.393  1.00  0.00     0.127 S 
ATOM     91  O   UNL     1       7.559   5.170  23.266  1.00  0.00    -0.237 OA
ATOM     92  O   UNL     1       8.898   7.095  22.514  1.00  0.00    -0.237 OA
ATOM     93  O   UNL     1       6.452   7.163  22.321  1.00  0.00    -0.744 OA
ENDBRANCH  87  90
ENDBRANCH  60  83
ENDBRANCH  34  35
ENDBRANCH  26  29
ENDBRANCH  24  25
ENDBRANCH  23  24
ENDBRANCH   1  23
TORSDOF 18
