REMARK SMILES O=C(CSc1nnc(-c2cccc(C(F)(F)F)c2F)o1)NCCCNC(=O)c1ccc(-c2c3nc(c(-c4cccc(S(=O)(=O)[O-])c4F)c4ccc([nH]4)c(-c4cccc(S(=O)(=O)[O-])c4F)c4nc(c(-c5cccc(S(=O)(=O)[O-])c5F)c5ccc2[nH]5)C=C4)C=C3)cc1
REMARK SMILES IDX 22 1 21 2 1 3 2 4 3 6 4 7 5 8 6 9 20 10 7 11 8 12 9 13 10 14
REMARK SMILES IDX 18 15 11 16 13 17 19 18 12 19 14 20 15 21 16 22 17 23 23 24
REMARK SMILES IDX 24 25 25 26 26 27 27 29 28 30 29 31 90 32 30 33 89 34 31 35
REMARK SMILES IDX 32 36 33 37 83 38 34 39 88 40 82 41 84 42 35 43 87 44 81 45
REMARK SMILES IDX 80 46 36 48 68 49 48 50 67 51 49 52 52 53 66 54 85 55 50 56
REMARK SMILES IDX 51 57 65 59 86 60 53 61 37 62 38 63 46 64 39 65 41 66 47 67
REMARK SMILES IDX 40 68 42 69 43 70 44 71 45 72 69 73 70 74 78 75 71 76 73 77
REMARK SMILES IDX 79 78 72 79 74 80 75 81 76 82 77 83 54 84 55 85 63 86 56 87
REMARK SMILES IDX 58 88 64 89 57 90 59 91 60 92 61 93 62 94
REMARK H PARENT 21 5 25 28 84 47 52 58
REMARK Flexibility Score: inf
ROOT
ATOM      1  C   UNL     1       2.194   2.295  -0.673  1.00  0.00     0.117 C 
ENDROOT
BRANCH   1   2
ATOM      2  N   UNL     1       2.878   1.043  -0.411  1.00  0.00    -0.355 N 
ATOM      3  O   UNL     1       0.987  -0.253  -0.252  1.00  0.00    -0.274 OA
ATOM      4  C   UNL     1       2.210  -0.153  -0.244  1.00  0.00     0.230 C 
ATOM      5  H   UNL     1       3.860   1.047  -0.350  1.00  0.00     0.163 HD
BRANCH   4   6
ATOM      6  C   UNL     1       3.114  -1.353  -0.009  1.00  0.00     0.179 C 
BRANCH   6   7
ATOM      7  S   UNL     1       4.283  -1.567  -1.387  1.00  0.00    -0.055 SA
BRANCH   7   8
ATOM      8  C   UNL     1       3.138  -1.862  -2.657  1.00  0.00     0.277 A 
ATOM      9  N   UNL     1       2.440  -2.971  -2.783  1.00  0.00    -0.101 NA
ATOM     10  O   UNL     1       2.832  -0.934  -3.614  1.00  0.00    -0.411 OA
ATOM     11  N   UNL     1       1.601  -2.784  -3.863  1.00  0.00    -0.107 NA
ATOM     12  C   UNL     1       1.862  -1.580  -4.330  1.00  0.00     0.251 A 
BRANCH  12  13
ATOM     13  C   UNL     1       1.227  -0.851  -5.413  1.00  0.00     0.075 A 
ATOM     14  C   UNL     1      -0.120  -1.107  -5.717  1.00  0.00     0.017 A 
ATOM     15  C   UNL     1       1.922   0.089  -6.186  1.00  0.00     0.148 A 
ATOM     16  C   UNL     1      -0.757  -0.428  -6.756  1.00  0.00     0.002 A 
ATOM     17  C   UNL     1       1.304   0.768  -7.238  1.00  0.00     0.092 A 
ATOM     18  F   UNL     1       3.218   0.320  -5.932  1.00  0.00    -0.205 F 
ATOM     19  C   UNL     1      -0.049   0.503  -7.513  1.00  0.00     0.016 A 
BRANCH  17  20
ATOM     20  C   UNL     1       2.060   1.746  -8.090  1.00  0.00     0.419 C 
ATOM     21  F   UNL     1       2.115   1.341  -9.393  1.00  0.00    -0.166 F 
ATOM     22  F   UNL     1       1.462   2.971  -8.117  1.00  0.00    -0.166 F 
ATOM     23  F   UNL     1       3.347   1.969  -7.720  1.00  0.00    -0.166 F 
ENDBRANCH  17  20
ENDBRANCH  12  13
ENDBRANCH   7   8
ENDBRANCH   6   7
ENDBRANCH   4   6
ENDBRANCH   1   2
BRANCH   1  24
ATOM     24  C   UNL     1       2.477   3.353   0.387  1.00  0.00     0.042 C 
BRANCH  24  25
ATOM     25  C   UNL     1       3.944   3.754   0.525  1.00  0.00     0.118 C 
BRANCH  25  26
ATOM     26  N   UNL     1       4.505   4.315  -0.694  1.00  0.00    -0.352 N 
ATOM     27  C   UNL     1       5.201   5.480  -0.905  1.00  0.00     0.251 C 
ATOM     28  H   UNL     1       4.362   3.770  -1.502  1.00  0.00     0.163 HD
ATOM     29  O   UNL     1       5.459   5.809  -2.061  1.00  0.00    -0.269 OA
BRANCH  27  30
ATOM     30  C   UNL     1       5.631   6.348   0.219  1.00  0.00     0.039 A 
ATOM     31  C   UNL     1       5.605   7.734   0.031  1.00  0.00     0.014 A 
ATOM     32  C   UNL     1       6.114   5.826   1.422  1.00  0.00     0.014 A 
ATOM     33  C   UNL     1       6.028   8.589   1.053  1.00  0.00     0.010 A 
ATOM     34  C   UNL     1       6.460   6.682   2.469  1.00  0.00     0.010 A 
ATOM     35  C   UNL     1       6.442   8.073   2.291  1.00  0.00    -0.014 A 
BRANCH  35  36
ATOM     36  C   UNL     1       6.878   8.980   3.387  1.00  0.00     0.031 A 
ATOM     37  C   UNL     1       8.294   8.938   3.901  1.00  0.00     0.074 A 
ATOM     38  C   UNL     1       5.989   9.822   3.953  1.00  0.00     0.049 A 
ATOM     39  N   UNL     1       8.852   9.667   4.832  1.00  0.00    -0.248 NA
ATOM     40  C   UNL     1       9.196   7.934   3.311  1.00  0.00     0.031 C 
ATOM     41  C   UNL     1       4.570   9.907   3.604  1.00  0.00     0.029 A 
ATOM     42  N   UNL     1       6.141  10.757   4.948  1.00  0.00    -0.354 N 
ATOM     43  C   UNL     1      10.153   9.195   4.959  1.00  0.00     0.074 A 
ATOM     44  C   UNL     1      10.293   8.089   4.039  1.00  0.00     0.031 C 
ATOM     45  C   UNL     1       3.988  10.855   4.355  1.00  0.00     0.029 A 
ATOM     46  C   UNL     1       4.982  11.429   5.258  1.00  0.00     0.049 A 
ATOM     47  H   UNL     1       7.000  10.929   5.397  1.00  0.00     0.167 HD
ATOM     48  C   UNL     1      11.154   9.664   5.740  1.00  0.00     0.034 A 
ATOM     49  C   UNL     1       4.743  12.402   6.162  1.00  0.00     0.034 A 
ATOM     50  C   UNL     1      11.034  10.805   6.605  1.00  0.00     0.049 A 
ATOM     51  C   UNL     1       5.881  12.930   6.994  1.00  0.00     0.074 A 
ATOM     52  C   UNL     1      12.024  11.424   7.346  1.00  0.00     0.029 A 
ATOM     53  N   UNL     1       9.857  11.494   6.851  1.00  0.00    -0.354 N 
ATOM     54  N   UNL     1       7.146  12.586   6.969  1.00  0.00    -0.248 NA
ATOM     55  C   UNL     1       5.570  13.997   7.958  1.00  0.00     0.031 C 
ATOM     56  C   UNL     1      11.441  12.472   8.063  1.00  0.00     0.029 A 
ATOM     57  C   UNL     1      10.092  12.518   7.750  1.00  0.00     0.049 A 
ATOM     58  H   UNL     1       8.985  11.286   6.446  1.00  0.00     0.167 HD
ATOM     59  C   UNL     1       7.784  13.406   7.894  1.00  0.00     0.074 A 
ATOM     60  C   UNL     1       6.771  14.280   8.448  1.00  0.00     0.031 C 
ATOM     61  C   UNL     1       9.088  13.417   8.261  1.00  0.00     0.034 A 
BRANCH  48  62
ATOM     62  C   UNL     1      12.502   8.998   5.646  1.00  0.00     0.023 A 
ATOM     63  C   UNL     1      13.294   9.205   4.498  1.00  0.00     0.012 A 
ATOM     64  C   UNL     1      13.026   8.260   6.725  1.00  0.00     0.148 A 
ATOM     65  C   UNL     1      14.578   8.669   4.416  1.00  0.00     0.002 A 
ATOM     66  C   UNL     1      14.324   7.766   6.653  1.00  0.00     0.091 A 
ATOM     67  F   UNL     1      12.251   8.062   7.800  1.00  0.00    -0.205 F 
ATOM     68  C   UNL     1      15.097   7.962   5.497  1.00  0.00     0.022 A 
BRANCH  66  69
ATOM     69  S   UNL     1      15.117   6.912   8.021  1.00  0.00     0.127 S 
ATOM     70  O   UNL     1      15.226   5.552   7.494  1.00  0.00    -0.237 OA
ATOM     71  O   UNL     1      16.389   7.627   8.133  1.00  0.00    -0.237 OA
ATOM     72  O   UNL     1      14.227   7.067   9.163  1.00  0.00    -0.744 OA
ENDBRANCH  66  69
ENDBRANCH  48  62
BRANCH  49  73
ATOM     73  C   UNL     1       3.377  12.991   6.262  1.00  0.00     0.023 A 
ATOM     74  C   UNL     1       3.154  14.300   5.793  1.00  0.00     0.012 A 
ATOM     75  C   UNL     1       2.289  12.242   6.754  1.00  0.00     0.148 A 
ATOM     76  C   UNL     1       1.876  14.859   5.826  1.00  0.00     0.002 A 
ATOM     77  C   UNL     1       1.009  12.785   6.732  1.00  0.00     0.091 A 
ATOM     78  F   UNL     1       2.525  11.004   7.208  1.00  0.00    -0.205 F 
ATOM     79  C   UNL     1       0.803  14.098   6.282  1.00  0.00     0.022 A 
BRANCH  77  80
ATOM     80  S   UNL     1      -0.451  11.833   7.168  1.00  0.00     0.127 S 
ATOM     81  O   UNL     1      -0.881  12.492   8.399  1.00  0.00    -0.237 OA
ATOM     82  O   UNL     1      -1.317  12.066   6.010  1.00  0.00    -0.237 OA
ATOM     83  O   UNL     1       0.003  10.458   7.312  1.00  0.00    -0.744 OA
ENDBRANCH  77  80
ENDBRANCH  49  73
BRANCH  61  84
ATOM     84  C   UNL     1       9.529  14.395   9.318  1.00  0.00     0.023 A 
ATOM     85  C   UNL     1       9.220  14.136  10.667  1.00  0.00     0.012 A 
ATOM     86  C   UNL     1      10.383  15.469   8.995  1.00  0.00     0.148 A 
ATOM     87  C   UNL     1       9.751  14.933  11.680  1.00  0.00     0.002 A 
ATOM     88  C   UNL     1      10.945  16.230  10.012  1.00  0.00     0.091 A 
ATOM     89  F   UNL     1      10.656  15.700   7.702  1.00  0.00    -0.205 F 
ATOM     90  C   UNL     1      10.625  15.968  11.355  1.00  0.00     0.022 A 
BRANCH  88  91
ATOM     91  S   UNL     1      12.162  17.517   9.705  1.00  0.00     0.127 S 
ATOM     92  O   UNL     1      11.453  18.712  10.160  1.00  0.00    -0.237 OA
ATOM     93  O   UNL     1      13.272  17.102  10.563  1.00  0.00    -0.237 OA
ATOM     94  O   UNL     1      12.445  17.474   8.277  1.00  0.00    -0.744 OA
ENDBRANCH  88  91
ENDBRANCH  61  84
ENDBRANCH  35  36
ENDBRANCH  27  30
ENDBRANCH  25  26
ENDBRANCH  24  25
ENDBRANCH   1  24
TORSDOF 17
