REMARK SMILES C[C@H]1N=N[C@H](S/C(=C/c2ccc(-c3cccc(Cl)c3)o2)C(=O)NCCCNC(=O)c2ccc(-c3c4nc(c(-c5cccc(S(=O)(=O)[O-])c5F)c5ccc([nH]5)c(-c5cccc(S(=O)(=O)[O-])c5F)c5nc(c(-c6cccc(S(=O)(=O)[O-])c6F)c6ccc3[nH]6)C=C5)C=C4)cc2)[NH2+]1
REMARK SMILES IDX 25 1 24 2 23 3 21 4 22 5 7 7 8 8 6 9 5 10 1 11 2 12 3 13
REMARK SMILES IDX 93 14 4 15 9 18 10 19 20 20 11 21 12 22 13 23 14 24 19 25
REMARK SMILES IDX 15 26 17 27 16 28 18 29 26 30 27 31 28 32 29 34 30 35 31 36
REMARK SMILES IDX 92 37 32 38 91 39 33 40 34 41 35 42 85 43 36 44 90 45 84 46
REMARK SMILES IDX 86 47 37 48 89 49 83 50 82 51 38 53 70 54 50 55 69 56 51 57
REMARK SMILES IDX 54 58 68 59 87 60 52 61 53 62 67 64 88 65 55 66 39 67 40 68
REMARK SMILES IDX 48 69 41 70 43 71 49 72 42 73 44 74 45 75 46 76 47 77 71 78
REMARK SMILES IDX 72 79 80 80 73 81 75 82 81 83 74 84 76 85 77 86 78 87 79 88
REMARK SMILES IDX 56 89 57 90 65 91 58 92 60 93 66 94 59 95 61 96 62 97 63 98
REMARK SMILES IDX 64 99
REMARK H PARENT 23 6 93 16 93 17 27 33 86 52 54 63
REMARK Flexibility Score: inf
ROOT
ATOM      1  C   UNL     1       5.290  -1.520   6.001  1.00  0.00     0.042 C 
ENDROOT
BRANCH   1   2
ATOM      2  C   UNL     1       4.515  -2.440   5.087  1.00  0.00     0.118 C 
BRANCH   2   3
ATOM      3  N   UNL     1       3.408  -3.167   5.646  1.00  0.00    -0.352 N 
ATOM      4  C   UNL     1       2.412  -3.809   4.964  1.00  0.00     0.258 C 
ATOM      5  O   UNL     1       1.709  -4.597   5.606  1.00  0.00    -0.269 OA
ATOM      6  H   UNL     1       3.362  -3.207   6.629  1.00  0.00     0.163 HD
BRANCH   4   7
ATOM      7  C   UNL     1       2.086  -3.521   3.504  1.00  0.00     0.084 C 
ATOM      8  C   UNL     1       2.907  -3.644   2.442  1.00  0.00     0.068 C 
BRANCH   7   9
ATOM      9  S   UNL     1       0.387  -3.048   3.372  1.00  0.00    -0.030 SA
BRANCH   9  10
ATOM     10  C   UNL     1      -0.044  -2.690   1.642  1.00  0.00     0.393 C 
ATOM     11  C   UNL     1       0.801   0.292  -0.110  1.00  0.00     0.106 C 
ATOM     12  C   UNL     1       0.415  -0.581   1.073  1.00  0.00     0.324 C 
ATOM     13  N   UNL     1      -1.046  -0.739   1.148  1.00  0.00    -0.126 NA
ATOM     14  N   UNL     1       0.968  -1.922   0.922  1.00  0.00    -0.293 N 
ATOM     15  N   UNL     1      -1.310  -1.928   1.473  1.00  0.00    -0.115 NA
ATOM     16  H   UNL     1       1.887  -2.005   1.356  1.00  0.00     0.350 HD
ATOM     17  H   UNL     1       1.128  -2.217  -0.041  1.00  0.00     0.350 HD
ENDBRANCH   9  10
ENDBRANCH   7   9
BRANCH   8  18
ATOM     18  C   UNL     1       4.313  -3.829   2.454  1.00  0.00     0.128 A 
ATOM     19  C   UNL     1       5.104  -4.942   2.695  1.00  0.00     0.051 A 
ATOM     20  O   UNL     1       5.165  -2.774   2.179  1.00  0.00    -0.457 OA
ATOM     21  C   UNL     1       6.464  -4.527   2.631  1.00  0.00     0.051 A 
ATOM     22  C   UNL     1       6.456  -3.176   2.354  1.00  0.00     0.134 A 
BRANCH  22  23
ATOM     23  C   UNL     1       7.485  -2.137   2.281  1.00  0.00     0.019 A 
ATOM     24  C   UNL     1       8.822  -2.480   2.028  1.00  0.00     0.012 A 
ATOM     25  C   UNL     1       7.183  -0.787   2.522  1.00  0.00     0.032 A 
ATOM     26  C   UNL     1       9.828  -1.507   2.005  1.00  0.00     0.002 A 
ATOM     27  C   UNL     1       8.194   0.179   2.519  1.00  0.00     0.041 A 
ATOM     28  C   UNL     1       9.514  -0.174   2.253  1.00  0.00     0.020 A 
ATOM     29  Cl  UNL     1       7.809   1.817   2.874  1.00  0.00    -0.084 Cl
ENDBRANCH  22  23
ENDBRANCH   8  18
ENDBRANCH   4   7
ENDBRANCH   2   3
ENDBRANCH   1   2
BRANCH   1  30
ATOM     30  C   UNL     1       6.150  -2.220   7.045  1.00  0.00     0.118 C 
BRANCH  30  31
ATOM     31  N   UNL     1       7.123  -3.183   6.522  1.00  0.00    -0.352 N 
ATOM     32  C   UNL     1       8.493  -3.163   6.346  1.00  0.00     0.251 C 
ATOM     33  H   UNL     1       6.710  -4.028   6.231  1.00  0.00     0.163 HD
ATOM     34  O   UNL     1       9.028  -4.128   5.813  1.00  0.00    -0.269 OA
BRANCH  32  35
ATOM     35  C   UNL     1       9.323  -1.997   6.745  1.00  0.00     0.039 A 
ATOM     36  C   UNL     1      10.471  -1.687   6.004  1.00  0.00     0.014 A 
ATOM     37  C   UNL     1       8.999  -1.202   7.835  1.00  0.00     0.014 A 
ATOM     38  C   UNL     1      11.202  -0.524   6.288  1.00  0.00     0.010 A 
ATOM     39  C   UNL     1       9.618   0.029   8.011  1.00  0.00     0.010 A 
ATOM     40  C   UNL     1      10.738   0.386   7.250  1.00  0.00    -0.014 A 
BRANCH  40  41
ATOM     41  C   UNL     1      11.380   1.710   7.492  1.00  0.00     0.031 A 
ATOM     42  C   UNL     1      11.786   2.110   8.892  1.00  0.00     0.074 A 
ATOM     43  C   UNL     1      11.458   2.611   6.490  1.00  0.00     0.049 A 
ATOM     44  N   UNL     1      12.203   3.270   9.331  1.00  0.00    -0.248 NA
ATOM     45  C   UNL     1      11.661   1.089   9.949  1.00  0.00     0.031 C 
ATOM     46  C   UNL     1      11.002   2.394   5.115  1.00  0.00     0.029 A 
ATOM     47  N   UNL     1      11.903   3.912   6.482  1.00  0.00    -0.354 N 
ATOM     48  C   UNL     1      12.319   3.137  10.710  1.00  0.00     0.074 A 
ATOM     49  C   UNL     1      11.895   1.797  11.044  1.00  0.00     0.031 C 
ATOM     50  C   UNL     1      11.186   3.515   4.401  1.00  0.00     0.029 A 
ATOM     51  C   UNL     1      11.733   4.547   5.271  1.00  0.00     0.049 A 
ATOM     52  H   UNL     1      12.305   4.348   7.268  1.00  0.00     0.167 HD
ATOM     53  C   UNL     1      12.770   4.035  11.617  1.00  0.00     0.034 A 
ATOM     54  C   UNL     1      11.971   5.823   4.906  1.00  0.00     0.034 A 
ATOM     55  C   UNL     1      13.276   5.335  11.271  1.00  0.00     0.049 A 
ATOM     56  C   UNL     1      12.550   6.774   5.919  1.00  0.00     0.074 A 
ATOM     57  C   UNL     1      13.898   6.260  12.091  1.00  0.00     0.029 A 
ATOM     58  N   UNL     1      13.214   5.895  10.006  1.00  0.00    -0.354 N 
ATOM     59  N   UNL     1      12.836   6.561   7.181  1.00  0.00    -0.248 NA
ATOM     60  C   UNL     1      12.879   8.128   5.450  1.00  0.00     0.031 C 
ATOM     61  C   UNL     1      14.184   7.394  11.326  1.00  0.00     0.029 A 
ATOM     62  C   UNL     1      13.772   7.160  10.024  1.00  0.00     0.049 A 
ATOM     63  H   UNL     1      12.829   5.458   9.212  1.00  0.00     0.167 HD
ATOM     64  C   UNL     1      13.419   7.736   7.642  1.00  0.00     0.074 A 
ATOM     65  C   UNL     1      13.462   8.650   6.520  1.00  0.00     0.031 C 
ATOM     66  C   UNL     1      13.867   8.035   8.885  1.00  0.00     0.034 A 
BRANCH  53  67
ATOM     67  C   UNL     1      12.802   3.630  13.068  1.00  0.00     0.023 A 
ATOM     68  C   UNL     1      13.735   2.668  13.508  1.00  0.00     0.012 A 
ATOM     69  C   UNL     1      11.966   4.262  14.009  1.00  0.00     0.148 A 
ATOM     70  C   UNL     1      13.814   2.319  14.855  1.00  0.00     0.002 A 
ATOM     71  C   UNL     1      12.085   3.945  15.357  1.00  0.00     0.091 A 
ATOM     72  F   UNL     1      11.073   5.160  13.570  1.00  0.00    -0.205 F 
ATOM     73  C   UNL     1      12.999   2.965  15.780  1.00  0.00     0.022 A 
BRANCH  71  74
ATOM     74  S   UNL     1      11.145   4.780  16.640  1.00  0.00     0.127 S 
ATOM     75  O   UNL     1      10.281   3.704  17.120  1.00  0.00    -0.237 OA
ATOM     76  O   UNL     1      12.195   5.183  17.574  1.00  0.00    -0.237 OA
ATOM     77  O   UNL     1      10.456   5.883  15.982  1.00  0.00    -0.744 OA
ENDBRANCH  71  74
ENDBRANCH  53  67
BRANCH  54  78
ATOM     78  C   UNL     1      11.720   6.266   3.504  1.00  0.00     0.023 A 
ATOM     79  C   UNL     1      12.815   6.577   2.672  1.00  0.00     0.012 A 
ATOM     80  C   UNL     1      10.414   6.384   2.989  1.00  0.00     0.148 A 
ATOM     81  C   UNL     1      12.614   7.041   1.372  1.00  0.00     0.002 A 
ATOM     82  C   UNL     1      10.223   6.795   1.674  1.00  0.00     0.091 A 
ATOM     83  F   UNL     1       9.385   6.090   3.795  1.00  0.00    -0.205 F 
ATOM     84  C   UNL     1      11.320   7.143   0.871  1.00  0.00     0.022 A 
BRANCH  82  85
ATOM     85  S   UNL     1       8.602   6.850   0.902  1.00  0.00     0.127 S 
ATOM     86  O   UNL     1       8.377   8.287   0.780  1.00  0.00    -0.237 OA
ATOM     87  O   UNL     1       8.846   6.155  -0.362  1.00  0.00    -0.237 OA
ATOM     88  O   UNL     1       7.708   6.145   1.813  1.00  0.00    -0.744 OA
ENDBRANCH  82  85
ENDBRANCH  54  78
BRANCH  66  89
ATOM     89  C   UNL     1      14.501   9.383   9.097  1.00  0.00     0.023 A 
ATOM     90  C   UNL     1      13.705  10.545   9.108  1.00  0.00     0.012 A 
ATOM     91  C   UNL     1      15.881   9.486   9.365  1.00  0.00     0.148 A 
ATOM     92  C   UNL     1      14.278  11.792   9.349  1.00  0.00     0.002 A 
ATOM     93  C   UNL     1      16.435  10.725   9.658  1.00  0.00     0.091 A 
ATOM     94  F   UNL     1      16.624   8.370   9.332  1.00  0.00    -0.205 F 
ATOM     95  C   UNL     1      15.638  11.881   9.637  1.00  0.00     0.022 A 
BRANCH  93  96
ATOM     96  S   UNL     1      18.154  10.919  10.142  1.00  0.00     0.127 S 
ATOM     97  O   UNL     1      18.725  11.563   8.961  1.00  0.00    -0.237 OA
ATOM     98  O   UNL     1      18.049  11.784  11.318  1.00  0.00    -0.237 OA
ATOM     99  O   UNL     1      18.647   9.577  10.422  1.00  0.00    -0.744 OA
ENDBRANCH  93  96
ENDBRANCH  66  89
ENDBRANCH  40  41
ENDBRANCH  32  35
ENDBRANCH  30  31
ENDBRANCH   1  30
TORSDOF 17
