REMARK SMILES O=C(NCCCNC(=O)c1cc(=O)[nH]c2c(Br)cccc12)c1ccc(-c2c3nc(c(-c4cccc(S(=O)(=O)[O-])c4F)c4ccc([nH]4)c(-c4cccc(S(=O)(=O)[O-])c4F)c4nc(c(-c5cccc(S(=O)(=O)[O-])c5F)c5ccc2[nH]5)C=C4)C=C3)cc1
REMARK SMILES IDX 1 1 2 2 3 3 22 5 23 6 84 7 24 8 83 9 25 10 26 11 27 12 77 13
REMARK SMILES IDX 28 14 82 15 76 16 78 17 29 18 81 19 75 20 74 21 30 23 62 24
REMARK SMILES IDX 42 25 61 26 43 27 46 28 60 29 79 30 44 31 45 32 59 34 80 35
REMARK SMILES IDX 47 36 31 37 32 38 40 39 33 40 35 41 41 42 34 43 36 44 37 45
REMARK SMILES IDX 38 46 39 47 63 48 64 49 72 50 65 51 67 52 73 53 66 54 68 55
REMARK SMILES IDX 69 56 70 57 71 58 48 59 49 60 57 61 50 62 52 63 58 64 51 65
REMARK SMILES IDX 53 66 54 67 55 68 56 69 4 70 5 71 6 72 7 73 8 74 9 76 10 77
REMARK SMILES IDX 11 78 21 79 12 80 15 81 20 82 13 83 14 84 16 85 19 86 17 88
REMARK SMILES IDX 18 89
REMARK H PARENT 3 4 78 22 46 33 7 75 14 87
REMARK Flexibility Score: inf
ROOT
ATOM      1  O   UNL     1       1.210  -0.088  -0.032  1.00  0.00    -0.269 OA
ATOM      2  C   UNL     1       2.431   0.031  -0.107  1.00  0.00     0.251 C 
ATOM      3  N   UNL     1       3.202  -1.096  -0.247  1.00  0.00    -0.352 N 
ATOM      4  H   UNL     1       2.697  -1.919  -0.439  1.00  0.00     0.163 HD
ENDROOT
BRANCH   2   5
ATOM      5  C   UNL     1       3.048   1.376  -0.045  1.00  0.00     0.039 A 
ATOM      6  C   UNL     1       2.476   2.341   0.789  1.00  0.00     0.014 A 
ATOM      7  C   UNL     1       4.140   1.714  -0.847  1.00  0.00     0.014 A 
ATOM      8  C   UNL     1       3.011   3.631   0.831  1.00  0.00     0.010 A 
ATOM      9  C   UNL     1       4.735   2.965  -0.728  1.00  0.00     0.010 A 
ATOM     10  C   UNL     1       4.152   3.952   0.079  1.00  0.00    -0.014 A 
BRANCH  10  11
ATOM     11  C   UNL     1       4.697   5.332   0.045  1.00  0.00     0.031 A 
ATOM     12  C   UNL     1       4.718   6.092  -1.257  1.00  0.00     0.074 A 
ATOM     13  C   UNL     1       5.208   5.891   1.159  1.00  0.00     0.049 A 
ATOM     14  N   UNL     1       5.215   7.274  -1.513  1.00  0.00    -0.248 NA
ATOM     15  C   UNL     1       4.125   5.429  -2.434  1.00  0.00     0.031 C 
ATOM     16  C   UNL     1       5.288   5.246   2.471  1.00  0.00     0.029 A 
ATOM     17  N   UNL     1       5.772   7.126   1.361  1.00  0.00    -0.354 N 
ATOM     18  C   UNL     1       5.033   7.475  -2.876  1.00  0.00     0.074 A 
ATOM     19  C   UNL     1       4.410   6.284  -3.405  1.00  0.00     0.031 C 
ATOM     20  C   UNL     1       5.848   6.098   3.345  1.00  0.00     0.029 A 
ATOM     21  C   UNL     1       6.198   7.334   2.651  1.00  0.00     0.049 A 
ATOM     22  H   UNL     1       5.862   7.800   0.648  1.00  0.00     0.167 HD
ATOM     23  C   UNL     1       5.322   8.568  -3.616  1.00  0.00     0.034 A 
ATOM     24  C   UNL     1       6.807   8.398   3.212  1.00  0.00     0.034 A 
ATOM     25  C   UNL     1       5.871   9.780  -3.082  1.00  0.00     0.049 A 
ATOM     26  C   UNL     1       7.094   9.612   2.374  1.00  0.00     0.074 A 
ATOM     27  C   UNL     1       6.125  10.968  -3.743  1.00  0.00     0.029 A 
ATOM     28  N   UNL     1       6.242   9.964  -1.761  1.00  0.00    -0.354 N 
ATOM     29  N   UNL     1       6.828   9.816   1.107  1.00  0.00    -0.248 NA
ATOM     30  C   UNL     1       7.741  10.751   3.043  1.00  0.00     0.031 C 
ATOM     31  C   UNL     1       6.665  11.869  -2.823  1.00  0.00     0.029 A 
ATOM     32  C   UNL     1       6.727  11.247  -1.586  1.00  0.00     0.049 A 
ATOM     33  H   UNL     1       6.171   9.284  -1.052  1.00  0.00     0.167 HD
ATOM     34  C   UNL     1       7.250  11.111   0.832  1.00  0.00     0.074 A 
ATOM     35  C   UNL     1       7.783  11.650   2.066  1.00  0.00     0.031 C 
ATOM     36  C   UNL     1       7.208  11.786  -0.342  1.00  0.00     0.034 A 
BRANCH  23  37
ATOM     37  C   UNL     1       4.989   8.539  -5.082  1.00  0.00     0.023 A 
ATOM     38  C   UNL     1       3.649   8.701  -5.487  1.00  0.00     0.012 A 
ATOM     39  C   UNL     1       6.006   8.458  -6.052  1.00  0.00     0.148 A 
ATOM     40  C   UNL     1       3.325   8.776  -6.840  1.00  0.00     0.002 A 
ATOM     41  C   UNL     1       5.678   8.566  -7.397  1.00  0.00     0.091 A 
ATOM     42  F   UNL     1       7.270   8.290  -5.638  1.00  0.00    -0.205 F 
ATOM     43  C   UNL     1       4.339   8.721  -7.793  1.00  0.00     0.022 A 
BRANCH  41  44
ATOM     44  S   UNL     1       6.911   8.560  -8.703  1.00  0.00     0.127 S 
ATOM     45  O   UNL     1       6.553   7.349  -9.440  1.00  0.00    -0.237 OA
ATOM     46  O   UNL     1       6.620   9.810  -9.403  1.00  0.00    -0.237 OA
ATOM     47  O   UNL     1       8.206   8.515  -8.038  1.00  0.00    -0.744 OA
ENDBRANCH  41  44
ENDBRANCH  23  37
BRANCH  24  48
ATOM     48  C   UNL     1       7.120   8.373   4.666  1.00  0.00     0.023 A 
ATOM     49  C   UNL     1       6.312   9.106   5.556  1.00  0.00     0.012 A 
ATOM     50  C   UNL     1       8.161   7.573   5.176  1.00  0.00     0.148 A 
ATOM     51  C   UNL     1       6.538   9.047   6.931  1.00  0.00     0.002 A 
ATOM     52  C   UNL     1       8.358   7.490   6.549  1.00  0.00     0.091 A 
ATOM     53  F   UNL     1       8.914   6.886   4.305  1.00  0.00    -0.205 F 
ATOM     54  C   UNL     1       7.553   8.233   7.428  1.00  0.00     0.022 A 
BRANCH  52  55
ATOM     55  S   UNL     1       9.576   6.398   7.290  1.00  0.00     0.127 S 
ATOM     56  O   UNL     1      10.456   7.348   7.967  1.00  0.00    -0.237 OA
ATOM     57  O   UNL     1       8.744   5.587   8.180  1.00  0.00    -0.237 OA
ATOM     58  O   UNL     1      10.179   5.665   6.186  1.00  0.00    -0.744 OA
ENDBRANCH  52  55
ENDBRANCH  24  48
BRANCH  36  59
ATOM     59  C   UNL     1       7.726  13.196  -0.375  1.00  0.00     0.023 A 
ATOM     60  C   UNL     1       9.113  13.422  -0.444  1.00  0.00     0.012 A 
ATOM     61  C   UNL     1       6.834  14.280  -0.496  1.00  0.00     0.148 A 
ATOM     62  C   UNL     1       9.608  14.711  -0.632  1.00  0.00     0.002 A 
ATOM     63  C   UNL     1       7.333  15.557  -0.717  1.00  0.00     0.091 A 
ATOM     64  F   UNL     1       5.518  14.033  -0.425  1.00  0.00    -0.205 F 
ATOM     65  C   UNL     1       8.720  15.775  -0.782  1.00  0.00     0.022 A 
BRANCH  63  66
ATOM     66  S   UNL     1       6.271  16.977  -0.998  1.00  0.00     0.127 S 
ATOM     67  O   UNL     1       6.566  17.805   0.171  1.00  0.00    -0.237 OA
ATOM     68  O   UNL     1       6.785  17.502  -2.263  1.00  0.00    -0.237 OA
ATOM     69  O   UNL     1       4.910  16.461  -1.060  1.00  0.00    -0.744 OA
ENDBRANCH  63  66
ENDBRANCH  36  59
ENDBRANCH  10  11
ENDBRANCH   2   5
BRANCH   3  70
ATOM     70  C   UNL     1       4.644  -1.272  -0.157  1.00  0.00     0.118 C 
BRANCH  70  71
ATOM     71  C   UNL     1       5.058  -2.157   1.010  1.00  0.00     0.042 C 
BRANCH  71  72
ATOM     72  C   UNL     1       4.489  -3.567   0.963  1.00  0.00     0.118 C 
BRANCH  72  73
ATOM     73  N   UNL     1       4.898  -4.300  -0.227  1.00  0.00    -0.352 N 
ATOM     74  C   UNL     1       5.657  -5.425  -0.357  1.00  0.00     0.252 C 
ATOM     75  H   UNL     1       4.574  -3.921  -1.076  1.00  0.00     0.163 HD
ATOM     76  O   UNL     1       5.951  -5.830  -1.479  1.00  0.00    -0.269 OA
BRANCH  74  77
ATOM     77  C   UNL     1       6.126  -6.137   0.860  1.00  0.00     0.054 A 
ATOM     78  C   UNL     1       5.175  -6.563   1.707  1.00  0.00     0.086 A 
ATOM     79  C   UNL     1       7.535  -6.513   1.085  1.00  0.00     0.012 A 
ATOM     80  C   UNL     1       5.516  -7.282   2.946  1.00  0.00     0.249 A 
ATOM     81  C   UNL     1       7.854  -7.263   2.230  1.00  0.00     0.063 A 
ATOM     82  C   UNL     1       8.568  -6.161   0.203  1.00  0.00     0.011 A 
ATOM     83  O   UNL     1       4.644  -7.574   3.758  1.00  0.00    -0.270 OA
ATOM     84  N   UNL     1       6.828  -7.598   3.130  1.00  0.00    -0.321 N 
ATOM     85  C   UNL     1       9.173  -7.670   2.469  1.00  0.00     0.042 A 
ATOM     86  C   UNL     1       9.883  -6.568   0.446  1.00  0.00     0.002 A 
ATOM     87  H   UNL     1       7.073  -8.094   3.945  1.00  0.00     0.170 HD
ATOM     88  Br  UNL     1       9.629  -8.715   3.989  1.00  0.00    -0.049 Br
ATOM     89  C   UNL     1      10.186  -7.327   1.574  1.00  0.00     0.018 A 
ENDBRANCH  74  77
ENDBRANCH  72  73
ENDBRANCH  71  72
ENDBRANCH  70  71
ENDBRANCH   3  70
TORSDOF 13
