REMARK SMILES Nc1ccc(N2CC3(CCC3)C2)c(C(=O)NCCCNC(=O)c2ccc(-c3c4nc(c(-c5cccc(S(=O)(=O)[O-])c5F)c5ccc([nH]5)c(-c5cccc(S(=O)(=O)[O-])c5F)c5nc(c(-c6cccc(S(=O)(=O)[O-])c6F)c6ccc3[nH]6)C=C5)C=C4)cc2)c1
REMARK SMILES IDX 19 1 18 2 17 3 16 4 14 5 15 6 13 8 2 9 3 10 86 11 4 12 5 13
REMARK SMILES IDX 1 14 6 17 7 18 12 19 8 20 9 21 11 22 10 23 20 24 21 25 22 27
REMARK SMILES IDX 23 28 24 29 85 30 25 31 84 32 26 33 27 34 28 35 78 36 29 37
REMARK SMILES IDX 83 38 77 39 79 40 30 41 82 42 76 43 75 44 31 46 63 47 43 48
REMARK SMILES IDX 62 49 44 50 47 51 61 52 80 53 45 54 46 55 60 57 81 58 48 59
REMARK SMILES IDX 32 60 33 61 41 62 34 63 36 64 42 65 35 66 37 67 38 68 39 69
REMARK SMILES IDX 40 70 64 71 65 72 73 73 66 74 68 75 74 76 67 77 69 78 70 79
REMARK SMILES IDX 71 80 72 81 49 82 50 83 58 84 51 85 53 86 59 87 52 88 54 89
REMARK SMILES IDX 55 90 56 91 57 92
REMARK H PARENT 16 7 1 15 1 16 20 26 79 45 47 56
REMARK Flexibility Score: inf
ROOT
ATOM      1  C   UNL     1       0.415   5.927  -1.071  1.00  0.00     0.118 C 
ENDROOT
BRANCH   1   2
ATOM      2  C   UNL     1       0.975   4.538  -0.756  1.00  0.00     0.042 C 
BRANCH   2   3
ATOM      3  C   UNL     1       0.381   3.935   0.515  1.00  0.00     0.118 C 
BRANCH   3   4
ATOM      4  N   UNL     1      -1.017   3.618   0.311  1.00  0.00    -0.352 N 
ATOM      5  C   UNL     1      -1.744   2.509  -0.037  1.00  0.00     0.253 C 
ATOM      6  O   UNL     1      -2.939   2.764  -0.154  1.00  0.00    -0.269 OA
ATOM      7  H   UNL     1      -1.595   4.400   0.462  1.00  0.00     0.163 HD
BRANCH   5   8
ATOM      8  C   UNL     1      -1.194   1.115  -0.184  1.00  0.00     0.065 A 
ATOM      9  C   UNL     1       0.800  -0.329  -0.212  1.00  0.00     0.032 A 
ATOM     10  C   UNL     1       0.003  -1.425   0.079  1.00  0.00     0.027 A 
ATOM     11  C   UNL     1       0.189   0.919  -0.356  1.00  0.00     0.041 A 
ATOM     12  C   UNL     1      -1.384  -1.283   0.131  1.00  0.00     0.029 A 
ATOM     13  C   UNL     1      -2.014  -0.031  -0.029  1.00  0.00     0.050 A 
BRANCH   9  14
ATOM     14  N   UNL     1       2.183  -0.432  -0.187  1.00  0.00    -0.399 N 
ATOM     15  H   UNL     1       2.610  -1.313  -0.086  1.00  0.00     0.156 HD
ATOM     16  H   UNL     1       2.738   0.377  -0.272  1.00  0.00     0.156 HD
ENDBRANCH   9  14
BRANCH  13  17
ATOM     17  N   UNL     1      -3.419  -0.055  -0.021  1.00  0.00    -0.370 N 
ATOM     18  C   UNL     1      -4.322  -0.404   1.037  1.00  0.00     0.125 C 
ATOM     19  C   UNL     1      -4.429   0.516  -0.863  1.00  0.00     0.125 C 
ATOM     20  C   UNL     1      -5.311   0.496   0.356  1.00  0.00     0.005 C 
ATOM     21  C   UNL     1      -6.763   0.123   0.209  1.00  0.00     0.011 C 
ATOM     22  C   UNL     1      -5.690   1.794   1.040  1.00  0.00     0.011 C 
ATOM     23  C   UNL     1      -7.070   1.638   0.361  1.00  0.00     0.001 C 
ENDBRANCH  13  17
ENDBRANCH   5   8
ENDBRANCH   3   4
ENDBRANCH   2   3
ENDBRANCH   1   2
BRANCH   1  24
ATOM     24  N   UNL     1       0.791   6.907  -0.057  1.00  0.00    -0.352 N 
ATOM     25  C   UNL     1       1.574   8.029  -0.173  1.00  0.00     0.251 C 
ATOM     26  H   UNL     1       0.430   6.739   0.844  1.00  0.00     0.163 HD
ATOM     27  O   UNL     1       1.995   8.590   0.832  1.00  0.00    -0.269 OA
BRANCH  25  28
ATOM     28  C   UNL     1       1.907   8.551  -1.514  1.00  0.00     0.039 A 
ATOM     29  C   UNL     1       3.218   8.948  -1.788  1.00  0.00     0.014 A 
ATOM     30  C   UNL     1       0.916   8.655  -2.494  1.00  0.00     0.014 A 
ATOM     31  C   UNL     1       3.550   9.388  -3.071  1.00  0.00     0.010 A 
ATOM     32  C   UNL     1       1.265   9.020  -3.788  1.00  0.00     0.010 A 
ATOM     33  C   UNL     1       2.584   9.392  -4.091  1.00  0.00    -0.014 A 
BRANCH  33  34
ATOM     34  C   UNL     1       2.923   9.762  -5.488  1.00  0.00     0.031 A 
ATOM     35  C   UNL     1       2.249  10.940  -6.137  1.00  0.00     0.074 A 
ATOM     36  C   UNL     1       3.743   8.969  -6.205  1.00  0.00     0.049 A 
ATOM     37  N   UNL     1       2.312  11.345  -7.378  1.00  0.00    -0.248 NA
ATOM     38  C   UNL     1       1.364  11.753  -5.285  1.00  0.00     0.031 C 
ATOM     39  C   UNL     1       4.402   7.760  -5.704  1.00  0.00     0.029 A 
ATOM     40  N   UNL     1       4.131   9.036  -7.520  1.00  0.00    -0.354 N 
ATOM     41  C   UNL     1       1.445  12.427  -7.469  1.00  0.00     0.074 A 
ATOM     42  C   UNL     1       0.846  12.599  -6.164  1.00  0.00     0.031 C 
ATOM     43  C   UNL     1       5.106   7.198  -6.699  1.00  0.00     0.029 A 
ATOM     44  C   UNL     1       4.915   7.978  -7.917  1.00  0.00     0.049 A 
ATOM     45  H   UNL     1       3.872   9.772  -8.121  1.00  0.00     0.167 HD
ATOM     46  C   UNL     1       1.186  13.218  -8.537  1.00  0.00     0.034 A 
ATOM     47  C   UNL     1       5.406   7.658  -9.131  1.00  0.00     0.034 A 
ATOM     48  C   UNL     1       1.813  13.062  -9.821  1.00  0.00     0.049 A 
ATOM     49  C   UNL     1       5.121   8.567 -10.296  1.00  0.00     0.074 A 
ATOM     50  C   UNL     1       1.688  13.864 -10.941  1.00  0.00     0.029 A 
ATOM     51  N   UNL     1       2.671  12.028 -10.162  1.00  0.00    -0.354 N 
ATOM     52  N   UNL     1       4.416   9.672 -10.326  1.00  0.00    -0.248 NA
ATOM     53  C   UNL     1       5.722   8.204 -11.588  1.00  0.00     0.031 C 
ATOM     54  C   UNL     1       2.443  13.295 -11.971  1.00  0.00     0.029 A 
ATOM     55  C   UNL     1       3.072  12.162 -11.479  1.00  0.00     0.049 A 
ATOM     56  H   UNL     1       2.953  11.305  -9.556  1.00  0.00     0.167 HD
ATOM     57  C   UNL     1       4.523  10.158 -11.624  1.00  0.00     0.074 A 
ATOM     58  C   UNL     1       5.372   9.233 -12.347  1.00  0.00     0.031 C 
ATOM     59  C   UNL     1       3.962  11.264 -12.170  1.00  0.00     0.034 A 
BRANCH  46  60
ATOM     60  C   UNL     1       0.210  14.351  -8.353  1.00  0.00     0.023 A 
ATOM     61  C   UNL     1       0.565  15.459  -7.556  1.00  0.00     0.012 A 
ATOM     62  C   UNL     1      -1.033  14.349  -9.017  1.00  0.00     0.148 A 
ATOM     63  C   UNL     1      -0.316  16.528  -7.391  1.00  0.00     0.002 A 
ATOM     64  C   UNL     1      -1.884  15.440  -8.888  1.00  0.00     0.091 A 
ATOM     65  F   UNL     1      -1.361  13.279  -9.755  1.00  0.00    -0.205 F 
ATOM     66  C   UNL     1      -1.534  16.523  -8.065  1.00  0.00     0.022 A 
BRANCH  64  67
ATOM     67  S   UNL     1      -3.438  15.569  -9.780  1.00  0.00     0.127 S 
ATOM     68  O   UNL     1      -4.411  15.448  -8.695  1.00  0.00    -0.237 OA
ATOM     69  O   UNL     1      -3.343  16.905 -10.368  1.00  0.00    -0.237 OA
ATOM     70  O   UNL     1      -3.441  14.478 -10.744  1.00  0.00    -0.744 OA
ENDBRANCH  64  67
ENDBRANCH  46  60
BRANCH  47  71
ATOM     71  C   UNL     1       6.257   6.445  -9.296  1.00  0.00     0.023 A 
ATOM     72  C   UNL     1       7.630   6.595  -9.572  1.00  0.00     0.012 A 
ATOM     73  C   UNL     1       5.722   5.149  -9.157  1.00  0.00     0.148 A 
ATOM     74  C   UNL     1       8.448   5.478  -9.742  1.00  0.00     0.002 A 
ATOM     75  C   UNL     1       6.554   4.041  -9.271  1.00  0.00     0.091 A 
ATOM     76  F   UNL     1       4.412   5.027  -8.901  1.00  0.00    -0.205 F 
ATOM     77  C   UNL     1       7.913   4.202  -9.583  1.00  0.00     0.022 A 
BRANCH  75  78
ATOM     78  S   UNL     1       5.983   2.369  -8.952  1.00  0.00     0.127 S 
ATOM     79  O   UNL     1       6.044   1.772 -10.283  1.00  0.00    -0.237 OA
ATOM     80  O   UNL     1       6.992   1.881  -8.010  1.00  0.00    -0.237 OA
ATOM     81  O   UNL     1       4.649   2.508  -8.383  1.00  0.00    -0.744 OA
ENDBRANCH  75  78
ENDBRANCH  47  71
BRANCH  59  82
ATOM     82  C   UNL     1       4.284  11.582 -13.606  1.00  0.00     0.023 A 
ATOM     83  C   UNL     1       3.723  10.812 -14.643  1.00  0.00     0.012 A 
ATOM     84  C   UNL     1       5.065  12.711 -13.925  1.00  0.00     0.148 A 
ATOM     85  C   UNL     1       3.956  11.147 -15.977  1.00  0.00     0.002 A 
ATOM     86  C   UNL     1       5.248  13.070 -15.254  1.00  0.00     0.091 A 
ATOM     87  F   UNL     1       5.602  13.420 -12.921  1.00  0.00    -0.205 F 
ATOM     88  C   UNL     1       4.704  12.282 -16.282  1.00  0.00     0.022 A 
BRANCH  86  89
ATOM     89  S   UNL     1       6.109  14.569 -15.741  1.00  0.00     0.127 S 
ATOM     90  O   UNL     1       7.309  14.029 -16.377  1.00  0.00    -0.237 OA
ATOM     91  O   UNL     1       5.155  15.187 -16.661  1.00  0.00    -0.237 OA
ATOM     92  O   UNL     1       6.342  15.319 -14.514  1.00  0.00    -0.744 OA
ENDBRANCH  86  89
ENDBRANCH  59  82
ENDBRANCH  33  34
ENDBRANCH  25  28
ENDBRANCH   1  24
TORSDOF 15
