REMARK SMILES O=C(CCN1C(=O)S/C(=C\c2ccccc2F)C1=O)Nc1ccc(C(=O)NCCCNC(=O)c2ccc(-c3c4nc(c(-c5cccc(S(=O)(=O)[O-])c5F)c5ccc([nH]5)c(-c5cccc(S(=O)(=O)[O-])c5F)c5nc(c(-c6cccc(S(=O)(=O)[O-])c6F)c6ccc3[nH]6)C=C5)C=C4)cc2)c(O)c1
REMARK SMILES IDX 28 1 27 2 25 3 26 4 24 6 21 7 22 8 99 9 23 10 97 11 20 12
REMARK SMILES IDX 1 13 2 14 3 16 4 17 5 18 6 19 18 20 7 21 8 22 9 23 19 24
REMARK SMILES IDX 10 25 11 26 12 27 16 28 13 29 15 30 17 31 14 32 98 33 29 35
REMARK SMILES IDX 30 36 31 37 32 38 33 40 34 41 35 42 96 43 36 44 95 45 37 46
REMARK SMILES IDX 38 47 39 48 89 49 40 50 94 51 88 52 90 53 41 54 93 55 87 56
REMARK SMILES IDX 86 57 42 59 74 60 54 61 73 62 55 63 58 64 72 65 91 66 56 67
REMARK SMILES IDX 57 68 71 70 92 71 59 72 43 73 44 74 52 75 45 76 47 77 53 78
REMARK SMILES IDX 46 79 48 80 49 81 50 82 51 83 75 84 76 85 84 86 77 87 79 88
REMARK SMILES IDX 85 89 78 90 80 91 81 92 82 93 83 94 60 95 61 96 69 97 62 98
REMARK SMILES IDX 64 99 70 100 63 101 65 102 66 103 67 104 68 105
REMARK H PARENT 27 5 20 15 98 34 31 39 90 58 58 69
REMARK Flexibility Score: inf
ROOT
ATOM      1  C   UNL     1       0.875   6.443   3.041  1.00  0.00     0.118 C 
ENDROOT
BRANCH   1   2
ATOM      2  N   UNL     1       0.110   5.679   4.022  1.00  0.00    -0.352 N 
ATOM      3  C   UNL     1       0.053   4.330   4.277  1.00  0.00     0.255 C 
ATOM      4  O   UNL     1      -0.678   3.931   5.182  1.00  0.00    -0.269 OA
ATOM      5  H   UNL     1      -0.466   6.227   4.603  1.00  0.00     0.163 HD
BRANCH   3   6
ATOM      6  C   UNL     1       0.810   3.342   3.474  1.00  0.00     0.081 A 
ATOM      7  C   UNL     1       1.994   1.460   1.749  1.00  0.00     0.044 A 
ATOM      8  C   UNL     1       0.711   1.242   2.243  1.00  0.00     0.027 A 
ATOM      9  C   UNL     1       2.719   2.568   2.205  1.00  0.00     0.073 A 
ATOM     10  C   UNL     1       0.122   2.179   3.099  1.00  0.00     0.020 A 
ATOM     11  C   UNL     1       2.144   3.481   3.090  1.00  0.00     0.130 A 
BRANCH   7  12
ATOM     12  N   UNL     1       2.626   0.620   0.813  1.00  0.00    -0.326 N 
ATOM     13  O   UNL     1       0.874  -0.707   0.055  1.00  0.00    -0.275 OA
ATOM     14  C   UNL     1       2.052  -0.365   0.035  1.00  0.00     0.226 C 
ATOM     15  H   UNL     1       3.595   0.750   0.701  1.00  0.00     0.169 HD
BRANCH  14  16
ATOM     16  C   UNL     1       3.045  -1.106  -0.848  1.00  0.00     0.122 C 
BRANCH  16  17
ATOM     17  C   UNL     1       3.866  -0.231  -1.800  1.00  0.00     0.140 C 
BRANCH  17  18
ATOM     18  N   UNL     1       4.875   0.596  -1.144  1.00  0.00    -0.268 N 
ATOM     19  C   UNL     1       4.884   1.962  -1.302  1.00  0.00     0.293 C 
ATOM     20  C   UNL     1       5.900   0.052  -0.402  1.00  0.00     0.268 C 
ATOM     21  O   UNL     1       4.097   2.630  -1.943  1.00  0.00    -0.261 OA
ATOM     22  S   UNL     1       6.183   2.662  -0.356  1.00  0.00    -0.022 SA
ATOM     23  C   UNL     1       6.643   1.137   0.288  1.00  0.00     0.083 C 
ATOM     24  O   UNL     1       6.136  -1.138  -0.256  1.00  0.00    -0.268 OA
ATOM     25  C   UNL     1       7.444   0.886   1.332  1.00  0.00     0.032 C 
BRANCH  25  26
ATOM     26  C   UNL     1       8.054   1.917   2.178  1.00  0.00     0.012 A 
ATOM     27  C   UNL     1       9.433   2.135   2.138  1.00  0.00     0.011 A 
ATOM     28  C   UNL     1       7.269   2.696   3.038  1.00  0.00     0.130 A 
ATOM     29  C   UNL     1      10.007   3.135   2.929  1.00  0.00     0.001 A 
ATOM     30  C   UNL     1       7.834   3.698   3.821  1.00  0.00     0.040 A 
ATOM     31  F   UNL     1       5.948   2.480   3.123  1.00  0.00    -0.206 F 
ATOM     32  C   UNL     1       9.208   3.920   3.764  1.00  0.00     0.003 A 
ENDBRANCH  25  26
ENDBRANCH  17  18
ENDBRANCH  16  17
ENDBRANCH  14  16
ENDBRANCH   7  12
BRANCH  11  33
ATOM     33  O   UNL     1       2.977   4.462   3.554  1.00  0.00    -0.507 OA
ATOM     34  H   UNL     1       2.654   5.107   4.152  1.00  0.00     0.293 HD
ENDBRANCH  11  33
ENDBRANCH   3   6
ENDBRANCH   1   2
BRANCH   1  35
ATOM     35  C   UNL     1       0.100   7.552   2.344  1.00  0.00     0.042 C 
BRANCH  35  36
ATOM     36  C   UNL     1      -0.576   8.568   3.256  1.00  0.00     0.118 C 
BRANCH  36  37
ATOM     37  N   UNL     1       0.345   9.332   4.090  1.00  0.00    -0.352 N 
ATOM     38  C   UNL     1       0.779  10.636   4.006  1.00  0.00     0.251 C 
ATOM     39  H   UNL     1       0.723   8.827   4.847  1.00  0.00     0.163 HD
ATOM     40  O   UNL     1       1.650  11.031   4.779  1.00  0.00    -0.269 OA
BRANCH  38  41
ATOM     41  C   UNL     1       0.249  11.552   2.970  1.00  0.00     0.039 A 
ATOM     42  C   UNL     1       1.142  12.370   2.269  1.00  0.00     0.014 A 
ATOM     43  C   UNL     1      -1.111  11.602   2.669  1.00  0.00     0.014 A 
ATOM     44  C   UNL     1       0.687  13.133   1.189  1.00  0.00     0.010 A 
ATOM     45  C   UNL     1      -1.545  12.277   1.531  1.00  0.00     0.010 A 
ATOM     46  C   UNL     1      -0.648  13.035   0.764  1.00  0.00    -0.014 A 
BRANCH  46  47
ATOM     47  C   UNL     1      -1.118  13.655  -0.505  1.00  0.00     0.031 A 
ATOM     48  C   UNL     1      -2.258  14.638  -0.502  1.00  0.00     0.074 A 
ATOM     49  C   UNL     1      -0.601  13.232  -1.678  1.00  0.00     0.049 A 
ATOM     50  N   UNL     1      -2.886  15.171  -1.518  1.00  0.00    -0.248 NA
ATOM     51  C   UNL     1      -2.781  15.057   0.809  1.00  0.00     0.031 C 
ATOM     52  C   UNL     1       0.455  12.226  -1.825  1.00  0.00     0.029 A 
ATOM     53  N   UNL     1      -0.918  13.565  -2.974  1.00  0.00    -0.354 N 
ATOM     54  C   UNL     1      -3.900  15.949  -0.974  1.00  0.00     0.074 A 
ATOM     55  C   UNL     1      -3.819  15.806   0.463  1.00  0.00     0.031 C 
ATOM     56  C   UNL     1       0.695  12.023  -3.128  1.00  0.00     0.029 A 
ATOM     57  C   UNL     1      -0.218  12.844  -3.916  1.00  0.00     0.049 A 
ATOM     58  H   UNL     1      -1.582  14.253  -3.207  1.00  0.00     0.167 HD
ATOM     59  C   UNL     1      -4.805  16.727  -1.613  1.00  0.00     0.034 A 
ATOM     60  C   UNL     1      -0.314  12.820  -5.261  1.00  0.00     0.034 A 
ATOM     61  C   UNL     1      -4.855  16.903  -3.040  1.00  0.00     0.049 A 
ATOM     62  C   UNL     1      -1.300  13.727  -5.943  1.00  0.00     0.074 A 
ATOM     63  C   UNL     1      -5.679  17.745  -3.768  1.00  0.00     0.029 A 
ATOM     64  N   UNL     1      -4.065  16.228  -3.955  1.00  0.00    -0.354 N 
ATOM     65  N   UNL     1      -2.158  14.559  -5.407  1.00  0.00    -0.248 NA
ATOM     66  C   UNL     1      -1.308  13.722  -7.413  1.00  0.00     0.031 C 
ATOM     67  C   UNL     1      -5.414  17.549  -5.125  1.00  0.00     0.029 A 
ATOM     68  C   UNL     1      -4.388  16.626  -5.241  1.00  0.00     0.049 A 
ATOM     69  H   UNL     1      -3.375  15.564  -3.725  1.00  0.00     0.167 HD
ATOM     70  C   UNL     1      -2.779  15.204  -6.470  1.00  0.00     0.074 A 
ATOM     71  C   UNL     1      -2.187  14.678  -7.682  1.00  0.00     0.031 C 
ATOM     72  C   UNL     1      -3.759  16.140  -6.441  1.00  0.00     0.034 A 
BRANCH  59  73
ATOM     73  C   UNL     1      -5.800  17.499  -0.787  1.00  0.00     0.023 A 
ATOM     74  C   UNL     1      -5.374  18.622  -0.051  1.00  0.00     0.012 A 
ATOM     75  C   UNL     1      -7.175  17.195  -0.853  1.00  0.00     0.148 A 
ATOM     76  C   UNL     1      -6.298  19.425   0.616  1.00  0.00     0.002 A 
ATOM     77  C   UNL     1      -8.094  18.028  -0.229  1.00  0.00     0.091 A 
ATOM     78  F   UNL     1      -7.556  16.110  -1.543  1.00  0.00    -0.205 F 
ATOM     79  C   UNL     1      -7.657  19.139   0.513  1.00  0.00     0.022 A 
BRANCH  77  80
ATOM     80  S   UNL     1      -9.870  17.804  -0.381  1.00  0.00     0.127 S 
ATOM     81  O   UNL     1     -10.248  17.500   0.999  1.00  0.00    -0.237 OA
ATOM     82  O   UNL     1     -10.303  19.117  -0.857  1.00  0.00    -0.237 OA
ATOM     83  O   UNL     1     -10.061  16.715  -1.329  1.00  0.00    -0.744 OA
ENDBRANCH  77  80
ENDBRANCH  59  73
BRANCH  60  84
ATOM     84  C   UNL     1       0.588  11.932  -6.051  1.00  0.00     0.023 A 
ATOM     85  C   UNL     1       1.608  12.500  -6.839  1.00  0.00     0.012 A 
ATOM     86  C   UNL     1       0.469  10.530  -5.988  1.00  0.00     0.148 A 
ATOM     87  C   UNL     1       2.476  11.689  -7.572  1.00  0.00     0.002 A 
ATOM     88  C   UNL     1       1.376   9.728  -6.669  1.00  0.00     0.091 A 
ATOM     89  F   UNL     1      -0.515  10.010  -5.242  1.00  0.00    -0.205 F 
ATOM     90  C   UNL     1       2.369  10.305  -7.476  1.00  0.00     0.022 A 
BRANCH  88  91
ATOM     91  S   UNL     1       1.409   7.941  -6.486  1.00  0.00     0.127 S 
ATOM     92  O   UNL     1       0.983   7.497  -7.811  1.00  0.00    -0.237 OA
ATOM     93  O   UNL     1       2.820   7.699  -6.179  1.00  0.00    -0.237 OA
ATOM     94  O   UNL     1       0.495   7.641  -5.393  1.00  0.00    -0.744 OA
ENDBRANCH  88  91
ENDBRANCH  60  84
BRANCH  72  95
ATOM     95  C   UNL     1      -4.232  16.713  -7.752  1.00  0.00     0.023 A 
ATOM     96  C   UNL     1      -5.003  15.929  -8.631  1.00  0.00     0.012 A 
ATOM     97  C   UNL     1      -3.994  18.068  -8.062  1.00  0.00     0.148 A 
ATOM     98  C   UNL     1      -5.504  16.475  -9.813  1.00  0.00     0.002 A 
ATOM     99  C   UNL     1      -4.545  18.620  -9.211  1.00  0.00     0.091 A 
ATOM    100  F   UNL     1      -3.243  18.794  -7.221  1.00  0.00    -0.205 F 
ATOM    101  C   UNL     1      -5.288  17.822 -10.095  1.00  0.00     0.022 A 
BRANCH  99 102
ATOM    102  S   UNL     1      -4.412  20.370  -9.597  1.00  0.00     0.127 S 
ATOM    103  O   UNL     1      -3.481  20.356 -10.725  1.00  0.00    -0.237 OA
ATOM    104  O   UNL     1      -5.790  20.715  -9.948  1.00  0.00    -0.237 OA
ATOM    105  O   UNL     1      -3.917  21.013  -8.387  1.00  0.00    -0.744 OA
ENDBRANCH  99 102
ENDBRANCH  72  95
ENDBRANCH  46  47
ENDBRANCH  38  41
ENDBRANCH  36  37
ENDBRANCH  35  36
ENDBRANCH   1  35
TORSDOF 19
