REMARK SMILES O=C(NCCCNC(=O)[C@H]1C[N@H+](Cc2ccc(Cl)c(Cl)c2)CC12CCCCC2)c1ccc(-c2c3nc(c(-c4cccc(S(=O)(=O)[O-])c4F)c4ccc([nH]4)c(-c4cccc(S(=O)(=O)[O-])c4F)c4nc(c(-c5cccc(S(=O)(=O)[O-])c5F)c5ccc2[nH]5)C=C4)C=C3)cc1
REMARK SMILES IDX 4 1 3 2 1 3 2 4 29 6 30 7 91 8 31 9 90 10 32 11 33 12 34 13
REMARK SMILES IDX 84 14 35 15 89 16 83 17 85 18 36 19 88 20 82 21 81 22 37 24
REMARK SMILES IDX 69 25 49 26 68 27 50 28 53 29 67 30 86 31 51 32 52 33 66 35
REMARK SMILES IDX 87 36 54 37 38 38 39 39 47 40 40 41 42 42 48 43 41 44 43 45
REMARK SMILES IDX 44 46 45 47 46 48 70 49 71 50 79 51 72 52 74 53 80 54 73 55
REMARK SMILES IDX 75 56 76 57 77 58 78 59 55 60 56 61 64 62 57 63 59 64 65 65
REMARK SMILES IDX 58 66 60 67 61 68 62 69 63 70 5 71 6 72 7 73 8 74 9 76 10 77
REMARK SMILES IDX 11 78 23 79 12 80 22 81 24 82 28 83 25 85 27 86 26 87 13 88
REMARK SMILES IDX 14 89 15 90 21 91 16 92 19 93 17 94 20 95 18 96
REMARK H PARENT 3 5 85 23 53 34 7 75 12 84
REMARK Flexibility Score: inf
ROOT
ATOM      1  C   UNL     1       4.098  -1.206   0.461  1.00  0.00     0.118 C 
ENDROOT
BRANCH   1   2
ATOM      2  N   UNL     1       2.706  -1.102   0.062  1.00  0.00    -0.352 N 
ATOM      3  O   UNL     1       0.798  -0.034  -0.442  1.00  0.00    -0.269 OA
ATOM      4  C   UNL     1       2.033  -0.018  -0.436  1.00  0.00     0.251 C 
ATOM      5  H   UNL     1       2.173  -1.923   0.164  1.00  0.00     0.163 HD
BRANCH   4   6
ATOM      6  C   UNL     1       2.767   1.159  -0.952  1.00  0.00     0.039 A 
ATOM      7  C   UNL     1       3.920   1.007  -1.730  1.00  0.00     0.014 A 
ATOM      8  C   UNL     1       2.259   2.437  -0.703  1.00  0.00     0.014 A 
ATOM      9  C   UNL     1       4.622   2.128  -2.167  1.00  0.00     0.010 A 
ATOM     10  C   UNL     1       2.920   3.558  -1.210  1.00  0.00     0.010 A 
ATOM     11  C   UNL     1       4.115   3.414  -1.933  1.00  0.00    -0.014 A 
BRANCH  11  12
ATOM     12  C   UNL     1       4.785   4.602  -2.519  1.00  0.00     0.031 A 
ATOM     13  C   UNL     1       5.367   5.672  -1.640  1.00  0.00     0.074 A 
ATOM     14  C   UNL     1       4.805   4.741  -3.859  1.00  0.00     0.049 A 
ATOM     15  N   UNL     1       5.906   6.813  -1.981  1.00  0.00    -0.248 NA
ATOM     16  C   UNL     1       5.329   5.435  -0.189  1.00  0.00     0.031 C 
ATOM     17  C   UNL     1       4.235   3.786  -4.812  1.00  0.00     0.029 A 
ATOM     18  N   UNL     1       5.293   5.749  -4.651  1.00  0.00    -0.354 N 
ATOM     19  C   UNL     1       6.228   7.454  -0.791  1.00  0.00     0.074 A 
ATOM     20  C   UNL     1       5.821   6.573   0.283  1.00  0.00     0.031 C 
ATOM     21  C   UNL     1       4.397   4.256  -6.057  1.00  0.00     0.029 A 
ATOM     22  C   UNL     1       5.034   5.566  -5.989  1.00  0.00     0.049 A 
ATOM     23  H   UNL     1       5.781   6.527  -4.296  1.00  0.00     0.167 HD
ATOM     24  C   UNL     1       6.818   8.660  -0.611  1.00  0.00     0.034 A 
ATOM     25  C   UNL     1       5.253   6.374  -7.045  1.00  0.00     0.034 A 
ATOM     26  C   UNL     1       7.245   9.516  -1.687  1.00  0.00     0.049 A 
ATOM     27  C   UNL     1       5.923   7.699  -6.821  1.00  0.00     0.074 A 
ATOM     28  C   UNL     1       7.913  10.726  -1.610  1.00  0.00     0.029 A 
ATOM     29  N   UNL     1       7.035   9.261  -3.034  1.00  0.00    -0.354 N 
ATOM     30  N   UNL     1       6.334   8.232  -5.697  1.00  0.00    -0.248 NA
ATOM     31  C   UNL     1       6.187   8.521  -8.010  1.00  0.00     0.031 C 
ATOM     32  C   UNL     1       8.087  11.212  -2.910  1.00  0.00     0.029 A 
ATOM     33  C   UNL     1       7.553  10.293  -3.799  1.00  0.00     0.049 A 
ATOM     34  H   UNL     1       6.585   8.463  -3.394  1.00  0.00     0.167 HD
ATOM     35  C   UNL     1       6.938   9.434  -6.043  1.00  0.00     0.074 A 
ATOM     36  C   UNL     1       6.848   9.545  -7.486  1.00  0.00     0.031 C 
ATOM     37  C   UNL     1       7.507  10.364  -5.238  1.00  0.00     0.034 A 
BRANCH  24  38
ATOM     38  C   UNL     1       7.062   9.116   0.804  1.00  0.00     0.023 A 
ATOM     39  C   UNL     1       8.068   8.496   1.573  1.00  0.00     0.012 A 
ATOM     40  C   UNL     1       6.331  10.185   1.359  1.00  0.00     0.148 A 
ATOM     41  C   UNL     1       8.316   8.906   2.883  1.00  0.00     0.002 A 
ATOM     42  C   UNL     1       6.613  10.616   2.651  1.00  0.00     0.091 A 
ATOM     43  F   UNL     1       5.363  10.750   0.623  1.00  0.00    -0.205 F 
ATOM     44  C   UNL     1       7.596   9.971   3.418  1.00  0.00     0.022 A 
BRANCH  42  45
ATOM     45  S   UNL     1       5.790  12.030   3.392  1.00  0.00     0.127 S 
ATOM     46  O   UNL     1       4.832  11.381   4.285  1.00  0.00    -0.237 OA
ATOM     47  O   UNL     1       6.891  12.712   4.073  1.00  0.00    -0.237 OA
ATOM     48  O   UNL     1       5.213  12.779   2.283  1.00  0.00    -0.744 OA
ENDBRANCH  42  45
ENDBRANCH  24  38
BRANCH  25  49
ATOM     49  C   UNL     1       4.866   5.913  -8.407  1.00  0.00     0.023 A 
ATOM     50  C   UNL     1       5.869   5.541  -9.321  1.00  0.00     0.012 A 
ATOM     51  C   UNL     1       3.512   5.764  -8.769  1.00  0.00     0.148 A 
ATOM     52  C   UNL     1       5.531   5.043 -10.580  1.00  0.00     0.002 A 
ATOM     53  C   UNL     1       3.183   5.215 -10.002  1.00  0.00     0.091 A 
ATOM     54  F   UNL     1       2.575   6.131  -7.884  1.00  0.00    -0.205 F 
ATOM     55  C   UNL     1       4.191   4.867 -10.915  1.00  0.00     0.022 A 
BRANCH  53  56
ATOM     56  S   UNL     1       1.493   4.821 -10.466  1.00  0.00     0.127 S 
ATOM     57  O   UNL     1       1.247   5.776 -11.540  1.00  0.00    -0.237 OA
ATOM     58  O   UNL     1       1.616   3.427 -10.892  1.00  0.00    -0.237 OA
ATOM     59  O   UNL     1       0.697   5.011  -9.257  1.00  0.00    -0.744 OA
ENDBRANCH  53  56
ENDBRANCH  25  49
BRANCH  37  60
ATOM     60  C   UNL     1       8.126  11.571  -5.890  1.00  0.00     0.023 A 
ATOM     61  C   UNL     1       7.303  12.591  -6.405  1.00  0.00     0.012 A 
ATOM     62  C   UNL     1       9.525  11.736  -5.902  1.00  0.00     0.148 A 
ATOM     63  C   UNL     1       7.864  13.749  -6.941  1.00  0.00     0.002 A 
ATOM     64  C   UNL     1      10.076  12.912  -6.395  1.00  0.00     0.091 A 
ATOM     65  F   UNL     1      10.289  10.742  -5.426  1.00  0.00    -0.205 F 
ATOM     66  C   UNL     1       9.248  13.916  -6.923  1.00  0.00     0.022 A 
BRANCH  64  67
ATOM     67  S   UNL     1      11.838  13.254  -6.323  1.00  0.00     0.127 S 
ATOM     68  O   UNL     1      12.219  13.147  -7.731  1.00  0.00    -0.237 OA
ATOM     69  O   UNL     1      11.869  14.614  -5.785  1.00  0.00    -0.237 OA
ATOM     70  O   UNL     1      12.408  12.243  -5.444  1.00  0.00    -0.744 OA
ENDBRANCH  64  67
ENDBRANCH  37  60
ENDBRANCH  11  12
ENDBRANCH   4   6
ENDBRANCH   1   2
BRANCH   1  71
ATOM     71  C   UNL     1       4.238  -1.339   1.968  1.00  0.00     0.042 C 
BRANCH  71  72
ATOM     72  C   UNL     1       3.854  -2.714   2.503  1.00  0.00     0.117 C 
BRANCH  72  73
ATOM     73  N   UNL     1       4.759  -3.749   2.035  1.00  0.00    -0.356 N 
ATOM     74  C   UNL     1       5.830  -4.336   2.640  1.00  0.00     0.229 C 
ATOM     75  H   UNL     1       4.567  -4.083   1.129  1.00  0.00     0.163 HD
ATOM     76  O   UNL     1       6.446  -5.186   1.995  1.00  0.00    -0.275 OA
BRANCH  74  77
ATOM     77  C   UNL     1       6.212  -3.951   4.066  1.00  0.00     0.145 C 
ATOM     78  C   UNL     1       6.902  -5.137   4.747  1.00  0.00     0.276 C 
ATOM     79  C   UNL     1       7.185  -2.750   4.281  1.00  0.00     0.037 C 
ATOM     80  N   UNL     1       7.666  -4.571   5.850  1.00  0.00    -0.330 N 
ATOM     81  C   UNL     1       8.170  -3.283   5.370  1.00  0.00     0.270 C 
ATOM     82  C   UNL     1       7.937  -2.347   2.986  1.00  0.00     0.014 C 
ATOM     83  C   UNL     1       6.424  -1.521   4.835  1.00  0.00     0.014 C 
ATOM     84  H   UNL     1       8.454  -5.176   6.082  1.00  0.00     0.348 HD
ATOM     85  C   UNL     1       8.742  -1.049   3.102  1.00  0.00     0.001 C 
ATOM     86  C   UNL     1       7.274  -0.263   4.974  1.00  0.00     0.001 C 
ATOM     87  C   UNL     1       7.907   0.105   3.644  1.00  0.00     0.000 C 
BRANCH  80  88
ATOM     88  C   UNL     1       7.074  -4.634   7.190  1.00  0.00     0.299 C 
BRANCH  88  89
ATOM     89  C   UNL     1       5.816  -3.835   7.462  1.00  0.00     0.008 A 
ATOM     90  C   UNL     1       4.565  -4.271   7.000  1.00  0.00     0.011 A 
ATOM     91  C   UNL     1       5.885  -2.609   8.146  1.00  0.00     0.031 A 
ATOM     92  C   UNL     1       3.443  -3.442   7.089  1.00  0.00     0.022 A 
ATOM     93  C   UNL     1       4.757  -1.783   8.253  1.00  0.00     0.060 A 
ATOM     94  C   UNL     1       3.542  -2.188   7.693  1.00  0.00     0.059 A 
ATOM     95  Cl  UNL     1       4.956  -0.249   9.022  1.00  0.00    -0.083 Cl
ATOM     96  Cl  UNL     1       2.141  -1.178   7.676  1.00  0.00    -0.083 Cl
ENDBRANCH  88  89
ENDBRANCH  80  88
ENDBRANCH  74  77
ENDBRANCH  72  73
ENDBRANCH  71  72
ENDBRANCH   1  71
TORSDOF 15
