REMARK SMILES C[C@@H]1[NH2+]CC[C@@H]1C(=O)N1CCC[N@H+](CC(=O)NCCCNC(=O)c2ccc(-c3c4nc(c(-c5cccc(S(=O)(=O)[O-])c5F)c5ccc([nH]5)c(-c5cccc(S(=O)(=O)[O-])c5F)c5nc(c(-c6cccc(S(=O)(=O)[O-])c6F)c6ccc3[nH]6)C=C5)C=C4)cc2)CC1
REMARK SMILES IDX 15 1 16 2 17 3 14 5 13 6 12 8 11 9 10 10 9 11 7 12 8 13 6 14
REMARK SMILES IDX 1 15 2 16 3 17 4 18 5 21 88 22 87 24 18 26 19 27 20 28 21 29
REMARK SMILES IDX 22 30 23 32 24 33 25 34 86 35 26 36 85 37 27 38 28 39 29 40
REMARK SMILES IDX 79 41 30 42 84 43 78 44 80 45 31 46 83 47 77 48 76 49 32 51
REMARK SMILES IDX 64 52 44 53 63 54 45 55 48 56 62 57 81 58 46 59 47 60 61 62
REMARK SMILES IDX 82 63 49 64 33 65 34 66 42 67 35 68 37 69 43 70 36 71 38 72
REMARK SMILES IDX 39 73 40 74 41 75 65 76 66 77 74 78 67 79 69 80 75 81 68 82
REMARK SMILES IDX 70 83 71 84 72 85 73 86 50 87 51 88 59 89 52 90 54 91 60 92
REMARK SMILES IDX 53 93 55 94 56 95 57 96 58 97
REMARK H PARENT 17 4 13 7 3 19 3 20 21 31 80 50 48 61
REMARK Flexibility Score: 80.00
ROOT
ATOM      1  C   UNL     1       4.540   1.853  -1.561  1.00  0.00     0.275 C 
ATOM      2  O   UNL     1       4.783   0.722  -1.122  1.00  0.00    -0.269 OA
ATOM      3  N   UNL     1       3.968   2.744  -0.695  1.00  0.00    -0.351 N 
ATOM      4  H   UNL     1       3.533   2.332   0.086  1.00  0.00     0.163 HD
ENDROOT
BRANCH   1   5
ATOM      5  C   UNL     1       4.887   2.225  -3.002  1.00  0.00     0.363 C 
BRANCH   5   6
ATOM      6  N   UNL     1       3.888   1.867  -4.010  1.00  0.00    -0.326 N 
ATOM      7  H   UNL     1       4.471   2.279  -4.740  1.00  0.00     0.348 HD
BRANCH   6   8
ATOM      8  C   UNL     1       3.784   0.497  -4.465  1.00  0.00     0.264 C 
BRANCH   8   9
ATOM      9  C   UNL     1       2.534  -0.304  -4.082  1.00  0.00     0.083 C 
BRANCH   9  10
ATOM     10  C   UNL     1       1.938  -0.007  -2.715  1.00  0.00     0.125 C 
BRANCH  10  11
ATOM     11  N   UNL     1       1.114   1.182  -2.623  1.00  0.00    -0.336 N 
BRANCH  11  12
ATOM     12  C   UNL     1      -0.058   1.250  -1.893  1.00  0.00     0.232 C 
ATOM     13  O   UNL     1      -0.926   2.061  -2.261  1.00  0.00    -0.274 OA
BRANCH  12  14
ATOM     14  C   UNL     1      -0.232   0.684  -0.467  1.00  0.00     0.142 C 
ATOM     15  C   UNL     1       1.905  -0.742   0.294  1.00  0.00     0.076 C 
ATOM     16  C   UNL     1       0.424  -0.440   0.332  1.00  0.00     0.192 C 
ATOM     17  N   UNL     1      -0.386  -1.656   0.152  1.00  0.00    -0.343 N 
ATOM     18  C   UNL     1      -1.647  -1.234  -0.471  1.00  0.00     0.261 C 
ATOM     19  H   UNL     1      -0.570  -2.092   1.056  1.00  0.00     0.346 HD
ATOM     20  H   UNL     1       0.100  -2.339  -0.428  1.00  0.00     0.346 HD
ATOM     21  C   UNL     1      -1.706   0.271  -0.311  1.00  0.00     0.081 C 
ENDBRANCH  12  14
ENDBRANCH  11  12
BRANCH  11  22
ATOM     22  C   UNL     1       1.569   2.479  -3.122  1.00  0.00     0.180 CG0
ATOM     23  G   UNL     1       2.685   2.655  -4.150  1.00  0.00     0.000 G0
ENDBRANCH  11  22
ENDBRANCH  10  11
ENDBRANCH   9  10
ENDBRANCH   8   9
ENDBRANCH   6   8
BRANCH   6  24
ATOM     24  C   UNL     1       2.685   2.655  -4.150  1.00  0.00     0.284 CG0
ATOM     25  G   UNL     1       1.569   2.479  -3.122  1.00  0.00     0.000 G0
ENDBRANCH   6  24
ENDBRANCH   5   6
ENDBRANCH   1   5
BRANCH   3  26
ATOM     26  C   UNL     1       3.893   4.198  -0.728  1.00  0.00     0.118 C 
BRANCH  26  27
ATOM     27  C   UNL     1       2.493   4.833  -0.626  1.00  0.00     0.042 C 
BRANCH  27  28
ATOM     28  C   UNL     1       1.444   4.108   0.228  1.00  0.00     0.118 C 
BRANCH  28  29
ATOM     29  N   UNL     1       1.172   4.806   1.472  1.00  0.00    -0.352 N 
ATOM     30  C   UNL     1       0.052   5.491   1.881  1.00  0.00     0.251 C 
ATOM     31  H   UNL     1       1.907   4.786   2.127  1.00  0.00     0.163 HD
ATOM     32  O   UNL     1       0.135   6.206   2.879  1.00  0.00    -0.269 OA
BRANCH  30  33
ATOM     33  C   UNL     1      -1.247   5.396   1.165  1.00  0.00     0.039 A 
ATOM     34  C   UNL     1      -1.994   6.564   0.978  1.00  0.00     0.014 A 
ATOM     35  C   UNL     1      -1.802   4.169   0.794  1.00  0.00     0.014 A 
ATOM     36  C   UNL     1      -3.276   6.504   0.411  1.00  0.00     0.010 A 
ATOM     37  C   UNL     1      -3.062   4.114   0.181  1.00  0.00     0.010 A 
ATOM     38  C   UNL     1      -3.826   5.278   0.002  1.00  0.00    -0.014 A 
BRANCH  38  39
ATOM     39  C   UNL     1      -5.198   5.211  -0.586  1.00  0.00     0.031 A 
ATOM     40  C   UNL     1      -6.314   4.496   0.137  1.00  0.00     0.074 A 
ATOM     41  C   UNL     1      -5.446   5.762  -1.791  1.00  0.00     0.049 A 
ATOM     42  N   UNL     1      -7.559   4.316  -0.232  1.00  0.00    -0.248 NA
ATOM     43  C   UNL     1      -5.988   3.895   1.440  1.00  0.00     0.031 C 
ATOM     44  C   UNL     1      -4.454   6.434  -2.631  1.00  0.00     0.029 A 
ATOM     45  N   UNL     1      -6.603   5.821  -2.533  1.00  0.00    -0.354 N 
ATOM     46  C   UNL     1      -8.155   3.563   0.774  1.00  0.00     0.074 A 
ATOM     47  C   UNL     1      -7.128   3.295   1.758  1.00  0.00     0.031 C 
ATOM     48  C   UNL     1      -5.039   6.825  -3.775  1.00  0.00     0.029 A 
ATOM     49  C   UNL     1      -6.440   6.410  -3.766  1.00  0.00     0.049 A 
ATOM     50  H   UNL     1      -7.467   5.474  -2.212  1.00  0.00     0.167 HD
ATOM     51  C   UNL     1      -9.443   3.153   0.888  1.00  0.00     0.034 A 
ATOM     52  C   UNL     1      -7.309   6.585  -4.783  1.00  0.00     0.034 A 
ATOM     53  C   UNL     1     -10.479   3.443  -0.069  1.00  0.00     0.049 A 
ATOM     54  C   UNL     1      -8.739   6.141  -4.623  1.00  0.00     0.074 A 
ATOM     55  C   UNL     1     -11.824   3.119  -0.006  1.00  0.00     0.029 A 
ATOM     56  N   UNL     1     -10.290   4.119  -1.264  1.00  0.00    -0.354 N 
ATOM     57  N   UNL     1      -9.313   5.556  -3.600  1.00  0.00    -0.248 NA
ATOM     58  C   UNL     1      -9.655   6.416  -5.743  1.00  0.00     0.031 C 
ATOM     59  C   UNL     1     -12.444   3.583  -1.170  1.00  0.00     0.029 A 
ATOM     60  C   UNL     1     -11.491   4.222  -1.945  1.00  0.00     0.049 A 
ATOM     61  H   UNL     1      -9.428   4.474  -1.581  1.00  0.00     0.167 HD
ATOM     62  C   UNL     1     -10.657   5.431  -3.935  1.00  0.00     0.074 A 
ATOM     63  C   UNL     1     -10.819   6.016  -5.248  1.00  0.00     0.031 C 
ATOM     64  C   UNL     1     -11.663   4.867  -3.222  1.00  0.00     0.034 A 
BRANCH  51  65
ATOM     65  C   UNL     1      -9.832   2.390   2.131  1.00  0.00     0.023 A 
ATOM     66  C   UNL     1      -9.919   3.074   3.361  1.00  0.00     0.012 A 
ATOM     67  C   UNL     1     -10.187   1.027   2.073  1.00  0.00     0.148 A 
ATOM     68  C   UNL     1     -10.319   2.408   4.519  1.00  0.00     0.002 A 
ATOM     69  C   UNL     1     -10.626   0.381   3.223  1.00  0.00     0.091 A 
ATOM     70  F   UNL     1     -10.088   0.389   0.898  1.00  0.00    -0.205 F 
ATOM     71  C   UNL     1     -10.681   1.066   4.448  1.00  0.00     0.022 A 
BRANCH  69  72
ATOM     72  S   UNL     1     -11.192  -1.325   3.225  1.00  0.00     0.127 S 
ATOM     73  O   UNL     1     -10.114  -1.992   3.955  1.00  0.00    -0.237 OA
ATOM     74  O   UNL     1     -12.456  -1.231   3.957  1.00  0.00    -0.237 OA
ATOM     75  O   UNL     1     -11.326  -1.706   1.826  1.00  0.00    -0.744 OA
ENDBRANCH  69  72
ENDBRANCH  51  65
BRANCH  52  76
ATOM     76  C   UNL     1      -6.860   7.258  -6.037  1.00  0.00     0.023 A 
ATOM     77  C   UNL     1      -7.348   8.541  -6.352  1.00  0.00     0.012 A 
ATOM     78  C   UNL     1      -5.946   6.638  -6.911  1.00  0.00     0.148 A 
ATOM     79  C   UNL     1      -6.961   9.180  -7.532  1.00  0.00     0.002 A 
ATOM     80  C   UNL     1      -5.520   7.304  -8.055  1.00  0.00     0.091 A 
ATOM     81  F   UNL     1      -5.506   5.409  -6.604  1.00  0.00    -0.205 F 
ATOM     82  C   UNL     1      -6.041   8.566  -8.377  1.00  0.00     0.022 A 
BRANCH  80  83
ATOM     83  S   UNL     1      -4.238   6.645  -9.127  1.00  0.00     0.127 S 
ATOM     84  O   UNL     1      -5.008   6.256 -10.309  1.00  0.00    -0.237 OA
ATOM     85  O   UNL     1      -3.374   7.813  -9.317  1.00  0.00    -0.237 OA
ATOM     86  O   UNL     1      -3.622   5.560  -8.386  1.00  0.00    -0.744 OA
ENDBRANCH  80  83
ENDBRANCH  52  76
BRANCH  64  87
ATOM     87  C   UNL     1     -13.051   4.893  -3.809  1.00  0.00     0.023 A 
ATOM     88  C   UNL     1     -13.375   4.050  -4.890  1.00  0.00     0.012 A 
ATOM     89  C   UNL     1     -14.059   5.690  -3.228  1.00  0.00     0.148 A 
ATOM     90  C   UNL     1     -14.673   4.019  -5.401  1.00  0.00     0.002 A 
ATOM     91  C   UNL     1     -15.361   5.618  -3.712  1.00  0.00     0.091 A 
ATOM     92  F   UNL     1     -13.727   6.499  -2.212  1.00  0.00    -0.205 F 
ATOM     93  C   UNL     1     -15.667   4.792  -4.804  1.00  0.00     0.022 A 
BRANCH  91  94
ATOM     94  S   UNL     1     -16.725   6.504  -2.949  1.00  0.00     0.127 S 
ATOM     95  O   UNL     1     -17.024   7.518  -3.959  1.00  0.00    -0.237 OA
ATOM     96  O   UNL     1     -17.739   5.457  -2.817  1.00  0.00    -0.237 OA
ATOM     97  O   UNL     1     -16.216   7.016  -1.683  1.00  0.00    -0.744 OA
ENDBRANCH  91  94
ENDBRANCH  64  87
ENDBRANCH  38  39
ENDBRANCH  30  33
ENDBRANCH  28  29
ENDBRANCH  27  28
ENDBRANCH  26  27
ENDBRANCH   3  26
TORSDOF 16
