REMARK SMILES NC(=O)[C@@H]1CCCCN1C(=O)N[C@H]1C=C[C@@H](C(=O)NCCCNC(=O)c2ccc(-c3c4nc(c(-c5cccc(S(=O)(=O)[O-])c5F)c5ccc([nH]5)c(-c5cccc(S(=O)(=O)[O-])c5F)c5nc(c(-c6cccc(S(=O)(=O)[O-])c6F)c6ccc3[nH]6)C=C5)C=C4)cc2)C1
REMARK SMILES IDX 21 1 20 2 19 3 17 4 18 5 16 7 13 8 14 9 89 10 15 11 12 12
REMARK SMILES IDX 10 13 11 14 9 16 4 17 5 18 6 19 8 20 7 21 2 22 1 23 3 26
REMARK SMILES IDX 22 27 23 28 24 29 25 31 26 32 27 33 88 34 28 35 87 36 29 37
REMARK SMILES IDX 30 38 31 39 81 40 32 41 86 42 80 43 82 44 33 45 85 46 79 47
REMARK SMILES IDX 78 48 34 50 66 51 46 52 65 53 47 54 50 55 64 56 83 57 48 58
REMARK SMILES IDX 49 59 63 61 84 62 51 63 35 64 36 65 44 66 37 67 39 68 45 69
REMARK SMILES IDX 38 70 40 71 41 72 42 73 43 74 67 75 68 76 76 77 69 78 71 79
REMARK SMILES IDX 77 80 70 81 72 82 73 83 74 84 75 85 52 86 53 87 61 88 54 89
REMARK SMILES IDX 56 90 62 91 55 92 57 93 58 94 59 95 60 96
REMARK H PARENT 19 6 12 15 1 24 1 25 23 30 82 49 50 60
REMARK Flexibility Score: inf
ROOT
ATOM      1  C   UNL     1       2.061   6.273   2.845  1.00  0.00     0.042 C 
ENDROOT
BRANCH   1   2
ATOM      2  C   UNL     1       1.705   7.512   2.040  1.00  0.00     0.117 C 
BRANCH   2   3
ATOM      3  N   UNL     1       2.856   8.137   1.413  1.00  0.00    -0.356 N 
ATOM      4  C   UNL     1       3.097   8.454   0.111  1.00  0.00     0.227 C 
ATOM      5  O   UNL     1       4.142   9.065  -0.141  1.00  0.00    -0.274 OA
ATOM      6  H   UNL     1       3.584   8.371   2.033  1.00  0.00     0.163 HD
BRANCH   4   7
ATOM      7  C   UNL     1       2.154   8.056  -1.030  1.00  0.00     0.103 C 
ATOM      8  C   UNL     1       0.636   6.169  -1.477  1.00  0.00     0.107 C 
ATOM      9  C   UNL     1      -0.099   7.392  -1.024  1.00  0.00    -0.006 C 
ATOM     10  C   UNL     1       2.113   6.545  -1.274  1.00  0.00     0.047 C 
ATOM     11  C   UNL     1       0.720   8.432  -0.822  1.00  0.00    -0.016 C 
BRANCH   8  12
ATOM     12  N   UNL     1       0.287   5.033  -0.663  1.00  0.00    -0.332 N 
ATOM     13  C   UNL     1       0.473   3.701  -0.745  1.00  0.00     0.318 C 
ATOM     14  O   UNL     1       0.254   3.103   0.312  1.00  0.00    -0.249 OA
ATOM     15  H   UNL     1      -0.207   5.293   0.148  1.00  0.00     0.165 HD
BRANCH  13  16
ATOM     16  N   UNL     1       0.846   3.049  -1.887  1.00  0.00    -0.313 N 
ATOM     17  C   UNL     1       0.970   1.568  -1.842  1.00  0.00     0.176 C 
ATOM     18  C   UNL     1       2.450   1.164  -1.761  1.00  0.00     0.035 C 
ATOM     19  C   UNL     1       3.228   1.770  -2.938  1.00  0.00     0.004 C 
ATOM     20  C   UNL     1       1.492   3.594  -3.077  1.00  0.00     0.122 C 
ATOM     21  C   UNL     1       2.989   3.276  -3.047  1.00  0.00     0.022 C 
BRANCH  17  22
ATOM     22  C   UNL     1      -0.020   0.740  -0.981  1.00  0.00     0.240 C 
ATOM     23  N   UNL     1       0.493   0.066   0.089  1.00  0.00    -0.368 N 
ATOM     24  H   UNL     1      -0.101  -0.472   0.662  1.00  0.00     0.159 HD
ATOM     25  H   UNL     1       1.455   0.117   0.288  1.00  0.00     0.159 HD
ATOM     26  O   UNL     1      -1.222   0.689  -1.242  1.00  0.00    -0.273 OA
ENDBRANCH  17  22
ENDBRANCH  13  16
ENDBRANCH   8  12
ENDBRANCH   4   7
ENDBRANCH   2   3
ENDBRANCH   1   2
BRANCH   1  27
ATOM     27  C   UNL     1       2.900   6.547   4.085  1.00  0.00     0.118 C 
BRANCH  27  28
ATOM     28  N   UNL     1       2.240   7.440   5.029  1.00  0.00    -0.352 N 
ATOM     29  C   UNL     1       1.871   7.245   6.336  1.00  0.00     0.251 C 
ATOM     30  H   UNL     1       2.023   8.330   4.669  1.00  0.00     0.163 HD
ATOM     31  O   UNL     1       1.155   8.082   6.882  1.00  0.00    -0.269 OA
BRANCH  29  32
ATOM     32  C   UNL     1       2.313   6.048   7.088  1.00  0.00     0.039 A 
ATOM     33  C   UNL     1       1.424   5.460   7.992  1.00  0.00     0.014 A 
ATOM     34  C   UNL     1       3.601   5.526   6.943  1.00  0.00     0.014 A 
ATOM     35  C   UNL     1       1.808   4.321   8.703  1.00  0.00     0.010 A 
ATOM     36  C   UNL     1       3.949   4.338   7.583  1.00  0.00     0.010 A 
ATOM     37  C   UNL     1       3.063   3.729   8.480  1.00  0.00    -0.014 A 
BRANCH  37  38
ATOM     38  C   UNL     1       3.437   2.464   9.163  1.00  0.00     0.031 A 
ATOM     39  C   UNL     1       4.610   2.408  10.105  1.00  0.00     0.074 A 
ATOM     40  C   UNL     1       2.753   1.339   8.878  1.00  0.00     0.049 A 
ATOM     41  N   UNL     1       5.050   1.397  10.810  1.00  0.00    -0.248 NA
ATOM     42  C   UNL     1       5.413   3.633  10.254  1.00  0.00     0.031 C 
ATOM     43  C   UNL     1       1.672   1.234   7.895  1.00  0.00     0.029 A 
ATOM     44  N   UNL     1       2.875   0.065   9.373  1.00  0.00    -0.354 N 
ATOM     45  C   UNL     1       6.194   1.851  11.457  1.00  0.00     0.074 A 
ATOM     46  C   UNL     1       6.403   3.217  11.031  1.00  0.00     0.031 C 
ATOM     47  C   UNL     1       1.219  -0.029   7.871  1.00  0.00     0.029 A 
ATOM     48  C   UNL     1       1.985  -0.828   8.822  1.00  0.00     0.049 A 
ATOM     49  H   UNL     1       3.537  -0.186  10.057  1.00  0.00     0.167 HD
ATOM     50  C   UNL     1       6.980   1.202  12.349  1.00  0.00     0.034 A 
ATOM     51  C   UNL     1       1.798  -2.139   9.063  1.00  0.00     0.034 A 
ATOM     52  C   UNL     1       6.741  -0.141  12.805  1.00  0.00     0.049 A 
ATOM     53  C   UNL     1       2.617  -2.809  10.131  1.00  0.00     0.074 A 
ATOM     54  C   UNL     1       7.414  -0.852  13.784  1.00  0.00     0.029 A 
ATOM     55  N   UNL     1       5.756  -0.982  12.310  1.00  0.00    -0.354 N 
ATOM     56  N   UNL     1       3.573  -2.306  10.874  1.00  0.00    -0.248 NA
ATOM     57  C   UNL     1       2.298  -4.212  10.430  1.00  0.00     0.031 C 
ATOM     58  C   UNL     1       6.847  -2.129  13.866  1.00  0.00     0.029 A 
ATOM     59  C   UNL     1       5.805  -2.205  12.956  1.00  0.00     0.049 A 
ATOM     60  H   UNL     1       5.115  -0.743  11.601  1.00  0.00     0.167 HD
ATOM     61  C   UNL     1       3.950  -3.319  11.748  1.00  0.00     0.074 A 
ATOM     62  C   UNL     1       3.098  -4.455  11.460  1.00  0.00     0.031 C 
ATOM     63  C   UNL     1       4.924  -3.314  12.691  1.00  0.00     0.034 A 
BRANCH  50  64
ATOM     64  C   UNL     1       8.143   1.960  12.939  1.00  0.00     0.023 A 
ATOM     65  C   UNL     1       7.898   3.007  13.852  1.00  0.00     0.012 A 
ATOM     66  C   UNL     1       9.472   1.606  12.637  1.00  0.00     0.148 A 
ATOM     67  C   UNL     1       8.954   3.713  14.426  1.00  0.00     0.002 A 
ATOM     68  C   UNL     1      10.521   2.286  13.248  1.00  0.00     0.091 A 
ATOM     69  F   UNL     1       9.689   0.625  11.750  1.00  0.00    -0.205 F 
ATOM     70  C   UNL     1      10.264   3.346  14.133  1.00  0.00     0.022 A 
BRANCH  68  71
ATOM     71  S   UNL     1      12.241   1.831  12.996  1.00  0.00     0.127 S 
ATOM     72  O   UNL     1      12.712   2.924  12.144  1.00  0.00    -0.237 OA
ATOM     73  O   UNL     1      12.770   1.857  14.363  1.00  0.00    -0.237 OA
ATOM     74  O   UNL     1      12.222   0.517  12.380  1.00  0.00    -0.744 OA
ENDBRANCH  68  71
ENDBRANCH  50  64
BRANCH  51  75
ATOM     75  C   UNL     1       0.722  -2.872   8.339  1.00  0.00     0.023 A 
ATOM     76  C   UNL     1      -0.445  -3.251   9.031  1.00  0.00     0.012 A 
ATOM     77  C   UNL     1       0.824  -3.144   6.962  1.00  0.00     0.148 A 
ATOM     78  C   UNL     1      -1.480  -3.913   8.370  1.00  0.00     0.002 A 
ATOM     79  C   UNL     1      -0.234  -3.753   6.297  1.00  0.00     0.091 A 
ATOM     80  F   UNL     1       1.947  -2.787   6.324  1.00  0.00    -0.205 F 
ATOM     81  C   UNL     1      -1.380  -4.153   7.002  1.00  0.00     0.022 A 
BRANCH  79  82
ATOM     82  S   UNL     1      -0.244  -3.970   4.513  1.00  0.00     0.127 S 
ATOM     83  O   UNL     1      -0.004  -5.405   4.385  1.00  0.00    -0.237 OA
ATOM     84  O   UNL     1      -1.596  -3.536   4.160  1.00  0.00    -0.237 OA
ATOM     85  O   UNL     1       0.810  -3.101   4.006  1.00  0.00    -0.744 OA
ENDBRANCH  79  82
ENDBRANCH  51  75
BRANCH  63  86
ATOM     86  C   UNL     1       5.110  -4.571  13.501  1.00  0.00     0.023 A 
ATOM     87  C   UNL     1       5.665  -5.718  12.897  1.00  0.00     0.012 A 
ATOM     88  C   UNL     1       4.780  -4.604  14.870  1.00  0.00     0.148 A 
ATOM     89  C   UNL     1       5.848  -6.888  13.631  1.00  0.00     0.002 A 
ATOM     90  C   UNL     1       5.011  -5.759  15.607  1.00  0.00     0.091 A 
ATOM     91  F   UNL     1       4.233  -3.512  15.425  1.00  0.00    -0.205 F 
ATOM     92  C   UNL     1       5.532  -6.906  14.987  1.00  0.00     0.022 A 
BRANCH  90  93
ATOM     93  S   UNL     1       4.720  -5.832  17.378  1.00  0.00     0.127 S 
ATOM     94  O   UNL     1       3.437  -6.529  17.442  1.00  0.00    -0.237 OA
ATOM     95  O   UNL     1       5.862  -6.614  17.854  1.00  0.00    -0.237 OA
ATOM     96  O   UNL     1       4.712  -4.448  17.834  1.00  0.00    -0.744 OA
ENDBRANCH  90  93
ENDBRANCH  63  86
ENDBRANCH  37  38
ENDBRANCH  29  32
ENDBRANCH  27  28
ENDBRANCH   1  27
TORSDOF 16
