REMARK SMILES CC(C)n1c([C@H](O)CC(=O)NCCCNC(=O)c2ccc(-c3c4nc(c(-c5cccc(S(=O)(=O)[O-])c5F)c5ccc([nH]5)c(-c5cccc(S(=O)(=O)[O-])c5F)c5nc(c(-c6cccc(S(=O)(=O)[O-])c6F)c6ccc3[nH]6)C=C5)C=C4)cc2)nc2cc(Cl)ccc21
REMARK SMILES IDX 13 1 12 2 11 3 9 4 10 5 8 7 6 8 5 9 4 10 88 11 81 12 82 13
REMARK SMILES IDX 87 14 83 15 86 16 84 17 85 18 2 19 1 20 3 21 7 22 14 24
REMARK SMILES IDX 15 25 16 26 17 28 18 29 19 30 80 31 20 32 79 33 21 34 22 35
REMARK SMILES IDX 23 36 73 37 24 38 78 39 72 40 74 41 25 42 77 43 71 44 70 45
REMARK SMILES IDX 26 47 58 48 38 49 57 50 39 51 42 52 56 53 75 54 40 55 41 56
REMARK SMILES IDX 55 58 76 59 43 60 27 61 28 62 36 63 29 64 31 65 37 66 30 67
REMARK SMILES IDX 32 68 33 69 34 70 35 71 59 72 60 73 68 74 61 75 63 76 69 77
REMARK SMILES IDX 62 78 64 79 65 80 66 81 67 82 44 83 45 84 53 85 46 86 48 87
REMARK SMILES IDX 54 88 47 89 49 90 50 91 51 92 52 93
REMARK H PARENT 11 6 7 23 15 27 74 46 42 57
REMARK Flexibility Score: inf
ROOT
ATOM      1  C   UNL     1      -2.005   0.331  -3.307  1.00  0.00     0.042 C 
ENDROOT
BRANCH   1   2
ATOM      2  C   UNL     1      -2.628  -1.059  -3.129  1.00  0.00     0.117 C 
BRANCH   2   3
ATOM      3  N   UNL     1      -1.656  -2.147  -3.098  1.00  0.00    -0.356 N 
ATOM      4  C   UNL     1      -1.354  -3.027  -2.096  1.00  0.00     0.223 C 
ATOM      5  O   UNL     1      -0.538  -3.919  -2.337  1.00  0.00    -0.275 OA
ATOM      6  H   UNL     1      -1.137  -2.264  -3.926  1.00  0.00     0.163 HD
BRANCH   4   7
ATOM      7  C   UNL     1      -1.945  -2.860  -0.712  1.00  0.00     0.140 C 
BRANCH   7   8
ATOM      8  C   UNL     1      -1.080  -1.918   0.119  1.00  0.00     0.190 C 
BRANCH   8   9
ATOM      9  C   UNL     1      -1.658  -1.648   1.488  1.00  0.00     0.139 A 
ATOM     10  N   UNL     1      -2.184  -0.470   2.020  1.00  0.00    -0.323 N 
ATOM     11  C   UNL     1      -2.569  -0.747   3.330  1.00  0.00     0.069 A 
ATOM     12  N   UNL     1      -1.686  -2.612   2.397  1.00  0.00    -0.230 NA
ATOM     13  C   UNL     1      -2.235  -2.079   3.525  1.00  0.00     0.090 A 
ATOM     14  C   UNL     1      -3.171   0.021   4.340  1.00  0.00     0.030 A 
ATOM     15  C   UNL     1      -2.482  -2.694   4.761  1.00  0.00     0.051 A 
ATOM     16  C   UNL     1      -3.417  -0.601   5.568  1.00  0.00     0.023 A 
ATOM     17  C   UNL     1      -3.073  -1.936   5.773  1.00  0.00     0.043 A 
ATOM     18  Cl  UNL     1      -3.383  -2.665   7.303  1.00  0.00    -0.084 Cl
BRANCH  10  19
ATOM     19  C   UNL     1      -2.439   0.835   1.402  1.00  0.00     0.083 C 
ATOM     20  C   UNL     1      -1.206   1.669   1.037  1.00  0.00     0.031 C 
ATOM     21  C   UNL     1      -3.529   0.778   0.336  1.00  0.00     0.031 C 
ENDBRANCH  10  19
ENDBRANCH   8   9
BRANCH   8  22
ATOM     22  O   UNL     1      -0.880  -0.699  -0.559  1.00  0.00    -0.385 OA
ATOM     23  H   UNL     1      -1.733  -0.254  -0.683  1.00  0.00     0.211 HD
ENDBRANCH   8  22
ENDBRANCH   7   8
ENDBRANCH   4   7
ENDBRANCH   2   3
ENDBRANCH   1   2
BRANCH   1  24
ATOM     24  C   UNL     1      -1.293   0.534  -4.640  1.00  0.00     0.118 C 
BRANCH  24  25
ATOM     25  N   UNL     1      -2.178   0.496  -5.782  1.00  0.00    -0.352 N 
ATOM     26  C   UNL     1      -2.980   1.409  -6.408  1.00  0.00     0.251 C 
ATOM     27  H   UNL     1      -2.212  -0.392  -6.206  1.00  0.00     0.163 HD
ATOM     28  O   UNL     1      -3.507   1.015  -7.452  1.00  0.00    -0.269 OA
BRANCH  26  29
ATOM     29  C   UNL     1      -3.306   2.772  -5.902  1.00  0.00     0.039 A 
ATOM     30  C   UNL     1      -2.713   3.414  -4.813  1.00  0.00     0.014 A 
ATOM     31  C   UNL     1      -4.344   3.437  -6.586  1.00  0.00     0.014 A 
ATOM     32  C   UNL     1      -3.209   4.636  -4.361  1.00  0.00     0.010 A 
ATOM     33  C   UNL     1      -4.830   4.663  -6.150  1.00  0.00     0.010 A 
ATOM     34  C   UNL     1      -4.292   5.240  -5.007  1.00  0.00    -0.014 A 
BRANCH  34  35
ATOM     35  C   UNL     1      -4.739   6.550  -4.538  1.00  0.00     0.031 A 
ATOM     36  C   UNL     1      -3.713   7.624  -4.655  1.00  0.00     0.074 A 
ATOM     37  C   UNL     1      -6.004   6.813  -4.147  1.00  0.00     0.049 A 
ATOM     38  N   UNL     1      -3.145   8.289  -3.701  1.00  0.00    -0.248 NA
ATOM     39  C   UNL     1      -3.155   7.896  -5.990  1.00  0.00     0.031 C 
ATOM     40  C   UNL     1      -7.172   5.933  -4.244  1.00  0.00     0.029 A 
ATOM     41  N   UNL     1      -6.542   7.983  -3.692  1.00  0.00    -0.354 N 
ATOM     42  C   UNL     1      -2.329   9.225  -4.335  1.00  0.00     0.074 A 
ATOM     43  C   UNL     1      -2.241   8.827  -5.715  1.00  0.00     0.031 C 
ATOM     44  C   UNL     1      -8.298   6.668  -4.096  1.00  0.00     0.029 A 
ATOM     45  C   UNL     1      -7.934   8.033  -3.765  1.00  0.00     0.049 A 
ATOM     46  H   UNL     1      -5.996   8.724  -3.343  1.00  0.00     0.167 HD
ATOM     47  C   UNL     1      -1.982  10.398  -3.737  1.00  0.00     0.034 A 
ATOM     48  C   UNL     1      -8.714   9.137  -3.636  1.00  0.00     0.034 A 
ATOM     49  C   UNL     1      -2.192  10.365  -2.318  1.00  0.00     0.049 A 
ATOM     50  C   UNL     1      -7.913  10.140  -2.898  1.00  0.00     0.074 A 
ATOM     51  C   UNL     1      -1.723   9.589  -1.278  1.00  0.00     0.029 A 
ATOM     52  N   UNL     1      -3.304  11.012  -1.840  1.00  0.00    -0.354 N 
ATOM     53  N   UNL     1      -7.540  10.000  -1.657  1.00  0.00    -0.248 NA
ATOM     54  C   UNL     1      -7.184  11.133  -3.670  1.00  0.00     0.031 C 
ATOM     55  C   UNL     1      -2.839   9.436  -0.407  1.00  0.00     0.029 A 
ATOM     56  C   UNL     1      -3.899  10.175  -0.937  1.00  0.00     0.049 A 
ATOM     57  H   UNL     1      -3.614  11.910  -2.098  1.00  0.00     0.167 HD
ATOM     58  C   UNL     1      -6.264  10.542  -1.623  1.00  0.00     0.074 A 
ATOM     59  C   UNL     1      -6.143  11.317  -2.855  1.00  0.00     0.031 C 
ATOM     60  C   UNL     1      -5.328  10.079  -0.747  1.00  0.00     0.034 A 
BRANCH  47  61
ATOM     61  C   UNL     1      -1.800  11.700  -4.475  1.00  0.00     0.023 A 
ATOM     62  C   UNL     1      -1.207  12.780  -3.783  1.00  0.00     0.012 A 
ATOM     63  C   UNL     1      -2.432  11.992  -5.705  1.00  0.00     0.148 A 
ATOM     64  C   UNL     1      -1.262  14.086  -4.283  1.00  0.00     0.002 A 
ATOM     65  C   UNL     1      -2.416  13.276  -6.234  1.00  0.00     0.091 A 
ATOM     66  F   UNL     1      -3.177  11.060  -6.307  1.00  0.00    -0.205 F 
ATOM     67  C   UNL     1      -1.855  14.333  -5.516  1.00  0.00     0.022 A 
BRANCH  65  68
ATOM     68  S   UNL     1      -3.139  13.639  -7.838  1.00  0.00     0.127 S 
ATOM     69  O   UNL     1      -4.356  14.344  -7.456  1.00  0.00    -0.237 OA
ATOM     70  O   UNL     1      -2.103  14.469  -8.452  1.00  0.00    -0.237 OA
ATOM     71  O   UNL     1      -3.321  12.341  -8.482  1.00  0.00    -0.744 OA
ENDBRANCH  65  68
ENDBRANCH  47  61
BRANCH  48  72
ATOM     72  C   UNL     1      -9.986   9.511  -4.315  1.00  0.00     0.023 A 
ATOM     73  C   UNL     1     -10.706  10.639  -3.861  1.00  0.00     0.012 A 
ATOM     74  C   UNL     1     -10.344   8.969  -5.569  1.00  0.00     0.148 A 
ATOM     75  C   UNL     1     -11.697  11.239  -4.649  1.00  0.00     0.002 A 
ATOM     76  C   UNL     1     -11.342   9.560  -6.343  1.00  0.00     0.091 A 
ATOM     77  F   UNL     1      -9.644   7.937  -6.055  1.00  0.00    -0.205 F 
ATOM     78  C   UNL     1     -12.007  10.707  -5.895  1.00  0.00     0.022 A 
BRANCH  76  79
ATOM     79  S   UNL     1     -11.789   8.918  -7.963  1.00  0.00     0.127 S 
ATOM     80  O   UNL     1     -13.253   8.971  -7.919  1.00  0.00    -0.237 OA
ATOM     81  O   UNL     1     -11.171   9.897  -8.857  1.00  0.00    -0.237 OA
ATOM     82  O   UNL     1     -11.244   7.572  -8.019  1.00  0.00    -0.744 OA
ENDBRANCH  76  79
ENDBRANCH  48  72
BRANCH  60  83
ATOM     83  C   UNL     1      -5.771   9.162   0.361  1.00  0.00     0.023 A 
ATOM     84  C   UNL     1      -6.180   7.835   0.117  1.00  0.00     0.012 A 
ATOM     85  C   UNL     1      -5.515   9.572   1.680  1.00  0.00     0.148 A 
ATOM     86  C   UNL     1      -6.318   6.929   1.173  1.00  0.00     0.002 A 
ATOM     87  C   UNL     1      -5.608   8.657   2.719  1.00  0.00     0.091 A 
ATOM     88  F   UNL     1      -5.117  10.837   1.879  1.00  0.00    -0.205 F 
ATOM     89  C   UNL     1      -6.013   7.335   2.471  1.00  0.00     0.022 A 
BRANCH  87  90
ATOM     90  S   UNL     1      -5.095   9.068   4.388  1.00  0.00     0.127 S 
ATOM     91  O   UNL     1      -6.344   8.930   5.133  1.00  0.00    -0.237 OA
ATOM     92  O   UNL     1      -4.099   8.031   4.664  1.00  0.00    -0.237 OA
ATOM     93  O   UNL     1      -4.556  10.421   4.329  1.00  0.00    -0.744 OA
ENDBRANCH  87  90
ENDBRANCH  60  83
ENDBRANCH  34  35
ENDBRANCH  26  29
ENDBRANCH  24  25
ENDBRANCH   1  24
TORSDOF 17
