REMARK SMILES Nc1c(CC(=O)NCCCNC(=O)c2ccc(-c3c4nc(c(-c5cccc(S(=O)(=O)[O-])c5F)c5ccc([nH]5)c(-c5cccc(S(=O)(=O)[O-])c5F)c5nc(c(-c6cccc(S(=O)(=O)[O-])c6F)c6ccc3[nH]6)C=C5)C=C4)cc2)cccc1C(=O)c1ccc(Br)cc1
REMARK SMILES IDX 9 1 8 2 7 3 5 4 6 5 4 7 3 8 2 9 80 10 77 11 79 12 78 13 1 14
REMARK SMILES IDX 81 17 82 18 83 19 84 20 89 21 85 22 88 23 86 24 87 25 10 26
REMARK SMILES IDX 11 27 12 28 13 30 14 31 15 32 76 33 16 34 75 35 17 36 18 37
REMARK SMILES IDX 19 38 69 39 20 40 74 41 68 42 70 43 21 44 73 45 67 46 66 47
REMARK SMILES IDX 22 49 54 50 34 51 53 52 35 53 38 54 52 55 71 56 36 57 37 58
REMARK SMILES IDX 51 60 72 61 39 62 23 63 24 64 32 65 25 66 27 67 33 68 26 69
REMARK SMILES IDX 28 70 29 71 30 72 31 73 55 74 56 75 64 76 57 77 59 78 65 79
REMARK SMILES IDX 58 80 60 81 61 82 62 83 63 84 40 85 41 86 49 87 42 88 44 89
REMARK SMILES IDX 50 90 43 91 45 92 46 93 47 94 48 95
REMARK H PARENT 7 6 1 15 1 16 11 29 70 48 38 59
REMARK Flexibility Score: inf
ROOT
ATOM      1  C   UNL     1       0.875  -0.761   3.420  1.00  0.00     0.042 C 
ENDROOT
BRANCH   1   2
ATOM      2  C   UNL     1       1.715  -1.887   2.823  1.00  0.00     0.117 C 
BRANCH   2   3
ATOM      3  N   UNL     1       0.917  -3.041   2.458  1.00  0.00    -0.356 N 
ATOM      4  C   UNL     1       0.454  -3.413   1.230  1.00  0.00     0.224 C 
ATOM      5  O   UNL     1      -0.232  -4.435   1.150  1.00  0.00    -0.275 OA
ATOM      6  H   UNL     1       0.675  -3.640   3.201  1.00  0.00     0.163 HD
BRANCH   4   7
ATOM      7  C   UNL     1       0.843  -2.632  -0.015  1.00  0.00     0.137 C 
BRANCH   7   8
ATOM      8  C   UNL     1       0.242  -1.241  -0.108  1.00  0.00    -0.015 A 
ATOM      9  C   UNL     1       1.031  -0.058  -0.146  1.00  0.00     0.046 A 
ATOM     10  C   UNL     1       0.376   1.202  -0.172  1.00  0.00     0.046 A 
ATOM     11  C   UNL     1      -1.163  -1.150  -0.116  1.00  0.00     0.006 A 
ATOM     12  C   UNL     1      -1.032   1.248  -0.155  1.00  0.00     0.014 A 
ATOM     13  C   UNL     1      -1.795   0.085  -0.131  1.00  0.00     0.001 A 
BRANCH   9  14
ATOM     14  N   UNL     1       2.416  -0.183  -0.112  1.00  0.00    -0.398 N 
ATOM     15  H   UNL     1       2.830  -1.076  -0.095  1.00  0.00     0.156 HD
ATOM     16  H   UNL     1       2.982   0.623  -0.105  1.00  0.00     0.156 HD
ENDBRANCH   9  14
BRANCH  10  17
ATOM     17  C   UNL     1       1.043   2.550  -0.199  1.00  0.00     0.195 C 
ATOM     18  O   UNL     1       0.383   3.580  -0.089  1.00  0.00    -0.289 OA
BRANCH  17  19
ATOM     19  C   UNL     1       2.497   2.736  -0.318  1.00  0.00     0.023 A 
ATOM     20  C   UNL     1       3.179   3.320   0.756  1.00  0.00     0.013 A 
ATOM     21  C   UNL     1       3.187   2.324  -1.461  1.00  0.00     0.013 A 
ATOM     22  C   UNL     1       4.570   3.422   0.718  1.00  0.00     0.016 A 
ATOM     23  C   UNL     1       4.580   2.417  -1.492  1.00  0.00     0.016 A 
ATOM     24  C   UNL     1       5.264   2.953  -0.398  1.00  0.00     0.018 A 
ATOM     25  Br  UNL     1       7.153   3.028  -0.424  1.00  0.00    -0.051 Br
ENDBRANCH  17  19
ENDBRANCH  10  17
ENDBRANCH   7   8
ENDBRANCH   4   7
ENDBRANCH   2   3
ENDBRANCH   1   2
BRANCH   1  26
ATOM     26  C   UNL     1       0.348  -1.068   4.819  1.00  0.00     0.118 C 
BRANCH  26  27
ATOM     27  N   UNL     1       1.422  -1.256   5.787  1.00  0.00    -0.352 N 
ATOM     28  C   UNL     1       1.645  -0.651   6.996  1.00  0.00     0.251 C 
ATOM     29  H   UNL     1       2.096  -1.925   5.530  1.00  0.00     0.163 HD
ATOM     30  O   UNL     1       2.728  -0.821   7.555  1.00  0.00    -0.269 OA
BRANCH  28  31
ATOM     31  C   UNL     1       0.614   0.200   7.627  1.00  0.00     0.039 A 
ATOM     32  C   UNL     1       1.022   1.351   8.307  1.00  0.00     0.014 A 
ATOM     33  C   UNL     1      -0.740  -0.146   7.594  1.00  0.00     0.014 A 
ATOM     34  C   UNL     1       0.072   2.180   8.906  1.00  0.00     0.010 A 
ATOM     35  C   UNL     1      -1.693   0.721   8.125  1.00  0.00     0.010 A 
ATOM     36  C   UNL     1      -1.298   1.888   8.794  1.00  0.00    -0.014 A 
BRANCH  36  37
ATOM     37  C   UNL     1      -2.320   2.817   9.338  1.00  0.00     0.031 A 
ATOM     38  C   UNL     1      -3.264   2.381  10.425  1.00  0.00     0.074 A 
ATOM     39  C   UNL     1      -2.455   4.038   8.787  1.00  0.00     0.049 A 
ATOM     40  N   UNL     1      -4.221   3.058  11.005  1.00  0.00    -0.248 NA
ATOM     41  C   UNL     1      -3.137   0.994  10.900  1.00  0.00     0.031 C 
ATOM     42  C   UNL     1      -1.675   4.542   7.654  1.00  0.00     0.029 A 
ATOM     43  N   UNL     1      -3.317   5.065   9.080  1.00  0.00    -0.354 N 
ATOM     44  C   UNL     1      -4.834   2.174  11.885  1.00  0.00     0.074 A 
ATOM     45  C   UNL     1      -4.161   0.901  11.736  1.00  0.00     0.031 C 
ATOM     46  C   UNL     1      -2.094   5.778   7.348  1.00  0.00     0.029 A 
ATOM     47  C   UNL     1      -3.187   6.146   8.242  1.00  0.00     0.049 A 
ATOM     48  H   UNL     1      -3.965   5.030   9.820  1.00  0.00     0.167 HD
ATOM     49  C   UNL     1      -5.845   2.406  12.757  1.00  0.00     0.034 A 
ATOM     50  C   UNL     1      -3.877   7.302   8.188  1.00  0.00     0.034 A 
ATOM     51  C   UNL     1      -6.491   3.682  12.921  1.00  0.00     0.049 A 
ATOM     52  C   UNL     1      -4.952   7.564   9.203  1.00  0.00     0.074 A 
ATOM     53  C   UNL     1      -7.444   4.051  13.854  1.00  0.00     0.029 A 
ATOM     54  N   UNL     1      -6.269   4.791  12.119  1.00  0.00    -0.354 N 
ATOM     55  N   UNL     1      -5.386   6.782  10.162  1.00  0.00    -0.248 NA
ATOM     56  C   UNL     1      -5.603   8.880   9.157  1.00  0.00     0.031 C 
ATOM     57  C   UNL     1      -7.823   5.374  13.594  1.00  0.00     0.029 A 
ATOM     58  C   UNL     1      -7.082   5.840  12.519  1.00  0.00     0.049 A 
ATOM     59  H   UNL     1      -5.628   4.828  11.373  1.00  0.00     0.167 HD
ATOM     60  C   UNL     1      -6.348   7.516  10.846  1.00  0.00     0.074 A 
ATOM     61  C   UNL     1      -6.409   8.816  10.209  1.00  0.00     0.031 C 
ATOM     62  C   UNL     1      -7.120   7.140  11.896  1.00  0.00     0.034 A 
BRANCH  49  63
ATOM     63  C   UNL     1      -6.286   1.256  13.629  1.00  0.00     0.023 A 
ATOM     64  C   UNL     1      -5.424   0.770  14.634  1.00  0.00     0.012 A 
ATOM     65  C   UNL     1      -7.558   0.671  13.472  1.00  0.00     0.148 A 
ATOM     66  C   UNL     1      -5.797  -0.312  15.432  1.00  0.00     0.002 A 
ATOM     67  C   UNL     1      -7.942  -0.375  14.304  1.00  0.00     0.091 A 
ATOM     68  F   UNL     1      -8.359   1.127  12.499  1.00  0.00    -0.205 F 
ATOM     69  C   UNL     1      -7.058  -0.878  15.272  1.00  0.00     0.022 A 
BRANCH  67  70
ATOM     70  S   UNL     1      -9.578  -1.114  14.229  1.00  0.00     0.127 S 
ATOM     71  O   UNL     1      -9.300  -2.378  13.549  1.00  0.00    -0.237 OA
ATOM     72  O   UNL     1      -9.922  -1.248  15.646  1.00  0.00    -0.237 OA
ATOM     73  O   UNL     1     -10.407  -0.170  13.494  1.00  0.00    -0.744 OA
ENDBRANCH  67  70
ENDBRANCH  49  63
BRANCH  50  74
ATOM     74  C   UNL     1      -3.516   8.314   7.158  1.00  0.00     0.023 A 
ATOM     75  C   UNL     1      -2.831   9.483   7.539  1.00  0.00     0.012 A 
ATOM     76  C   UNL     1      -3.778   8.080   5.794  1.00  0.00     0.148 A 
ATOM     77  C   UNL     1      -2.425  10.411   6.579  1.00  0.00     0.002 A 
ATOM     78  C   UNL     1      -3.322   8.980   4.840  1.00  0.00     0.091 A 
ATOM     79  F   UNL     1      -4.436   6.962   5.459  1.00  0.00    -0.205 F 
ATOM     80  C   UNL     1      -2.659  10.154   5.230  1.00  0.00     0.022 A 
BRANCH  78  81
ATOM     81  S   UNL     1      -3.452   8.663   3.077  1.00  0.00     0.127 S 
ATOM     82  O   UNL     1      -4.372   9.719   2.652  1.00  0.00    -0.237 OA
ATOM     83  O   UNL     1      -2.066   8.846   2.642  1.00  0.00    -0.237 OA
ATOM     84  O   UNL     1      -3.953   7.306   2.954  1.00  0.00    -0.744 OA
ENDBRANCH  78  81
ENDBRANCH  50  74
BRANCH  62  85
ATOM     85  C   UNL     1      -8.099   8.152  12.434  1.00  0.00     0.023 A 
ATOM     86  C   UNL     1      -9.239   8.494  11.678  1.00  0.00     0.012 A 
ATOM     87  C   UNL     1      -7.920   8.725  13.709  1.00  0.00     0.148 A 
ATOM     88  C   UNL     1     -10.164   9.418  12.166  1.00  0.00     0.002 A 
ATOM     89  C   UNL     1      -8.871   9.606  14.210  1.00  0.00     0.091 A 
ATOM     90  F   UNL     1      -6.820   8.404  14.406  1.00  0.00    -0.205 F 
ATOM     91  C   UNL     1      -9.986   9.965  13.434  1.00  0.00     0.022 A 
BRANCH  89  92
ATOM     92  S   UNL     1      -8.774  10.285  15.870  1.00  0.00     0.127 S 
ATOM     93  O   UNL     1      -8.390  11.670  15.604  1.00  0.00    -0.237 OA
ATOM     94  O   UNL     1     -10.143  10.115  16.357  1.00  0.00    -0.237 OA
ATOM     95  O   UNL     1      -7.781   9.484  16.573  1.00  0.00    -0.744 OA
ENDBRANCH  89  92
ENDBRANCH  62  85
ENDBRANCH  36  37
ENDBRANCH  28  31
ENDBRANCH  26  27
ENDBRANCH   1  26
TORSDOF 17
