REMARK SMILES COc1cc(/C=C/C(=O)NCCCNC(=O)c2ccc(-c3c4nc(c(-c5cccc(S(=O)(=O)[O-])c5F)c5ccc([nH]5)c(-c5cccc(S(=O)(=O)[O-])c5F)c5nc(c(-c6cccc(S(=O)(=O)[O-])c6F)c6ccc3[nH]6)C=C5)C=C4)cc2)cc(S(=O)(=O)Nc2ccc3c(c2)OCCO3)c1OC
REMARK SMILES IDX 11 1 10 2 8 3 9 4 7 6 6 7 5 8 3 9 4 10 96 11 81 12 80 13
REMARK SMILES IDX 2 14 1 15 97 16 98 17 82 18 83 19 84 20 85 21 86 23 87 24
REMARK SMILES IDX 91 25 88 26 90 27 89 28 92 29 95 30 93 31 94 32 12 33 13 34
REMARK SMILES IDX 14 35 15 36 16 38 17 39 18 40 79 41 19 42 78 43 20 44 21 45
REMARK SMILES IDX 22 46 72 47 23 48 77 49 71 50 73 51 24 52 76 53 70 54 69 55
REMARK SMILES IDX 25 57 57 58 37 59 56 60 38 61 41 62 55 63 74 64 39 65 40 66
REMARK SMILES IDX 54 68 75 69 42 70 26 71 27 72 35 73 28 74 30 75 36 76 29 77
REMARK SMILES IDX 31 78 32 79 33 80 34 81 58 82 59 83 67 84 60 85 62 86 68 87
REMARK SMILES IDX 61 88 63 89 64 90 65 91 66 92 43 93 44 94 52 95 45 96 47 97
REMARK SMILES IDX 53 98 46 99 48 100 49 101 50 102 51 103
REMARK H PARENT 10 5 85 22 14 37 73 56 41 67
REMARK Flexibility Score: inf
ROOT
ATOM      1  C   UNL     1      -0.858   4.193  -7.529  1.00  0.00     0.118 C 
ENDROOT
BRANCH   1   2
ATOM      2  N   UNL     1      -2.024   3.333  -7.413  1.00  0.00    -0.352 N 
ATOM      3  C   UNL     1      -2.386   2.443  -6.454  1.00  0.00     0.244 C 
ATOM      4  O   UNL     1      -3.487   1.899  -6.522  1.00  0.00    -0.270 OA
ATOM      5  H   UNL     1      -2.662   3.410  -8.160  1.00  0.00     0.163 HD
BRANCH   3   6
ATOM      6  C   UNL     1      -1.550   2.222  -5.250  1.00  0.00     0.072 C 
ATOM      7  C   UNL     1      -0.240   1.917  -5.222  1.00  0.00     0.014 C 
BRANCH   7   8
ATOM      8  C   UNL     1       0.552   1.772  -3.976  1.00  0.00    -0.020 A 
ATOM      9  C   UNL     1       0.735   1.571  -1.543  1.00  0.00     0.162 A 
ATOM     10  C   UNL     1      -0.023   1.496  -2.727  1.00  0.00     0.058 A 
ATOM     11  C   UNL     1       2.102   1.906  -1.576  1.00  0.00     0.181 A 
ATOM     12  C   UNL     1       2.703   2.084  -2.829  1.00  0.00     0.134 A 
ATOM     13  C   UNL     1       1.935   2.009  -4.017  1.00  0.00     0.034 A 
BRANCH   9  14
ATOM     14  O   UNL     1       0.034   1.548  -0.360  1.00  0.00    -0.493 OA
ATOM     15  C   UNL     1      -0.274   0.227   0.080  1.00  0.00     0.278 C 
ENDBRANCH   9  14
BRANCH  11  16
ATOM     16  O   UNL     1       2.881   2.180  -0.488  1.00  0.00    -0.492 OA
ATOM     17  C   UNL     1       2.567   1.561   0.749  1.00  0.00     0.278 C 
ENDBRANCH  11  16
BRANCH  12  18
ATOM     18  S   UNL     1       4.412   2.600  -2.993  1.00  0.00     0.265 S 
ATOM     19  O   UNL     1       4.787   2.365  -4.364  1.00  0.00    -0.201 OA
ATOM     20  O   UNL     1       4.517   3.947  -2.445  1.00  0.00    -0.201 OA
BRANCH  18  21
ATOM     21  N   UNL     1       5.471   1.584  -2.083  1.00  0.00    -0.279 N 
ATOM     22  H   UNL     1       6.319   1.921  -1.714  1.00  0.00     0.180 HD
BRANCH  21  23
ATOM     23  C   UNL     1       5.057   0.227  -1.893  1.00  0.00     0.053 A 
ATOM     24  C   UNL     1       5.006  -0.255  -0.580  1.00  0.00     0.031 A 
ATOM     25  C   UNL     1       4.636  -0.561  -2.954  1.00  0.00     0.077 A 
ATOM     26  C   UNL     1       4.293  -1.418  -0.299  1.00  0.00     0.052 A 
ATOM     27  C   UNL     1       3.845  -1.662  -2.670  1.00  0.00     0.163 A 
ATOM     28  C   UNL     1       3.619  -2.041  -1.342  1.00  0.00     0.161 A 
ATOM     29  O   UNL     1       3.193  -2.219  -3.735  1.00  0.00    -0.486 OA
ATOM     30  O   UNL     1       2.609  -2.914  -1.017  1.00  0.00    -0.486 OA
ATOM     31  C   UNL     1       2.044  -2.989  -3.370  1.00  0.00     0.271 C 
ATOM     32  C   UNL     1       1.552  -2.685  -1.963  1.00  0.00     0.271 C 
ENDBRANCH  21  23
ENDBRANCH  18  21
ENDBRANCH  12  18
ENDBRANCH   7   8
ENDBRANCH   3   6
ENDBRANCH   1   2
BRANCH   1  33
ATOM     33  C   UNL     1       0.060   3.738  -8.660  1.00  0.00     0.042 C 
BRANCH  33  34
ATOM     34  C   UNL     1      -0.514   3.975 -10.058  1.00  0.00     0.118 C 
BRANCH  34  35
ATOM     35  N   UNL     1      -0.616   5.393 -10.388  1.00  0.00    -0.352 N 
ATOM     36  C   UNL     1       0.015   6.118 -11.370  1.00  0.00     0.251 C 
ATOM     37  H   UNL     1      -1.233   5.909  -9.820  1.00  0.00     0.163 HD
ATOM     38  O   UNL     1      -0.043   7.345 -11.351  1.00  0.00    -0.269 OA
BRANCH  36  39
ATOM     39  C   UNL     1       0.770   5.432 -12.441  1.00  0.00     0.039 A 
ATOM     40  C   UNL     1       2.031   5.917 -12.802  1.00  0.00     0.014 A 
ATOM     41  C   UNL     1       0.231   4.325 -13.100  1.00  0.00     0.014 A 
ATOM     42  C   UNL     1       2.784   5.241 -13.767  1.00  0.00     0.010 A 
ATOM     43  C   UNL     1       1.008   3.615 -14.013  1.00  0.00     0.010 A 
ATOM     44  C   UNL     1       2.296   4.059 -14.348  1.00  0.00    -0.014 A 
BRANCH  44  45
ATOM     45  C   UNL     1       3.134   3.238 -15.260  1.00  0.00     0.031 A 
ATOM     46  C   UNL     1       2.713   3.007 -16.686  1.00  0.00     0.074 A 
ATOM     47  C   UNL     1       4.215   2.604 -14.764  1.00  0.00     0.049 A 
ATOM     48  N   UNL     1       3.262   2.241 -17.592  1.00  0.00    -0.248 NA
ATOM     49  C   UNL     1       1.505   3.710 -17.147  1.00  0.00     0.031 C 
ATOM     50  C   UNL     1       4.680   2.687 -13.377  1.00  0.00     0.029 A 
ATOM     51  N   UNL     1       5.097   1.734 -15.356  1.00  0.00    -0.354 N 
ATOM     52  C   UNL     1       2.452   2.340 -18.717  1.00  0.00     0.074 A 
ATOM     53  C   UNL     1       1.358   3.222 -18.371  1.00  0.00     0.031 C 
ATOM     54  C   UNL     1       5.754   1.897 -13.223  1.00  0.00     0.029 A 
ATOM     55  C   UNL     1       6.034   1.223 -14.487  1.00  0.00     0.049 A 
ATOM     56  H   UNL     1       5.062   1.498 -16.311  1.00  0.00     0.167 HD
ATOM     57  C   UNL     1       2.617   1.768 -19.933  1.00  0.00     0.034 A 
ATOM     58  C   UNL     1       6.997   0.300 -14.678  1.00  0.00     0.034 A 
ATOM     59  C   UNL     1       3.726   0.921 -20.282  1.00  0.00     0.049 A 
ATOM     60  C   UNL     1       7.166  -0.307 -16.043  1.00  0.00     0.074 A 
ATOM     61  C   UNL     1       4.036   0.375 -21.515  1.00  0.00     0.029 A 
ATOM     62  N   UNL     1       4.700   0.485 -19.396  1.00  0.00    -0.354 N 
ATOM     63  N   UNL     1       6.490  -0.069 -17.141  1.00  0.00    -0.248 NA
ATOM     64  C   UNL     1       8.246  -1.291 -16.204  1.00  0.00     0.031 C 
ATOM     65  C   UNL     1       5.181  -0.415 -21.368  1.00  0.00     0.029 A 
ATOM     66  C   UNL     1       5.598  -0.342 -20.049  1.00  0.00     0.049 A 
ATOM     67  H   UNL     1       4.745   0.728 -18.443  1.00  0.00     0.167 HD
ATOM     68  C   UNL     1       7.076  -0.853 -18.127  1.00  0.00     0.074 A 
ATOM     69  C   UNL     1       8.181  -1.551 -17.503  1.00  0.00     0.031 C 
ATOM     70  C   UNL     1       6.720  -0.997 -19.427  1.00  0.00     0.034 A 
BRANCH  57  71
ATOM     71  C   UNL     1       1.601   2.079 -21.002  1.00  0.00     0.023 A 
ATOM     72  C   UNL     1       1.581   3.362 -21.587  1.00  0.00     0.012 A 
ATOM     73  C   UNL     1       0.719   1.089 -21.479  1.00  0.00     0.148 A 
ATOM     74  C   UNL     1       0.680   3.665 -22.607  1.00  0.00     0.002 A 
ATOM     75  C   UNL     1      -0.147   1.386 -22.525  1.00  0.00     0.091 A 
ATOM     76  F   UNL     1       0.740  -0.119 -20.898  1.00  0.00    -0.205 F 
ATOM     77  C   UNL     1      -0.175   2.675 -23.082  1.00  0.00     0.022 A 
BRANCH  75  78
ATOM     78  S   UNL     1      -1.236   0.162 -23.263  1.00  0.00     0.127 S 
ATOM     79  O   UNL     1      -2.550   0.635 -22.826  1.00  0.00    -0.237 OA
ATOM     80  O   UNL     1      -0.971   0.335 -24.691  1.00  0.00    -0.237 OA
ATOM     81  O   UNL     1      -0.824  -1.124 -22.718  1.00  0.00    -0.744 OA
ENDBRANCH  75  78
ENDBRANCH  57  71
BRANCH  58  82
ATOM     82  C   UNL     1       7.904  -0.073 -13.556  1.00  0.00     0.023 A 
ATOM     83  C   UNL     1       9.257   0.317 -13.603  1.00  0.00     0.012 A 
ATOM     84  C   UNL     1       7.434  -0.785 -12.435  1.00  0.00     0.148 A 
ATOM     85  C   UNL     1      10.132  -0.022 -12.570  1.00  0.00     0.002 A 
ATOM     86  C   UNL     1       8.298  -1.072 -11.384  1.00  0.00     0.091 A 
ATOM     87  F   UNL     1       6.147  -1.161 -12.415  1.00  0.00    -0.205 F 
ATOM     88  C   UNL     1       9.650  -0.706 -11.457  1.00  0.00     0.022 A 
BRANCH  86  89
ATOM     89  S   UNL     1       7.734  -1.835  -9.858  1.00  0.00     0.127 S 
ATOM     90  O   UNL     1       8.291  -3.180  -9.972  1.00  0.00    -0.237 OA
ATOM     91  O   UNL     1       8.365  -0.990  -8.844  1.00  0.00    -0.237 OA
ATOM     92  O   UNL     1       6.280  -1.746  -9.891  1.00  0.00    -0.744 OA
ENDBRANCH  86  89
ENDBRANCH  58  82
BRANCH  70  93
ATOM     93  C   UNL     1       7.536  -1.938 -20.274  1.00  0.00     0.023 A 
ATOM     94  C   UNL     1       7.406  -3.329 -20.091  1.00  0.00     0.012 A 
ATOM     95  C   UNL     1       8.367  -1.449 -21.302  1.00  0.00     0.148 A 
ATOM     96  C   UNL     1       8.111  -4.219 -20.899  1.00  0.00     0.002 A 
ATOM     97  C   UNL     1       9.028  -2.343 -22.135  1.00  0.00     0.091 A 
ATOM     98  F   UNL     1       8.488  -0.122 -21.449  1.00  0.00    -0.205 F 
ATOM     99  C   UNL     1       8.911  -3.727 -21.928  1.00  0.00     0.022 A 
BRANCH  97 100
ATOM    100  S   UNL     1      10.008  -1.810 -23.544  1.00  0.00     0.127 S 
ATOM    101  O   UNL     1      11.361  -2.159 -23.114  1.00  0.00    -0.237 OA
ATOM    102  O   UNL     1       9.476  -2.643 -24.622  1.00  0.00    -0.237 OA
ATOM    103  O   UNL     1       9.753  -0.384 -23.696  1.00  0.00    -0.744 OA
ENDBRANCH  97 100
ENDBRANCH  70  93
ENDBRANCH  44  45
ENDBRANCH  36  39
ENDBRANCH  34  35
ENDBRANCH  33  34
ENDBRANCH   1  33
TORSDOF 19
