REMARK SMILES O=C(NCCCNC(=O)c1ccc(-c2c3nc(c(-c4cccc(S(=O)(=O)[O-])c4F)c4ccc([nH]4)c(-c4cccc(S(=O)(=O)[O-])c4F)c4nc(c(-c5cccc(S(=O)(=O)[O-])c5F)c5ccc2[nH]5)C=C4)C=C3)cc1)C1=Cc2cc(S(F)(F)(F)(F)F)cc(Br)c2O[C@@H]1C(F)(F)F
REMARK SMILES IDX 6 1 5 2 4 3 3 4 1 5 2 6 73 8 74 9 89 10 75 11 88 12 76 13
REMARK SMILES IDX 87 14 77 15 85 16 84 17 86 18 90 19 91 20 92 21 93 22 78 23
REMARK SMILES IDX 79 24 80 25 81 26 82 27 83 28 7 29 8 30 9 32 10 33 11 34
REMARK SMILES IDX 72 35 12 36 71 37 13 38 14 39 15 40 65 41 16 42 70 43 64 44
REMARK SMILES IDX 66 45 17 46 69 47 63 48 62 49 18 51 50 52 30 53 49 54 31 55
REMARK SMILES IDX 34 56 48 57 67 58 32 59 33 60 47 62 68 63 35 64 19 65 20 66
REMARK SMILES IDX 28 67 21 68 23 69 29 70 22 71 24 72 25 73 26 74 27 75 51 76
REMARK SMILES IDX 52 77 60 78 53 79 55 80 61 81 54 82 56 83 57 84 58 85 59 86
REMARK SMILES IDX 36 87 37 88 45 89 38 90 40 91 46 92 39 93 41 94 42 95 43 96
REMARK SMILES IDX 44 97
REMARK H PARENT 3 7 7 31 66 50 34 61
REMARK Flexibility Score: inf
ROOT
ATOM      1  C   UNL     1       4.506   3.548   0.101  1.00  0.00     0.118 C 
ENDROOT
BRANCH   1   2
ATOM      2  C   UNL     1       5.013   2.220  -0.436  1.00  0.00     0.042 C 
BRANCH   2   3
ATOM      3  C   UNL     1       4.506   1.090   0.446  1.00  0.00     0.118 C 
BRANCH   3   4
ATOM      4  N   UNL     1       3.036   1.090   0.446  1.00  0.00    -0.352 N 
ATOM      5  O   UNL     1       1.030  -0.090  -0.031  1.00  0.00    -0.270 OA
ATOM      6  C   UNL     1       2.301  -0.090  -0.031  1.00  0.00     0.251 C 
ATOM      7  H   UNL     1       2.544   1.881   0.765  1.00  0.00     0.163 HD
BRANCH   6   8
ATOM      8  C   UNL     1       3.061  -1.311  -0.524  1.00  0.00     0.067 C 
ATOM      9  C   UNL     1       4.421  -1.311  -0.524  1.00  0.00     0.025 C 
ATOM     10  C   UNL     1       2.301  -2.531  -1.018  1.00  0.00     0.314 C 
ATOM     11  C   UNL     1       5.181  -0.090  -0.031  1.00  0.00     0.020 A 
ATOM     12  O   UNL     1       3.524   0.062   1.665  1.00  0.00    -0.474 OA
ATOM     13  C   UNL     1       6.299   0.387  -0.696  1.00  0.00     0.036 A 
ATOM     14  C   UNL     1       4.760   0.470   1.097  1.00  0.00     0.142 A 
ATOM     15  C   UNL     1       7.081   1.285   0.068  1.00  0.00     0.109 A 
ATOM     16  C   UNL     1       5.508   1.440   1.718  1.00  0.00     0.062 A 
ATOM     17  C   UNL     1       6.656   1.916   1.148  1.00  0.00     0.044 A 
ATOM     18  Br  UNL     1       4.923   2.150   3.449  1.00  0.00    -0.047 Br
BRANCH  10  19
ATOM     19  C   UNL     1       2.668  -3.735  -0.166  1.00  0.00     0.429 C 
ATOM     20  F   UNL     1       2.347  -3.495   1.102  1.00  0.00    -0.167 F 
ATOM     21  F   UNL     1       2.003  -4.803  -0.598  1.00  0.00    -0.167 F 
ATOM     22  F   UNL     1       3.976  -3.960  -0.257  1.00  0.00    -0.167 F 
ENDBRANCH  10  19
BRANCH  15  23
ATOM     23  S   UNL     1       8.781   1.591  -0.472  1.00  0.00     0.310 S 
ATOM     24  F   UNL     1       9.320   1.624   1.020  1.00  0.00    -0.094 F 
ATOM     25  F   UNL     1       8.513   3.138  -0.336  1.00  0.00    -0.094 F 
ATOM     26  F   UNL     1      10.240   1.857  -0.940  1.00  0.00    -0.094 F 
ATOM     27  F   UNL     1       9.074   0.039  -0.466  1.00  0.00    -0.094 F 
ATOM     28  F   UNL     1       7.339   1.306   0.111  1.00  0.00    -0.094 F 
ENDBRANCH  15  23
ENDBRANCH   6   8
ENDBRANCH   3   4
ENDBRANCH   2   3
ENDBRANCH   1   2
BRANCH   1  29
ATOM     29  N   UNL     1       4.996   3.741   1.473  1.00  0.00    -0.352 N 
ATOM     30  C   UNL     1       5.841   4.900   1.796  1.00  0.00     0.251 C 
ATOM     31  H   UNL     1       4.758   3.094   2.176  1.00  0.00     0.163 HD
ATOM     32  O   UNL     1       6.265   5.066   2.982  1.00  0.00    -0.269 OA
BRANCH  30  33
ATOM     33  C   UNL     1       6.208   5.898   0.711  1.00  0.00     0.039 A 
ATOM     34  C   UNL     1       7.512   6.285   0.448  1.00  0.00     0.014 A 
ATOM     35  C   UNL     1       5.207   6.274  -0.076  1.00  0.00     0.014 A 
ATOM     36  C   UNL     1       7.621   7.317  -0.514  1.00  0.00     0.010 A 
ATOM     37  C   UNL     1       5.413   7.184  -1.084  1.00  0.00     0.010 A 
ATOM     38  C   UNL     1       6.666   7.655  -1.362  1.00  0.00    -0.014 A 
BRANCH  38  39
ATOM     39  C   UNL     1       6.946   8.520  -2.580  1.00  0.00     0.031 A 
ATOM     40  C   UNL     1       6.250   9.728  -2.650  1.00  0.00     0.074 A 
ATOM     41  C   UNL     1       7.737   8.022  -3.601  1.00  0.00     0.049 A 
ATOM     42  N   UNL     1       6.244  10.607  -3.653  1.00  0.00    -0.248 NA
ATOM     43  C   UNL     1       5.381  10.242  -1.580  1.00  0.00     0.031 C 
ATOM     44  C   UNL     1       8.449   6.808  -3.535  1.00  0.00     0.029 A 
ATOM     45  N   UNL     1       7.979   8.586  -4.834  1.00  0.00    -0.354 N 
ATOM     46  C   UNL     1       5.474  11.653  -3.345  1.00  0.00     0.074 A 
ATOM     47  C   UNL     1       4.904  11.430  -2.010  1.00  0.00     0.031 C 
ATOM     48  C   UNL     1       9.100   6.637  -4.715  1.00  0.00     0.029 A 
ATOM     49  C   UNL     1       8.808   7.741  -5.538  1.00  0.00     0.049 A 
ATOM     50  H   UNL     1       7.620   9.444  -5.157  1.00  0.00     0.167 HD
ATOM     51  C   UNL     1       5.228  12.784  -4.125  1.00  0.00     0.034 A 
ATOM     52  C   UNL     1       9.291   7.905  -6.827  1.00  0.00     0.034 A 
ATOM     53  C   UNL     1       5.746  12.969  -5.397  1.00  0.00     0.049 A 
ATOM     54  C   UNL     1       8.997   9.010  -7.630  1.00  0.00     0.074 A 
ATOM     55  C   UNL     1       5.514  14.106  -6.193  1.00  0.00     0.029 A 
ATOM     56  N   UNL     1       6.556  12.112  -6.111  1.00  0.00    -0.354 N 
ATOM     57  N   UNL     1       8.260  10.074  -7.307  1.00  0.00    -0.248 NA
ATOM     58  C   UNL     1       9.477   9.179  -9.008  1.00  0.00     0.031 C 
ATOM     59  C   UNL     1       6.166  13.935  -7.374  1.00  0.00     0.029 A 
ATOM     60  C   UNL     1       6.816  12.687  -7.335  1.00  0.00     0.049 A 
ATOM     61  H   UNL     1       6.890  11.240  -5.799  1.00  0.00     0.167 HD
ATOM     62  C   UNL     1       8.221  10.933  -8.327  1.00  0.00     0.074 A 
ATOM     63  C   UNL     1       8.997  10.367  -9.439  1.00  0.00     0.031 C 
ATOM     64  C   UNL     1       7.573  12.168  -8.374  1.00  0.00     0.034 A 
BRANCH  51  65
ATOM     65  C   UNL     1       4.341  13.874  -3.546  1.00  0.00     0.023 A 
ATOM     66  C   UNL     1       4.731  14.429  -2.338  1.00  0.00     0.012 A 
ATOM     67  C   UNL     1       3.211  14.240  -4.139  1.00  0.00     0.148 A 
ATOM     68  C   UNL     1       3.709  15.158  -1.686  1.00  0.00     0.002 A 
ATOM     69  C   UNL     1       2.319  15.065  -3.497  1.00  0.00     0.091 A 
ATOM     70  F   UNL     1       2.939  13.803  -5.366  1.00  0.00    -0.205 F 
ATOM     71  C   UNL     1       2.613  15.602  -2.275  1.00  0.00     0.022 A 
BRANCH  69  72
ATOM     72  S   UNL     1       0.733  15.446  -4.281  1.00  0.00     0.127 S 
ATOM     73  O   UNL     1      -0.409  14.973  -3.378  1.00  0.00    -0.237 OA
ATOM     74  O   UNL     1       0.621  16.957  -4.497  1.00  0.00    -0.237 OA
ATOM     75  O   UNL     1       0.636  14.646  -5.789  1.00  0.00    -0.744 OA
ENDBRANCH  69  72
ENDBRANCH  51  65
BRANCH  52  76
ATOM     76  C   UNL     1      10.191   6.822  -7.399  1.00  0.00     0.023 A 
ATOM     77  C   UNL     1      11.480   7.203  -7.734  1.00  0.00     0.012 A 
ATOM     78  C   UNL     1       9.786   5.565  -7.538  1.00  0.00     0.148 A 
ATOM     79  C   UNL     1      12.187   6.235  -8.485  1.00  0.00     0.002 A 
ATOM     80  C   UNL     1      10.586   4.638  -8.162  1.00  0.00     0.091 A 
ATOM     81  F   UNL     1       8.597   5.200  -7.069  1.00  0.00    -0.205 F 
ATOM     82  C   UNL     1      11.849   4.961  -8.572  1.00  0.00     0.022 A 
BRANCH  80  83
ATOM     83  S   UNL     1       9.957   2.964  -8.444  1.00  0.00     0.127 S 
ATOM     84  O   UNL     1       9.953   2.668  -9.946  1.00  0.00    -0.237 OA
ATOM     85  O   UNL     1      10.856   1.954  -7.728  1.00  0.00    -0.237 OA
ATOM     86  O   UNL     1       8.364   2.843  -7.835  1.00  0.00    -0.744 OA
ENDBRANCH  80  83
ENDBRANCH  52  76
BRANCH  64  87
ATOM     87  C   UNL     1       7.705  12.996  -9.643  1.00  0.00     0.023 A 
ATOM     88  C   UNL     1       7.211  12.550 -10.858  1.00  0.00     0.012 A 
ATOM     89  C   UNL     1       8.255  14.198  -9.522  1.00  0.00     0.148 A 
ATOM     90  C   UNL     1       7.607  13.341 -11.962  1.00  0.00     0.002 A 
ATOM     91  C   UNL     1       8.489  14.975 -10.631  1.00  0.00     0.091 A 
ATOM     92  F   UNL     1       8.581  14.655  -8.316  1.00  0.00    -0.205 F 
ATOM     93  C   UNL     1       8.081  14.571 -11.871  1.00  0.00     0.022 A 
BRANCH  91  94
ATOM     94  S   UNL     1       9.350  16.556 -10.446  1.00  0.00     0.127 S 
ATOM     95  O   UNL     1      10.635  16.538 -11.278  1.00  0.00    -0.237 OA
ATOM     96  O   UNL     1       8.444  17.690 -10.933  1.00  0.00    -0.237 OA
ATOM     97  O   UNL     1       9.740  16.805  -8.800  1.00  0.00    -0.744 OA
ENDBRANCH  91  94
ENDBRANCH  64  87
ENDBRANCH  38  39
ENDBRANCH  30  33
ENDBRANCH   1  29
TORSDOF 15
