REMARK SMILES Cc1onc(-c2cccc(Br)c2)c1C(=O)NCCCNC(=O)c1ccc(-c2c3nc(c(-c4cccc(S(=O)(=O)[O-])c4F)c4ccc([nH]4)c(-c4cccc(S(=O)(=O)[O-])c4F)c4nc(c(-c5cccc(S(=O)(=O)[O-])c5F)c5ccc2[nH]5)C=C4)C=C3)cc1
REMARK SMILES IDX 19 1 18 2 17 3 16 4 14 5 15 6 13 8 1 9 2 10 3 11 4 12 5 13
REMARK SMILES IDX 6 14 7 15 12 16 8 17 10 18 9 19 11 20 20 21 21 22 22 24
REMARK SMILES IDX 23 25 24 26 85 27 25 28 84 29 26 30 27 31 28 32 78 33 29 34
REMARK SMILES IDX 83 35 77 36 79 37 30 38 82 39 76 40 75 41 31 43 63 44 43 45
REMARK SMILES IDX 62 46 44 47 47 48 61 49 80 50 45 51 46 52 60 54 81 55 48 56
REMARK SMILES IDX 32 57 33 58 41 59 34 60 36 61 42 62 35 63 37 64 38 65 39 66
REMARK SMILES IDX 40 67 64 68 65 69 73 70 66 71 68 72 74 73 67 74 69 75 70 76
REMARK SMILES IDX 71 77 72 78 49 79 50 80 58 81 51 82 53 83 59 84 52 85 54 86
REMARK SMILES IDX 55 87 56 88 57 89
REMARK H PARENT 16 7 20 23 79 42 47 53
REMARK Flexibility Score: inf
ROOT
ATOM      1  C   UNL     1       4.391  -3.536   1.021  1.00  0.00     0.118 C 
ENDROOT
BRANCH   1   2
ATOM      2  C   UNL     1       3.746  -2.198   0.666  1.00  0.00     0.042 C 
BRANCH   2   3
ATOM      3  C   UNL     1       2.836  -2.254  -0.560  1.00  0.00     0.118 C 
BRANCH   3   4
ATOM      4  N   UNL     1       1.581  -2.889  -0.239  1.00  0.00    -0.352 N 
ATOM      5  C   UNL     1       0.319  -2.452   0.032  1.00  0.00     0.257 C 
ATOM      6  O   UNL     1      -0.473  -3.385   0.229  1.00  0.00    -0.269 OA
ATOM      7  H   UNL     1       1.653  -3.870  -0.210  1.00  0.00     0.163 HD
BRANCH   5   8
ATOM      8  C   UNL     1      -0.136  -1.067   0.047  1.00  0.00     0.110 A 
ATOM      9  C   UNL     1       1.864   0.712   0.302  1.00  0.00     0.092 C 
ATOM     10  C   UNL     1       0.505   0.165   0.129  1.00  0.00     0.147 A 
ATOM     11  O   UNL     1      -0.416   1.162   0.039  1.00  0.00    -0.360 OA
ATOM     12  N   UNL     1      -1.676   0.647  -0.040  1.00  0.00    -0.079 NA
ATOM     13  C   UNL     1      -1.535  -0.681   0.018  1.00  0.00     0.126 A 
BRANCH  13  14
ATOM     14  C   UNL     1      -2.736  -1.511   0.026  1.00  0.00     0.006 A 
ATOM     15  C   UNL     1      -3.015  -2.353   1.111  1.00  0.00     0.010 A 
ATOM     16  C   UNL     1      -3.642  -1.438  -1.039  1.00  0.00     0.026 A 
ATOM     17  C   UNL     1      -4.163  -3.148   1.113  1.00  0.00     0.002 A 
ATOM     18  C   UNL     1      -4.791  -2.228  -1.026  1.00  0.00     0.018 A 
ATOM     19  C   UNL     1      -5.052  -3.088   0.041  1.00  0.00     0.016 A 
ATOM     20  Br  UNL     1      -6.007  -2.134  -2.471  1.00  0.00    -0.051 Br
ENDBRANCH  13  14
ENDBRANCH   5   8
ENDBRANCH   3   4
ENDBRANCH   2   3
ENDBRANCH   1   2
BRANCH   1  21
ATOM     21  N   UNL     1       5.352  -3.961   0.013  1.00  0.00    -0.352 N 
ATOM     22  C   UNL     1       6.700  -4.183   0.121  1.00  0.00     0.251 C 
ATOM     23  H   UNL     1       4.976  -4.112  -0.884  1.00  0.00     0.163 HD
ATOM     24  O   UNL     1       7.371  -4.294  -0.907  1.00  0.00    -0.269 OA
BRANCH  22  25
ATOM     25  C   UNL     1       7.354  -4.289   1.444  1.00  0.00     0.039 A 
ATOM     26  C   UNL     1       8.627  -3.736   1.615  1.00  0.00     0.014 A 
ATOM     27  C   UNL     1       6.746  -4.977   2.498  1.00  0.00     0.014 A 
ATOM     28  C   UNL     1       9.269  -3.834   2.852  1.00  0.00     0.010 A 
ATOM     29  C   UNL     1       7.354  -5.008   3.751  1.00  0.00     0.010 A 
ATOM     30  C   UNL     1       8.627  -4.450   3.938  1.00  0.00    -0.014 A 
BRANCH  30  31
ATOM     31  C   UNL     1       9.268  -4.519   5.276  1.00  0.00     0.031 A 
ATOM     32  C   UNL     1       9.606  -5.851   5.890  1.00  0.00     0.074 A 
ATOM     33  C   UNL     1       9.466  -3.383   5.974  1.00  0.00     0.049 A 
ATOM     34  N   UNL     1      10.111  -6.112   7.067  1.00  0.00    -0.248 NA
ATOM     35  C   UNL     1       9.310  -7.051   5.088  1.00  0.00     0.031 C 
ATOM     36  C   UNL     1       9.108  -2.038   5.519  1.00  0.00     0.029 A 
ATOM     37  N   UNL     1       9.991  -3.180   7.226  1.00  0.00    -0.354 N 
ATOM     38  C   UNL     1      10.156  -7.498   7.165  1.00  0.00     0.074 A 
ATOM     39  C   UNL     1       9.599  -8.025   5.939  1.00  0.00     0.031 C 
ATOM     40  C   UNL     1       9.427  -1.151   6.474  1.00  0.00     0.029 A 
ATOM     41  C   UNL     1       9.984  -1.862   7.620  1.00  0.00     0.049 A 
ATOM     42  H   UNL     1      10.340  -3.909   7.789  1.00  0.00     0.167 HD
ATOM     43  C   UNL     1      10.643  -8.263   8.172  1.00  0.00     0.034 A 
ATOM     44  C   UNL     1      10.376  -1.292   8.776  1.00  0.00     0.034 A 
ATOM     45  C   UNL     1      11.242  -7.732   9.366  1.00  0.00     0.049 A 
ATOM     46  C   UNL     1      10.959  -2.161   9.857  1.00  0.00     0.074 A 
ATOM     47  C   UNL     1      11.853  -8.419  10.400  1.00  0.00     0.029 A 
ATOM     48  N   UNL     1      11.301  -6.386   9.691  1.00  0.00    -0.354 N 
ATOM     49  N   UNL     1      11.142  -3.459   9.862  1.00  0.00    -0.248 NA
ATOM     50  C   UNL     1      11.424  -1.484  11.075  1.00  0.00     0.031 C 
ATOM     51  C   UNL     1      12.261  -7.488  11.362  1.00  0.00     0.029 A 
ATOM     52  C   UNL     1      11.928  -6.220  10.913  1.00  0.00     0.049 A 
ATOM     53  H   UNL     1      10.948  -5.655   9.134  1.00  0.00     0.167 HD
ATOM     54  C   UNL     1      11.776  -3.750  11.064  1.00  0.00     0.074 A 
ATOM     55  C   UNL     1      11.964  -2.489  11.752  1.00  0.00     0.031 C 
ATOM     56  C   UNL     1      12.156  -4.953  11.561  1.00  0.00     0.034 A 
BRANCH  43  57
ATOM     57  C   UNL     1      10.596  -9.760   8.002  1.00  0.00     0.023 A 
ATOM     58  C   UNL     1      11.454 -10.382   7.072  1.00  0.00     0.012 A 
ATOM     59  C   UNL     1       9.752 -10.556   8.802  1.00  0.00     0.148 A 
ATOM     60  C   UNL     1      11.447 -11.768   6.913  1.00  0.00     0.002 A 
ATOM     61  C   UNL     1       9.784 -11.940   8.671  1.00  0.00     0.091 A 
ATOM     62  F   UNL     1       8.929  -9.946   9.667  1.00  0.00    -0.205 F 
ATOM     63  C   UNL     1      10.621 -12.546   7.719  1.00  0.00     0.022 A 
BRANCH  61  64
ATOM     64  S   UNL     1       8.817 -13.035   9.716  1.00  0.00     0.127 S 
ATOM     65  O   UNL     1       7.816 -13.534   8.774  1.00  0.00    -0.237 OA
ATOM     66  O   UNL     1       9.813 -14.025  10.128  1.00  0.00    -0.237 OA
ATOM     67  O   UNL     1       8.301 -12.207  10.796  1.00  0.00    -0.744 OA
ENDBRANCH  61  64
ENDBRANCH  43  57
BRANCH  44  68
ATOM     68  C   UNL     1      10.297   0.187   8.939  1.00  0.00     0.023 A 
ATOM     69  C   UNL     1      11.485   0.943   8.966  1.00  0.00     0.012 A 
ATOM     70  C   UNL     1       9.059   0.852   9.032  1.00  0.00     0.148 A 
ATOM     71  C   UNL     1      11.444   2.329   9.115  1.00  0.00     0.002 A 
ATOM     72  C   UNL     1       9.023   2.239   9.124  1.00  0.00     0.091 A 
ATOM     73  F   UNL     1       7.939   0.115   9.015  1.00  0.00    -0.205 F 
ATOM     74  C   UNL     1      10.214   2.978   9.183  1.00  0.00     0.022 A 
BRANCH  72  75
ATOM     75  S   UNL     1       7.485   3.165   9.078  1.00  0.00     0.127 S 
ATOM     76  O   UNL     1       7.385   3.646  10.455  1.00  0.00    -0.237 OA
ATOM     77  O   UNL     1       7.784   4.199   8.085  1.00  0.00    -0.237 OA
ATOM     78  O   UNL     1       6.465   2.215   8.663  1.00  0.00    -0.744 OA
ENDBRANCH  72  75
ENDBRANCH  44  68
BRANCH  56  79
ATOM     79  C   UNL     1      12.848  -4.969  12.898  1.00  0.00     0.023 A 
ATOM     80  C   UNL     1      12.110  -4.722  14.073  1.00  0.00     0.012 A 
ATOM     81  C   UNL     1      14.213  -5.304  12.996  1.00  0.00     0.148 A 
ATOM     82  C   UNL     1      12.728  -4.776  15.321  1.00  0.00     0.002 A 
ATOM     83  C   UNL     1      14.809  -5.405  14.246  1.00  0.00     0.091 A 
ATOM     84  F   UNL     1      14.902  -5.517  11.865  1.00  0.00    -0.205 F 
ATOM     85  C   UNL     1      14.072  -5.129  15.409  1.00  0.00     0.022 A 
BRANCH  83  86
ATOM     86  S   UNL     1      16.508  -5.950  14.459  1.00  0.00     0.127 S 
ATOM     87  O   UNL     1      17.177  -4.703  14.825  1.00  0.00    -0.237 OA
ATOM     88  O   UNL     1      16.389  -6.920  15.549  1.00  0.00    -0.237 OA
ATOM     89  O   UNL     1      16.908  -6.524  13.182  1.00  0.00    -0.744 OA
ENDBRANCH  83  86
ENDBRANCH  56  79
ENDBRANCH  30  31
ENDBRANCH  22  25
ENDBRANCH   1  21
TORSDOF 14
