REMARK SMILES O=C(NCCCNC(=O)C1(Cc2nccs2)CC1)c1ccc(-c2c3nc(c(-c4cccc(S(=O)(=O)[O-])c4F)c4ccc([nH]4)c(-c4cccc(S(=O)(=O)[O-])c4F)c4nc(c(-c5cccc(S(=O)(=O)[O-])c5F)c5ccc2[nH]5)C=C4)C=C3)cc1
REMARK SMILES IDX 4 1 3 2 1 3 2 4 19 6 20 7 81 8 21 9 80 10 22 11 23 12 24 13
REMARK SMILES IDX 74 14 25 15 79 16 73 17 75 18 26 19 78 20 72 21 71 22 27 24
REMARK SMILES IDX 59 25 39 26 58 27 40 28 43 29 57 30 76 31 41 32 42 33 56 35
REMARK SMILES IDX 77 36 44 37 28 38 29 39 37 40 30 41 32 42 38 43 31 44 33 45
REMARK SMILES IDX 34 46 35 47 36 48 60 49 61 50 69 51 62 52 64 53 70 54 63 55
REMARK SMILES IDX 65 56 66 57 67 58 68 59 45 60 46 61 54 62 47 63 49 64 55 65
REMARK SMILES IDX 48 66 50 67 51 68 52 69 53 70 5 71 6 72 7 73 8 74 9 76 10 77
REMARK SMILES IDX 17 78 18 79 11 80 12 81 13 82 16 83 14 84 15 85
REMARK H PARENT 3 5 75 23 43 34 7 75
REMARK Flexibility Score: inf
ROOT
ATOM      1  C   UNL     1       4.209  -1.390  -0.448  1.00  0.00     0.118 C 
ENDROOT
BRANCH   1   2
ATOM      2  N   UNL     1       2.849  -0.920  -0.661  1.00  0.00    -0.352 N 
ATOM      3  O   UNL     1       1.016   0.321  -0.298  1.00  0.00    -0.269 OA
ATOM      4  C   UNL     1       2.241   0.238  -0.238  1.00  0.00     0.251 C 
ATOM      5  H   UNL     1       2.277  -1.523  -1.188  1.00  0.00     0.163 HD
BRANCH   4   6
ATOM      6  C   UNL     1       3.035   1.373   0.295  1.00  0.00     0.039 A 
ATOM      7  C   UNL     1       4.235   1.767  -0.302  1.00  0.00     0.014 A 
ATOM      8  C   UNL     1       2.527   2.109   1.371  1.00  0.00     0.014 A 
ATOM      9  C   UNL     1       4.980   2.812   0.246  1.00  0.00     0.010 A 
ATOM     10  C   UNL     1       3.239   3.206   1.873  1.00  0.00     0.010 A 
ATOM     11  C   UNL     1       4.486   3.553   1.332  1.00  0.00    -0.014 A 
BRANCH  11  12
ATOM     12  C   UNL     1       5.251   4.725   1.839  1.00  0.00     0.031 A 
ATOM     13  C   UNL     1       5.809   4.752   3.236  1.00  0.00     0.074 A 
ATOM     14  C   UNL     1       5.432   5.787   1.028  1.00  0.00     0.049 A 
ATOM     15  N   UNL     1       6.533   5.677   3.815  1.00  0.00    -0.248 NA
ATOM     16  C   UNL     1       5.510   3.600   4.101  1.00  0.00     0.031 C 
ATOM     17  C   UNL     1       4.895   5.909  -0.329  1.00  0.00     0.029 A 
ATOM     18  N   UNL     1       6.113   6.963   1.221  1.00  0.00    -0.354 N 
ATOM     19  C   UNL     1       6.741   5.244   5.119  1.00  0.00     0.074 A 
ATOM     20  C   UNL     1       6.058   3.973   5.250  1.00  0.00     0.031 C 
ATOM     21  C   UNL     1       5.292   7.077  -0.857  1.00  0.00     0.029 A 
ATOM     22  C   UNL     1       6.075   7.806   0.135  1.00  0.00     0.049 A 
ATOM     23  H   UNL     1       6.584   7.182   2.058  1.00  0.00     0.167 HD
ATOM     24  C   UNL     1       7.448   5.838   6.112  1.00  0.00     0.034 A 
ATOM     25  C   UNL     1       6.607   9.030  -0.047  1.00  0.00     0.034 A 
ATOM     26  C   UNL     1       8.157   7.083   5.969  1.00  0.00     0.049 A 
ATOM     27  C   UNL     1       7.416   9.649   1.057  1.00  0.00     0.074 A 
ATOM     28  C   UNL     1       8.966   7.723   6.893  1.00  0.00     0.029 A 
ATOM     29  N   UNL     1       8.136   7.883   4.837  1.00  0.00    -0.354 N 
ATOM     30  N   UNL     1       7.723   9.153   2.231  1.00  0.00    -0.248 NA
ATOM     31  C   UNL     1       7.978  10.982   0.801  1.00  0.00     0.031 C 
ATOM     32  C   UNL     1       9.417   8.920   6.325  1.00  0.00     0.029 A 
ATOM     33  C   UNL     1       8.909   9.015   5.040  1.00  0.00     0.049 A 
ATOM     34  H   UNL     1       7.644   7.676   4.009  1.00  0.00     0.167 HD
ATOM     35  C   UNL     1       8.541  10.097   2.841  1.00  0.00     0.074 A 
ATOM     36  C   UNL     1       8.697  11.186   1.897  1.00  0.00     0.031 C 
ATOM     37  C   UNL     1       9.101  10.069   4.075  1.00  0.00     0.034 A 
BRANCH  24  38
ATOM     38  C   UNL     1       7.523   5.126   7.439  1.00  0.00     0.023 A 
ATOM     39  C   UNL     1       8.316   3.967   7.565  1.00  0.00     0.012 A 
ATOM     40  C   UNL     1       6.856   5.630   8.573  1.00  0.00     0.148 A 
ATOM     41  C   UNL     1       8.414   3.300   8.786  1.00  0.00     0.002 A 
ATOM     42  C   UNL     1       6.990   4.982   9.797  1.00  0.00     0.091 A 
ATOM     43  F   UNL     1       6.088   6.720   8.435  1.00  0.00    -0.205 F 
ATOM     44  C   UNL     1       7.759   3.812   9.903  1.00  0.00     0.022 A 
BRANCH  42  45
ATOM     45  S   UNL     1       6.245   5.614  11.305  1.00  0.00     0.127 S 
ATOM     46  O   UNL     1       5.082   4.740  11.449  1.00  0.00    -0.237 OA
ATOM     47  O   UNL     1       7.301   5.390  12.294  1.00  0.00    -0.237 OA
ATOM     48  O   UNL     1       5.954   7.017  11.044  1.00  0.00    -0.744 OA
ENDBRANCH  42  45
ENDBRANCH  24  38
BRANCH  25  49
ATOM     49  C   UNL     1       6.451   9.712  -1.363  1.00  0.00     0.023 A 
ATOM     50  C   UNL     1       7.571   9.842  -2.207  1.00  0.00     0.012 A 
ATOM     51  C   UNL     1       5.197  10.176  -1.806  1.00  0.00     0.148 A 
ATOM     52  C   UNL     1       7.450  10.439  -3.462  1.00  0.00     0.002 A 
ATOM     53  C   UNL     1       5.073  10.718  -3.080  1.00  0.00     0.091 A 
ATOM     54  F   UNL     1       4.148  10.054  -0.982  1.00  0.00    -0.205 F 
ATOM     55  C   UNL     1       6.200  10.865  -3.903  1.00  0.00     0.022 A 
BRANCH  53  56
ATOM     56  S   UNL     1       3.482  11.168  -3.784  1.00  0.00     0.127 S 
ATOM     57  O   UNL     1       3.575  12.625  -3.824  1.00  0.00    -0.237 OA
ATOM     58  O   UNL     1       3.535  10.510  -5.090  1.00  0.00    -0.237 OA
ATOM     59  O   UNL     1       2.482  10.622  -2.877  1.00  0.00    -0.744 OA
ENDBRANCH  53  56
ENDBRANCH  25  49
BRANCH  37  60
ATOM     60  C   UNL     1       9.967  11.235   4.474  1.00  0.00     0.023 A 
ATOM     61  C   UNL     1       9.375  12.475   4.784  1.00  0.00     0.012 A 
ATOM     62  C   UNL     1      11.362  11.084   4.602  1.00  0.00     0.148 A 
ATOM     63  C   UNL     1      10.160  13.555   5.186  1.00  0.00     0.002 A 
ATOM     64  C   UNL     1      12.133  12.151   5.048  1.00  0.00     0.091 A 
ATOM     65  F   UNL     1      11.911   9.903   4.279  1.00  0.00    -0.205 F 
ATOM     66  C   UNL     1      11.536  13.390   5.329  1.00  0.00     0.022 A 
BRANCH  64  67
ATOM     67  S   UNL     1      13.898  11.995   5.349  1.00  0.00     0.127 S 
ATOM     68  O   UNL     1      14.461  12.662   4.177  1.00  0.00    -0.237 OA
ATOM     69  O   UNL     1      14.067  12.724   6.606  1.00  0.00    -0.237 OA
ATOM     70  O   UNL     1      14.158  10.565   5.445  1.00  0.00    -0.744 OA
ENDBRANCH  64  67
ENDBRANCH  37  60
ENDBRANCH  11  12
ENDBRANCH   4   6
ENDBRANCH   1   2
BRANCH   1  71
ATOM     71  C   UNL     1       4.258  -2.573   0.516  1.00  0.00     0.042 C 
BRANCH  71  72
ATOM     72  C   UNL     1       3.847  -3.914  -0.092  1.00  0.00     0.117 C 
BRANCH  72  73
ATOM     73  N   UNL     1       4.597  -4.259  -1.283  1.00  0.00    -0.356 N 
ATOM     74  C   UNL     1       5.702  -5.043  -1.488  1.00  0.00     0.226 C 
ATOM     75  H   UNL     1       4.243  -3.851  -2.106  1.00  0.00     0.163 HD
ATOM     76  O   UNL     1       6.101  -5.184  -2.637  1.00  0.00    -0.274 OA
BRANCH  74  77
ATOM     77  C   UNL     1       6.347  -5.817  -0.359  1.00  0.00     0.056 C 
ATOM     78  C   UNL     1       5.876  -7.262  -0.187  1.00  0.00     0.018 C 
ATOM     79  C   UNL     1       7.224  -7.004  -0.780  1.00  0.00     0.018 C 
BRANCH  77  80
ATOM     80  C   UNL     1       6.827  -5.088   0.892  1.00  0.00     0.084 C 
BRANCH  80  81
ATOM     81  C   UNL     1       7.599  -3.814   0.691  1.00  0.00     0.094 A 
ATOM     82  N   UNL     1       7.724  -3.170  -0.450  1.00  0.00    -0.250 NA
ATOM     83  S   UNL     1       8.300  -3.027   2.057  1.00  0.00    -0.127 S 
ATOM     84  C   UNL     1       8.397  -1.983  -0.250  1.00  0.00     0.123 A 
ATOM     85  C   UNL     1       8.773  -1.725   1.049  1.00  0.00     0.087 A 
ENDBRANCH  80  81
ENDBRANCH  77  80
ENDBRANCH  74  77
ENDBRANCH  72  73
ENDBRANCH  71  72
ENDBRANCH   1  71
TORSDOF 15
