REMARK SMILES C[C@@H](NC(=O)CCCNC(=O)c1ccco1)C(=O)NCCCNC(=O)c1ccc(-c2c3nc(c(-c4cccc(S(=O)(=O)[O-])c4F)c4ccc([nH]4)c(-c4cccc(S(=O)(=O)[O-])c4F)c4nc(c(-c5cccc(S(=O)(=O)[O-])c5F)c5ccc2[nH]5)C=C4)C=C3)cc1
REMARK SMILES IDX 17 1 18 2 19 3 2 5 1 6 3 7 4 8 5 10 6 11 7 12 8 13 9 14
REMARK SMILES IDX 10 15 11 17 12 18 13 19 16 20 14 21 15 22 20 23 21 24 22 25
REMARK SMILES IDX 23 26 24 27 25 29 26 30 27 31 88 32 28 33 87 34 29 35 30 36
REMARK SMILES IDX 31 37 81 38 32 39 86 40 80 41 82 42 33 43 85 44 79 45 78 46
REMARK SMILES IDX 34 48 66 49 46 50 65 51 47 52 50 53 64 54 83 55 48 56 49 57
REMARK SMILES IDX 63 59 84 60 51 61 35 62 36 63 44 64 37 65 39 66 45 67 38 68
REMARK SMILES IDX 40 69 41 70 42 71 43 72 67 73 68 74 76 75 69 76 71 77 77 78
REMARK SMILES IDX 70 79 72 80 73 81 74 82 75 83 52 84 53 85 61 86 54 87 56 88
REMARK SMILES IDX 62 89 55 90 57 91 58 92 59 93 60 94
REMARK H PARENT 19 4 3 9 9 16 23 28 82 47 50 58
REMARK Flexibility Score: inf
ROOT
ATOM      1  C   UNL     1      -1.536  -0.763  -2.113  1.00  0.00     0.242 C 
ATOM      2  O   UNL     1      -2.194  -0.142  -2.982  1.00  0.00    -0.273 OA
ATOM      3  N   UNL     1      -2.336  -0.986  -1.023  1.00  0.00    -0.354 N 
ATOM      4  H   UNL     1      -2.987  -0.247  -1.025  1.00  0.00     0.163 HD
ENDROOT
BRANCH   1   5
ATOM      5  C   UNL     1       0.060  -0.983  -2.571  1.00  0.00     0.168 C 
ATOM      6  C   UNL     1       0.896   0.342  -2.666  1.00  0.00     0.041 C 
BRANCH   5   7
ATOM      7  N   UNL     1       1.114  -1.938  -2.213  1.00  0.00    -0.345 N 
ATOM      8  C   UNL     1       0.954  -3.214  -1.812  1.00  0.00     0.220 C 
ATOM      9  H   UNL     1       2.041  -1.611  -2.273  1.00  0.00     0.164 HD
ATOM     10  O   UNL     1       1.695  -4.109  -2.180  1.00  0.00    -0.275 OA
BRANCH   8  11
ATOM     11  C   UNL     1      -0.115  -3.363  -0.801  1.00  0.00     0.102 C 
BRANCH  11  12
ATOM     12  C   UNL     1       0.276  -2.700   0.558  1.00  0.00     0.031 C 
BRANCH  12  13
ATOM     13  C   UNL     1       0.484  -1.163   1.004  1.00  0.00     0.117 C 
BRANCH  13  14
ATOM     14  N   UNL     1      -0.058   0.007   0.298  1.00  0.00    -0.349 N 
ATOM     15  C   UNL     1      -0.765   1.196   0.370  1.00  0.00     0.286 C 
ATOM     16  H   UNL     1       0.192  -0.104  -0.647  1.00  0.00     0.163 HD
ATOM     17  O   UNL     1      -0.844   1.776  -0.720  1.00  0.00    -0.266 OA
BRANCH  15  18
ATOM     18  C   UNL     1      -1.399   1.798   1.517  1.00  0.00     0.191 A 
ATOM     19  C   UNL     1      -0.990   2.140   2.788  1.00  0.00     0.056 A 
ATOM     20  O   UNL     1      -2.668   2.316   1.313  1.00  0.00    -0.459 OA
ATOM     21  C   UNL     1      -2.043   2.898   3.376  1.00  0.00     0.043 A 
ATOM     22  C   UNL     1      -3.050   2.960   2.444  1.00  0.00     0.196 A 
ENDBRANCH  15  18
ENDBRANCH  13  14
ENDBRANCH  12  13
ENDBRANCH  11  12
ENDBRANCH   8  11
ENDBRANCH   5   7
ENDBRANCH   1   5
BRANCH   3  23
ATOM     23  C   UNL     1      -2.696  -1.833   0.188  1.00  0.00     0.117 C 
BRANCH  23  24
ATOM     24  C   UNL     1      -2.712  -1.176   1.585  1.00  0.00     0.042 C 
BRANCH  24  25
ATOM     25  C   UNL     1      -3.913  -1.439   2.488  1.00  0.00     0.118 C 
BRANCH  25  26
ATOM     26  N   UNL     1      -4.171  -2.845   2.738  1.00  0.00    -0.352 N 
ATOM     27  C   UNL     1      -4.546  -3.491   3.897  1.00  0.00     0.251 C 
ATOM     28  H   UNL     1      -4.061  -3.432   1.955  1.00  0.00     0.163 HD
ATOM     29  O   UNL     1      -4.584  -4.718   3.906  1.00  0.00    -0.269 OA
BRANCH  27  30
ATOM     30  C   UNL     1      -4.880  -2.728   5.124  1.00  0.00     0.039 A 
ATOM     31  C   UNL     1      -4.589  -3.274   6.379  1.00  0.00     0.014 A 
ATOM     32  C   UNL     1      -5.488  -1.476   5.044  1.00  0.00     0.014 A 
ATOM     33  C   UNL     1      -4.872  -2.542   7.536  1.00  0.00     0.010 A 
ATOM     34  C   UNL     1      -5.609  -0.688   6.176  1.00  0.00     0.010 A 
ATOM     35  C   UNL     1      -5.358  -1.228   7.440  1.00  0.00    -0.014 A 
BRANCH  35  36
ATOM     36  C   UNL     1      -5.669  -0.418   8.643  1.00  0.00     0.031 A 
ATOM     37  C   UNL     1      -7.059   0.141   8.833  1.00  0.00     0.074 A 
ATOM     38  C   UNL     1      -4.684  -0.131   9.516  1.00  0.00     0.049 A 
ATOM     39  N   UNL     1      -7.525   0.873   9.810  1.00  0.00    -0.248 NA
ATOM     40  C   UNL     1      -8.044  -0.107   7.763  1.00  0.00     0.031 C 
ATOM     41  C   UNL     1      -3.277  -0.512   9.362  1.00  0.00     0.029 A 
ATOM     42  N   UNL     1      -4.712   0.551  10.704  1.00  0.00    -0.354 N 
ATOM     43  C   UNL     1      -8.827   1.204   9.447  1.00  0.00     0.074 A 
ATOM     44  C   UNL     1      -9.053   0.665   8.129  1.00  0.00     0.031 C 
ATOM     45  C   UNL     1      -2.588  -0.103  10.439  1.00  0.00     0.029 A 
ATOM     46  C   UNL     1      -3.495   0.593  11.343  1.00  0.00     0.049 A 
ATOM     47  H   UNL     1      -5.526   0.971  11.065  1.00  0.00     0.167 HD
ATOM     48  C   UNL     1      -9.771   1.852  10.167  1.00  0.00     0.034 A 
ATOM     49  C   UNL     1      -3.160   1.120  12.536  1.00  0.00     0.034 A 
ATOM     50  C   UNL     1      -9.548   2.320  11.505  1.00  0.00     0.049 A 
ATOM     51  C   UNL     1      -4.249   1.746  13.362  1.00  0.00     0.074 A 
ATOM     52  C   UNL     1     -10.447   2.902  12.379  1.00  0.00     0.029 A 
ATOM     53  N   UNL     1      -8.329   2.255  12.162  1.00  0.00    -0.354 N 
ATOM     54  N   UNL     1      -5.518   1.905  13.070  1.00  0.00    -0.248 NA
ATOM     55  C   UNL     1      -3.873   2.220  14.699  1.00  0.00     0.031 C 
ATOM     56  C   UNL     1      -9.760   3.215  13.557  1.00  0.00     0.029 A 
ATOM     57  C   UNL     1      -8.445   2.790  13.430  1.00  0.00     0.049 A 
ATOM     58  H   UNL     1      -7.501   1.881  11.781  1.00  0.00     0.167 HD
ATOM     59  C   UNL     1      -6.101   2.467  14.198  1.00  0.00     0.074 A 
ATOM     60  C   UNL     1      -5.048   2.589  15.188  1.00  0.00     0.031 C 
ATOM     61  C   UNL     1      -7.383   2.863  14.400  1.00  0.00     0.034 A 
BRANCH  48  62
ATOM     62  C   UNL     1     -11.132   2.031   9.543  1.00  0.00     0.023 A 
ATOM     63  C   UNL     1     -11.952   0.906   9.304  1.00  0.00     0.012 A 
ATOM     64  C   UNL     1     -11.614   3.312   9.214  1.00  0.00     0.148 A 
ATOM     65  C   UNL     1     -13.205   1.048   8.708  1.00  0.00     0.002 A 
ATOM     66  C   UNL     1     -12.886   3.452   8.671  1.00  0.00     0.091 A 
ATOM     67  F   UNL     1     -10.814   4.368   9.421  1.00  0.00    -0.205 F 
ATOM     68  C   UNL     1     -13.675   2.321   8.402  1.00  0.00     0.022 A 
BRANCH  66  69
ATOM     69  S   UNL     1     -13.620   5.052   8.319  1.00  0.00     0.127 S 
ATOM     70  O   UNL     1     -13.691   5.030   6.859  1.00  0.00    -0.237 OA
ATOM     71  O   UNL     1     -14.914   4.948   8.994  1.00  0.00    -0.237 OA
ATOM     72  O   UNL     1     -12.716   6.044   8.883  1.00  0.00    -0.744 OA
ENDBRANCH  66  69
ENDBRANCH  48  62
BRANCH  49  73
ATOM     73  C   UNL     1      -1.767   0.990  13.047  1.00  0.00     0.023 A 
ATOM     74  C   UNL     1      -1.501   0.144  14.142  1.00  0.00     0.012 A 
ATOM     75  C   UNL     1      -0.698   1.667  12.430  1.00  0.00     0.148 A 
ATOM     76  C   UNL     1      -0.203   0.005  14.637  1.00  0.00     0.002 A 
ATOM     77  C   UNL     1       0.600   1.478  12.890  1.00  0.00     0.091 A 
ATOM     78  F   UNL     1      -0.971   2.470  11.392  1.00  0.00    -0.205 F 
ATOM     79  C   UNL     1       0.848   0.664  14.006  1.00  0.00     0.022 A 
BRANCH  77  80
ATOM     80  S   UNL     1       2.026   2.175  12.049  1.00  0.00     0.127 S 
ATOM     81  O   UNL     1       2.459   3.201  12.993  1.00  0.00    -0.237 OA
ATOM     82  O   UNL     1       2.913   1.015  11.947  1.00  0.00    -0.237 OA
ATOM     83  O   UNL     1       1.528   2.660  10.768  1.00  0.00    -0.744 OA
ENDBRANCH  77  80
ENDBRANCH  49  73
BRANCH  61  84
ATOM     84  C   UNL     1      -7.717   3.429  15.752  1.00  0.00     0.023 A 
ATOM     85  C   UNL     1      -7.216   4.690  16.132  1.00  0.00     0.012 A 
ATOM     86  C   UNL     1      -8.566   2.726  16.628  1.00  0.00     0.148 A 
ATOM     87  C   UNL     1      -7.509   5.217  17.387  1.00  0.00     0.002 A 
ATOM     88  C   UNL     1      -8.902   3.285  17.852  1.00  0.00     0.091 A 
ATOM     89  F   UNL     1      -9.019   1.521  16.252  1.00  0.00    -0.205 F 
ATOM     90  C   UNL     1      -8.360   4.520  18.242  1.00  0.00     0.022 A 
BRANCH  88  91
ATOM     91  S   UNL     1     -10.076   2.506  18.965  1.00  0.00     0.127 S 
ATOM     92  O   UNL     1      -9.194   1.971  20.000  1.00  0.00    -0.237 OA
ATOM     93  O   UNL     1     -10.899   3.639  19.389  1.00  0.00    -0.237 OA
ATOM     94  O   UNL     1     -10.784   1.514  18.167  1.00  0.00    -0.744 OA
ENDBRANCH  88  91
ENDBRANCH  61  84
ENDBRANCH  35  36
ENDBRANCH  27  30
ENDBRANCH  25  26
ENDBRANCH  24  25
ENDBRANCH  23  24
ENDBRANCH   3  23
TORSDOF 19
