REMARK SMILES C=CCn1c(=S)[nH]c2cc(C(=O)NCCCNC(=O)c3ccc(-c4c5nc(c(-c6cccc(S(=O)(=O)[O-])c6F)c6ccc([nH]6)c(-c6cccc(S(=O)(=O)[O-])c6F)c6nc(c(-c7cccc(S(=O)(=O)[O-])c7F)c7ccc4[nH]7)C=C6)C=C5)cc3)ccc2c1=O
REMARK SMILES IDX 15 1 14 2 13 3 11 4 12 5 10 7 4 8 5 9 86 10 6 11 7 12 85 13
REMARK SMILES IDX 87 14 8 15 84 17 9 18 83 19 3 20 2 21 1 22 16 23 17 24 18 25
REMARK SMILES IDX 19 27 20 28 21 29 82 30 22 31 81 32 23 33 24 34 25 35 75 36
REMARK SMILES IDX 26 37 80 38 74 39 76 40 27 41 79 42 73 43 72 44 28 46 60 47
REMARK SMILES IDX 40 48 59 49 41 50 44 51 58 52 77 53 42 54 43 55 57 57 78 58
REMARK SMILES IDX 45 59 29 60 30 61 38 62 31 63 33 64 39 65 32 66 34 67 35 68
REMARK SMILES IDX 36 69 37 70 61 71 62 72 70 73 63 74 65 75 71 76 64 77 66 78
REMARK SMILES IDX 67 79 68 80 69 81 46 82 47 83 55 84 48 85 50 86 56 87 49 88
REMARK SMILES IDX 51 89 52 90 53 91 54 92
REMARK H PARENT 13 6 7 16 17 26 76 45 44 56
REMARK Flexibility Score: inf
ROOT
ATOM      1  C   UNL     1      -1.775  10.155   1.710  1.00  0.00     0.042 C 
ENDROOT
BRANCH   1   2
ATOM      2  C   UNL     1      -1.075   9.340   2.795  1.00  0.00     0.118 C 
BRANCH   2   3
ATOM      3  N   UNL     1      -2.035   8.684   3.664  1.00  0.00    -0.352 N 
ATOM      4  C   UNL     1      -2.579   7.426   3.665  1.00  0.00     0.251 C 
ATOM      5  O   UNL     1      -3.338   7.139   4.592  1.00  0.00    -0.269 OA
ATOM      6  H   UNL     1      -2.359   9.255   4.397  1.00  0.00     0.163 HD
BRANCH   4   7
ATOM      7  C   UNL     1      -2.268   6.381   2.647  1.00  0.00     0.041 A 
ATOM      8  N   UNL     1      -1.541   1.849   0.510  1.00  0.00    -0.281 N 
ATOM      9  C   UNL     1      -2.108   1.591   1.758  1.00  0.00     0.180 A 
ATOM     10  C   UNL     1      -1.337   3.144   0.011  1.00  0.00     0.262 A 
ATOM     11  S   UNL     1      -2.465   0.092   2.424  1.00  0.00    -0.040 S 
ATOM     12  N   UNL     1      -2.407   2.678   2.538  1.00  0.00    -0.332 N 
ATOM     13  C   UNL     1      -1.686   4.267   0.893  1.00  0.00     0.064 A 
ATOM     14  O   UNL     1      -0.870   3.394  -1.098  1.00  0.00    -0.269 OA
ATOM     15  C   UNL     1      -2.189   3.998   2.154  1.00  0.00     0.054 A 
ATOM     16  H   UNL     1      -2.801   2.515   3.425  1.00  0.00     0.169 HD
ATOM     17  C   UNL     1      -1.514   5.586   0.476  1.00  0.00     0.017 A 
ATOM     18  C   UNL     1      -2.477   5.043   3.033  1.00  0.00     0.040 A 
ATOM     19  C   UNL     1      -1.827   6.635   1.345  1.00  0.00     0.015 A 
BRANCH   8  20
ATOM     20  C   UNL     1      -1.110   0.774  -0.389  1.00  0.00     0.155 C 
BRANCH  20  21
ATOM     21  C   UNL     1       0.385   0.616  -0.277  1.00  0.00    -0.013 C 
ATOM     22  C   UNL     1       1.016  -0.440   0.252  1.00  0.00     0.006 C 
ENDBRANCH  20  21
ENDBRANCH   8  20
ENDBRANCH   4   7
ENDBRANCH   2   3
ENDBRANCH   1   2
BRANCH   1  23
ATOM     23  C   UNL     1      -2.369  11.458   2.229  1.00  0.00     0.118 C 
BRANCH  23  24
ATOM     24  N   UNL     1      -1.345  12.450   2.522  1.00  0.00    -0.352 N 
ATOM     25  C   UNL     1      -1.170  13.710   1.996  1.00  0.00     0.251 C 
ATOM     26  H   UNL     1      -0.680  12.180   3.196  1.00  0.00     0.163 HD
ATOM     27  O   UNL     1      -0.131  14.317   2.214  1.00  0.00    -0.269 OA
BRANCH  25  28
ATOM     28  C   UNL     1      -2.228  14.304   1.147  1.00  0.00     0.039 A 
ATOM     29  C   UNL     1      -3.572  14.200   1.510  1.00  0.00     0.014 A 
ATOM     30  C   UNL     1      -1.868  14.965  -0.030  1.00  0.00     0.014 A 
ATOM     31  C   UNL     1      -4.560  14.602   0.618  1.00  0.00     0.010 A 
ATOM     32  C   UNL     1      -2.862  15.448  -0.885  1.00  0.00     0.010 A 
ATOM     33  C   UNL     1      -4.217  15.225  -0.592  1.00  0.00    -0.014 A 
BRANCH  33  34
ATOM     34  C   UNL     1      -5.291  15.648  -1.526  1.00  0.00     0.031 A 
ATOM     35  C   UNL     1      -5.414  15.036  -2.894  1.00  0.00     0.074 A 
ATOM     36  C   UNL     1      -6.179  16.578  -1.123  1.00  0.00     0.049 A 
ATOM     37  N   UNL     1      -6.308  15.274  -3.820  1.00  0.00    -0.248 NA
ATOM     38  C   UNL     1      -4.407  14.035  -3.280  1.00  0.00     0.031 C 
ATOM     39  C   UNL     1      -6.147  17.264   0.169  1.00  0.00     0.029 A 
ATOM     40  N   UNL     1      -7.280  17.100  -1.752  1.00  0.00    -0.354 N 
ATOM     41  C   UNL     1      -5.941  14.499  -4.912  1.00  0.00     0.074 A 
ATOM     42  C   UNL     1      -4.747  13.774  -4.535  1.00  0.00     0.031 C 
ATOM     43  C   UNL     1      -7.200  18.088   0.254  1.00  0.00     0.029 A 
ATOM     44  C   UNL     1      -7.953  18.028  -0.995  1.00  0.00     0.049 A 
ATOM     45  H   UNL     1      -7.561  16.835  -2.657  1.00  0.00     0.167 HD
ATOM     46  C   UNL     1      -6.551  14.390  -6.115  1.00  0.00     0.034 A 
ATOM     47  C   UNL     1      -9.048  18.762  -1.272  1.00  0.00     0.034 A 
ATOM     48  C   UNL     1      -7.773  15.061  -6.467  1.00  0.00     0.049 A 
ATOM     49  C   UNL     1      -9.727  18.599  -2.598  1.00  0.00     0.074 A 
ATOM     50  C   UNL     1      -8.512  14.939  -7.631  1.00  0.00     0.029 A 
ATOM     51  N   UNL     1      -8.432  15.979  -5.666  1.00  0.00    -0.354 N 
ATOM     52  N   UNL     1      -9.423  17.784  -3.577  1.00  0.00    -0.248 NA
ATOM     53  C   UNL     1     -10.903  19.442  -2.855  1.00  0.00     0.031 C 
ATOM     54  C   UNL     1      -9.612  15.799  -7.540  1.00  0.00     0.029 A 
ATOM     55  C   UNL     1      -9.563  16.445  -6.315  1.00  0.00     0.049 A 
ATOM     56  H   UNL     1      -8.140  16.260  -4.769  1.00  0.00     0.167 HD
ATOM     57  C   UNL     1     -10.371  18.007  -4.566  1.00  0.00     0.074 A 
ATOM     58  C   UNL     1     -11.273  19.022  -4.060  1.00  0.00     0.031 C 
ATOM     59  C   UNL     1     -10.472  17.430  -5.788  1.00  0.00     0.034 A 
BRANCH  46  60
ATOM     60  C   UNL     1      -5.930  13.484  -7.141  1.00  0.00     0.023 A 
ATOM     61  C   UNL     1      -6.112  12.091  -7.042  1.00  0.00     0.012 A 
ATOM     62  C   UNL     1      -5.237  14.017  -8.246  1.00  0.00     0.148 A 
ATOM     63  C   UNL     1      -5.600  11.238  -8.019  1.00  0.00     0.002 A 
ATOM     64  C   UNL     1      -4.755  13.164  -9.231  1.00  0.00     0.091 A 
ATOM     65  F   UNL     1      -5.059  15.344  -8.307  1.00  0.00    -0.205 F 
ATOM     66  C   UNL     1      -4.931  11.775  -9.117  1.00  0.00     0.022 A 
BRANCH  64  67
ATOM     67  S   UNL     1      -3.930  13.760 -10.711  1.00  0.00     0.127 S 
ATOM     68  O   UNL     1      -2.554  13.324 -10.476  1.00  0.00    -0.237 OA
ATOM     69  O   UNL     1      -4.629  13.029 -11.769  1.00  0.00    -0.237 OA
ATOM     70  O   UNL     1      -4.133  15.202 -10.732  1.00  0.00    -0.744 OA
ENDBRANCH  64  67
ENDBRANCH  46  60
BRANCH  47  71
ATOM     71  C   UNL     1      -9.573  19.674  -0.222  1.00  0.00     0.023 A 
ATOM     72  C   UNL     1     -10.690  19.277   0.536  1.00  0.00     0.012 A 
ATOM     73  C   UNL     1      -8.884  20.854   0.120  1.00  0.00     0.148 A 
ATOM     74  C   UNL     1     -11.107  20.036   1.629  1.00  0.00     0.002 A 
ATOM     75  C   UNL     1      -9.278  21.581   1.236  1.00  0.00     0.091 A 
ATOM     76  F   UNL     1      -7.820  21.200  -0.617  1.00  0.00    -0.205 F 
ATOM     77  C   UNL     1     -10.394  21.178   1.987  1.00  0.00     0.022 A 
BRANCH  75  78
ATOM     78  S   UNL     1      -8.350  22.989   1.853  1.00  0.00     0.127 S 
ATOM     79  O   UNL     1      -9.357  24.047   1.824  1.00  0.00    -0.237 OA
ATOM     80  O   UNL     1      -7.975  22.531   3.191  1.00  0.00    -0.237 OA
ATOM     81  O   UNL     1      -7.236  23.168   0.933  1.00  0.00    -0.744 OA
ENDBRANCH  75  78
ENDBRANCH  47  71
BRANCH  59  82
ATOM     82  C   UNL     1     -11.594  17.872  -6.686  1.00  0.00     0.023 A 
ATOM     83  C   UNL     1     -11.467  19.078  -7.402  1.00  0.00     0.012 A 
ATOM     84  C   UNL     1     -12.705  17.038  -6.915  1.00  0.00     0.148 A 
ATOM     85  C   UNL     1     -12.437  19.451  -8.332  1.00  0.00     0.002 A 
ATOM     86  C   UNL     1     -13.649  17.400  -7.867  1.00  0.00     0.091 A 
ATOM     87  F   UNL     1     -12.804  15.901  -6.211  1.00  0.00    -0.205 F 
ATOM     88  C   UNL     1     -13.519  18.608  -8.573  1.00  0.00     0.022 A 
BRANCH  86  89
ATOM     89  S   UNL     1     -15.036  16.344  -8.305  1.00  0.00     0.127 S 
ATOM     90  O   UNL     1     -16.169  17.115  -7.795  1.00  0.00    -0.237 OA
ATOM     91  O   UNL     1     -14.938  16.293  -9.763  1.00  0.00    -0.237 OA
ATOM     92  O   UNL     1     -14.801  15.071  -7.636  1.00  0.00    -0.744 OA
ENDBRANCH  86  89
ENDBRANCH  59  82
ENDBRANCH  33  34
ENDBRANCH  25  28
ENDBRANCH  23  24
ENDBRANCH   1  23
TORSDOF 15
