REMARK SMILES CCCCCCNC(=O)Oc1cccc(-c2ccc(CC(=O)NCCCNC(=O)c3ccc(-c4c5nc(c(-c6cccc(S(=O)(=O)[O-])c6F)c6ccc([nH]6)c(-c6cccc(S(=O)(=O)[O-])c6F)c6nc(c(-c7cccc(S(=O)(=O)[O-])c7F)c7ccc4[nH]7)C=C6)C=C5)cc3)cc2F)c1
REMARK SMILES IDX 20 1 19 2 16 3 17 4 94 5 18 6 93 7 95 8 15 9 11 10 12 11
REMARK SMILES IDX 96 12 13 13 14 14 10 15 8 16 7 17 9 19 6 20 5 21 4 22 3 23
REMARK SMILES IDX 2 24 1 25 21 26 22 27 23 28 24 30 25 31 26 32 27 33 28 34
REMARK SMILES IDX 29 36 30 37 31 38 92 39 32 40 91 41 33 42 34 43 35 44 85 45
REMARK SMILES IDX 36 46 90 47 84 48 86 49 37 50 89 51 83 52 82 53 38 55 70 56
REMARK SMILES IDX 50 57 69 58 51 59 54 60 68 61 87 62 52 63 53 64 67 66 88 67
REMARK SMILES IDX 55 68 39 69 40 70 48 71 41 72 43 73 49 74 42 75 44 76 45 77
REMARK SMILES IDX 46 78 47 79 71 80 72 81 80 82 73 83 75 84 81 85 74 86 76 87
REMARK SMILES IDX 77 88 78 89 79 90 56 91 57 92 65 93 58 94 60 95 66 96 59 97
REMARK SMILES IDX 61 98 62 99 63 100 64 101
REMARK H PARENT 7 18 23 29 27 35 86 54 54 65
REMARK Flexibility Score: inf
ROOT
ATOM      1  C   UNL     1      -4.645  11.531   7.374  1.00  0.00     0.135 C 
ENDROOT
BRANCH   1   2
ATOM      2  C   UNL     1      -4.743  10.031   7.247  1.00  0.00    -0.036 A 
ATOM      3  C   UNL     1      -5.018   7.220   6.956  1.00  0.00     0.018 A 
ATOM      4  C   UNL     1      -5.223   7.843   8.198  1.00  0.00     0.012 A 
ATOM      5  C   UNL     1      -4.646   8.037   5.878  1.00  0.00     0.131 A 
ATOM      6  C   UNL     1      -5.085   9.230   8.344  1.00  0.00     0.005 A 
ATOM      7  C   UNL     1      -4.498   9.414   6.016  1.00  0.00     0.044 A 
ATOM      8  F   UNL     1      -4.442   7.511   4.660  1.00  0.00    -0.206 F 
BRANCH   3   9
ATOM      9  C   UNL     1      -5.182   5.767   6.790  1.00  0.00    -0.012 A 
ATOM     10  C   UNL     1      -4.344   3.633   5.981  1.00  0.00     0.133 A 
ATOM     11  C   UNL     1      -5.527   3.000   6.348  1.00  0.00     0.047 A 
ATOM     12  C   UNL     1      -4.172   5.003   6.183  1.00  0.00     0.056 A 
ATOM     13  C   UNL     1      -6.535   3.740   6.962  1.00  0.00     0.004 A 
ATOM     14  C   UNL     1      -6.361   5.110   7.188  1.00  0.00     0.009 A 
BRANCH  10  15
ATOM     15  O   UNL     1      -3.401   2.866   5.277  1.00  0.00    -0.410 OA
BRANCH  15  16
ATOM     16  C   UNL     1      -2.053   2.989   5.569  1.00  0.00     0.412 C 
ATOM     17  N   UNL     1      -1.250   2.282   4.719  1.00  0.00    -0.321 N 
ATOM     18  H   UNL     1      -0.281   2.318   4.891  1.00  0.00     0.167 HD
ATOM     19  O   UNL     1      -1.558   3.647   6.483  1.00  0.00    -0.224 OA
BRANCH  17  20
ATOM     20  C   UNL     1      -1.682   1.486   3.587  1.00  0.00     0.119 C 
BRANCH  20  21
ATOM     21  C   UNL     1      -1.074   1.987   2.276  1.00  0.00     0.021 C 
BRANCH  21  22
ATOM     22  C   UNL     1       0.457   1.912   2.203  1.00  0.00     0.002 C 
BRANCH  22  23
ATOM     23  C   UNL     1       1.059   0.515   2.390  1.00  0.00    -0.000 C 
BRANCH  23  24
ATOM     24  C   UNL     1       0.590  -0.541   1.386  1.00  0.00    -0.003 C 
ATOM     25  C   UNL     1       0.972  -0.217  -0.050  1.00  0.00     0.004 C 
ENDBRANCH  23  24
ENDBRANCH  22  23
ENDBRANCH  21  22
ENDBRANCH  20  21
ENDBRANCH  17  20
ENDBRANCH  15  16
ENDBRANCH  10  15
ENDBRANCH   3   9
ENDBRANCH   1   2
BRANCH   1  26
ATOM     26  C   UNL     1      -5.915  12.194   7.875  1.00  0.00     0.224 C 
ATOM     27  O   UNL     1      -5.964  12.727   8.985  1.00  0.00    -0.275 OA
ATOM     28  N   UNL     1      -7.021  12.251   7.076  1.00  0.00    -0.356 N 
ATOM     29  H   UNL     1      -7.786  12.746   7.449  1.00  0.00     0.163 HD
BRANCH  28  30
ATOM     30  C   UNL     1      -7.228  11.685   5.755  1.00  0.00     0.117 C 
BRANCH  30  31
ATOM     31  C   UNL     1      -8.065  10.408   5.791  1.00  0.00     0.042 C 
BRANCH  31  32
ATOM     32  C   UNL     1      -9.516  10.624   6.214  1.00  0.00     0.118 C 
BRANCH  32  33
ATOM     33  N   UNL     1     -10.251  11.473   5.285  1.00  0.00    -0.352 N 
ATOM     34  C   UNL     1     -11.425  11.244   4.614  1.00  0.00     0.251 C 
ATOM     35  H   UNL     1      -9.839  12.351   5.113  1.00  0.00     0.163 HD
ATOM     36  O   UNL     1     -11.776  12.030   3.737  1.00  0.00    -0.269 OA
BRANCH  34  37
ATOM     37  C   UNL     1     -12.264  10.066   4.927  1.00  0.00     0.039 A 
ATOM     38  C   UNL     1     -12.883   9.382   3.876  1.00  0.00     0.014 A 
ATOM     39  C   UNL     1     -12.482   9.659   6.246  1.00  0.00     0.014 A 
ATOM     40  C   UNL     1     -13.679   8.264   4.144  1.00  0.00     0.010 A 
ATOM     41  C   UNL     1     -13.213   8.502   6.505  1.00  0.00     0.010 A 
ATOM     42  C   UNL     1     -13.830   7.800   5.460  1.00  0.00    -0.014 A 
BRANCH  42  43
ATOM     43  C   UNL     1     -14.635   6.589   5.766  1.00  0.00     0.031 A 
ATOM     44  C   UNL     1     -15.870   6.696   6.620  1.00  0.00     0.074 A 
ATOM     45  C   UNL     1     -14.209   5.381   5.347  1.00  0.00     0.049 A 
ATOM     46  N   UNL     1     -16.663   5.748   7.049  1.00  0.00    -0.248 NA
ATOM     47  C   UNL     1     -16.249   8.044   7.075  1.00  0.00     0.031 C 
ATOM     48  C   UNL     1     -12.992   5.136   4.571  1.00  0.00     0.029 A 
ATOM     49  N   UNL     1     -14.739   4.129   5.537  1.00  0.00    -0.354 N 
ATOM     50  C   UNL     1     -17.609   6.377   7.851  1.00  0.00     0.074 A 
ATOM     51  C   UNL     1     -17.268   7.782   7.880  1.00  0.00     0.031 C 
ATOM     52  C   UNL     1     -12.873   3.818   4.343  1.00  0.00     0.029 A 
ATOM     53  C   UNL     1     -13.986   3.122   4.981  1.00  0.00     0.049 A 
ATOM     54  H   UNL     1     -15.579   3.968   6.025  1.00  0.00     0.167 HD
ATOM     55  C   UNL     1     -18.683   5.841   8.479  1.00  0.00     0.034 A 
ATOM     56  C   UNL     1     -14.170   1.787   4.986  1.00  0.00     0.034 A 
ATOM     57  C   UNL     1     -19.043   4.450   8.414  1.00  0.00     0.049 A 
ATOM     58  C   UNL     1     -15.389   1.219   5.663  1.00  0.00     0.074 A 
ATOM     59  C   UNL     1     -20.150   3.820   8.953  1.00  0.00     0.029 A 
ATOM     60  N   UNL     1     -18.300   3.472   7.771  1.00  0.00    -0.354 N 
ATOM     61  N   UNL     1     -16.350   1.847   6.295  1.00  0.00    -0.248 NA
ATOM     62  C   UNL     1     -15.567  -0.239   5.596  1.00  0.00     0.031 C 
ATOM     63  C   UNL     1     -20.067   2.456   8.651  1.00  0.00     0.029 A 
ATOM     64  C   UNL     1     -18.921   2.241   7.902  1.00  0.00     0.049 A 
ATOM     65  H   UNL     1     -17.454   3.629   7.292  1.00  0.00     0.167 HD
ATOM     66  C   UNL     1     -17.268   0.870   6.663  1.00  0.00     0.074 A 
ATOM     67  C   UNL     1     -16.753  -0.391   6.170  1.00  0.00     0.031 C 
ATOM     68  C   UNL     1     -18.426   1.003   7.356  1.00  0.00     0.034 A 
BRANCH  55  69
ATOM     69  C   UNL     1     -19.578   6.781   9.248  1.00  0.00     0.023 A 
ATOM     70  C   UNL     1     -20.376   7.708   8.546  1.00  0.00     0.012 A 
ATOM     71  C   UNL     1     -19.658   6.729  10.653  1.00  0.00     0.148 A 
ATOM     72  C   UNL     1     -21.203   8.598   9.230  1.00  0.00     0.002 A 
ATOM     73  C   UNL     1     -20.521   7.588  11.326  1.00  0.00     0.091 A 
ATOM     74  F   UNL     1     -18.878   5.857  11.309  1.00  0.00    -0.205 F 
ATOM     75  C   UNL     1     -21.282   8.532  10.618  1.00  0.00     0.022 A 
BRANCH  73  76
ATOM     76  S   UNL     1     -20.753   7.526  13.106  1.00  0.00     0.127 S 
ATOM     77  O   UNL     1     -20.027   8.718  13.541  1.00  0.00    -0.237 OA
ATOM     78  O   UNL     1     -22.208   7.619  13.233  1.00  0.00    -0.237 OA
ATOM     79  O   UNL     1     -20.189   6.254  13.537  1.00  0.00    -0.744 OA
ENDBRANCH  73  76
ENDBRANCH  55  69
BRANCH  56  80
ATOM     80  C   UNL     1     -13.221   0.905   4.250  1.00  0.00     0.023 A 
ATOM     81  C   UNL     1     -13.649   0.281   3.061  1.00  0.00     0.012 A 
ATOM     82  C   UNL     1     -11.898   0.709   4.690  1.00  0.00     0.148 A 
ATOM     83  C   UNL     1     -12.787  -0.545   2.340  1.00  0.00     0.002 A 
ATOM     84  C   UNL     1     -11.027  -0.073   3.940  1.00  0.00     0.091 A 
ATOM     85  F   UNL     1     -11.512   1.305   5.827  1.00  0.00    -0.205 F 
ATOM     86  C   UNL     1     -11.475  -0.715   2.773  1.00  0.00     0.022 A 
BRANCH  84  87
ATOM     87  S   UNL     1      -9.287  -0.251   4.352  1.00  0.00     0.127 S 
ATOM     88  O   UNL     1      -9.220  -1.648   4.774  1.00  0.00    -0.237 OA
ATOM     89  O   UNL     1      -8.641   0.036   3.071  1.00  0.00    -0.237 OA
ATOM     90  O   UNL     1      -9.022   0.735   5.392  1.00  0.00    -0.744 OA
ENDBRANCH  84  87
ENDBRANCH  56  80
BRANCH  68  91
ATOM     91  C   UNL     1     -19.248  -0.238   7.591  1.00  0.00     0.023 A 
ATOM     92  C   UNL     1     -18.813  -1.204   8.519  1.00  0.00     0.012 A 
ATOM     93  C   UNL     1     -20.489  -0.409   6.946  1.00  0.00     0.148 A 
ATOM     94  C   UNL     1     -19.586  -2.336   8.779  1.00  0.00     0.002 A 
ATOM     95  C   UNL     1     -21.277  -1.514   7.246  1.00  0.00     0.091 A 
ATOM     96  F   UNL     1     -20.877   0.511   6.050  1.00  0.00    -0.205 F 
ATOM     97  C   UNL     1     -20.822  -2.484   8.153  1.00  0.00     0.022 A 
BRANCH  95  98
ATOM     98  S   UNL     1     -22.923  -1.736   6.561  1.00  0.00     0.127 S 
ATOM     99  O   UNL     1     -22.701  -2.810   5.594  1.00  0.00    -0.237 OA
ATOM    100  O   UNL     1     -23.699  -2.127   7.739  1.00  0.00    -0.237 OA
ATOM    101  O   UNL     1     -23.297  -0.449   5.992  1.00  0.00    -0.744 OA
ENDBRANCH  95  98
ENDBRANCH  68  91
ENDBRANCH  42  43
ENDBRANCH  34  37
ENDBRANCH  32  33
ENDBRANCH  31  32
ENDBRANCH  30  31
ENDBRANCH  28  30
ENDBRANCH   1  26
TORSDOF 22
