REMARK SMILES O=C(NCCCNC(=O)c1sccc1S(=O)(=O)N1CCO[C@@H]2CCCC[C@@H]21)c1ccc(-c2c3nc(c(-c4cccc(S(=O)(=O)[O-])c4F)c4ccc([nH]4)c(-c4cccc(S(=O)(=O)[O-])c4F)c4nc(c(-c5cccc(S(=O)(=O)[O-])c5F)c5ccc2[nH]5)C=C4)C=C3)cc1
REMARK SMILES IDX 4 1 3 2 1 3 2 4 28 6 29 7 90 8 30 9 89 10 31 11 32 12 33 13
REMARK SMILES IDX 83 14 34 15 88 16 82 17 84 18 35 19 87 20 81 21 80 22 36 24
REMARK SMILES IDX 68 25 48 26 67 27 49 28 52 29 66 30 85 31 50 32 51 33 65 35
REMARK SMILES IDX 86 36 53 37 37 38 38 39 46 40 39 41 41 42 47 43 40 44 42 45
REMARK SMILES IDX 43 46 44 47 45 48 69 49 70 50 78 51 71 52 73 53 79 54 72 55
REMARK SMILES IDX 74 56 75 57 76 58 77 59 54 60 55 61 63 62 56 63 58 64 64 65
REMARK SMILES IDX 57 66 59 67 60 68 61 69 62 70 5 71 6 72 7 73 8 74 9 76 10 77
REMARK SMILES IDX 11 78 14 79 12 80 13 81 15 82 16 83 17 84 18 85 19 86 27 87
REMARK SMILES IDX 20 88 22 89 26 90 21 91 23 92 25 93 24 94
REMARK H PARENT 3 5 84 23 52 34 7 75
REMARK Flexibility Score: inf
ROOT
ATOM      1  C   UNL     1       4.538   1.688   1.581  1.00  0.00     0.118 C 
ENDROOT
BRANCH   1   2
ATOM      2  N   UNL     1       3.236   1.043   1.611  1.00  0.00    -0.352 N 
ATOM      3  O   UNL     1       1.424   0.064   0.651  1.00  0.00    -0.269 OA
ATOM      4  C   UNL     1       2.487   0.659   0.514  1.00  0.00     0.251 C 
ATOM      5  H   UNL     1       2.849   0.862   2.498  1.00  0.00     0.163 HD
BRANCH   4   6
ATOM      6  C   UNL     1       2.983   0.996  -0.840  1.00  0.00     0.039 A 
ATOM      7  C   UNL     1       4.108   0.352  -1.368  1.00  0.00     0.014 A 
ATOM      8  C   UNL     1       2.353   2.014  -1.557  1.00  0.00     0.014 A 
ATOM      9  C   UNL     1       4.662   0.798  -2.575  1.00  0.00     0.010 A 
ATOM     10  C   UNL     1       2.897   2.442  -2.773  1.00  0.00     0.010 A 
ATOM     11  C   UNL     1       4.082   1.872  -3.270  1.00  0.00    -0.014 A 
BRANCH  11  12
ATOM     12  C   UNL     1       4.739   2.463  -4.470  1.00  0.00     0.031 A 
ATOM     13  C   UNL     1       5.364   3.832  -4.384  1.00  0.00     0.074 A 
ATOM     14  C   UNL     1       4.728   1.820  -5.653  1.00  0.00     0.049 A 
ATOM     15  N   UNL     1       5.901   4.560  -5.330  1.00  0.00    -0.248 NA
ATOM     16  C   UNL     1       5.377   4.470  -3.058  1.00  0.00     0.031 C 
ATOM     17  C   UNL     1       4.130   0.509  -5.894  1.00  0.00     0.029 A 
ATOM     18  N   UNL     1       5.196   2.211  -6.886  1.00  0.00    -0.354 N 
ATOM     19  C   UNL     1       6.275   5.755  -4.727  1.00  0.00     0.074 A 
ATOM     20  C   UNL     1       5.899   5.657  -3.333  1.00  0.00     0.031 C 
ATOM     21  C   UNL     1       4.231   0.220  -7.202  1.00  0.00     0.029 A 
ATOM     22  C   UNL     1       4.875   1.335  -7.896  1.00  0.00     0.049 A 
ATOM     23  H   UNL     1       5.712   3.037  -7.030  1.00  0.00     0.167 HD
ATOM     24  C   UNL     1       6.890   6.832  -5.274  1.00  0.00     0.034 A 
ATOM     25  C   UNL     1       5.046   1.428  -9.231  1.00  0.00     0.034 A 
ATOM     26  C   UNL     1       7.307   6.923  -6.647  1.00  0.00     0.049 A 
ATOM     27  C   UNL     1       5.744   2.626  -9.819  1.00  0.00     0.074 A 
ATOM     28  C   UNL     1       8.021   7.938  -7.262  1.00  0.00     0.029 A 
ATOM     29  N   UNL     1       7.040   5.977  -7.623  1.00  0.00    -0.354 N 
ATOM     30  N   UNL     1       6.230   3.678  -9.207  1.00  0.00    -0.248 NA
ATOM     31  C   UNL     1       5.946   2.636 -11.277  1.00  0.00     0.031 C 
ATOM     32  C   UNL     1       8.169   7.613  -8.615  1.00  0.00     0.029 A 
ATOM     33  C   UNL     1       7.560   6.389  -8.838  1.00  0.00     0.049 A 
ATOM     34  H   UNL     1       6.551   5.135  -7.474  1.00  0.00     0.167 HD
ATOM     35  C   UNL     1       6.819   4.459 -10.197  1.00  0.00     0.074 A 
ATOM     36  C   UNL     1       6.643   3.753 -11.448  1.00  0.00     0.031 C 
ATOM     37  C   UNL     1       7.437   5.660 -10.075  1.00  0.00     0.034 A 
BRANCH  24  38
ATOM     38  C   UNL     1       7.194   7.995  -4.368  1.00  0.00     0.023 A 
ATOM     39  C   UNL     1       8.252   7.894  -3.442  1.00  0.00     0.012 A 
ATOM     40  C   UNL     1       6.475   9.201  -4.468  1.00  0.00     0.148 A 
ATOM     41  C   UNL     1       8.568   8.965  -2.607  1.00  0.00     0.002 A 
ATOM     42  C   UNL     1       6.821  10.277  -3.657  1.00  0.00     0.091 A 
ATOM     43  F   UNL     1       5.455   9.273  -5.335  1.00  0.00    -0.205 F 
ATOM     44  C   UNL     1       7.860  10.158  -2.721  1.00  0.00     0.022 A 
BRANCH  42  45
ATOM     45  S   UNL     1       6.004  11.871  -3.796  1.00  0.00     0.127 S 
ATOM     46  O   UNL     1       5.017  11.792  -2.721  1.00  0.00    -0.237 OA
ATOM     47  O   UNL     1       7.098  12.812  -3.549  1.00  0.00    -0.237 OA
ATOM     48  O   UNL     1       5.469  11.918  -5.150  1.00  0.00    -0.744 OA
ENDBRANCH  42  45
ENDBRANCH  24  38
BRANCH  25  49
ATOM     49  C   UNL     1       4.565   0.317 -10.100  1.00  0.00     0.023 A 
ATOM     50  C   UNL     1       5.496  -0.554 -10.694  1.00  0.00     0.012 A 
ATOM     51  C   UNL     1       3.187   0.081 -10.278  1.00  0.00     0.148 A 
ATOM     52  C   UNL     1       5.064  -1.638 -11.459  1.00  0.00     0.002 A 
ATOM     53  C   UNL     1       2.764  -1.031 -10.994  1.00  0.00     0.091 A 
ATOM     54  F   UNL     1       2.320   0.936  -9.718  1.00  0.00    -0.205 F 
ATOM     55  C   UNL     1       3.700  -1.885 -11.597  1.00  0.00     0.022 A 
BRANCH  53  56
ATOM     56  S   UNL     1       1.035  -1.507 -11.105  1.00  0.00     0.127 S 
ATOM     57  O   UNL     1       0.747  -1.264 -12.516  1.00  0.00    -0.237 OA
ATOM     58  O   UNL     1       1.086  -2.918 -10.720  1.00  0.00    -0.237 OA
ATOM     59  O   UNL     1       0.329  -0.652 -10.160  1.00  0.00    -0.744 OA
ENDBRANCH  53  56
ENDBRANCH  25  49
BRANCH  37  60
ATOM     60  C   UNL     1       8.005   6.300 -11.316  1.00  0.00     0.023 A 
ATOM     61  C   UNL     1       7.139   6.923 -12.235  1.00  0.00     0.012 A 
ATOM     62  C   UNL     1       9.399   6.382 -11.513  1.00  0.00     0.148 A 
ATOM     63  C   UNL     1       7.651   7.606 -13.339  1.00  0.00     0.002 A 
ATOM     64  C   UNL     1       9.902   7.097 -12.594  1.00  0.00     0.091 A 
ATOM     65  F   UNL     1      10.205   5.768 -10.635  1.00  0.00    -0.205 F 
ATOM     66  C   UNL     1       9.030   7.704 -13.511  1.00  0.00     0.022 A 
BRANCH  64  67
ATOM     67  S   UNL     1      11.663   7.352 -12.848  1.00  0.00     0.127 S 
ATOM     68  O   UNL     1      11.922   6.504 -14.011  1.00  0.00    -0.237 OA
ATOM     69  O   UNL     1      11.735   8.790 -13.114  1.00  0.00    -0.237 OA
ATOM     70  O   UNL     1      12.313   6.934 -11.614  1.00  0.00    -0.744 OA
ENDBRANCH  64  67
ENDBRANCH  37  60
ENDBRANCH  11  12
ENDBRANCH   4   6
ENDBRANCH   1   2
BRANCH   1  71
ATOM     71  C   UNL     1       4.848   2.619   2.759  1.00  0.00     0.042 C 
BRANCH  71  72
ATOM     72  C   UNL     1       4.944   1.975   4.135  1.00  0.00     0.118 C 
BRANCH  72  73
ATOM     73  N   UNL     1       5.677   0.732   4.068  1.00  0.00    -0.351 N 
ATOM     74  C   UNL     1       6.504   0.275   5.065  1.00  0.00     0.262 C 
ATOM     75  H   UNL     1       5.577   0.179   3.260  1.00  0.00     0.163 HD
ATOM     76  O   UNL     1       7.704   0.141   4.871  1.00  0.00    -0.268 OA
BRANCH  74  77
ATOM     77  C   UNL     1       5.838  -0.061   6.298  1.00  0.00     0.112 A 
ATOM     78  S   UNL     1       6.575   0.556   7.728  1.00  0.00    -0.137 S 
ATOM     79  C   UNL     1       4.670  -0.753   6.564  1.00  0.00     0.106 A 
ATOM     80  C   UNL     1       5.232   0.132   8.680  1.00  0.00     0.067 A 
ATOM     81  C   UNL     1       4.300  -0.577   7.953  1.00  0.00     0.034 A 
BRANCH  79  82
ATOM     82  S   UNL     1       3.600  -1.559   5.408  1.00  0.00     0.245 S 
ATOM     83  O   UNL     1       2.653  -2.199   6.298  1.00  0.00    -0.207 OA
ATOM     84  O   UNL     1       3.179  -0.480   4.542  1.00  0.00    -0.207 OA
BRANCH  82  85
ATOM     85  N   UNL     1       4.335  -2.778   4.426  1.00  0.00    -0.190 NA
ATOM     86  C   UNL     1       3.906  -4.188   4.746  1.00  0.00     0.131 C 
ATOM     87  C   UNL     1       4.612  -2.491   2.934  1.00  0.00     0.102 C 
ATOM     88  C   UNL     1       3.305  -4.940   3.567  1.00  0.00     0.177 C 
ATOM     89  C   UNL     1       4.207  -3.599   1.911  1.00  0.00     0.136 C 
ATOM     90  C   UNL     1       6.073  -2.071   2.706  1.00  0.00     0.023 C 
ATOM     91  O   UNL     1       4.207  -4.911   2.474  1.00  0.00    -0.375 OA
ATOM     92  C   UNL     1       5.124  -3.652   0.680  1.00  0.00     0.034 C 
ATOM     93  C   UNL     1       7.020  -3.187   2.312  1.00  0.00     0.002 C 
ATOM     94  C   UNL     1       6.585  -3.907   1.045  1.00  0.00     0.003 C 
ENDBRANCH  82  85
ENDBRANCH  79  82
ENDBRANCH  74  77
ENDBRANCH  72  73
ENDBRANCH  71  72
ENDBRANCH   1  71
TORSDOF 15
