REMARK SMILES Cn1c(=O)[nH]c(=O)c2c1nc(NC1CCCC1)n2CC(=O)NCCCNC(=O)c1ccc(-c2c3nc(c(-c4cccc(S(=O)(=O)[O-])c4F)c4ccc([nH]4)c(-c4cccc(S(=O)(=O)[O-])c4F)c4nc(c(-c5cccc(S(=O)(=O)[O-])c5F)c5ccc2[nH]5)C=C4)C=C3)cc1
REMARK SMILES IDX 24 1 23 2 22 3 20 4 21 5 19 7 18 8 1 9 2 10 3 11 9 12 4 13
REMARK SMILES IDX 5 14 8 15 10 16 6 17 11 19 7 20 12 21 13 23 14 24 17 25
REMARK SMILES IDX 15 26 16 27 25 28 26 29 27 30 28 32 29 33 30 34 91 35 31 36
REMARK SMILES IDX 90 37 32 38 33 39 34 40 84 41 35 42 89 43 83 44 85 45 36 46
REMARK SMILES IDX 88 47 82 48 81 49 37 51 69 52 49 53 68 54 50 55 53 56 67 57
REMARK SMILES IDX 86 58 51 59 52 60 66 62 87 63 54 64 38 65 39 66 47 67 40 68
REMARK SMILES IDX 42 69 48 70 41 71 43 72 44 73 45 74 46 75 70 76 71 77 79 78
REMARK SMILES IDX 72 79 74 80 80 81 73 82 75 83 76 84 77 85 78 86 55 87 56 88
REMARK SMILES IDX 64 89 57 90 59 91 65 92 58 93 60 94 61 95 62 96 63 97
REMARK H PARENT 22 6 5 18 12 22 26 31 85 50 53 61
REMARK Flexibility Score: inf
ROOT
ATOM      1  C   UNL     1       1.151   4.324   3.242  1.00  0.00     0.042 C 
ENDROOT
BRANCH   1   2
ATOM      2  C   UNL     1       0.904   5.757   2.758  1.00  0.00     0.117 C 
BRANCH   2   3
ATOM      3  N   UNL     1       2.118   6.433   2.336  1.00  0.00    -0.354 N 
ATOM      4  C   UNL     1       2.612   6.604   1.074  1.00  0.00     0.240 C 
ATOM      5  O   UNL     1       3.665   7.226   0.925  1.00  0.00    -0.273 OA
ATOM      6  H   UNL     1       2.660   6.823   3.059  1.00  0.00     0.163 HD
BRANCH   4   7
ATOM      7  C   UNL     1       1.867   6.068  -0.128  1.00  0.00     0.226 C 
BRANCH   7   8
ATOM      8  N   UNL     1       1.861   4.621  -0.183  1.00  0.00    -0.295 N 
ATOM      9  C   UNL     1       0.999   0.091   0.045  1.00  0.00     0.157 C 
ATOM     10  N   UNL     1       0.453   1.431  -0.015  1.00  0.00    -0.279 N 
ATOM     11  C   UNL     1      -0.920   1.614   0.081  1.00  0.00     0.329 A 
ATOM     12  C   UNL     1       1.262   2.538  -0.144  1.00  0.00     0.170 A 
ATOM     13  O   UNL     1      -1.730   0.696   0.208  1.00  0.00    -0.248 OA
ATOM     14  N   UNL     1      -1.386   2.914   0.026  1.00  0.00    -0.272 N 
ATOM     15  C   UNL     1       0.756   3.806  -0.173  1.00  0.00     0.154 A 
ATOM     16  N   UNL     1       2.611   2.534  -0.215  1.00  0.00    -0.194 NA
ATOM     17  C   UNL     1      -0.640   4.058  -0.117  1.00  0.00     0.279 A 
ATOM     18  H   UNL     1      -2.361   3.033   0.097  1.00  0.00     0.175 HD
ATOM     19  C   UNL     1       2.977   3.799  -0.218  1.00  0.00     0.206 A 
ATOM     20  O   UNL     1      -1.171   5.170  -0.163  1.00  0.00    -0.267 OA
BRANCH  19  21
ATOM     21  N   UNL     1       4.232   4.292  -0.227  1.00  0.00    -0.353 N 
ATOM     22  H   UNL     1       4.354   5.267  -0.171  1.00  0.00     0.163 HD
BRANCH  21  23
ATOM     23  C   UNL     1       5.418   3.447  -0.316  1.00  0.00     0.082 C 
ATOM     24  C   UNL     1       5.574   2.443   0.821  1.00  0.00     0.025 C 
ATOM     25  C   UNL     1       5.474   2.604  -1.588  1.00  0.00     0.025 C 
ATOM     26  C   UNL     1       6.571   1.432   0.269  1.00  0.00     0.002 C 
ATOM     27  C   UNL     1       6.359   1.409  -1.244  1.00  0.00     0.002 C 
ENDBRANCH  21  23
ENDBRANCH  19  21
ENDBRANCH   7   8
ENDBRANCH   4   7
ENDBRANCH   2   3
ENDBRANCH   1   2
BRANCH   1  28
ATOM     28  C   UNL     1       1.699   4.287   4.657  1.00  0.00     0.118 C 
BRANCH  28  29
ATOM     29  N   UNL     1       0.708   4.712   5.650  1.00  0.00    -0.352 N 
ATOM     30  C   UNL     1       0.851   4.761   7.023  1.00  0.00     0.251 C 
ATOM     31  H   UNL     1      -0.166   4.997   5.296  1.00  0.00     0.163 HD
ATOM     32  O   UNL     1      -0.130   4.818   7.756  1.00  0.00    -0.269 OA
BRANCH  30  33
ATOM     33  C   UNL     1       2.212   4.756   7.583  1.00  0.00     0.039 A 
ATOM     34  C   UNL     1       2.540   3.993   8.706  1.00  0.00     0.014 A 
ATOM     35  C   UNL     1       3.177   5.509   6.920  1.00  0.00     0.014 A 
ATOM     36  C   UNL     1       3.872   3.937   9.107  1.00  0.00     0.010 A 
ATOM     37  C   UNL     1       4.500   5.313   7.204  1.00  0.00     0.010 A 
ATOM     38  C   UNL     1       4.847   4.587   8.335  1.00  0.00    -0.014 A 
BRANCH  38  39
ATOM     39  C   UNL     1       6.266   4.424   8.613  1.00  0.00     0.031 A 
ATOM     40  C   UNL     1       6.725   3.010   8.588  1.00  0.00     0.074 A 
ATOM     41  C   UNL     1       7.114   5.476   8.653  1.00  0.00     0.049 A 
ATOM     42  N   UNL     1       7.132   2.307   9.591  1.00  0.00    -0.248 NA
ATOM     43  C   UNL     1       6.554   2.231   7.350  1.00  0.00     0.031 C 
ATOM     44  C   UNL     1       6.820   6.889   8.376  1.00  0.00     0.029 A 
ATOM     45  N   UNL     1       8.464   5.483   8.804  1.00  0.00    -0.354 N 
ATOM     46  C   UNL     1       7.512   1.076   9.060  1.00  0.00     0.074 A 
ATOM     47  C   UNL     1       6.928   1.012   7.748  1.00  0.00     0.031 C 
ATOM     48  C   UNL     1       7.971   7.547   8.113  1.00  0.00     0.029 A 
ATOM     49  C   UNL     1       9.084   6.656   8.374  1.00  0.00     0.049 A 
ATOM     50  H   UNL     1       8.963   4.725   9.184  1.00  0.00     0.167 HD
ATOM     51  C   UNL     1       8.495   0.337   9.645  1.00  0.00     0.034 A 
ATOM     52  C   UNL     1      10.415   6.852   8.199  1.00  0.00     0.034 A 
ATOM     53  C   UNL     1       8.793   0.832  10.967  1.00  0.00     0.049 A 
ATOM     54  C   UNL     1      11.103   5.817   9.006  1.00  0.00     0.074 A 
ATOM     55  C   UNL     1       8.064   1.016  12.124  1.00  0.00     0.029 A 
ATOM     56  N   UNL     1       9.915   1.617  11.092  1.00  0.00    -0.354 N 
ATOM     57  N   UNL     1      11.049   5.773  10.308  1.00  0.00    -0.248 NA
ATOM     58  C   UNL     1      11.456   4.571   8.346  1.00  0.00     0.031 C 
ATOM     59  C   UNL     1       8.531   2.254  12.653  1.00  0.00     0.029 A 
ATOM     60  C   UNL     1       9.574   2.710  11.843  1.00  0.00     0.049 A 
ATOM     61  H   UNL     1      10.802   1.428  10.711  1.00  0.00     0.167 HD
ATOM     62  C   UNL     1      10.885   4.425  10.593  1.00  0.00     0.074 A 
ATOM     63  C   UNL     1      11.250   3.726   9.360  1.00  0.00     0.031 C 
ATOM     64  C   UNL     1      10.177   4.017  11.687  1.00  0.00     0.034 A 
BRANCH  51  65
ATOM     65  C   UNL     1       9.460  -0.580   8.926  1.00  0.00     0.023 A 
ATOM     66  C   UNL     1      10.345  -1.335   9.732  1.00  0.00     0.012 A 
ATOM     67  C   UNL     1       9.738  -0.543   7.540  1.00  0.00     0.148 A 
ATOM     68  C   UNL     1      11.479  -1.957   9.202  1.00  0.00     0.002 A 
ATOM     69  C   UNL     1      10.823  -1.230   7.005  1.00  0.00     0.091 A 
ATOM     70  F   UNL     1       9.038   0.258   6.735  1.00  0.00    -0.205 F 
ATOM     71  C   UNL     1      11.717  -1.909   7.835  1.00  0.00     0.022 A 
BRANCH  69  72
ATOM     72  S   UNL     1      11.152  -1.249   5.237  1.00  0.00     0.127 S 
ATOM     73  O   UNL     1      12.356  -0.427   5.154  1.00  0.00    -0.237 OA
ATOM     74  O   UNL     1      11.358  -2.677   4.990  1.00  0.00    -0.237 OA
ATOM     75  O   UNL     1       9.959  -0.700   4.607  1.00  0.00    -0.744 OA
ENDBRANCH  69  72
ENDBRANCH  51  65
BRANCH  52  76
ATOM     76  C   UNL     1      11.144   7.673   7.200  1.00  0.00     0.023 A 
ATOM     77  C   UNL     1      12.507   7.973   7.407  1.00  0.00     0.012 A 
ATOM     78  C   UNL     1      10.605   7.898   5.914  1.00  0.00     0.148 A 
ATOM     79  C   UNL     1      13.316   8.434   6.359  1.00  0.00     0.002 A 
ATOM     80  C   UNL     1      11.414   8.351   4.874  1.00  0.00     0.091 A 
ATOM     81  F   UNL     1       9.324   7.577   5.686  1.00  0.00    -0.205 F 
ATOM     82  C   UNL     1      12.773   8.609   5.090  1.00  0.00     0.022 A 
BRANCH  80  83
ATOM     83  S   UNL     1      10.799   8.544   3.194  1.00  0.00     0.127 S 
ATOM     84  O   UNL     1      11.253   9.893   2.859  1.00  0.00    -0.237 OA
ATOM     85  O   UNL     1      11.499   7.470   2.493  1.00  0.00    -0.237 OA
ATOM     86  O   UNL     1       9.352   8.400   3.281  1.00  0.00    -0.744 OA
ENDBRANCH  80  83
ENDBRANCH  52  76
BRANCH  64  87
ATOM     87  C   UNL     1       9.755   5.050  12.706  1.00  0.00     0.023 A 
ATOM     88  C   UNL     1       8.827   6.071  12.408  1.00  0.00     0.012 A 
ATOM     89  C   UNL     1      10.109   4.825  14.046  1.00  0.00     0.148 A 
ATOM     90  C   UNL     1       8.262   6.845  13.427  1.00  0.00     0.002 A 
ATOM     91  C   UNL     1       9.501   5.555  15.059  1.00  0.00     0.091 A 
ATOM     92  F   UNL     1      10.993   3.851  14.309  1.00  0.00    -0.205 F 
ATOM     93  C   UNL     1       8.583   6.572  14.754  1.00  0.00     0.022 A 
BRANCH  91  94
ATOM     94  S   UNL     1       9.746   5.143  16.788  1.00  0.00     0.127 S 
ATOM     95  O   UNL     1      10.522   6.285  17.266  1.00  0.00    -0.237 OA
ATOM     96  O   UNL     1       8.373   5.082  17.290  1.00  0.00    -0.237 OA
ATOM     97  O   UNL     1      10.445   3.864  16.804  1.00  0.00    -0.744 OA
ENDBRANCH  91  94
ENDBRANCH  64  87
ENDBRANCH  38  39
ENDBRANCH  30  33
ENDBRANCH  28  29
ENDBRANCH   1  28
TORSDOF 16
