REMARK SMILES O=C(NCCCNC(=O)c1cc(Cl)ccc1N1C(=O)CC2(CCCC2)C1=O)c1ccc(-c2c3nc(c(-c4cccc(S(=O)(=O)[O-])c4F)c4ccc([nH]4)c(-c4cccc(S(=O)(=O)[O-])c4F)c4nc(c(-c5cccc(S(=O)(=O)[O-])c5F)c5ccc2[nH]5)C=C4)C=C3)cc1
REMARK SMILES IDX 4 1 3 2 1 3 2 4 28 6 29 7 90 8 30 9 89 10 31 11 32 12 33 13
REMARK SMILES IDX 83 14 34 15 88 16 82 17 84 18 35 19 87 20 81 21 80 22 36 24
REMARK SMILES IDX 68 25 48 26 67 27 49 28 52 29 66 30 85 31 50 32 51 33 65 35
REMARK SMILES IDX 86 36 53 37 37 38 38 39 46 40 39 41 41 42 47 43 40 44 42 45
REMARK SMILES IDX 43 46 44 47 45 48 69 49 70 50 78 51 71 52 73 53 79 54 72 55
REMARK SMILES IDX 74 56 75 57 76 58 77 59 54 60 55 61 63 62 56 63 58 64 64 65
REMARK SMILES IDX 57 66 59 67 60 68 61 69 62 70 5 71 6 72 7 73 8 74 9 76 10 77
REMARK SMILES IDX 11 78 16 79 12 80 15 81 13 82 14 83 17 84 18 85 26 86 19 87
REMARK SMILES IDX 20 88 21 89 27 90 22 91 25 92 23 93 24 94
REMARK H PARENT 3 5 84 23 52 34 7 75
REMARK Flexibility Score: inf
ROOT
ATOM      1  C   UNL     1       4.596   0.761  -1.227  1.00  0.00     0.118 C 
ENDROOT
BRANCH   1   2
ATOM      2  N   UNL     1       3.169   0.714  -0.925  1.00  0.00    -0.352 N 
ATOM      3  O   UNL     1       1.257   0.029   0.035  1.00  0.00    -0.269 OA
ATOM      4  C   UNL     1       2.484   0.067   0.078  1.00  0.00     0.251 C 
ATOM      5  H   UNL     1       2.603   1.232  -1.542  1.00  0.00     0.163 HD
BRANCH   4   6
ATOM      6  C   UNL     1       3.211  -0.602   1.182  1.00  0.00     0.039 A 
ATOM      7  C   UNL     1       4.343  -0.019   1.747  1.00  0.00     0.014 A 
ATOM      8  C   UNL     1       2.744  -1.824   1.677  1.00  0.00     0.014 A 
ATOM      9  C   UNL     1       5.115  -0.738   2.650  1.00  0.00     0.010 A 
ATOM     10  C   UNL     1       3.458  -2.494   2.678  1.00  0.00     0.010 A 
ATOM     11  C   UNL     1       4.676  -1.979   3.143  1.00  0.00    -0.014 A 
BRANCH  11  12
ATOM     12  C   UNL     1       5.490  -2.653   4.190  1.00  0.00     0.031 A 
ATOM     13  C   UNL     1       6.116  -4.003   3.964  1.00  0.00     0.074 A 
ATOM     14  C   UNL     1       5.712  -1.995   5.346  1.00  0.00     0.049 A 
ATOM     15  N   UNL     1       6.939  -4.663   4.739  1.00  0.00    -0.248 NA
ATOM     16  C   UNL     1       5.771  -4.712   2.721  1.00  0.00     0.031 C 
ATOM     17  C   UNL     1       5.106  -0.710   5.708  1.00  0.00     0.029 A 
ATOM     18  N   UNL     1       6.516  -2.293   6.416  1.00  0.00    -0.354 N 
ATOM     19  C   UNL     1       7.187  -5.872   4.099  1.00  0.00     0.074 A 
ATOM     20  C   UNL     1       6.413  -5.863   2.876  1.00  0.00     0.031 C 
ATOM     21  C   UNL     1       5.601  -0.303   6.885  1.00  0.00     0.029 A 
ATOM     22  C   UNL     1       6.518  -1.319   7.388  1.00  0.00     0.049 A 
ATOM     23  H   UNL     1       7.040  -3.123   6.482  1.00  0.00     0.167 HD
ATOM     24  C   UNL     1       8.002  -6.884   4.483  1.00  0.00     0.034 A 
ATOM     25  C   UNL     1       7.184  -1.244   8.556  1.00  0.00     0.034 A 
ATOM     26  C   UNL     1       8.800  -6.871   5.682  1.00  0.00     0.049 A 
ATOM     27  C   UNL     1       8.132  -2.349   8.920  1.00  0.00     0.074 A 
ATOM     28  C   UNL     1       9.682  -7.836   6.140  1.00  0.00     0.029 A 
ATOM     29  N   UNL     1       8.820  -5.842   6.611  1.00  0.00    -0.354 N 
ATOM     30  N   UNL     1       8.439  -3.427   8.240  1.00  0.00    -0.248 NA
ATOM     31  C   UNL     1       8.846  -2.216  10.196  1.00  0.00     0.031 C 
ATOM     32  C   UNL     1      10.233  -7.390   7.347  1.00  0.00     0.029 A 
ATOM     33  C   UNL     1       9.702  -6.144   7.636  1.00  0.00     0.049 A 
ATOM     34  H   UNL     1       8.286  -5.017   6.551  1.00  0.00     0.167 HD
ATOM     35  C   UNL     1       9.386  -4.098   9.001  1.00  0.00     0.074 A 
ATOM     36  C   UNL     1       9.637  -3.281  10.171  1.00  0.00     0.031 C 
ATOM     37  C   UNL     1       9.971  -5.299   8.771  1.00  0.00     0.034 A 
BRANCH  24  38
ATOM     38  C   UNL     1       8.127  -8.074   3.566  1.00  0.00     0.023 A 
ATOM     39  C   UNL     1       8.889  -7.955   2.387  1.00  0.00     0.012 A 
ATOM     40  C   UNL     1       7.566  -9.322   3.903  1.00  0.00     0.148 A 
ATOM     41  C   UNL     1       9.076  -9.052   1.546  1.00  0.00     0.002 A 
ATOM     42  C   UNL     1       7.786 -10.421   3.078  1.00  0.00     0.091 A 
ATOM     43  F   UNL     1       6.828  -9.412   5.019  1.00  0.00    -0.205 F 
ATOM     44  C   UNL     1       8.534 -10.286   1.897  1.00  0.00     0.022 A 
BRANCH  42  45
ATOM     45  S   UNL     1       7.191 -12.069   3.477  1.00  0.00     0.127 S 
ATOM     46  O   UNL     1       6.109 -12.234   2.508  1.00  0.00    -0.237 OA
ATOM     47  O   UNL     1       8.371 -12.896   3.219  1.00  0.00    -0.237 OA
ATOM     48  O   UNL     1       6.780 -12.019   4.873  1.00  0.00    -0.744 OA
ENDBRANCH  42  45
ENDBRANCH  24  38
BRANCH  25  49
ATOM     49  C   UNL     1       7.008  -0.049   9.427  1.00  0.00     0.023 A 
ATOM     50  C   UNL     1       8.068   0.863   9.584  1.00  0.00     0.012 A 
ATOM     51  C   UNL     1       5.773   0.222  10.048  1.00  0.00     0.148 A 
ATOM     52  C   UNL     1       7.908   2.012  10.360  1.00  0.00     0.002 A 
ATOM     53  C   UNL     1       5.600   1.400  10.764  1.00  0.00     0.091 A 
ATOM     54  F   UNL     1       4.779  -0.668   9.909  1.00  0.00    -0.205 F 
ATOM     55  C   UNL     1       6.670   2.289  10.937  1.00  0.00     0.022 A 
BRANCH  53  56
ATOM     56  S   UNL     1       3.986   1.887  11.384  1.00  0.00     0.127 S 
ATOM     57  O   UNL     1       4.040   1.422  12.766  1.00  0.00    -0.237 OA
ATOM     58  O   UNL     1       4.014   3.342  11.221  1.00  0.00    -0.237 OA
ATOM     59  O   UNL     1       3.031   1.214  10.512  1.00  0.00    -0.744 OA
ENDBRANCH  53  56
ENDBRANCH  25  49
BRANCH  37  60
ATOM     60  C   UNL     1      10.936  -5.800   9.811  1.00  0.00     0.023 A 
ATOM     61  C   UNL     1      10.438  -6.284  11.037  1.00  0.00     0.012 A 
ATOM     62  C   UNL     1      12.321  -5.832   9.565  1.00  0.00     0.148 A 
ATOM     63  C   UNL     1      11.307  -6.759  12.018  1.00  0.00     0.002 A 
ATOM     64  C   UNL     1      13.179  -6.346  10.531  1.00  0.00     0.091 A 
ATOM     65  F   UNL     1      12.779  -5.345   8.402  1.00  0.00    -0.205 F 
ATOM     66  C   UNL     1      12.675  -6.799  11.761  1.00  0.00     0.022 A 
BRANCH  64  67
ATOM     67  S   UNL     1      14.945  -6.505  10.246  1.00  0.00     0.127 S 
ATOM     68  O   UNL     1      15.468  -5.331  10.942  1.00  0.00    -0.237 OA
ATOM     69  O   UNL     1      15.256  -7.783  10.889  1.00  0.00    -0.237 OA
ATOM     70  O   UNL     1      15.110  -6.508   8.799  1.00  0.00    -0.744 OA
ENDBRANCH  64  67
ENDBRANCH  37  60
ENDBRANCH  11  12
ENDBRANCH   4   6
ENDBRANCH   1   2
BRANCH   1  71
ATOM     71  C   UNL     1       4.960   0.022  -2.506  1.00  0.00     0.042 C 
BRANCH  71  72
ATOM     72  C   UNL     1       4.387   0.646  -3.768  1.00  0.00     0.118 C 
BRANCH  72  73
ATOM     73  N   UNL     1       4.864   2.005  -3.992  1.00  0.00    -0.352 N 
ATOM     74  C   UNL     1       5.744   2.496  -4.923  1.00  0.00     0.253 C 
ATOM     75  H   UNL     1       4.496   2.679  -3.377  1.00  0.00     0.163 HD
ATOM     76  O   UNL     1       6.141   3.657  -4.839  1.00  0.00    -0.269 OA
BRANCH  74  77
ATOM     77  C   UNL     1       6.185   1.665  -6.069  1.00  0.00     0.065 A 
ATOM     78  C   UNL     1       5.189   1.018  -6.823  1.00  0.00     0.036 A 
ATOM     79  C   UNL     1       7.514   1.703  -6.543  1.00  0.00     0.065 A 
ATOM     80  C   UNL     1       5.523   0.329  -7.983  1.00  0.00     0.041 A 
ATOM     81  C   UNL     1       7.814   1.037  -7.745  1.00  0.00     0.029 A 
ATOM     82  Cl  UNL     1       4.303  -0.508  -8.859  1.00  0.00    -0.084 Cl
ATOM     83  C   UNL     1       6.832   0.332  -8.445  1.00  0.00     0.023 A 
BRANCH  79  84
ATOM     84  N   UNL     1       8.552   2.399  -5.873  1.00  0.00    -0.249 N 
ATOM     85  C   UNL     1       9.433   3.241  -6.508  1.00  0.00     0.234 C 
ATOM     86  C   UNL     1       8.812   2.286  -4.524  1.00  0.00     0.240 C 
ATOM     87  O   UNL     1       9.544   3.463  -7.707  1.00  0.00    -0.274 OA
ATOM     88  C   UNL     1      10.234   3.964  -5.465  1.00  0.00     0.118 C 
ATOM     89  C   UNL     1      10.044   3.112  -4.214  1.00  0.00     0.059 C 
ATOM     90  O   UNL     1       8.261   1.541  -3.723  1.00  0.00    -0.273 OA
ATOM     91  C   UNL     1      11.264   2.226  -3.935  1.00  0.00     0.017 C 
ATOM     92  C   UNL     1       9.932   3.920  -2.925  1.00  0.00     0.017 C 
ATOM     93  C   UNL     1      12.227   3.124  -3.160  1.00  0.00     0.001 C 
ATOM     94  C   UNL     1      11.375   4.232  -2.542  1.00  0.00     0.001 C 
ENDBRANCH  79  84
ENDBRANCH  74  77
ENDBRANCH  72  73
ENDBRANCH  71  72
ENDBRANCH   1  71
TORSDOF 14
