REMARK SMILES CC1(C)[C@H](C(=O)NCCCNC(=O)c2ccc(-c3c4nc(c(-c5cccc(S(=O)(=O)[O-])c5F)c5ccc([nH]5)c(-c5cccc(S(=O)(=O)[O-])c5F)c5nc(c(-c6cccc(S(=O)(=O)[O-])c6F)c6ccc3[nH]6)C=C5)C=C4)cc2)[C@@H]1C(=O)Nc1ccon1
REMARK SMILES IDX 9 1 8 2 7 3 5 4 6 5 4 7 1 8 2 9 3 10 77 11 78 12 79 13 80 14
REMARK SMILES IDX 81 16 82 17 85 18 83 19 84 20 10 21 11 22 12 23 13 25 14 26
REMARK SMILES IDX 15 27 76 28 16 29 75 30 17 31 18 32 19 33 69 34 20 35 74 36
REMARK SMILES IDX 68 37 70 38 21 39 73 40 67 41 66 42 22 44 54 45 34 46 53 47
REMARK SMILES IDX 35 48 38 49 52 50 71 51 36 52 37 53 51 55 72 56 39 57 23 58
REMARK SMILES IDX 24 59 32 60 25 61 27 62 33 63 26 64 28 65 29 66 30 67 31 68
REMARK SMILES IDX 55 69 56 70 64 71 57 72 59 73 65 74 58 75 60 76 61 77 62 78
REMARK SMILES IDX 63 79 40 80 41 81 49 82 42 83 44 84 50 85 43 86 45 87 46 88
REMARK SMILES IDX 47 89 48 90
REMARK H PARENT 7 6 80 15 11 24 70 43 38 54
REMARK Flexibility Score: inf
ROOT
ATOM      1  C   UNL     1      -0.052   4.138  -0.727  1.00  0.00     0.042 C 
ENDROOT
BRANCH   1   2
ATOM      2  C   UNL     1      -1.091   3.080  -0.404  1.00  0.00     0.117 C 
BRANCH   2   3
ATOM      3  N   UNL     1      -1.332   2.195  -1.524  1.00  0.00    -0.356 N 
ATOM      4  C   UNL     1      -1.234   0.855  -1.740  1.00  0.00     0.224 C 
ATOM      5  O   UNL     1      -1.536   0.476  -2.874  1.00  0.00    -0.275 OA
ATOM      6  H   UNL     1      -1.640   2.680  -2.323  1.00  0.00     0.163 HD
BRANCH   4   7
ATOM      7  C   UNL     1      -0.885  -0.211  -0.768  1.00  0.00     0.098 C 
ATOM      8  C   UNL     1       1.059  -1.591   0.164  1.00  0.00     0.013 C 
ATOM      9  C   UNL     1       0.291  -0.283   0.181  1.00  0.00    -0.011 C 
ATOM     10  C   UNL     1       1.209   0.903   0.338  1.00  0.00     0.013 C 
ATOM     11  C   UNL     1      -1.171  -0.325   0.699  1.00  0.00     0.098 C 
BRANCH  11  12
ATOM     12  C   UNL     1      -1.756   0.698   1.590  1.00  0.00     0.230 C 
ATOM     13  O   UNL     1      -1.146   1.022   2.607  1.00  0.00    -0.274 OA
ATOM     14  N   UNL     1      -2.967   1.275   1.322  1.00  0.00    -0.308 N 
ATOM     15  H   UNL     1      -3.227   1.988   1.949  1.00  0.00     0.171 HD
BRANCH  14  16
ATOM     16  C   UNL     1      -3.883   1.032   0.327  1.00  0.00     0.175 A 
ATOM     17  C   UNL     1      -4.058  -0.097  -0.501  1.00  0.00     0.092 A 
ATOM     18  N   UNL     1      -4.792   1.972   0.039  1.00  0.00    -0.062 NA
ATOM     19  C   UNL     1      -5.031   0.278  -1.390  1.00  0.00     0.233 A 
ATOM     20  O   UNL     1      -5.478   1.514  -1.070  1.00  0.00    -0.363 OA
ENDBRANCH  14  16
ENDBRANCH  11  12
ENDBRANCH   4   7
ENDBRANCH   2   3
ENDBRANCH   1   2
BRANCH   1  21
ATOM     21  C   UNL     1      -0.580   5.208  -1.668  1.00  0.00     0.118 C 
BRANCH  21  22
ATOM     22  N   UNL     1      -1.552   6.084  -1.021  1.00  0.00    -0.352 N 
ATOM     23  C   UNL     1      -1.443   7.417  -0.698  1.00  0.00     0.251 C 
ATOM     24  H   UNL     1      -2.408   5.661  -0.781  1.00  0.00     0.163 HD
ATOM     25  O   UNL     1      -2.273   7.942   0.038  1.00  0.00    -0.269 OA
BRANCH  23  26
ATOM     26  C   UNL     1      -0.311   8.205  -1.229  1.00  0.00     0.039 A 
ATOM     27  C   UNL     1       0.378   9.078  -0.385  1.00  0.00     0.014 A 
ATOM     28  C   UNL     1       0.078   8.062  -2.563  1.00  0.00     0.014 A 
ATOM     29  C   UNL     1       1.506   9.750  -0.862  1.00  0.00     0.010 A 
ATOM     30  C   UNL     1       1.258   8.645  -3.001  1.00  0.00     0.010 A 
ATOM     31  C   UNL     1       1.978   9.509  -2.163  1.00  0.00    -0.014 A 
BRANCH  31  32
ATOM     32  C   UNL     1       3.204  10.160  -2.692  1.00  0.00     0.031 A 
ATOM     33  C   UNL     1       3.111  11.030  -3.919  1.00  0.00     0.074 A 
ATOM     34  C   UNL     1       4.404   9.884  -2.143  1.00  0.00     0.049 A 
ATOM     35  N   UNL     1       4.070  11.580  -4.616  1.00  0.00    -0.248 NA
ATOM     36  C   UNL     1       1.762  11.283  -4.458  1.00  0.00     0.031 C 
ATOM     37  C   UNL     1       4.633   8.995  -1.002  1.00  0.00     0.029 A 
ATOM     38  N   UNL     1       5.664  10.302  -2.493  1.00  0.00    -0.354 N 
ATOM     39  C   UNL     1       3.448  12.201  -5.693  1.00  0.00     0.074 A 
ATOM     40  C   UNL     1       2.033  11.925  -5.584  1.00  0.00     0.031 C 
ATOM     41  C   UNL     1       5.950   8.939  -0.743  1.00  0.00     0.029 A 
ATOM     42  C   UNL     1       6.662   9.759  -1.717  1.00  0.00     0.049 A 
ATOM     43  H   UNL     1       5.837  10.930  -3.231  1.00  0.00     0.167 HD
ATOM     44  C   UNL     1       3.997  12.967  -6.665  1.00  0.00     0.034 A 
ATOM     45  C   UNL     1       8.000   9.902  -1.789  1.00  0.00     0.034 A 
ATOM     46  C   UNL     1       5.394  13.295  -6.730  1.00  0.00     0.049 A 
ATOM     47  C   UNL     1       8.578  10.804  -2.847  1.00  0.00     0.074 A 
ATOM     48  C   UNL     1       6.041  14.126  -7.626  1.00  0.00     0.029 A 
ATOM     49  N   UNL     1       6.357  12.816  -5.856  1.00  0.00    -0.354 N 
ATOM     50  N   UNL     1       7.957  11.496  -3.772  1.00  0.00    -0.248 NA
ATOM     51  C   UNL     1      10.039  10.975  -2.851  1.00  0.00     0.031 C 
ATOM     52  C   UNL     1       7.400  14.145  -7.298  1.00  0.00     0.029 A 
ATOM     53  C   UNL     1       7.594  13.339  -6.187  1.00  0.00     0.049 A 
ATOM     54  H   UNL     1       6.187  12.196  -5.111  1.00  0.00     0.167 HD
ATOM     55  C   UNL     1       8.943  12.217  -4.435  1.00  0.00     0.074 A 
ATOM     56  C   UNL     1      10.201  11.891  -3.796  1.00  0.00     0.031 C 
ATOM     57  C   UNL     1       8.822  13.060  -5.489  1.00  0.00     0.034 A 
BRANCH  44  58
ATOM     58  C   UNL     1       3.073  13.567  -7.692  1.00  0.00     0.023 A 
ATOM     59  C   UNL     1       2.206  14.613  -7.313  1.00  0.00     0.012 A 
ATOM     60  C   UNL     1       3.105  13.149  -9.036  1.00  0.00     0.148 A 
ATOM     61  C   UNL     1       1.361  15.210  -8.246  1.00  0.00     0.002 A 
ATOM     62  C   UNL     1       2.292  13.781  -9.971  1.00  0.00     0.091 A 
ATOM     63  F   UNL     1       3.922  12.141  -9.374  1.00  0.00    -0.205 F 
ATOM     64  C   UNL     1       1.413  14.802  -9.576  1.00  0.00     0.022 A 
BRANCH  62  65
ATOM     65  S   UNL     1       2.338  13.386 -11.723  1.00  0.00     0.127 S 
ATOM     66  O   UNL     1       1.032  12.758 -11.918  1.00  0.00    -0.237 OA
ATOM     67  O   UNL     1       2.474  14.710 -12.332  1.00  0.00    -0.237 OA
ATOM     68  O   UNL     1       3.485  12.509 -11.910  1.00  0.00    -0.744 OA
ENDBRANCH  62  65
ENDBRANCH  44  58
BRANCH  45  69
ATOM     69  C   UNL     1       8.884   9.241  -0.786  1.00  0.00     0.023 A 
ATOM     70  C   UNL     1       9.561  10.034   0.162  1.00  0.00     0.012 A 
ATOM     71  C   UNL     1       9.056   7.844  -0.758  1.00  0.00     0.148 A 
ATOM     72  C   UNL     1      10.424   9.453   1.092  1.00  0.00     0.002 A 
ATOM     73  C   UNL     1       9.876   7.266   0.206  1.00  0.00     0.091 A 
ATOM     74  F   UNL     1       8.417   7.104  -1.675  1.00  0.00    -0.205 F 
ATOM     75  C   UNL     1      10.575   8.070   1.120  1.00  0.00     0.022 A 
BRANCH  73  76
ATOM     76  S   UNL     1      10.026   5.486   0.393  1.00  0.00     0.127 S 
ATOM     77  O   UNL     1      11.336   5.231  -0.199  1.00  0.00    -0.237 OA
ATOM     78  O   UNL     1       9.964   5.323   1.846  1.00  0.00    -0.237 OA
ATOM     79  O   UNL     1       8.884   4.925  -0.318  1.00  0.00    -0.744 OA
ENDBRANCH  73  76
ENDBRANCH  45  69
BRANCH  57  80
ATOM     80  C   UNL     1      10.068  13.739  -5.991  1.00  0.00     0.023 A 
ATOM     81  C   UNL     1      11.018  13.005  -6.727  1.00  0.00     0.012 A 
ATOM     82  C   UNL     1      10.249  15.125  -5.809  1.00  0.00     0.148 A 
ATOM     83  C   UNL     1      12.145  13.636  -7.253  1.00  0.00     0.002 A 
ATOM     84  C   UNL     1      11.349  15.755  -6.377  1.00  0.00     0.091 A 
ATOM     85  F   UNL     1       9.341  15.800  -5.089  1.00  0.00    -0.205 F 
ATOM     86  C   UNL     1      12.303  15.010  -7.090  1.00  0.00     0.022 A 
BRANCH  84  87
ATOM     87  S   UNL     1      11.583  17.534  -6.302  1.00  0.00     0.127 S 
ATOM     88  O   UNL     1      12.687  17.649  -5.350  1.00  0.00    -0.237 OA
ATOM     89  O   UNL     1      11.933  17.860  -7.685  1.00  0.00    -0.237 OA
ATOM     90  O   UNL     1      10.312  18.088  -5.855  1.00  0.00    -0.744 OA
ENDBRANCH  84  87
ENDBRANCH  57  80
ENDBRANCH  31  32
ENDBRANCH  23  26
ENDBRANCH  21  22
ENDBRANCH   1  21
TORSDOF 15
