REMARK SMILES Cc1ccccc1[C@@H]1[NH2+][C@@H](C(=O)NCCCNC(=O)c2ccc(-c3c4nc(c(-c5cccc(S(=O)(=O)[O-])c5F)c5ccc([nH]5)c(-c5cccc(S(=O)(=O)[O-])c5F)c5nc(c(-c6cccc(S(=O)(=O)[O-])c6F)c6ccc3[nH]6)C=C5)C=C4)cc2)CC2=c3ccccc3=N[C@H]21
REMARK SMILES IDX 16 1 15 2 14 3 13 4 11 5 12 6 10 8 8 9 9 10 92 11 84 14
REMARK SMILES IDX 91 15 83 16 85 17 90 18 86 19 89 20 87 21 88 22 7 23 1 24
REMARK SMILES IDX 2 25 3 26 4 27 6 28 5 29 17 30 18 31 19 33 20 34 21 35 82 36
REMARK SMILES IDX 22 37 81 38 23 39 24 40 25 41 75 42 26 43 80 44 74 45 76 46
REMARK SMILES IDX 27 47 79 48 73 49 72 50 28 52 60 53 40 54 59 55 41 56 44 57
REMARK SMILES IDX 58 58 77 59 42 60 43 61 57 63 78 64 45 65 29 66 30 67 38 68
REMARK SMILES IDX 31 69 33 70 39 71 32 72 34 73 35 74 36 75 37 76 61 77 62 78
REMARK SMILES IDX 70 79 63 80 65 81 71 82 64 83 66 84 67 85 68 86 69 87 46 88
REMARK SMILES IDX 47 89 55 90 48 91 50 92 56 93 49 94 51 95 52 96 53 97 54 98
REMARK H PARENT 13 7 9 12 9 13 17 32 76 51 44 62
REMARK Flexibility Score: inf
ROOT
ATOM      1  C   UNL     1      -3.894   7.712   0.298  1.00  0.00     0.118 C 
ENDROOT
BRANCH   1   2
ATOM      2  C   UNL     1      -3.369   6.405   0.814  1.00  0.00     0.042 C 
BRANCH   2   3
ATOM      3  C   UNL     1      -4.051   5.155   0.272  1.00  0.00     0.118 C 
BRANCH   3   4
ATOM      4  N   UNL     1      -3.452   4.581  -0.934  1.00  0.00    -0.351 N 
ATOM      5  C   UNL     1      -2.429   3.666  -1.040  1.00  0.00     0.278 C 
ATOM      6  O   UNL     1      -2.626   2.714  -1.807  1.00  0.00    -0.268 OA
ATOM      7  H   UNL     1      -3.834   4.891  -1.786  1.00  0.00     0.163 HD
BRANCH   5   8
ATOM      8  C   UNL     1      -1.009   3.894  -0.407  1.00  0.00     0.277 C 
ATOM      9  C   UNL     1       0.738   2.170   0.407  1.00  0.00     0.243 C 
ATOM     10  N   UNL     1      -0.129   2.714  -0.674  1.00  0.00    -0.327 N 
ATOM     11  C   UNL     1       0.725   2.815   1.831  1.00  0.00     0.196 C 
ATOM     12  H   UNL     1      -0.739   1.954  -0.973  1.00  0.00     0.347 HD
ATOM     13  H   UNL     1       0.543   3.073  -1.353  1.00  0.00     0.347 HD
ATOM     14  C   UNL     1      -0.594   3.448   2.019  1.00  0.00    -0.024 C 
ATOM     15  N   UNL     1       0.804   1.814   2.946  1.00  0.00    -0.270 NA
ATOM     16  C   UNL     1      -0.976   4.437   1.013  1.00  0.00     0.109 C 
ATOM     17  C   UNL     1      -1.280   2.942   3.029  1.00  0.00     0.002 A 
ATOM     18  C   UNL     1      -0.324   1.973   3.573  1.00  0.00     0.066 A 
ATOM     19  C   UNL     1      -2.599   3.104   3.539  1.00  0.00     0.010 A 
ATOM     20  C   UNL     1      -0.767   1.272   4.797  1.00  0.00     0.028 A 
ATOM     21  C   UNL     1      -2.962   2.372   4.602  1.00  0.00     0.001 A 
ATOM     22  C   UNL     1      -2.015   1.482   5.255  1.00  0.00     0.002 A 
BRANCH   9  23
ATOM     23  C   UNL     1       2.193   2.028  -0.058  1.00  0.00     0.015 A 
ATOM     24  C   UNL     1       2.648   4.559  -0.322  1.00  0.00     0.045 C 
ATOM     25  C   UNL     1       3.070   3.114  -0.298  1.00  0.00    -0.042 A 
ATOM     26  C   UNL     1       4.444   2.860  -0.465  1.00  0.00     0.004 A 
ATOM     27  C   UNL     1       4.944   1.560  -0.471  1.00  0.00     0.000 A 
ATOM     28  C   UNL     1       2.714   0.719  -0.134  1.00  0.00     0.010 A 
ATOM     29  C   UNL     1       4.074   0.488  -0.338  1.00  0.00     0.001 A 
ENDBRANCH   9  23
ENDBRANCH   5   8
ENDBRANCH   3   4
ENDBRANCH   2   3
ENDBRANCH   1   2
BRANCH   1  30
ATOM     30  N   UNL     1      -4.698   8.474   1.220  1.00  0.00    -0.352 N 
ATOM     31  C   UNL     1      -5.058   9.807   1.113  1.00  0.00     0.251 C 
ATOM     32  H   UNL     1      -5.029   7.993   2.013  1.00  0.00     0.163 HD
ATOM     33  O   UNL     1      -5.604  10.334   2.080  1.00  0.00    -0.269 OA
BRANCH  31  34
ATOM     34  C   UNL     1      -4.915  10.527  -0.188  1.00  0.00     0.039 A 
ATOM     35  C   UNL     1      -5.941  11.406  -0.549  1.00  0.00     0.014 A 
ATOM     36  C   UNL     1      -3.958  10.185  -1.141  1.00  0.00     0.014 A 
ATOM     37  C   UNL     1      -6.184  11.666  -1.895  1.00  0.00     0.010 A 
ATOM     38  C   UNL     1      -4.248  10.342  -2.470  1.00  0.00     0.010 A 
ATOM     39  C   UNL     1      -5.418  11.000  -2.837  1.00  0.00    -0.014 A 
BRANCH  39  40
ATOM     40  C   UNL     1      -5.750  10.833  -4.234  1.00  0.00     0.031 A 
ATOM     41  C   UNL     1      -5.207  11.748  -5.236  1.00  0.00     0.074 A 
ATOM     42  C   UNL     1      -6.240   9.624  -4.582  1.00  0.00     0.049 A 
ATOM     43  N   UNL     1      -5.570  11.747  -6.467  1.00  0.00    -0.248 NA
ATOM     44  C   UNL     1      -4.174  12.720  -4.921  1.00  0.00     0.031 C 
ATOM     45  C   UNL     1      -6.170   8.940  -5.866  1.00  0.00     0.029 A 
ATOM     46  N   UNL     1      -7.015   8.779  -3.804  1.00  0.00    -0.354 N 
ATOM     47  C   UNL     1      -4.625  12.465  -7.162  1.00  0.00     0.074 A 
ATOM     48  C   UNL     1      -3.837  13.129  -6.147  1.00  0.00     0.031 C 
ATOM     49  C   UNL     1      -7.040   7.914  -5.861  1.00  0.00     0.029 A 
ATOM     50  C   UNL     1      -7.846   8.047  -4.660  1.00  0.00     0.049 A 
ATOM     51  H   UNL     1      -6.986   8.705  -2.822  1.00  0.00     0.167 HD
ATOM     52  C   UNL     1      -4.517  12.264  -8.506  1.00  0.00     0.034 A 
ATOM     53  C   UNL     1      -9.191   8.318  -4.646  1.00  0.00     0.034 A 
ATOM     54  C   UNL     1      -5.516  11.277  -8.972  1.00  0.00     0.049 A 
ATOM     55  C   UNL     1      -9.708   8.941  -5.941  1.00  0.00     0.074 A 
ATOM     56  C   UNL     1      -5.459   9.937  -9.327  1.00  0.00     0.029 A 
ATOM     57  N   UNL     1      -6.866  11.565  -8.820  1.00  0.00    -0.354 N 
ATOM     58  N   UNL     1      -8.992   9.181  -7.007  1.00  0.00    -0.248 NA
ATOM     59  C   UNL     1     -11.080   9.416  -6.089  1.00  0.00     0.031 C 
ATOM     60  C   UNL     1      -6.792   9.424  -9.366  1.00  0.00     0.029 A 
ATOM     61  C   UNL     1      -7.663  10.454  -9.065  1.00  0.00     0.049 A 
ATOM     62  H   UNL     1      -7.216  12.450  -8.568  1.00  0.00     0.167 HD
ATOM     63  C   UNL     1      -9.693   9.994  -7.868  1.00  0.00     0.074 A 
ATOM     64  C   UNL     1     -11.015  10.070  -7.261  1.00  0.00     0.031 C 
ATOM     65  C   UNL     1      -9.114  10.603  -8.957  1.00  0.00     0.034 A 
BRANCH  52  66
ATOM     66  C   UNL     1      -3.329  12.711  -9.342  1.00  0.00     0.023 A 
ATOM     67  C   UNL     1      -3.090  12.025 -10.553  1.00  0.00     0.012 A 
ATOM     68  C   UNL     1      -2.396  13.724  -9.016  1.00  0.00     0.148 A 
ATOM     69  C   UNL     1      -1.944  12.240 -11.328  1.00  0.00     0.002 A 
ATOM     70  C   UNL     1      -1.210  13.883  -9.741  1.00  0.00     0.091 A 
ATOM     71  F   UNL     1      -2.687  14.617  -8.065  1.00  0.00    -0.205 F 
ATOM     72  C   UNL     1      -0.980  13.138 -10.899  1.00  0.00     0.022 A 
BRANCH  70  73
ATOM     73  S   UNL     1       0.123  14.961  -9.184  1.00  0.00     0.127 S 
ATOM     74  O   UNL     1       1.297  14.092  -9.308  1.00  0.00    -0.237 OA
ATOM     75  O   UNL     1       0.075  16.053 -10.152  1.00  0.00    -0.237 OA
ATOM     76  O   UNL     1      -0.200  15.318  -7.807  1.00  0.00    -0.744 OA
ENDBRANCH  70  73
ENDBRANCH  52  66
BRANCH  53  77
ATOM     77  C   UNL     1      -9.655   8.696  -3.259  1.00  0.00     0.023 A 
ATOM     78  C   UNL     1      -9.409   7.757  -2.222  1.00  0.00     0.012 A 
ATOM     79  C   UNL     1      -9.886  10.037  -2.902  1.00  0.00     0.148 A 
ATOM     80  C   UNL     1      -9.195   8.180  -0.907  1.00  0.00     0.002 A 
ATOM     81  C   UNL     1      -9.713  10.443  -1.579  1.00  0.00     0.091 A 
ATOM     82  F   UNL     1     -10.213  10.918  -3.856  1.00  0.00    -0.205 F 
ATOM     83  C   UNL     1      -9.307   9.531  -0.594  1.00  0.00     0.022 A 
BRANCH  81  84
ATOM     84  S   UNL     1      -9.919  12.171  -1.124  1.00  0.00     0.127 S 
ATOM     85  O   UNL     1     -11.358  12.244  -0.891  1.00  0.00    -0.237 OA
ATOM     86  O   UNL     1      -9.101  12.295   0.083  1.00  0.00    -0.237 OA
ATOM     87  O   UNL     1      -9.408  12.916  -2.266  1.00  0.00    -0.744 OA
ENDBRANCH  81  84
ENDBRANCH  53  77
BRANCH  65  88
ATOM     88  C   UNL     1      -9.835  11.490  -9.977  1.00  0.00     0.023 A 
ATOM     89  C   UNL     1     -11.233  11.490 -10.123  1.00  0.00     0.012 A 
ATOM     90  C   UNL     1      -9.124  12.319 -10.893  1.00  0.00     0.148 A 
ATOM     91  C   UNL     1     -11.897  12.370 -10.989  1.00  0.00     0.002 A 
ATOM     92  C   UNL     1      -9.780  13.194 -11.755  1.00  0.00     0.091 A 
ATOM     93  F   UNL     1      -7.797  12.215 -11.005  1.00  0.00    -0.205 F 
ATOM     94  C   UNL     1     -11.172  13.246 -11.783  1.00  0.00     0.022 A 
BRANCH  92  95
ATOM     95  S   UNL     1      -8.886  14.284 -12.873  1.00  0.00     0.127 S 
ATOM     96  O   UNL     1      -9.120  13.636 -14.164  1.00  0.00    -0.237 OA
ATOM     97  O   UNL     1      -9.593  15.552 -12.691  1.00  0.00    -0.237 OA
ATOM     98  O   UNL     1      -7.505  14.291 -12.414  1.00  0.00    -0.744 OA
ENDBRANCH  92  95
ENDBRANCH  65  88
ENDBRANCH  39  40
ENDBRANCH  31  34
ENDBRANCH   1  30
TORSDOF 14
