REMARK SMILES C[C@H](CCC[C@@H](C)[NH3+])C(=O)N[C@H]1C=C[C@@H](C(=O)NCCCNC(=O)c2ccc(-c3c4nc(c(-c5cccc(S(=O)(=O)[O-])c5F)c5ccc([nH]5)c(-c5cccc(S(=O)(=O)[O-])c5F)c5nc(c(-c6cccc(S(=O)(=O)[O-])c6F)c6ccc3[nH]6)C=C5)C=C4)cc2)C1
REMARK SMILES IDX 16 1 17 2 18 3 15 5 12 6 13 7 88 8 14 9 11 10 9 11 10 12
REMARK SMILES IDX 2 14 1 15 3 16 4 17 5 18 6 19 7 20 8 21 19 25 20 26 21 27
REMARK SMILES IDX 22 28 23 29 24 31 25 32 26 33 87 34 27 35 86 36 28 37 29 38
REMARK SMILES IDX 30 39 80 40 31 41 85 42 79 43 81 44 32 45 84 46 78 47 77 48
REMARK SMILES IDX 33 50 65 51 45 52 64 53 46 54 49 55 63 56 82 57 47 58 48 59
REMARK SMILES IDX 62 61 83 62 50 63 34 64 35 65 43 66 36 67 38 68 44 69 37 70
REMARK SMILES IDX 39 71 40 72 41 73 42 74 66 75 67 76 75 77 68 78 70 79 76 80
REMARK SMILES IDX 69 81 71 82 72 83 73 84 74 85 51 86 52 87 60 88 53 89 55 90
REMARK SMILES IDX 61 91 54 92 56 93 57 94 58 95 59 96
REMARK H PARENT 18 4 11 13 8 22 8 23 8 24 22 30 81 49 49 60
REMARK Flexibility Score: inf
ROOT
ATOM      1  C   UNL     1      -2.986  -4.421   3.356  1.00  0.00     0.227 C 
ATOM      2  O   UNL     1      -2.855  -5.405   4.089  1.00  0.00    -0.274 OA
ATOM      3  N   UNL     1      -4.240  -4.118   2.919  1.00  0.00    -0.356 N 
ATOM      4  H   UNL     1      -4.931  -4.772   3.174  1.00  0.00     0.163 HD
ENDROOT
BRANCH   1   5
ATOM      5  C   UNL     1      -1.774  -3.577   2.979  1.00  0.00     0.103 C 
ATOM      6  C   UNL     1      -1.248  -2.043   1.173  1.00  0.00     0.106 C 
ATOM      7  C   UNL     1      -1.698  -1.309   2.390  1.00  0.00    -0.006 C 
ATOM      8  C   UNL     1      -1.516  -3.512   1.468  1.00  0.00     0.047 C 
ATOM      9  C   UNL     1      -1.928  -2.147   3.406  1.00  0.00    -0.016 C 
BRANCH   6  10
ATOM     10  N   UNL     1      -1.829  -1.472   0.001  1.00  0.00    -0.350 N 
ATOM     11  C   UNL     1      -1.187  -0.755  -0.969  1.00  0.00     0.223 C 
ATOM     12  O   UNL     1      -1.895  -0.062  -1.704  1.00  0.00    -0.275 OA
ATOM     13  H   UNL     1      -2.796  -1.610  -0.121  1.00  0.00     0.164 HD
BRANCH  11  14
ATOM     14  C   UNL     1       0.345  -0.780  -1.157  1.00  0.00     0.075 C 
ATOM     15  C   UNL     1       0.933  -2.178  -1.353  1.00  0.00     0.018 C 
BRANCH  14  16
ATOM     16  C   UNL     1       1.185   0.185  -0.278  1.00  0.00     0.013 C 
BRANCH  16  17
ATOM     17  C   UNL     1       1.336   0.021   1.242  1.00  0.00     0.007 C 
BRANCH  17  18
ATOM     18  C   UNL     1       1.936  -1.293   1.770  1.00  0.00     0.064 C 
BRANCH  18  19
ATOM     19  C   UNL     1       3.452  -1.327   1.940  1.00  0.00     0.177 C 
ATOM     20  C   UNL     1       3.902  -0.529   3.159  1.00  0.00     0.075 C 
BRANCH  19  21
ATOM     21  N   UNL     1       3.840  -2.732   2.117  1.00  0.00    -0.355 N 
ATOM     22  H   UNL     1       3.379  -3.109   2.945  1.00  0.00     0.344 HD
ATOM     23  H   UNL     1       4.851  -2.793   2.233  1.00  0.00     0.344 HD
ATOM     24  H   UNL     1       3.558  -3.268   1.297  1.00  0.00     0.344 HD
ENDBRANCH  19  21
ENDBRANCH  18  19
ENDBRANCH  17  18
ENDBRANCH  16  17
ENDBRANCH  14  16
ENDBRANCH  11  14
ENDBRANCH   6  10
ENDBRANCH   1   5
BRANCH   3  25
ATOM     25  C   UNL     1      -4.731  -2.994   2.139  1.00  0.00     0.117 C 
BRANCH  25  26
ATOM     26  C   UNL     1      -5.067  -3.367   0.706  1.00  0.00     0.042 C 
BRANCH  26  27
ATOM     27  C   UNL     1      -6.255  -4.302   0.616  1.00  0.00     0.118 C 
BRANCH  27  28
ATOM     28  N   UNL     1      -7.476  -3.661   1.087  1.00  0.00    -0.352 N 
ATOM     29  C   UNL     1      -8.603  -3.321   0.379  1.00  0.00     0.251 C 
ATOM     30  H   UNL     1      -7.496  -3.441   2.046  1.00  0.00     0.163 HD
ATOM     31  O   UNL     1      -9.423  -2.553   0.862  1.00  0.00    -0.269 OA
BRANCH  29  32
ATOM     32  C   UNL     1      -8.799  -3.890  -0.969  1.00  0.00     0.039 A 
ATOM     33  C   UNL     1      -9.263  -3.071  -1.999  1.00  0.00     0.014 A 
ATOM     34  C   UNL     1      -8.497  -5.232  -1.212  1.00  0.00     0.014 A 
ATOM     35  C   UNL     1      -9.364  -3.588  -3.291  1.00  0.00     0.010 A 
ATOM     36  C   UNL     1      -8.491  -5.710  -2.513  1.00  0.00     0.010 A 
ATOM     37  C   UNL     1      -8.943  -4.900  -3.564  1.00  0.00    -0.014 A 
BRANCH  37  38
ATOM     38  C   UNL     1      -8.970  -5.460  -4.936  1.00  0.00     0.031 A 
ATOM     39  C   UNL     1      -9.788  -6.689  -5.228  1.00  0.00     0.074 A 
ATOM     40  C   UNL     1      -8.174  -4.930  -5.886  1.00  0.00     0.049 A 
ATOM     41  N   UNL     1      -9.866  -7.383  -6.332  1.00  0.00    -0.248 NA
ATOM     42  C   UNL     1     -10.595  -7.232  -4.122  1.00  0.00     0.031 C 
ATOM     43  C   UNL     1      -7.267  -3.795  -5.697  1.00  0.00     0.029 A 
ATOM     44  N   UNL     1      -7.972  -5.301  -7.191  1.00  0.00    -0.354 N 
ATOM     45  C   UNL     1     -10.687  -8.466  -6.041  1.00  0.00     0.074 A 
ATOM     46  C   UNL     1     -11.053  -8.358  -4.647  1.00  0.00     0.031 C 
ATOM     47  C   UNL     1      -6.609  -3.561  -6.843  1.00  0.00     0.029 A 
ATOM     48  C   UNL     1      -7.016  -4.550  -7.835  1.00  0.00     0.049 A 
ATOM     49  H   UNL     1      -8.465  -6.034  -7.626  1.00  0.00     0.167 HD
ATOM     50  C   UNL     1     -11.120  -9.447  -6.867  1.00  0.00     0.034 A 
ATOM     51  C   UNL     1      -6.512  -4.657  -9.080  1.00  0.00     0.034 A 
ATOM     52  C   UNL     1     -10.789  -9.520  -8.263  1.00  0.00     0.049 A 
ATOM     53  C   UNL     1      -7.049  -5.724  -9.993  1.00  0.00     0.074 A 
ATOM     54  C   UNL     1     -11.259 -10.409  -9.212  1.00  0.00     0.029 A 
ATOM     55  N   UNL     1      -9.895  -8.680  -8.908  1.00  0.00    -0.354 N 
ATOM     56  N   UNL     1      -7.953  -6.641  -9.748  1.00  0.00    -0.248 NA
ATOM     57  C   UNL     1      -6.526  -5.749 -11.366  1.00  0.00     0.031 C 
ATOM     58  C   UNL     1     -10.620 -10.130 -10.424  1.00  0.00     0.029 A 
ATOM     59  C   UNL     1      -9.785  -9.039 -10.240  1.00  0.00     0.049 A 
ATOM     60  H   UNL     1      -9.409  -7.937  -8.482  1.00  0.00     0.167 HD
ATOM     61  C   UNL     1      -8.134  -7.328 -10.943  1.00  0.00     0.074 A 
ATOM     62  C   UNL     1      -7.258  -6.708 -11.916  1.00  0.00     0.031 C 
ATOM     63  C   UNL     1      -8.945  -8.382 -11.208  1.00  0.00     0.034 A 
BRANCH  50  64
ATOM     64  C   UNL     1     -12.031 -10.499  -6.290  1.00  0.00     0.023 A 
ATOM     65  C   UNL     1     -13.346 -10.158  -5.909  1.00  0.00     0.012 A 
ATOM     66  C   UNL     1     -11.603 -11.835  -6.171  1.00  0.00     0.148 A 
ATOM     67  C   UNL     1     -14.206 -11.121  -5.382  1.00  0.00     0.002 A 
ATOM     68  C   UNL     1     -12.483 -12.800  -5.694  1.00  0.00     0.091 A 
ATOM     69  F   UNL     1     -10.343 -12.137  -6.516  1.00  0.00    -0.205 F 
ATOM     70  C   UNL     1     -13.778 -12.442  -5.285  1.00  0.00     0.022 A 
BRANCH  68  71
ATOM     71  S   UNL     1     -12.057 -14.542  -5.611  1.00  0.00     0.127 S 
ATOM     72  O   UNL     1     -11.964 -14.755  -4.167  1.00  0.00    -0.237 OA
ATOM     73  O   UNL     1     -13.216 -15.171  -6.246  1.00  0.00    -0.237 OA
ATOM     74  O   UNL     1     -10.808 -14.687  -6.345  1.00  0.00    -0.744 OA
ENDBRANCH  68  71
ENDBRANCH  50  64
BRANCH  51  75
ATOM     75  C   UNL     1      -5.477  -3.693  -9.546  1.00  0.00     0.023 A 
ATOM     76  C   UNL     1      -5.814  -2.726 -10.514  1.00  0.00     0.012 A 
ATOM     77  C   UNL     1      -4.173  -3.708  -9.014  1.00  0.00     0.148 A 
ATOM     78  C   UNL     1      -4.862  -1.812 -10.966  1.00  0.00     0.002 A 
ATOM     79  C   UNL     1      -3.245  -2.761  -9.429  1.00  0.00     0.091 A 
ATOM     80  F   UNL     1      -3.873  -4.641  -8.099  1.00  0.00    -0.205 F 
ATOM     81  C   UNL     1      -3.582  -1.823 -10.418  1.00  0.00     0.022 A 
BRANCH  79  82
ATOM     82  S   UNL     1      -1.613  -2.622  -8.692  1.00  0.00     0.127 S 
ATOM     83  O   UNL     1      -0.752  -3.051  -9.792  1.00  0.00    -0.237 OA
ATOM     84  O   UNL     1      -1.546  -1.195  -8.379  1.00  0.00    -0.237 OA
ATOM     85  O   UNL     1      -1.631  -3.496  -7.527  1.00  0.00    -0.744 OA
ENDBRANCH  79  82
ENDBRANCH  51  75
BRANCH  63  86
ATOM     86  C   UNL     1      -8.968  -8.911 -12.618  1.00  0.00     0.023 A 
ATOM     87  C   UNL     1      -7.867  -9.631 -13.121  1.00  0.00     0.012 A 
ATOM     88  C   UNL     1     -10.122  -8.763 -13.414  1.00  0.00     0.148 A 
ATOM     89  C   UNL     1      -7.901 -10.167 -14.408  1.00  0.00     0.002 A 
ATOM     90  C   UNL     1     -10.169  -9.347 -14.673  1.00  0.00     0.091 A 
ATOM     91  F   UNL     1     -11.152  -8.060 -12.922  1.00  0.00    -0.205 F 
ATOM     92  C   UNL     1      -9.055 -10.037 -15.177  1.00  0.00     0.022 A 
BRANCH  90  93
ATOM     93  S   UNL     1     -11.648  -9.319 -15.692  1.00  0.00     0.127 S 
ATOM     94  O   UNL     1     -11.251  -8.411 -16.767  1.00  0.00    -0.237 OA
ATOM     95  O   UNL     1     -11.774 -10.721 -16.092  1.00  0.00    -0.237 OA
ATOM     96  O   UNL     1     -12.721  -8.836 -14.833  1.00  0.00    -0.744 OA
ENDBRANCH  90  93
ENDBRANCH  63  86
ENDBRANCH  37  38
ENDBRANCH  29  32
ENDBRANCH  27  28
ENDBRANCH  26  27
ENDBRANCH  25  26
ENDBRANCH   3  25
TORSDOF 20
