REMARK SMILES COc1cccc(-c2c(C(=O)NCCCNC(=O)c3ccc(-c4c5nc(c(-c6cccc(S(=O)(=O)[O-])c6F)c6ccc([nH]6)c(-c6cccc(S(=O)(=O)[O-])c6F)c6nc(c(-c7cccc(S(=O)(=O)[O-])c7F)c7ccc4[nH]7)C=C6)C=C5)cc3)nnn2Cc2ccc(OC(F)(F)F)cc2)c1
REMARK SMILES IDX 13 1 12 2 10 3 11 4 9 6 8 7 84 8 82 9 83 10 7 11 3 12 4 13
REMARK SMILES IDX 97 14 5 15 6 16 2 17 1 18 85 19 86 20 87 21 96 22 88 23
REMARK SMILES IDX 95 24 89 25 90 26 91 27 92 28 93 29 94 30 14 31 15 32 16 33
REMARK SMILES IDX 17 34 18 36 19 37 20 38 81 39 21 40 80 41 22 42 23 43 24 44
REMARK SMILES IDX 74 45 25 46 79 47 73 48 75 49 26 50 78 51 72 52 71 53 27 55
REMARK SMILES IDX 59 56 39 57 58 58 40 59 43 60 57 61 76 62 41 63 42 64 56 66
REMARK SMILES IDX 77 67 44 68 28 69 29 70 37 71 30 72 32 73 38 74 31 75 33 76
REMARK SMILES IDX 34 77 35 78 36 79 60 80 61 81 69 82 62 83 64 84 70 85 63 86
REMARK SMILES IDX 65 87 66 88 67 89 68 90 45 91 46 92 54 93 47 94 49 95 55 96
REMARK SMILES IDX 48 97 50 98 51 99 52 100 53 101
REMARK H PARENT 12 5 16 35 75 54 43 65
REMARK Flexibility Score: inf
ROOT
ATOM      1  C   UNL     1       1.729   2.525  -5.358  1.00  0.00     0.118 C 
ENDROOT
BRANCH   1   2
ATOM      2  N   UNL     1       3.045   3.087  -5.489  1.00  0.00    -0.351 N 
ATOM      3  C   UNL     1       4.298   2.539  -5.471  1.00  0.00     0.274 C 
ATOM      4  O   UNL     1       5.159   3.248  -6.001  1.00  0.00    -0.267 OA
ATOM      5  H   UNL     1       3.044   4.063  -5.619  1.00  0.00     0.163 HD
BRANCH   3   6
ATOM      6  C   UNL     1       4.681   1.249  -4.881  1.00  0.00     0.178 A 
ATOM      7  C   UNL     1       4.059   0.132  -4.304  1.00  0.00     0.102 A 
ATOM      8  N   UNL     1       5.130  -0.670  -3.950  1.00  0.00    -0.239 N 
ATOM      9  N   UNL     1       6.055   1.042  -4.814  1.00  0.00    -0.124 NA
ATOM     10  N   UNL     1       6.306  -0.090  -4.203  1.00  0.00    -0.066 NA
BRANCH   7  11
ATOM     11  C   UNL     1       2.695  -0.301  -4.019  1.00  0.00     0.006 A 
ATOM     12  C   UNL     1       0.927  -0.714  -2.390  1.00  0.00     0.119 A 
ATOM     13  C   UNL     1       0.079  -1.108  -3.428  1.00  0.00     0.046 A 
ATOM     14  C   UNL     1       2.232  -0.308  -2.688  1.00  0.00     0.056 A 
ATOM     15  C   UNL     1       0.536  -1.133  -4.747  1.00  0.00     0.005 A 
ATOM     16  C   UNL     1       1.854  -0.771  -5.035  1.00  0.00     0.011 A 
BRANCH  12  17
ATOM     17  O   UNL     1       0.375  -0.770  -1.141  1.00  0.00    -0.497 OA
ATOM     18  C   UNL     1       0.956   0.071  -0.148  1.00  0.00     0.278 C 
ENDBRANCH  12  17
ENDBRANCH   7  11
BRANCH   8  19
ATOM     19  C   UNL     1       5.140  -1.994  -3.349  1.00  0.00     0.182 C 
BRANCH  19  20
ATOM     20  C   UNL     1       5.514  -3.050  -4.360  1.00  0.00    -0.026 A 
ATOM     21  C   UNL     1       4.559  -3.936  -4.867  1.00  0.00     0.009 A 
ATOM     22  C   UNL     1       6.832  -3.135  -4.833  1.00  0.00     0.009 A 
ATOM     23  C   UNL     1       4.924  -4.888  -5.822  1.00  0.00     0.047 A 
ATOM     24  C   UNL     1       7.190  -4.075  -5.800  1.00  0.00     0.047 A 
ATOM     25  C   UNL     1       6.238  -4.961  -6.299  1.00  0.00     0.129 A 
BRANCH  25  26
ATOM     26  O   UNL     1       6.453  -5.930  -7.236  1.00  0.00    -0.406 OA
BRANCH  26  27
ATOM     27  C   UNL     1       7.738  -5.983  -7.834  1.00  0.00     0.573 C 
ATOM     28  F   UNL     1       8.032  -4.833  -8.475  1.00  0.00    -0.132 F 
ATOM     29  F   UNL     1       8.694  -6.252  -6.919  1.00  0.00    -0.132 F 
ATOM     30  F   UNL     1       7.747  -6.983  -8.745  1.00  0.00    -0.132 F 
ENDBRANCH  26  27
ENDBRANCH  25  26
ENDBRANCH  19  20
ENDBRANCH   8  19
ENDBRANCH   3   6
ENDBRANCH   1   2
BRANCH   1  31
ATOM     31  C   UNL     1       1.180   2.579  -3.936  1.00  0.00     0.042 C 
BRANCH  31  32
ATOM     32  C   UNL     1      -0.036   3.471  -3.824  1.00  0.00     0.118 C 
BRANCH  32  33
ATOM     33  N   UNL     1      -1.191   2.940  -4.587  1.00  0.00    -0.352 N 
ATOM     34  C   UNL     1      -2.377   3.574  -4.927  1.00  0.00     0.251 C 
ATOM     35  H   UNL     1      -1.104   2.009  -4.895  1.00  0.00     0.163 HD
ATOM     36  O   UNL     1      -3.363   2.942  -5.299  1.00  0.00    -0.269 OA
BRANCH  34  37
ATOM     37  C   UNL     1      -2.406   5.040  -4.844  1.00  0.00     0.039 A 
ATOM     38  C   UNL     1      -3.420   5.772  -4.218  1.00  0.00     0.014 A 
ATOM     39  C   UNL     1      -1.236   5.647  -5.252  1.00  0.00     0.014 A 
ATOM     40  C   UNL     1      -3.169   7.110  -3.910  1.00  0.00     0.010 A 
ATOM     41  C   UNL     1      -0.877   6.777  -4.596  1.00  0.00     0.010 A 
ATOM     42  C   UNL     1      -1.868   7.596  -4.084  1.00  0.00    -0.014 A 
BRANCH  42  43
ATOM     43  C   UNL     1      -1.420   8.928  -3.704  1.00  0.00     0.031 A 
ATOM     44  C   UNL     1      -1.644   9.281  -2.280  1.00  0.00     0.074 A 
ATOM     45  C   UNL     1      -0.582   9.624  -4.513  1.00  0.00     0.049 A 
ATOM     46  N   UNL     1      -2.443  10.177  -1.806  1.00  0.00    -0.248 NA
ATOM     47  C   UNL     1      -1.020   8.435  -1.248  1.00  0.00     0.031 C 
ATOM     48  C   UNL     1       0.005   9.206  -5.804  1.00  0.00     0.029 A 
ATOM     49  N   UNL     1       0.083  10.780  -4.264  1.00  0.00    -0.354 N 
ATOM     50  C   UNL     1      -2.214  10.185  -0.431  1.00  0.00     0.074 A 
ATOM     51  C   UNL     1      -1.543   8.949  -0.133  1.00  0.00     0.031 C 
ATOM     52  C   UNL     1       1.119   9.925  -6.054  1.00  0.00     0.029 A 
ATOM     53  C   UNL     1       1.196  10.987  -5.077  1.00  0.00     0.049 A 
ATOM     54  H   UNL     1      -0.197  11.418  -3.569  1.00  0.00     0.167 HD
ATOM     55  C   UNL     1      -2.322  11.334   0.295  1.00  0.00     0.034 A 
ATOM     56  C   UNL     1       2.138  11.948  -4.931  1.00  0.00     0.034 A 
ATOM     57  C   UNL     1      -2.980  12.370  -0.466  1.00  0.00     0.049 A 
ATOM     58  C   UNL     1       1.538  13.002  -4.085  1.00  0.00     0.074 A 
ATOM     59  C   UNL     1      -4.202  12.498  -1.097  1.00  0.00     0.029 A 
ATOM     60  N   UNL     1      -2.173  13.340  -1.011  1.00  0.00    -0.354 N 
ATOM     61  N   UNL     1       0.504  13.711  -4.450  1.00  0.00    -0.248 NA
ATOM     62  C   UNL     1       1.788  12.945  -2.656  1.00  0.00     0.031 C 
ATOM     63  C   UNL     1      -3.914  13.195  -2.309  1.00  0.00     0.029 A 
ATOM     64  C   UNL     1      -2.554  13.517  -2.314  1.00  0.00     0.049 A 
ATOM     65  H   UNL     1      -1.449  13.821  -0.547  1.00  0.00     0.167 HD
ATOM     66  C   UNL     1      -0.278  13.792  -3.305  1.00  0.00     0.074 A 
ATOM     67  C   UNL     1       0.616  13.408  -2.211  1.00  0.00     0.031 C 
ATOM     68  C   UNL     1      -1.641  13.865  -3.384  1.00  0.00     0.034 A 
BRANCH  55  69
ATOM     69  C   UNL     1      -1.504  11.677   1.524  1.00  0.00     0.023 A 
ATOM     70  C   UNL     1      -1.857  12.858   2.218  1.00  0.00     0.012 A 
ATOM     71  C   UNL     1      -0.269  11.082   1.872  1.00  0.00     0.148 A 
ATOM     72  C   UNL     1      -0.999  13.450   3.151  1.00  0.00     0.002 A 
ATOM     73  C   UNL     1       0.544  11.631   2.858  1.00  0.00     0.091 A 
ATOM     74  F   UNL     1       0.210  10.057   1.165  1.00  0.00    -0.205 F 
ATOM     75  C   UNL     1       0.202  12.834   3.476  1.00  0.00     0.022 A 
BRANCH  73  76
ATOM     76  S   UNL     1       2.085  10.844   3.346  1.00  0.00     0.127 S 
ATOM     77  O   UNL     1       3.068  11.694   2.683  1.00  0.00    -0.237 OA
ATOM     78  O   UNL     1       2.037  10.967   4.803  1.00  0.00    -0.237 OA
ATOM     79  O   UNL     1       1.987   9.471   2.864  1.00  0.00    -0.744 OA
ENDBRANCH  73  76
ENDBRANCH  55  69
BRANCH  56  80
ATOM     80  C   UNL     1       3.585  11.893  -5.234  1.00  0.00     0.023 A 
ATOM     81  C   UNL     1       4.308  13.084  -5.435  1.00  0.00     0.012 A 
ATOM     82  C   UNL     1       4.311  10.694  -5.050  1.00  0.00     0.148 A 
ATOM     83  C   UNL     1       5.709  13.087  -5.422  1.00  0.00     0.002 A 
ATOM     84  C   UNL     1       5.702  10.702  -5.041  1.00  0.00     0.091 A 
ATOM     85  F   UNL     1       3.633   9.566  -4.795  1.00  0.00    -0.205 F 
ATOM     86  C   UNL     1       6.405  11.900  -5.215  1.00  0.00     0.022 A 
BRANCH  84  87
ATOM     87  S   UNL     1       6.668   9.214  -4.748  1.00  0.00     0.127 S 
ATOM     88  O   UNL     1       7.616   9.250  -5.861  1.00  0.00    -0.237 OA
ATOM     89  O   UNL     1       7.250   9.488  -3.437  1.00  0.00    -0.237 OA
ATOM     90  O   UNL     1       5.715   8.113  -4.799  1.00  0.00    -0.744 OA
ENDBRANCH  84  87
ENDBRANCH  56  80
BRANCH  68  91
ATOM     91  C   UNL     1      -2.265  14.072  -4.746  1.00  0.00     0.023 A 
ATOM     92  C   UNL     1      -2.183  13.103  -5.770  1.00  0.00     0.012 A 
ATOM     93  C   UNL     1      -3.113  15.175  -4.932  1.00  0.00     0.148 A 
ATOM     94  C   UNL     1      -2.914  13.238  -6.955  1.00  0.00     0.002 A 
ATOM     95  C   UNL     1      -3.871  15.286  -6.092  1.00  0.00     0.091 A 
ATOM     96  F   UNL     1      -3.191  16.083  -3.947  1.00  0.00    -0.205 F 
ATOM     97  C   UNL     1      -3.769  14.325  -7.110  1.00  0.00     0.022 A 
BRANCH  95  98
ATOM     98  S   UNL     1      -5.085  16.590  -6.301  1.00  0.00     0.127 S 
ATOM     99  O   UNL     1      -4.447  17.443  -7.301  1.00  0.00    -0.237 OA
ATOM    100  O   UNL     1      -6.256  15.854  -6.782  1.00  0.00    -0.237 OA
ATOM    101  O   UNL     1      -5.261  17.191  -4.985  1.00  0.00    -0.744 OA
ENDBRANCH  95  98
ENDBRANCH  68  91
ENDBRANCH  42  43
ENDBRANCH  34  37
ENDBRANCH  32  33
ENDBRANCH  31  32
ENDBRANCH   1  31
TORSDOF 19
