REMARK SMILES O=C(NCCCNC(=O)c1cc2c(c(S(=O)(=O)Nc3cc(C(F)(F)F)ccc3-n3cccn3)c1)CCC2)c1ccc(-c2c3nc(c(-c4cccc(S(=O)(=O)[O-])c4F)c4ccc([nH]4)c(-c4cccc(S(=O)(=O)[O-])c4F)c4nc(c(-c5cccc(S(=O)(=O)[O-])c5F)c5ccc2[nH]5)C=C4)C=C3)cc1
REMARK SMILES IDX 5 1 4 2 3 3 1 4 2 5 38 7 39 8 100 9 40 10 99 11 41 12 42 13
REMARK SMILES IDX 43 14 93 15 44 16 98 17 92 18 94 19 45 20 97 21 91 22 90 23
REMARK SMILES IDX 46 25 78 26 58 27 77 28 59 29 62 30 76 31 95 32 60 33 61 34
REMARK SMILES IDX 75 36 96 37 63 38 47 39 48 40 56 41 49 42 51 43 57 44 50 45
REMARK SMILES IDX 52 46 53 47 54 48 55 49 79 50 80 51 88 52 81 53 83 54 89 55
REMARK SMILES IDX 82 56 84 57 85 58 86 59 87 60 64 61 65 62 73 63 66 64 68 65
REMARK SMILES IDX 74 66 67 67 69 68 70 69 71 70 72 71 6 72 7 73 8 74 9 76
REMARK SMILES IDX 10 77 11 78 34 79 12 80 14 81 13 82 37 83 35 84 36 85 15 86
REMARK SMILES IDX 16 87 17 88 18 89 19 91 20 92 28 93 21 94 27 95 26 96 29 97
REMARK SMILES IDX 30 98 33 99 31 100 32 101 22 102 23 103 24 104 25 105
REMARK H PARENT 3 6 94 24 62 35 7 75 18 90
REMARK Flexibility Score: inf
ROOT
ATOM      1  C   UNL     1       5.095  -0.567   2.030  1.00  0.00     0.042 C 
ENDROOT
BRANCH   1   2
ATOM      2  C   UNL     1       4.808  -0.996   0.596  1.00  0.00     0.118 C 
BRANCH   2   3
ATOM      3  N   UNL     1       3.406  -1.203   0.285  1.00  0.00    -0.352 N 
ATOM      4  O   UNL     1       1.291  -0.969  -0.283  1.00  0.00    -0.269 OA
ATOM      5  C   UNL     1       2.332  -0.391   0.039  1.00  0.00     0.251 C 
ATOM      6  H   UNL     1       3.171  -2.158   0.240  1.00  0.00     0.163 HD
BRANCH   5   7
ATOM      7  C   UNL     1       2.319   1.092   0.179  1.00  0.00     0.039 A 
ATOM      8  C   UNL     1       3.446   1.911   0.250  1.00  0.00     0.014 A 
ATOM      9  C   UNL     1       1.048   1.698   0.223  1.00  0.00     0.014 A 
ATOM     10  C   UNL     1       3.312   3.290   0.425  1.00  0.00     0.010 A 
ATOM     11  C   UNL     1       0.907   3.075   0.376  1.00  0.00     0.010 A 
ATOM     12  C   UNL     1       2.043   3.871   0.498  1.00  0.00    -0.014 A 
BRANCH  12  13
ATOM     13  C   UNL     1       1.950   5.330   0.572  1.00  0.00     0.031 A 
ATOM     14  C   UNL     1       2.363   6.081  -0.652  1.00  0.00     0.074 A 
ATOM     15  C   UNL     1       1.355   5.990   1.585  1.00  0.00     0.049 A 
ATOM     16  N   UNL     1       3.269   6.999  -0.764  1.00  0.00    -0.248 NA
ATOM     17  C   UNL     1       1.710   5.725  -1.920  1.00  0.00     0.031 C 
ATOM     18  C   UNL     1       0.579   5.413   2.685  1.00  0.00     0.029 A 
ATOM     19  N   UNL     1       1.187   7.337   1.751  1.00  0.00    -0.354 N 
ATOM     20  C   UNL     1       3.176   7.471  -2.076  1.00  0.00     0.074 A 
ATOM     21  C   UNL     1       2.292   6.571  -2.771  1.00  0.00     0.031 C 
ATOM     22  C   UNL     1      -0.177   6.384   3.243  1.00  0.00     0.029 A 
ATOM     23  C   UNL     1       0.157   7.657   2.627  1.00  0.00     0.049 A 
ATOM     24  H   UNL     1       1.740   8.012   1.296  1.00  0.00     0.167 HD
ATOM     25  C   UNL     1       3.684   8.674  -2.463  1.00  0.00     0.034 A 
ATOM     26  C   UNL     1      -0.443   8.863   2.771  1.00  0.00     0.034 A 
ATOM     27  C   UNL     1       4.590   9.224  -1.495  1.00  0.00     0.049 A 
ATOM     28  C   UNL     1       0.450   9.896   2.204  1.00  0.00     0.074 A 
ATOM     29  C   UNL     1       5.783   8.838  -0.921  1.00  0.00     0.029 A 
ATOM     30  N   UNL     1       4.139  10.285  -0.750  1.00  0.00    -0.354 N 
ATOM     31  N   UNL     1       1.584  10.257   2.734  1.00  0.00    -0.248 NA
ATOM     32  C   UNL     1       0.234  10.328   0.833  1.00  0.00     0.031 C 
ATOM     33  C   UNL     1       5.752   9.381   0.396  1.00  0.00     0.029 A 
ATOM     34  C   UNL     1       4.546  10.071   0.537  1.00  0.00     0.049 A 
ATOM     35  H   UNL     1       3.620  11.054  -1.081  1.00  0.00     0.167 HD
ATOM     36  C   UNL     1       2.389  10.575   1.650  1.00  0.00     0.074 A 
ATOM     37  C   UNL     1       1.468  10.739   0.531  1.00  0.00     0.031 C 
ATOM     38  C   UNL     1       3.741  10.385   1.697  1.00  0.00     0.034 A 
BRANCH  25  39
ATOM     39  C   UNL     1       3.149   9.533  -3.586  1.00  0.00     0.023 A 
ATOM     40  C   UNL     1       3.945  10.623  -4.012  1.00  0.00     0.012 A 
ATOM     41  C   UNL     1       1.813   9.499  -4.042  1.00  0.00     0.148 A 
ATOM     42  C   UNL     1       3.425  11.649  -4.809  1.00  0.00     0.002 A 
ATOM     43  C   UNL     1       1.326  10.479  -4.902  1.00  0.00     0.091 A 
ATOM     44  F   UNL     1       0.962   8.596  -3.543  1.00  0.00    -0.205 F 
ATOM     45  C   UNL     1       2.116  11.572  -5.263  1.00  0.00     0.022 A 
BRANCH  43  46
ATOM     46  S   UNL     1      -0.338  10.386  -5.572  1.00  0.00     0.127 S 
ATOM     47  O   UNL     1      -1.058  11.308  -4.700  1.00  0.00    -0.237 OA
ATOM     48  O   UNL     1      -0.141  10.857  -6.944  1.00  0.00    -0.237 OA
ATOM     49  O   UNL     1      -0.705   8.979  -5.475  1.00  0.00    -0.744 OA
ENDBRANCH  43  46
ENDBRANCH  25  39
BRANCH  26  50
ATOM     50  C   UNL     1      -1.830   9.177   3.183  1.00  0.00     0.023 A 
ATOM     51  C   UNL     1      -2.129  10.446   3.716  1.00  0.00     0.012 A 
ATOM     52  C   UNL     1      -2.905   8.333   2.826  1.00  0.00     0.148 A 
ATOM     53  C   UNL     1      -3.455  10.868   3.869  1.00  0.00     0.002 A 
ATOM     54  C   UNL     1      -4.221   8.751   2.995  1.00  0.00     0.091 A 
ATOM     55  F   UNL     1      -2.638   7.160   2.235  1.00  0.00    -0.205 F 
ATOM     56  C   UNL     1      -4.500  10.023   3.506  1.00  0.00     0.022 A 
BRANCH  54  57
ATOM     57  S   UNL     1      -5.615   7.709   2.544  1.00  0.00     0.127 S 
ATOM     58  O   UNL     1      -6.507   7.877   3.693  1.00  0.00    -0.237 OA
ATOM     59  O   UNL     1      -6.079   8.340   1.312  1.00  0.00    -0.237 OA
ATOM     60  O   UNL     1      -5.072   6.363   2.405  1.00  0.00    -0.744 OA
ENDBRANCH  54  57
ENDBRANCH  26  50
BRANCH  38  61
ATOM     61  C   UNL     1       4.388  10.141   3.036  1.00  0.00     0.023 A 
ATOM     62  C   UNL     1       4.044   9.031   3.835  1.00  0.00     0.012 A 
ATOM     63  C   UNL     1       5.489  10.932   3.409  1.00  0.00     0.148 A 
ATOM     64  C   UNL     1       4.760   8.735   4.996  1.00  0.00     0.002 A 
ATOM     65  C   UNL     1       6.231  10.604   4.538  1.00  0.00     0.091 A 
ATOM     66  F   UNL     1       5.812  11.980   2.636  1.00  0.00    -0.205 F 
ATOM     67  C   UNL     1       5.862   9.512   5.340  1.00  0.00     0.022 A 
BRANCH  65  68
ATOM     68  S   UNL     1       7.744  11.477   4.952  1.00  0.00     0.127 S 
ATOM     69  O   UNL     1       7.302  12.364   6.025  1.00  0.00    -0.237 OA
ATOM     70  O   UNL     1       8.629  10.392   5.381  1.00  0.00    -0.237 OA
ATOM     71  O   UNL     1       8.170  12.135   3.723  1.00  0.00    -0.744 OA
ENDBRANCH  65  68
ENDBRANCH  38  61
ENDBRANCH  12  13
ENDBRANCH   5   7
ENDBRANCH   2   3
ENDBRANCH   1   2
BRANCH   1  72
ATOM     72  C   UNL     1       4.567  -1.516   3.104  1.00  0.00     0.118 C 
BRANCH  72  73
ATOM     73  N   UNL     1       5.218  -2.829   3.114  1.00  0.00    -0.352 N 
ATOM     74  C   UNL     1       5.999  -3.441   4.077  1.00  0.00     0.251 C 
ATOM     75  H   UNL     1       5.077  -3.364   2.300  1.00  0.00     0.163 HD
ATOM     76  O   UNL     1       6.520  -4.529   3.856  1.00  0.00    -0.269 OA
BRANCH  74  77
ATOM     77  C   UNL     1       6.239  -2.761   5.371  1.00  0.00     0.041 A 
ATOM     78  C   UNL     1       5.152  -2.253   6.078  1.00  0.00     0.018 A 
ATOM     79  C   UNL     1       7.563  -2.518   5.798  1.00  0.00     0.036 A 
ATOM     80  C   UNL     1       5.413  -1.281   7.020  1.00  0.00    -0.043 A 
ATOM     81  C   UNL     1       7.822  -1.579   6.819  1.00  0.00     0.092 A 
ATOM     82  C   UNL     1       6.729  -0.881   7.322  1.00  0.00    -0.024 A 
ATOM     83  C   UNL     1       4.394  -0.394   7.670  1.00  0.00     0.036 C 
ATOM     84  C   UNL     1       6.648   0.439   8.027  1.00  0.00     0.037 C 
ATOM     85  C   UNL     1       5.268   0.342   8.682  1.00  0.00     0.010 C 
BRANCH  81  86
ATOM     86  S   UNL     1       9.512  -1.133   7.165  1.00  0.00     0.262 S 
ATOM     87  O   UNL     1      10.357  -2.031   6.417  1.00  0.00    -0.201 OA
ATOM     88  O   UNL     1       9.640   0.304   6.976  1.00  0.00    -0.201 OA
BRANCH  86  89
ATOM     89  N   UNL     1       9.939  -1.446   8.794  1.00  0.00    -0.277 N 
ATOM     90  H   UNL     1      10.767  -1.944   8.985  1.00  0.00     0.180 HD
BRANCH  89  91
ATOM     91  C   UNL     1       9.123  -1.004   9.888  1.00  0.00     0.075 A 
ATOM     92  C   UNL     1       9.281   0.307  10.368  1.00  0.00     0.042 A 
ATOM     93  C   UNL     1       8.086  -1.803  10.397  1.00  0.00     0.089 A 
ATOM     94  C   UNL     1       8.380   0.847  11.310  1.00  0.00     0.058 A 
ATOM     95  C   UNL     1       7.199  -1.277  11.350  1.00  0.00     0.031 A 
ATOM     96  C   UNL     1       7.349   0.036  11.806  1.00  0.00     0.015 A 
BRANCH  93  97
ATOM     97  N   UNL     1       7.871  -3.124   9.929  1.00  0.00    -0.239 N 
ATOM     98  C   UNL     1       8.800  -4.017   9.440  1.00  0.00     0.115 A 
ATOM     99  N   UNL     1       6.615  -3.634   9.848  1.00  0.00    -0.177 NA
ATOM    100  C   UNL     1       8.100  -5.017   8.814  1.00  0.00     0.042 A 
ATOM    101  C   UNL     1       6.755  -4.708   9.066  1.00  0.00     0.135 A 
ENDBRANCH  93  97
BRANCH  94 102
ATOM    102  C   UNL     1       8.483   2.300  11.723  1.00  0.00     0.416 C 
ATOM    103  F   UNL     1       9.562   2.534  12.518  1.00  0.00    -0.166 F 
ATOM    104  F   UNL     1       8.605   3.135  10.658  1.00  0.00    -0.166 F 
ATOM    105  F   UNL     1       7.399   2.740  12.422  1.00  0.00    -0.166 F 
ENDBRANCH  94 102
ENDBRANCH  89  91
ENDBRANCH  86  89
ENDBRANCH  81  86
ENDBRANCH  74  77
ENDBRANCH  72  73
ENDBRANCH   1  72
TORSDOF 18
