REMARK SMILES Cc1cccc(Cl)c1Nc1ccccc1CC(=O)NCCCNC(=O)c1ccc(-c2c3nc(c(-c4cccc(S(=O)(=O)[O-])c4F)c4ccc([nH]4)c(-c4cccc(S(=O)(=O)[O-])c4F)c4nc(c(-c5cccc(S(=O)(=O)[O-])c5F)c5ccc2[nH]5)C=C4)C=C3)cc1
REMARK SMILES IDX 21 1 20 2 19 3 17 4 18 5 16 7 15 8 10 9 11 10 12 11 14 12
REMARK SMILES IDX 13 13 9 14 8 16 1 17 2 18 3 19 4 20 6 21 5 22 7 23 22 24
REMARK SMILES IDX 23 25 24 26 25 28 26 29 27 30 88 31 28 32 87 33 29 34 30 35
REMARK SMILES IDX 31 36 81 37 32 38 86 39 80 40 82 41 33 42 85 43 79 44 78 45
REMARK SMILES IDX 34 47 66 48 46 49 65 50 47 51 50 52 64 53 83 54 48 55 49 56
REMARK SMILES IDX 63 58 84 59 51 60 35 61 36 62 44 63 37 64 39 65 45 66 38 67
REMARK SMILES IDX 40 68 41 69 42 70 43 71 67 72 68 73 76 74 69 75 71 76 77 77
REMARK SMILES IDX 70 78 72 79 73 80 74 81 75 82 52 83 53 84 61 85 54 86 56 87
REMARK SMILES IDX 62 88 55 89 57 90 58 91 59 92 60 93
REMARK H PARENT 19 6 9 15 23 27 82 46 50 57
REMARK Flexibility Score: inf
ROOT
ATOM      1  C   UNL     1       0.466   5.028  -2.249  1.00  0.00     0.042 C 
ENDROOT
BRANCH   1   2
ATOM      2  C   UNL     1      -0.015   3.688  -2.794  1.00  0.00     0.117 C 
BRANCH   2   3
ATOM      3  N   UNL     1       0.949   3.085  -3.694  1.00  0.00    -0.356 N 
ATOM      4  C   UNL     1       1.855   2.098  -3.425  1.00  0.00     0.224 C 
ATOM      5  O   UNL     1       2.636   1.760  -4.317  1.00  0.00    -0.275 OA
ATOM      6  H   UNL     1       0.951   3.431  -4.615  1.00  0.00     0.163 HD
BRANCH   4   7
ATOM      7  C   UNL     1       1.838   1.403  -2.074  1.00  0.00     0.137 C 
BRANCH   7   8
ATOM      8  C   UNL     1       2.334   2.257  -0.926  1.00  0.00    -0.015 A 
ATOM      9  C   UNL     1       1.558   2.547   0.219  1.00  0.00     0.042 A 
ATOM     10  C   UNL     1       2.077   3.440   1.176  1.00  0.00     0.026 A 
ATOM     11  C   UNL     1       3.342   4.009   1.033  1.00  0.00     0.002 A 
ATOM     12  C   UNL     1       3.623   2.818  -1.039  1.00  0.00     0.006 A 
ATOM     13  C   UNL     1       4.122   3.686  -0.069  1.00  0.00     0.000 A 
BRANCH   9  14
ATOM     14  N   UNL     1       0.305   1.965   0.508  1.00  0.00    -0.354 N 
ATOM     15  H   UNL     1      -0.362   2.608   0.840  1.00  0.00     0.167 HD
BRANCH  14  16
ATOM     16  C   UNL     1      -0.179   0.638   0.415  1.00  0.00     0.060 A 
ATOM     17  C   UNL     1      -2.517   1.605   0.014  1.00  0.00     0.046 C 
ATOM     18  C   UNL     1      -1.559   0.446   0.135  1.00  0.00    -0.026 A 
ATOM     19  C   UNL     1      -2.063  -0.850  -0.078  1.00  0.00     0.005 A 
ATOM     20  C   UNL     1      -1.230  -1.961  -0.009  1.00  0.00     0.002 A 
ATOM     21  C   UNL     1       0.638  -0.512   0.518  1.00  0.00     0.064 A 
ATOM     22  C   UNL     1       0.115  -1.792   0.297  1.00  0.00     0.023 A 
ATOM     23  Cl  UNL     1       2.295  -0.463   1.025  1.00  0.00    -0.082 Cl
ENDBRANCH  14  16
ENDBRANCH   9  14
ENDBRANCH   7   8
ENDBRANCH   4   7
ENDBRANCH   2   3
ENDBRANCH   1   2
BRANCH   1  24
ATOM     24  C   UNL     1       0.542   6.124  -3.305  1.00  0.00     0.118 C 
BRANCH  24  25
ATOM     25  N   UNL     1      -0.764   6.437  -3.873  1.00  0.00    -0.352 N 
ATOM     26  C   UNL     1      -1.412   7.640  -3.971  1.00  0.00     0.251 C 
ATOM     27  H   UNL     1      -1.254   5.667  -4.242  1.00  0.00     0.163 HD
ATOM     28  O   UNL     1      -2.600   7.658  -4.299  1.00  0.00    -0.269 OA
BRANCH  26  29
ATOM     29  C   UNL     1      -0.704   8.904  -3.683  1.00  0.00     0.039 A 
ATOM     30  C   UNL     1      -1.380   9.915  -2.994  1.00  0.00     0.014 A 
ATOM     31  C   UNL     1       0.609   9.110  -4.116  1.00  0.00     0.014 A 
ATOM     32  C   UNL     1      -0.724  11.113  -2.703  1.00  0.00     0.010 A 
ATOM     33  C   UNL     1       1.286  10.270  -3.753  1.00  0.00     0.010 A 
ATOM     34  C   UNL     1       0.622  11.291  -3.058  1.00  0.00    -0.014 A 
BRANCH  34  35
ATOM     35  C   UNL     1       1.351  12.542  -2.724  1.00  0.00     0.031 A 
ATOM     36  C   UNL     1       1.898  13.413  -3.824  1.00  0.00     0.074 A 
ATOM     37  C   UNL     1       1.589  12.851  -1.434  1.00  0.00     0.049 A 
ATOM     38  N   UNL     1       2.614  14.504  -3.733  1.00  0.00    -0.248 NA
ATOM     39  C   UNL     1       1.629  12.991  -5.210  1.00  0.00     0.031 C 
ATOM     40  C   UNL     1       1.174  12.049  -0.281  1.00  0.00     0.029 A 
ATOM     41  N   UNL     1       2.264  13.908  -0.876  1.00  0.00    -0.354 N 
ATOM     42  C   UNL     1       2.916  14.872  -5.039  1.00  0.00     0.074 A 
ATOM     43  C   UNL     1       2.331  13.874  -5.906  1.00  0.00     0.031 C 
ATOM     44  C   UNL     1       1.599  12.644   0.846  1.00  0.00     0.029 A 
ATOM     45  C   UNL     1       2.346  13.848   0.496  1.00  0.00     0.049 A 
ATOM     46  H   UNL     1       2.652  14.640  -1.407  1.00  0.00     0.167 HD
ATOM     47  C   UNL     1       3.595  15.958  -5.479  1.00  0.00     0.034 A 
ATOM     48  C   UNL     1       2.965  14.663   1.373  1.00  0.00     0.034 A 
ATOM     49  C   UNL     1       4.134  16.973  -4.615  1.00  0.00     0.049 A 
ATOM     50  C   UNL     1       3.680  15.882   0.854  1.00  0.00     0.074 A 
ATOM     51  C   UNL     1       4.758  18.156  -4.966  1.00  0.00     0.029 A 
ATOM     52  N   UNL     1       4.121  16.922  -3.230  1.00  0.00    -0.354 N 
ATOM     53  N   UNL     1       3.819  16.296  -0.382  1.00  0.00    -0.248 NA
ATOM     54  C   UNL     1       4.293  16.769   1.855  1.00  0.00     0.031 C 
ATOM     55  C   UNL     1       5.152  18.806  -3.792  1.00  0.00     0.029 A 
ATOM     56  C   UNL     1       4.736  18.047  -2.711  1.00  0.00     0.049 A 
ATOM     57  H   UNL     1       3.732  16.192  -2.695  1.00  0.00     0.167 HD
ATOM     58  C   UNL     1       4.493  17.509  -0.305  1.00  0.00     0.074 A 
ATOM     59  C   UNL     1       4.718  17.773   1.101  1.00  0.00     0.031 C 
ATOM     60  C   UNL     1       4.899  18.326  -1.308  1.00  0.00     0.034 A 
BRANCH  47  61
ATOM     61  C   UNL     1       3.756  16.135  -6.966  1.00  0.00     0.023 A 
ATOM     62  C   UNL     1       2.639  16.478  -7.755  1.00  0.00     0.012 A 
ATOM     63  C   UNL     1       5.025  16.040  -7.571  1.00  0.00     0.148 A 
ATOM     64  C   UNL     1       2.775  16.692  -9.126  1.00  0.00     0.002 A 
ATOM     65  C   UNL     1       5.162  16.303  -8.929  1.00  0.00     0.091 A 
ATOM     66  F   UNL     1       6.072  15.696  -6.808  1.00  0.00    -0.205 F 
ATOM     67  C   UNL     1       4.037  16.616  -9.710  1.00  0.00     0.022 A 
BRANCH  65  68
ATOM     68  S   UNL     1       6.753  16.316  -9.761  1.00  0.00     0.127 S 
ATOM     69  O   UNL     1       6.633  15.156 -10.645  1.00  0.00    -0.237 OA
ATOM     70  O   UNL     1       6.730  17.609 -10.445  1.00  0.00    -0.237 OA
ATOM     71  O   UNL     1       7.758  16.197  -8.714  1.00  0.00    -0.744 OA
ENDBRANCH  65  68
ENDBRANCH  47  61
BRANCH  48  72
ATOM     72  C   UNL     1       2.893  14.388   2.836  1.00  0.00     0.023 A 
ATOM     73  C   UNL     1       2.163  15.259   3.670  1.00  0.00     0.012 A 
ATOM     74  C   UNL     1       3.538  13.274   3.406  1.00  0.00     0.148 A 
ATOM     75  C   UNL     1       2.115  15.051   5.049  1.00  0.00     0.002 A 
ATOM     76  C   UNL     1       3.437  13.039   4.772  1.00  0.00     0.091 A 
ATOM     77  F   UNL     1       4.235  12.462   2.599  1.00  0.00    -0.205 F 
ATOM     78  C   UNL     1       2.744  13.938   5.599  1.00  0.00     0.022 A 
BRANCH  76  79
ATOM     79  S   UNL     1       4.103  11.562   5.546  1.00  0.00     0.127 S 
ATOM     80  O   UNL     1       5.234  12.101   6.297  1.00  0.00    -0.237 OA
ATOM     81  O   UNL     1       2.976  11.115   6.365  1.00  0.00    -0.237 OA
ATOM     82  O   UNL     1       4.439  10.662   4.450  1.00  0.00    -0.744 OA
ENDBRANCH  76  79
ENDBRANCH  48  72
BRANCH  60  83
ATOM     83  C   UNL     1       5.579  19.616  -0.929  1.00  0.00     0.023 A 
ATOM     84  C   UNL     1       6.886  19.600  -0.405  1.00  0.00     0.012 A 
ATOM     85  C   UNL     1       4.943  20.851  -1.168  1.00  0.00     0.148 A 
ATOM     86  C   UNL     1       7.536  20.793  -0.089  1.00  0.00     0.002 A 
ATOM     87  C   UNL     1       5.618  22.036  -0.902  1.00  0.00     0.091 A 
ATOM     88  F   UNL     1       3.693  20.844  -1.652  1.00  0.00    -0.205 F 
ATOM     89  C   UNL     1       6.909  22.009  -0.350  1.00  0.00     0.022 A 
BRANCH  87  90
ATOM     90  S   UNL     1       4.929  23.646  -1.301  1.00  0.00     0.127 S 
ATOM     91  O   UNL     1       4.630  24.179   0.027  1.00  0.00    -0.237 OA
ATOM     92  O   UNL     1       6.046  24.300  -1.983  1.00  0.00    -0.237 OA
ATOM     93  O   UNL     1       3.771  23.391  -2.146  1.00  0.00    -0.744 OA
ENDBRANCH  87  90
ENDBRANCH  60  83
ENDBRANCH  34  35
ENDBRANCH  26  29
ENDBRANCH  24  25
ENDBRANCH   1  24
TORSDOF 16
