REMARK SMILES Cc1ccccc1C(=O)Nc1ccc(OCC(=O)NCCCNC(=O)c2ccc(-c3c4nc(c(-c5cccc(S(=O)(=O)[O-])c5F)c5ccc([nH]5)c(-c5cccc(S(=O)(=O)[O-])c5F)c5nc(c(-c6cccc(S(=O)(=O)[O-])c6F)c6ccc3[nH]6)C=C5)C=C4)cc2)c(-c2nc3ccccc3s2)c1
REMARK SMILES IDX 20 1 19 2 17 3 18 4 16 6 15 7 14 8 11 9 12 10 99 11 13 12
REMARK SMILES IDX 89 13 10 14 8 15 9 16 7 18 1 19 2 20 3 21 4 22 6 23 5 24
REMARK SMILES IDX 90 25 91 26 98 27 92 28 97 29 93 30 96 31 94 32 95 33 21 34
REMARK SMILES IDX 22 35 23 36 24 37 25 39 26 40 27 41 88 42 28 43 87 44 29 45
REMARK SMILES IDX 30 46 31 47 81 48 32 49 86 50 80 51 82 52 33 53 85 54 79 55
REMARK SMILES IDX 78 56 34 58 66 59 46 60 65 61 47 62 50 63 64 64 83 65 48 66
REMARK SMILES IDX 49 67 63 69 84 70 51 71 35 72 36 73 44 74 37 75 39 76 45 77
REMARK SMILES IDX 38 78 40 79 41 80 42 81 43 82 67 83 68 84 76 85 69 86 71 87
REMARK SMILES IDX 77 88 70 89 72 90 73 91 74 92 75 93 52 94 53 95 61 96 54 97
REMARK SMILES IDX 56 98 62 99 55 100 57 101 58 102 59 103 60 104
REMARK H PARENT 19 5 10 17 23 38 82 57 50 68
REMARK Flexibility Score: inf
ROOT
ATOM      1  C   UNL     1       5.074  -4.846   1.856  1.00  0.00     0.117 C 
ENDROOT
BRANCH   1   2
ATOM      2  N   UNL     1       4.038  -4.611   0.872  1.00  0.00    -0.353 N 
ATOM      3  C   UNL     1       4.094  -3.771  -0.207  1.00  0.00     0.257 C 
ATOM      4  O   UNL     1       3.033  -3.497  -0.762  1.00  0.00    -0.271 OA
ATOM      5  H   UNL     1       3.199  -5.111   0.993  1.00  0.00     0.163 HD
BRANCH   3   6
ATOM      6  C   UNL     1       5.490  -3.264  -0.684  1.00  0.00     0.329 C 
BRANCH   6   7
ATOM      7  O   UNL     1       5.716  -2.141  -1.532  1.00  0.00    -0.483 OA
BRANCH   7   8
ATOM      8  C   UNL     1       4.936  -1.054  -1.249  1.00  0.00     0.130 A 
ATOM      9  C   UNL     1       3.392   1.151  -0.514  1.00  0.00     0.042 A 
ATOM     10  C   UNL     1       4.624   0.935   0.102  1.00  0.00     0.030 A 
ATOM     11  C   UNL     1       3.008   0.348  -1.591  1.00  0.00     0.041 A 
ATOM     12  C   UNL     1       5.375  -0.190  -0.236  1.00  0.00     0.049 A 
ATOM     13  C   UNL     1       3.794  -0.748  -2.015  1.00  0.00     0.055 A 
BRANCH   9  14
ATOM     14  N   UNL     1       2.573   2.153   0.017  1.00  0.00    -0.322 N 
ATOM     15  C   UNL     1       1.202   2.216   0.161  1.00  0.00     0.255 C 
ATOM     16  O   UNL     1       0.708   3.318   0.407  1.00  0.00    -0.269 OA
ATOM     17  H   UNL     1       3.056   2.946   0.343  1.00  0.00     0.170 HD
BRANCH  15  18
ATOM     18  C   UNL     1       0.310   1.013   0.109  1.00  0.00     0.043 A 
ATOM     19  C   UNL     1       1.814  -0.605   1.458  1.00  0.00     0.045 C 
ATOM     20  C   UNL     1       0.599  -0.261   0.646  1.00  0.00    -0.038 A 
ATOM     21  C   UNL     1      -0.337  -1.302   0.474  1.00  0.00     0.004 A 
ATOM     22  C   UNL     1      -1.588  -1.062  -0.087  1.00  0.00     0.000 A 
ATOM     23  C   UNL     1      -0.976   1.244  -0.419  1.00  0.00     0.014 A 
ATOM     24  C   UNL     1      -1.922   0.220  -0.500  1.00  0.00     0.001 A 
ENDBRANCH  15  18
ENDBRANCH   9  14
BRANCH  13  25
ATOM     25  C   UNL     1       3.301  -1.521  -3.181  1.00  0.00     0.128 A 
ATOM     26  N   UNL     1       2.291  -1.131  -3.940  1.00  0.00    -0.236 NA
ATOM     27  S   UNL     1       3.972  -3.028  -3.689  1.00  0.00    -0.114 S 
ATOM     28  C   UNL     1       1.801  -2.207  -4.658  1.00  0.00     0.082 A 
ATOM     29  C   UNL     1       2.532  -3.385  -4.533  1.00  0.00     0.055 A 
ATOM     30  C   UNL     1       0.634  -2.221  -5.442  1.00  0.00     0.030 A 
ATOM     31  C   UNL     1       2.092  -4.607  -5.060  1.00  0.00     0.021 A 
ATOM     32  C   UNL     1       0.189  -3.429  -5.991  1.00  0.00     0.002 A 
ATOM     33  C   UNL     1       0.894  -4.611  -5.775  1.00  0.00     0.002 A 
ENDBRANCH  13  25
ENDBRANCH   7   8
ENDBRANCH   6   7
ENDBRANCH   3   6
ENDBRANCH   1   2
BRANCH   1  34
ATOM     34  C   UNL     1       5.209  -3.639   2.777  1.00  0.00     0.042 C 
BRANCH  34  35
ATOM     35  C   UNL     1       4.062  -3.550   3.769  1.00  0.00     0.118 C 
BRANCH  35  36
ATOM     36  N   UNL     1       4.327  -4.309   4.976  1.00  0.00    -0.352 N 
ATOM     37  C   UNL     1       3.639  -4.339   6.170  1.00  0.00     0.251 C 
ATOM     38  H   UNL     1       5.121  -4.891   4.937  1.00  0.00     0.163 HD
ATOM     39  O   UNL     1       4.219  -4.780   7.163  1.00  0.00    -0.269 OA
BRANCH  37  40
ATOM     40  C   UNL     1       2.193  -4.023   6.200  1.00  0.00     0.039 A 
ATOM     41  C   UNL     1       1.366  -4.913   6.901  1.00  0.00     0.014 A 
ATOM     42  C   UNL     1       1.634  -3.067   5.359  1.00  0.00     0.014 A 
ATOM     43  C   UNL     1       0.019  -5.015   6.567  1.00  0.00     0.010 A 
ATOM     44  C   UNL     1       0.327  -3.219   4.962  1.00  0.00     0.010 A 
ATOM     45  C   UNL     1      -0.454  -4.238   5.518  1.00  0.00    -0.014 A 
BRANCH  45  46
ATOM     46  C   UNL     1      -1.752  -4.390   4.894  1.00  0.00     0.031 A 
ATOM     47  C   UNL     1      -2.870  -3.545   5.340  1.00  0.00     0.074 A 
ATOM     48  C   UNL     1      -1.820  -5.111   3.755  1.00  0.00     0.049 A 
ATOM     49  N   UNL     1      -4.100  -3.745   5.023  1.00  0.00    -0.248 NA
ATOM     50  C   UNL     1      -2.669  -2.401   6.218  1.00  0.00     0.031 C 
ATOM     51  C   UNL     1      -2.834  -5.025   2.714  1.00  0.00     0.029 A 
ATOM     52  N   UNL     1      -1.058  -6.232   3.407  1.00  0.00    -0.354 N 
ATOM     53  C   UNL     1      -4.809  -2.626   5.407  1.00  0.00     0.074 A 
ATOM     54  C   UNL     1      -3.891  -1.863   6.218  1.00  0.00     0.031 C 
ATOM     55  C   UNL     1      -2.821  -6.166   2.009  1.00  0.00     0.029 A 
ATOM     56  C   UNL     1      -1.926  -7.081   2.698  1.00  0.00     0.049 A 
ATOM     57  H   UNL     1      -0.110  -6.393   3.615  1.00  0.00     0.167 HD
ATOM     58  C   UNL     1      -6.040  -2.411   4.861  1.00  0.00     0.034 A 
ATOM     59  C   UNL     1      -2.252  -8.341   3.111  1.00  0.00     0.034 A 
ATOM     60  C   UNL     1      -6.417  -3.534   3.989  1.00  0.00     0.049 A 
ATOM     61  C   UNL     1      -3.743  -8.522   3.329  1.00  0.00     0.074 A 
ATOM     62  C   UNL     1      -6.324  -3.732   2.621  1.00  0.00     0.029 A 
ATOM     63  N   UNL     1      -6.691  -4.776   4.549  1.00  0.00    -0.354 N 
ATOM     64  N   UNL     1      -4.608  -7.545   3.329  1.00  0.00    -0.248 NA
ATOM     65  C   UNL     1      -4.377  -9.813   3.578  1.00  0.00     0.031 C 
ATOM     66  C   UNL     1      -6.461  -5.123   2.369  1.00  0.00     0.029 A 
ATOM     67  C   UNL     1      -6.669  -5.767   3.578  1.00  0.00     0.049 A 
ATOM     68  H   UNL     1      -6.874  -4.932   5.503  1.00  0.00     0.167 HD
ATOM     69  C   UNL     1      -5.847  -8.012   3.683  1.00  0.00     0.074 A 
ATOM     70  C   UNL     1      -5.662  -9.452   3.750  1.00  0.00     0.031 C 
ATOM     71  C   UNL     1      -6.893  -7.164   3.942  1.00  0.00     0.034 A 
BRANCH  58  72
ATOM     72  C   UNL     1      -6.777  -1.079   4.842  1.00  0.00     0.023 A 
ATOM     73  C   UNL     1      -7.764  -0.908   3.842  1.00  0.00     0.012 A 
ATOM     74  C   UNL     1      -6.548   0.041   5.673  1.00  0.00     0.148 A 
ATOM     75  C   UNL     1      -8.400   0.316   3.608  1.00  0.00     0.002 A 
ATOM     76  C   UNL     1      -7.136   1.283   5.403  1.00  0.00     0.091 A 
ATOM     77  F   UNL     1      -5.832  -0.093   6.790  1.00  0.00    -0.205 F 
ATOM     78  C   UNL     1      -8.059   1.425   4.365  1.00  0.00     0.022 A 
BRANCH  76  79
ATOM     79  S   UNL     1      -6.703   2.780   6.311  1.00  0.00     0.127 S 
ATOM     80  O   UNL     1      -6.377   3.713   5.230  1.00  0.00    -0.237 OA
ATOM     81  O   UNL     1      -7.942   3.086   7.022  1.00  0.00    -0.237 OA
ATOM     82  O   UNL     1      -5.566   2.429   7.154  1.00  0.00    -0.744 OA
ENDBRANCH  76  79
ENDBRANCH  58  72
BRANCH  59  83
ATOM     83  C   UNL     1      -1.165  -9.019   3.877  1.00  0.00     0.023 A 
ATOM     84  C   UNL     1       0.028  -9.299   3.166  1.00  0.00     0.012 A 
ATOM     85  C   UNL     1      -1.128  -8.995   5.282  1.00  0.00     0.148 A 
ATOM     86  C   UNL     1       1.250  -9.410   3.829  1.00  0.00     0.002 A 
ATOM     87  C   UNL     1       0.099  -9.104   5.937  1.00  0.00     0.091 A 
ATOM     88  F   UNL     1      -2.268  -8.777   5.949  1.00  0.00    -0.205 F 
ATOM     89  C   UNL     1       1.290  -9.274   5.211  1.00  0.00     0.022 A 
BRANCH  87  90
ATOM     90  S   UNL     1       0.251  -8.877   7.715  1.00  0.00     0.127 S 
ATOM     91  O   UNL     1       0.295 -10.259   8.182  1.00  0.00    -0.237 OA
ATOM     92  O   UNL     1       1.514  -8.150   7.829  1.00  0.00    -0.237 OA
ATOM     93  O   UNL     1      -0.920  -8.102   8.096  1.00  0.00    -0.744 OA
ENDBRANCH  87  90
ENDBRANCH  59  83
BRANCH  71  94
ATOM     94  C   UNL     1      -8.222  -7.551   4.575  1.00  0.00     0.023 A 
ATOM     95  C   UNL     1      -8.397  -8.745   5.300  1.00  0.00     0.012 A 
ATOM     96  C   UNL     1      -9.315  -6.641   4.590  1.00  0.00     0.148 A 
ATOM     97  C   UNL     1      -9.597  -9.050   5.956  1.00  0.00     0.002 A 
ATOM     98  C   UNL     1     -10.458  -6.895   5.344  1.00  0.00     0.091 A 
ATOM     99  F   UNL     1      -9.267  -5.522   3.854  1.00  0.00    -0.205 F 
ATOM    100  C   UNL     1     -10.618  -8.114   6.002  1.00  0.00     0.022 A 
BRANCH  98 101
ATOM    101  S   UNL     1     -11.677  -5.603   5.633  1.00  0.00     0.127 S 
ATOM    102  O   UNL     1     -12.626  -5.828   4.545  1.00  0.00    -0.237 OA
ATOM    103  O   UNL     1     -12.187  -5.940   6.964  1.00  0.00    -0.237 OA
ATOM    104  O   UNL     1     -10.919  -4.360   5.585  1.00  0.00    -0.744 OA
ENDBRANCH  98 101
ENDBRANCH  71  94
ENDBRANCH  45  46
ENDBRANCH  37  40
ENDBRANCH  35  36
ENDBRANCH  34  35
ENDBRANCH   1  34
TORSDOF 18
