REMARK SMILES O=C(NCCCNC(=O)[C@]12CCC[NH2+][C@@H]1CCN(C(=O)Cc1c(F)cccc1Cl)C2)c1ccc(-c2c3nc(c(-c4cccc(S(=O)(=O)[O-])c4F)c4ccc([nH]4)c(-c4cccc(S(=O)(=O)[O-])c4F)c4nc(c(-c5cccc(S(=O)(=O)[O-])c5F)c5ccc2[nH]5)C=C4)C=C3)cc1
REMARK SMILES IDX 5 1 4 2 3 3 1 4 2 5 31 7 32 8 93 9 33 10 92 11 34 12 35 13
REMARK SMILES IDX 36 14 86 15 37 16 91 17 85 18 87 19 38 20 90 21 84 22 83 23
REMARK SMILES IDX 39 25 71 26 51 27 70 28 52 29 55 30 69 31 88 32 53 33 54 34
REMARK SMILES IDX 68 36 89 37 56 38 40 39 41 40 49 41 42 42 44 43 50 44 43 45
REMARK SMILES IDX 45 46 46 47 47 48 48 49 72 50 73 51 81 52 74 53 76 54 82 55
REMARK SMILES IDX 75 56 77 57 78 58 79 59 80 60 57 61 58 62 66 63 59 64 61 65
REMARK SMILES IDX 67 66 60 67 62 68 63 69 64 70 65 71 6 72 7 73 8 74 9 76
REMARK SMILES IDX 10 77 11 78 15 79 30 80 12 81 14 82 16 83 18 84 13 85 17 88
REMARK SMILES IDX 19 89 20 90 21 91 22 92 23 93 28 94 24 95 25 96 27 97 29 98
REMARK SMILES IDX 26 99
REMARK H PARENT 3 6 87 24 55 35 7 75 14 86 14 87
REMARK Flexibility Score: inf
ROOT
ATOM      1  C   UNL     1       5.248  -0.818   0.960  1.00  0.00     0.042 C 
ENDROOT
BRANCH   1   2
ATOM      2  C   UNL     1       4.768  -1.620  -0.247  1.00  0.00     0.118 C 
BRANCH   2   3
ATOM      3  N   UNL     1       3.323  -1.598  -0.419  1.00  0.00    -0.352 N 
ATOM      4  O   UNL     1       1.273  -0.818  -0.876  1.00  0.00    -0.269 OA
ATOM      5  C   UNL     1       2.488  -0.687  -1.020  1.00  0.00     0.251 C 
ATOM      6  H   UNL     1       2.860  -2.377  -0.036  1.00  0.00     0.163 HD
BRANCH   5   7
ATOM      7  C   UNL     1       3.021   0.483  -1.755  1.00  0.00     0.039 A 
ATOM      8  C   UNL     1       4.181   0.402  -2.521  1.00  0.00     0.014 A 
ATOM      9  C   UNL     1       2.325   1.697  -1.696  1.00  0.00     0.014 A 
ATOM     10  C   UNL     1       4.761   1.552  -3.037  1.00  0.00     0.010 A 
ATOM     11  C   UNL     1       2.850   2.841  -2.304  1.00  0.00     0.010 A 
ATOM     12  C   UNL     1       4.089   2.778  -2.951  1.00  0.00    -0.014 A 
BRANCH  12  13
ATOM     13  C   UNL     1       4.606   3.916  -3.739  1.00  0.00     0.031 A 
ATOM     14  C   UNL     1       5.181   5.136  -3.092  1.00  0.00     0.074 A 
ATOM     15  C   UNL     1       4.540   3.804  -5.079  1.00  0.00     0.049 A 
ATOM     16  N   UNL     1       5.711   6.185  -3.663  1.00  0.00    -0.248 NA
ATOM     17  C   UNL     1       5.159   5.195  -1.623  1.00  0.00     0.031 C 
ATOM     18  C   UNL     1       3.951   2.663  -5.788  1.00  0.00     0.029 A 
ATOM     19  N   UNL     1       4.958   4.638  -6.077  1.00  0.00    -0.354 N 
ATOM     20  C   UNL     1       6.058   7.047  -2.631  1.00  0.00     0.074 A 
ATOM     21  C   UNL     1       5.679   6.395  -1.394  1.00  0.00     0.031 C 
ATOM     22  C   UNL     1       4.058   2.862  -7.106  1.00  0.00     0.029 A 
ATOM     23  C   UNL     1       4.665   4.167  -7.334  1.00  0.00     0.049 A 
ATOM     24  H   UNL     1       5.422   5.491  -5.913  1.00  0.00     0.167 HD
ATOM     25  C   UNL     1       6.644   8.266  -2.720  1.00  0.00     0.034 A 
ATOM     26  C   UNL     1       4.836   4.733  -8.542  1.00  0.00     0.034 A 
ATOM     27  C   UNL     1       7.022   8.882  -3.967  1.00  0.00     0.049 A 
ATOM     28  C   UNL     1       5.505   6.069  -8.611  1.00  0.00     0.074 A 
ATOM     29  C   UNL     1       7.684  10.080  -4.169  1.00  0.00     0.029 A 
ATOM     30  N   UNL     1       6.754   8.357  -5.225  1.00  0.00    -0.354 N 
ATOM     31  N   UNL     1       5.949   6.812  -7.626  1.00  0.00    -0.248 NA
ATOM     32  C   UNL     1       5.726   6.635  -9.946  1.00  0.00     0.031 C 
ATOM     33  C   UNL     1       7.792  10.292  -5.548  1.00  0.00     0.029 A 
ATOM     34  C   UNL     1       7.221   9.214  -6.207  1.00  0.00     0.049 A 
ATOM     35  H   UNL     1       6.299   7.501  -5.393  1.00  0.00     0.167 HD
ATOM     36  C   UNL     1       6.524   7.926  -8.219  1.00  0.00     0.074 A 
ATOM     37  C   UNL     1       6.384   7.750  -9.653  1.00  0.00     0.031 C 
ATOM     38  C   UNL     1       7.104   8.999  -7.629  1.00  0.00     0.034 A 
BRANCH  25  39
ATOM     39  C   UNL     1       6.932   9.007  -1.440  1.00  0.00     0.023 A 
ATOM     40  C   UNL     1       7.984   8.579  -0.605  1.00  0.00     0.012 A 
ATOM     41  C   UNL     1       6.206  10.164  -1.093  1.00  0.00     0.148 A 
ATOM     42  C   UNL     1       8.290   9.273   0.567  1.00  0.00     0.002 A 
ATOM     43  C   UNL     1       6.541  10.871   0.057  1.00  0.00     0.091 A 
ATOM     44  F   UNL     1       5.191  10.545  -1.882  1.00  0.00    -0.205 F 
ATOM     45  C   UNL     1       7.576  10.423   0.892  1.00  0.00     0.022 A 
BRANCH  43  46
ATOM     46  S   UNL     1       5.718  12.404   0.509  1.00  0.00     0.127 S 
ATOM     47  O   UNL     1       4.773  11.944   1.524  1.00  0.00    -0.237 OA
ATOM     48  O   UNL     1       6.822  13.214   1.027  1.00  0.00    -0.237 OA
ATOM     49  O   UNL     1       5.130  12.911  -0.723  1.00  0.00    -0.744 OA
ENDBRANCH  43  46
ENDBRANCH  25  39
BRANCH  26  50
ATOM     50  C   UNL     1       4.386   3.986  -9.746  1.00  0.00     0.023 A 
ATOM     51  C   UNL     1       5.337   3.383 -10.588  1.00  0.00     0.012 A 
ATOM     52  C   UNL     1       3.014   3.742  -9.964  1.00  0.00     0.148 A 
ATOM     53  C   UNL     1       4.928   2.545 -11.628  1.00  0.00     0.002 A 
ATOM     54  C   UNL     1       2.619   2.858 -10.958  1.00  0.00     0.091 A 
ATOM     55  F   UNL     1       2.129   4.335  -9.150  1.00  0.00    -0.205 F 
ATOM     56  C   UNL     1       3.573   2.268 -11.800  1.00  0.00     0.022 A 
BRANCH  54  57
ATOM     57  S   UNL     1       0.916   2.309 -11.130  1.00  0.00     0.127 S 
ATOM     58  O   UNL     1       0.515   2.966 -12.370  1.00  0.00    -0.237 OA
ATOM     59  O   UNL     1       1.075   0.857 -11.224  1.00  0.00    -0.237 OA
ATOM     60  O   UNL     1       0.234   2.759  -9.924  1.00  0.00    -0.744 OA
ENDBRANCH  54  57
ENDBRANCH  26  50
BRANCH  38  61
ATOM     61  C   UNL     1       7.655  10.066  -8.534  1.00  0.00     0.023 A 
ATOM     62  C   UNL     1       6.775  10.960  -9.175  1.00  0.00     0.012 A 
ATOM     63  C   UNL     1       9.045  10.233  -8.678  1.00  0.00     0.148 A 
ATOM     64  C   UNL     1       7.273  11.995  -9.964  1.00  0.00     0.002 A 
ATOM     65  C   UNL     1       9.535  11.294  -9.428  1.00  0.00     0.091 A 
ATOM     66  F   UNL     1       9.860   9.355  -8.075  1.00  0.00    -0.205 F 
ATOM     67  C   UNL     1       8.651  12.170 -10.079  1.00  0.00     0.022 A 
BRANCH  65  68
ATOM     68  S   UNL     1      11.290  11.650  -9.561  1.00  0.00     0.127 S 
ATOM     69  O   UNL     1      11.560  11.304 -10.955  1.00  0.00    -0.237 OA
ATOM     70  O   UNL     1      11.337  13.083  -9.267  1.00  0.00    -0.237 OA
ATOM     71  O   UNL     1      11.948  10.808  -8.571  1.00  0.00    -0.744 OA
ENDBRANCH  65  68
ENDBRANCH  38  61
ENDBRANCH  12  13
ENDBRANCH   5   7
ENDBRANCH   2   3
ENDBRANCH   1   2
BRANCH   1  72
ATOM     72  C   UNL     1       5.007  -1.552   2.276  1.00  0.00     0.117 C 
BRANCH  72  73
ATOM     73  N   UNL     1       5.843  -2.739   2.350  1.00  0.00    -0.355 N 
ATOM     74  C   UNL     1       6.673  -3.139   3.340  1.00  0.00     0.234 C 
ATOM     75  H   UNL     1       5.800  -3.336   1.569  1.00  0.00     0.163 HD
ATOM     76  O   UNL     1       7.794  -3.472   2.935  1.00  0.00    -0.274 OA
BRANCH  74  77
ATOM     77  C   UNL     1       6.269  -3.272   4.831  1.00  0.00     0.118 C 
ATOM     78  C   UNL     1       7.413  -4.111   5.500  1.00  0.00     0.031 C 
ATOM     79  C   UNL     1       4.997  -4.100   5.118  1.00  0.00     0.201 C 
ATOM     80  C   UNL     1       6.206  -1.887   5.502  1.00  0.00     0.142 C 
ATOM     81  C   UNL     1       7.450  -5.562   4.978  1.00  0.00     0.063 C 
ATOM     82  N   UNL     1       4.990  -5.390   4.414  1.00  0.00    -0.343 N 
ATOM     83  C   UNL     1       3.695  -3.337   4.938  1.00  0.00     0.087 C 
ATOM     84  N   UNL     1       4.884  -1.236   5.531  1.00  0.00    -0.341 N 
ATOM     85  C   UNL     1       6.076  -6.239   4.918  1.00  0.00     0.260 C 
ATOM     86  H   UNL     1       4.096  -5.856   4.569  1.00  0.00     0.346 HD
ATOM     87  H   UNL     1       5.126  -5.229   3.416  1.00  0.00     0.346 HD
ATOM     88  C   UNL     1       3.730  -2.086   5.806  1.00  0.00     0.125 C 
BRANCH  84  89
ATOM     89  C   UNL     1       4.884   0.155   5.665  1.00  0.00     0.227 C 
ATOM     90  O   UNL     1       5.951   0.770   5.764  1.00  0.00    -0.275 OA
BRANCH  89  91
ATOM     91  C   UNL     1       3.572   0.938   5.625  1.00  0.00     0.140 C 
BRANCH  91  92
ATOM     92  C   UNL     1       3.301   1.494   4.246  1.00  0.00     0.016 A 
ATOM     93  C   UNL     1       4.051   2.602   3.822  1.00  0.00     0.128 A 
ATOM     94  C   UNL     1       2.385   0.947   3.338  1.00  0.00     0.047 A 
ATOM     95  F   UNL     1       4.905   3.192   4.670  1.00  0.00    -0.207 F 
ATOM     96  C   UNL     1       3.936   3.128   2.540  1.00  0.00     0.039 A 
ATOM     97  C   UNL     1       2.260   1.473   2.047  1.00  0.00     0.021 A 
ATOM     98  Cl  UNL     1       1.350  -0.373   3.736  1.00  0.00    -0.084 Cl
ATOM     99  C   UNL     1       3.040   2.558   1.648  1.00  0.00     0.005 A 
ENDBRANCH  91  92
ENDBRANCH  89  91
ENDBRANCH  84  89
ENDBRANCH  74  77
ENDBRANCH  72  73
ENDBRANCH   1  72
TORSDOF 16
