REMARK SMILES COC(=O)C[C@@H](NC(=O)c1ccccc1C(=O)NCCCNC(=O)c1ccc(-c2c3nc(c(-c4cccc(S(=O)(=O)[O-])c4F)c4ccc([nH]4)c(-c4cccc(S(=O)(=O)[O-])c4F)c4nc(c(-c5cccc(S(=O)(=O)[O-])c5F)c5ccc2[nH]5)C=C4)C=C3)cc1)c1cccc(C)c1C
REMARK SMILES IDX 19 1 18 2 16 3 17 4 15 6 10 7 11 8 12 9 14 10 13 11 8 12
REMARK SMILES IDX 7 13 9 15 6 16 5 17 3 18 4 19 2 20 1 21 88 22 89 23 94 24
REMARK SMILES IDX 90 25 92 26 95 27 91 28 93 29 20 30 21 31 22 32 23 33 24 35
REMARK SMILES IDX 25 36 26 37 87 38 27 39 86 40 28 41 29 42 30 43 80 44 31 45
REMARK SMILES IDX 85 46 79 47 81 48 32 49 84 50 78 51 77 52 33 54 65 55 45 56
REMARK SMILES IDX 64 57 46 58 49 59 63 60 82 61 47 62 48 63 62 65 83 66 50 67
REMARK SMILES IDX 34 68 35 69 43 70 36 71 38 72 44 73 37 74 39 75 40 76 41 77
REMARK SMILES IDX 42 78 66 79 67 80 75 81 68 82 70 83 76 84 69 85 71 86 72 87
REMARK SMILES IDX 73 88 74 89 51 90 52 91 60 92 53 93 55 94 61 95 54 96 56 97
REMARK SMILES IDX 57 98 58 99 59 100
REMARK H PARENT 18 5 7 14 22 34 81 53 49 64
REMARK Flexibility Score: inf
ROOT
ATOM      1  C   UNL     1       1.073  -3.721   2.835  1.00  0.00     0.118 C 
ENDROOT
BRANCH   1   2
ATOM      2  N   UNL     1       1.820  -4.883   2.420  1.00  0.00    -0.352 N 
ATOM      3  C   UNL     1       1.402  -6.164   2.188  1.00  0.00     0.252 C 
ATOM      4  O   UNL     1       2.290  -6.989   1.952  1.00  0.00    -0.269 OA
ATOM      5  H   UNL     1       2.782  -4.730   2.283  1.00  0.00     0.163 HD
BRANCH   3   6
ATOM      6  C   UNL     1      -0.012  -6.634   2.273  1.00  0.00     0.052 A 
ATOM      7  C   UNL     1      -1.203  -5.939   2.018  1.00  0.00     0.052 A 
ATOM      8  C   UNL     1      -2.442  -6.579   2.271  1.00  0.00     0.014 A 
ATOM      9  C   UNL     1      -2.515  -7.907   2.685  1.00  0.00     0.001 A 
ATOM     10  C   UNL     1      -0.116  -7.994   2.666  1.00  0.00     0.014 A 
ATOM     11  C   UNL     1      -1.346  -8.626   2.861  1.00  0.00     0.001 A 
BRANCH   7  12
ATOM     12  C   UNL     1      -1.398  -4.547   1.553  1.00  0.00     0.252 C 
ATOM     13  N   UNL     1      -0.972  -4.047   0.353  1.00  0.00    -0.345 N 
ATOM     14  H   UNL     1      -1.390  -3.186   0.124  1.00  0.00     0.164 HD
ATOM     15  O   UNL     1      -2.082  -3.799   2.257  1.00  0.00    -0.269 OA
BRANCH  13  16
ATOM     16  C   UNL     1      -0.025  -4.516  -0.667  1.00  0.00     0.124 C 
BRANCH  16  17
ATOM     17  C   UNL     1      -0.141  -3.661  -1.932  1.00  0.00     0.152 C 
BRANCH  17  18
ATOM     18  C   UNL     1       0.556  -2.340  -1.756  1.00  0.00     0.307 C 
ATOM     19  O   UNL     1       1.639  -2.075  -2.260  1.00  0.00    -0.252 OA
BRANCH  18  20
ATOM     20  O   UNL     1      -0.192  -1.503  -0.987  1.00  0.00    -0.469 OA
ATOM     21  C   UNL     1       0.343  -0.185  -0.806  1.00  0.00     0.282 C 
ENDBRANCH  18  20
ENDBRANCH  17  18
ENDBRANCH  16  17
BRANCH  16  22
ATOM     22  C   UNL     1      -0.216  -5.981  -1.021  1.00  0.00    -0.022 A 
ATOM     23  C   UNL     1      -1.525  -6.484  -1.143  1.00  0.00     0.006 A 
ATOM     24  C   UNL     1       0.885  -6.865  -1.143  1.00  0.00    -0.043 A 
ATOM     25  C   UNL     1      -1.758  -7.851  -1.205  1.00  0.00     0.001 A 
ATOM     26  C   UNL     1       0.639  -8.256  -1.142  1.00  0.00    -0.048 A 
ATOM     27  C   UNL     1       2.306  -6.359  -1.252  1.00  0.00     0.045 C 
ATOM     28  C   UNL     1      -0.683  -8.730  -1.158  1.00  0.00     0.004 A 
ATOM     29  C   UNL     1       1.740  -9.273  -0.984  1.00  0.00     0.044 C 
ENDBRANCH  16  22
ENDBRANCH  13  16
ENDBRANCH   7  12
ENDBRANCH   3   6
ENDBRANCH   1   2
BRANCH   1  30
ATOM     30  C   UNL     1       1.783  -2.843   3.833  1.00  0.00     0.042 C 
BRANCH  30  31
ATOM     31  C   UNL     1       2.986  -2.109   3.275  1.00  0.00     0.118 C 
BRANCH  31  32
ATOM     32  N   UNL     1       2.682  -1.157   2.204  1.00  0.00    -0.352 N 
ATOM     33  C   UNL     1       2.769   0.221   2.185  1.00  0.00     0.251 C 
ATOM     34  H   UNL     1       2.364  -1.564   1.366  1.00  0.00     0.163 HD
ATOM     35  O   UNL     1       2.399   0.860   1.212  1.00  0.00    -0.269 OA
BRANCH  33  36
ATOM     36  C   UNL     1       3.283   0.930   3.371  1.00  0.00     0.039 A 
ATOM     37  C   UNL     1       2.607   2.056   3.848  1.00  0.00     0.014 A 
ATOM     38  C   UNL     1       4.396   0.436   4.042  1.00  0.00     0.014 A 
ATOM     39  C   UNL     1       2.998   2.621   5.061  1.00  0.00     0.010 A 
ATOM     40  C   UNL     1       4.668   0.886   5.319  1.00  0.00     0.010 A 
ATOM     41  C   UNL     1       4.000   2.008   5.827  1.00  0.00    -0.014 A 
BRANCH  41  42
ATOM     42  C   UNL     1       4.438   2.546   7.134  1.00  0.00     0.031 A 
ATOM     43  C   UNL     1       5.889   2.911   7.316  1.00  0.00     0.074 A 
ATOM     44  C   UNL     1       3.574   2.596   8.165  1.00  0.00     0.049 A 
ATOM     45  N   UNL     1       6.524   3.259   8.403  1.00  0.00    -0.248 NA
ATOM     46  C   UNL     1       6.760   2.803   6.130  1.00  0.00     0.031 C 
ATOM     47  C   UNL     1       2.173   2.165   8.126  1.00  0.00     0.029 A 
ATOM     48  N   UNL     1       3.753   3.011   9.459  1.00  0.00    -0.354 N 
ATOM     49  C   UNL     1       7.864   3.338   8.044  1.00  0.00     0.074 A 
ATOM     50  C   UNL     1       7.963   2.940   6.661  1.00  0.00     0.031 C 
ATOM     51  C   UNL     1       1.615   2.364   9.332  1.00  0.00     0.029 A 
ATOM     52  C   UNL     1       2.622   2.908  10.235  1.00  0.00     0.049 A 
ATOM     53  H   UNL     1       4.612   3.351   9.801  1.00  0.00     0.167 HD
ATOM     54  C   UNL     1       8.915   3.758   8.785  1.00  0.00     0.034 A 
ATOM     55  C   UNL     1       2.428   3.230  11.528  1.00  0.00     0.034 A 
ATOM     56  C   UNL     1       8.777   4.254  10.124  1.00  0.00     0.049 A 
ATOM     57  C   UNL     1       3.581   3.825  12.291  1.00  0.00     0.074 A 
ATOM     58  C   UNL     1       9.741   4.807  10.945  1.00  0.00     0.029 A 
ATOM     59  N   UNL     1       7.582   4.277  10.829  1.00  0.00    -0.354 N 
ATOM     60  N   UNL     1       4.816   4.025  11.895  1.00  0.00    -0.248 NA
ATOM     61  C   UNL     1       3.306   4.284  13.659  1.00  0.00     0.031 C 
ATOM     62  C   UNL     1       9.126   5.165  12.150  1.00  0.00     0.029 A 
ATOM     63  C   UNL     1       7.777   4.851  12.070  1.00  0.00     0.049 A 
ATOM     64  H   UNL     1       6.722   3.935  10.494  1.00  0.00     0.167 HD
ATOM     65  C   UNL     1       5.456   4.667  12.947  1.00  0.00     0.074 A 
ATOM     66  C   UNL     1       4.463   4.842  13.989  1.00  0.00     0.031 C 
ATOM     67  C   UNL     1       6.749   5.063  13.056  1.00  0.00     0.034 A 
BRANCH  54  68
ATOM     68  C   UNL     1      10.273   3.768   8.130  1.00  0.00     0.023 A 
ATOM     69  C   UNL     1      10.536   4.678   7.083  1.00  0.00     0.012 A 
ATOM     70  C   UNL     1      11.290   2.891   8.551  1.00  0.00     0.148 A 
ATOM     71  C   UNL     1      11.769   4.679   6.432  1.00  0.00     0.002 A 
ATOM     72  C   UNL     1      12.535   2.935   7.932  1.00  0.00     0.091 A 
ATOM     73  F   UNL     1      11.018   2.016   9.529  1.00  0.00    -0.205 F 
ATOM     74  C   UNL     1      12.771   3.816   6.863  1.00  0.00     0.022 A 
BRANCH  72  75
ATOM     75  S   UNL     1      13.920   1.923   8.466  1.00  0.00     0.127 S 
ATOM     76  O   UNL     1      14.043   0.980   7.354  1.00  0.00    -0.237 OA
ATOM     77  O   UNL     1      15.001   2.904   8.554  1.00  0.00    -0.237 OA
ATOM     78  O   UNL     1      13.523   1.339   9.739  1.00  0.00    -0.744 OA
ENDBRANCH  72  75
ENDBRANCH  54  68
BRANCH  55  79
ATOM     79  C   UNL     1       1.072   3.106  12.136  1.00  0.00     0.023 A 
ATOM     80  C   UNL     1       0.338   4.274  12.423  1.00  0.00     0.012 A 
ATOM     81  C   UNL     1       0.486   1.851  12.391  1.00  0.00     0.148 A 
ATOM     82  C   UNL     1      -0.937   4.198  12.985  1.00  0.00     0.002 A 
ATOM     83  C   UNL     1      -0.806   1.781  12.902  1.00  0.00     0.091 A 
ATOM     84  F   UNL     1       1.199   0.749  12.118  1.00  0.00    -0.205 F 
ATOM     85  C   UNL     1      -1.513   2.952  13.215  1.00  0.00     0.022 A 
BRANCH  83  86
ATOM     86  S   UNL     1      -1.676   0.221  13.108  1.00  0.00     0.127 S 
ATOM     87  O   UNL     1      -1.656   0.056  14.559  1.00  0.00    -0.237 OA
ATOM     88  O   UNL     1      -2.990   0.528  12.541  1.00  0.00    -0.237 OA
ATOM     89  O   UNL     1      -0.910  -0.755  12.345  1.00  0.00    -0.744 OA
ENDBRANCH  83  86
ENDBRANCH  55  79
BRANCH  67  90
ATOM     90  C   UNL     1       7.151   5.762  14.324  1.00  0.00     0.023 A 
ATOM     91  C   UNL     1       7.287   5.026  15.517  1.00  0.00     0.012 A 
ATOM     92  C   UNL     1       7.463   7.135  14.313  1.00  0.00     0.148 A 
ATOM     93  C   UNL     1       7.694   5.656  16.691  1.00  0.00     0.002 A 
ATOM     94  C   UNL     1       7.916   7.745  15.475  1.00  0.00     0.091 A 
ATOM     95  F   UNL     1       7.305   7.821  13.171  1.00  0.00    -0.205 F 
ATOM     96  C   UNL     1       8.020   7.011  16.668  1.00  0.00     0.022 A 
BRANCH  94  97
ATOM     97  S   UNL     1       8.454   9.458  15.500  1.00  0.00     0.127 S 
ATOM     98  O   UNL     1       7.296  10.126  16.090  1.00  0.00    -0.237 OA
ATOM     99  O   UNL     1       9.634   9.404  16.365  1.00  0.00    -0.237 OA
ATOM    100  O   UNL     1       8.744   9.801  14.114  1.00  0.00    -0.744 OA
ENDBRANCH  94  97
ENDBRANCH  67  90
ENDBRANCH  41  42
ENDBRANCH  33  36
ENDBRANCH  31  32
ENDBRANCH  30  31
ENDBRANCH   1  30
TORSDOF 19
