REMARK SMILES Cc1cccc(S(=O)(=O)Nc2cc(C(=O)NCCCNC(=O)c3ccc(-c4c5nc(c(-c6cccc(S(=O)(=O)[O-])c6F)c6ccc([nH]6)c(-c6cccc(S(=O)(=O)[O-])c6F)c6nc(c(-c7cccc(S(=O)(=O)[O-])c7F)c7ccc4[nH]7)C=C6)C=C5)cc3)ccc2N2CCC[C@H](C[NH+]3CCCC3)C2)c1
REMARK SMILES IDX 18 1 17 2 16 3 14 4 15 5 13 7 11 8 12 9 88 10 87 11 86 12
REMARK SMILES IDX 10 13 7 15 8 16 9 17 6 18 1 19 2 20 3 21 101 22 4 23 5 24
REMARK SMILES IDX 89 25 90 26 100 27 91 28 93 29 92 30 94 31 95 32 96 33 99 34
REMARK SMILES IDX 97 36 98 37 19 38 20 39 21 40 22 42 23 43 24 44 85 45 25 46
REMARK SMILES IDX 84 47 26 48 27 49 28 50 78 51 29 52 83 53 77 54 79 55 30 56
REMARK SMILES IDX 82 57 76 58 75 59 31 61 63 62 43 63 62 64 44 65 47 66 61 67
REMARK SMILES IDX 80 68 45 69 46 70 60 72 81 73 48 74 32 75 33 76 41 77 34 78
REMARK SMILES IDX 36 79 42 80 35 81 37 82 38 83 39 84 40 85 64 86 65 87 73 88
REMARK SMILES IDX 66 89 68 90 74 91 67 92 69 93 70 94 71 95 72 96 49 97 50 98
REMARK SMILES IDX 58 99 51 100 53 101 59 102 52 103 54 104 55 105 56 106
REMARK SMILES IDX 57 107
REMARK H PARENT 16 6 10 14 95 35 20 41 79 60 47 71
REMARK Flexibility Score: inf
ROOT
ATOM      1  C   UNL     1      -0.017   1.641  -3.642  1.00  0.00     0.042 C 
ENDROOT
BRANCH   1   2
ATOM      2  C   UNL     1       0.898   0.747  -2.812  1.00  0.00     0.118 C 
BRANCH   2   3
ATOM      3  N   UNL     1       2.300   1.128  -2.889  1.00  0.00    -0.352 N 
ATOM      4  C   UNL     1       3.050   2.036  -2.171  1.00  0.00     0.251 C 
ATOM      5  O   UNL     1       4.271   2.045  -2.333  1.00  0.00    -0.269 OA
ATOM      6  H   UNL     1       2.808   0.648  -3.583  1.00  0.00     0.163 HD
BRANCH   4   7
ATOM      7  C   UNL     1       2.469   2.978  -1.170  1.00  0.00     0.042 A 
ATOM      8  C   UNL     1       0.596   4.075  -0.084  1.00  0.00     0.073 A 
ATOM      9  C   UNL     1       1.127   3.327  -1.124  1.00  0.00     0.042 A 
ATOM     10  C   UNL     1       1.433   4.680   0.862  1.00  0.00     0.061 A 
ATOM     11  C   UNL     1       2.806   4.410   0.772  1.00  0.00     0.029 A 
ATOM     12  C   UNL     1       3.314   3.545  -0.209  1.00  0.00     0.016 A 
BRANCH   8  13
ATOM     13  N   UNL     1      -0.819   4.228  -0.028  1.00  0.00    -0.277 N 
ATOM     14  H   UNL     1      -1.210   5.110  -0.224  1.00  0.00     0.180 HD
BRANCH  13  15
ATOM     15  S   UNL     1      -1.853   2.939   0.366  1.00  0.00     0.261 S 
ATOM     16  O   UNL     1      -2.773   2.861  -0.771  1.00  0.00    -0.201 OA
ATOM     17  O   UNL     1      -2.361   3.232   1.677  1.00  0.00    -0.201 OA
BRANCH  15  18
ATOM     18  C   UNL     1      -1.067   1.335   0.469  1.00  0.00     0.088 A 
ATOM     19  C   UNL     1       2.328  -0.326   0.895  1.00  0.00     0.044 C 
ATOM     20  C   UNL     1       0.843  -0.142   0.735  1.00  0.00    -0.050 A 
ATOM     21  C   UNL     1       0.072  -1.224   0.299  1.00  0.00     0.003 A 
ATOM     22  C   UNL     1       0.240   1.121   0.903  1.00  0.00     0.025 A 
ATOM     23  C   UNL     1      -1.272  -1.043  -0.025  1.00  0.00     0.002 A 
ATOM     24  C   UNL     1      -1.829   0.234   0.031  1.00  0.00     0.022 A 
ENDBRANCH  15  18
ENDBRANCH  13  15
ENDBRANCH   8  13
BRANCH  10  25
ATOM     25  N   UNL     1       0.966   5.545   1.831  1.00  0.00    -0.369 N 
ATOM     26  C   UNL     1       1.246   6.968   1.675  1.00  0.00     0.116 C 
ATOM     27  C   UNL     1      -0.003   5.134   2.839  1.00  0.00     0.126 C 
ATOM     28  C   UNL     1       1.677   7.540   3.021  1.00  0.00     0.022 C 
ATOM     29  C   UNL     1       0.448   5.642   4.217  1.00  0.00     0.064 C 
ATOM     30  C   UNL     1       0.681   7.163   4.120  1.00  0.00     0.013 C 
BRANCH  29  31
ATOM     31  C   UNL     1       1.659   4.794   4.689  1.00  0.00     0.267 C 
BRANCH  31  32
ATOM     32  N   UNL     1       2.106   4.860   6.082  1.00  0.00    -0.335 N 
ATOM     33  C   UNL     1       1.078   4.573   7.079  1.00  0.00     0.262 C 
ATOM     34  C   UNL     1       2.787   6.088   6.479  1.00  0.00     0.262 C 
ATOM     35  H   UNL     1       2.790   4.103   6.079  1.00  0.00     0.348 HD
ATOM     36  C   UNL     1       0.642   5.928   7.597  1.00  0.00     0.067 C 
ATOM     37  C   UNL     1       1.903   6.771   7.517  1.00  0.00     0.067 C 
ENDBRANCH  31  32
ENDBRANCH  29  31
ENDBRANCH  10  25
ENDBRANCH   4   7
ENDBRANCH   2   3
ENDBRANCH   1   2
BRANCH   1  38
ATOM     38  C   UNL     1      -0.298   1.102  -5.019  1.00  0.00     0.118 C 
BRANCH  38  39
ATOM     39  N   UNL     1      -1.711   0.844  -5.269  1.00  0.00    -0.352 N 
ATOM     40  C   UNL     1      -2.300   0.494  -6.476  1.00  0.00     0.251 C 
ATOM     41  H   UNL     1      -2.315   0.927  -4.496  1.00  0.00     0.163 HD
ATOM     42  O   UNL     1      -3.515   0.378  -6.568  1.00  0.00    -0.269 OA
BRANCH  40  43
ATOM     43  C   UNL     1      -1.392   0.149  -7.595  1.00  0.00     0.039 A 
ATOM     44  C   UNL     1      -1.369  -1.194  -7.975  1.00  0.00     0.014 A 
ATOM     45  C   UNL     1      -0.318   0.990  -7.871  1.00  0.00     0.014 A 
ATOM     46  C   UNL     1      -0.156  -1.766  -8.335  1.00  0.00     0.010 A 
ATOM     47  C   UNL     1       0.908   0.403  -8.101  1.00  0.00     0.010 A 
ATOM     48  C   UNL     1       0.993  -0.986  -8.254  1.00  0.00    -0.014 A 
BRANCH  48  49
ATOM     49  C   UNL     1       2.339  -1.507  -8.418  1.00  0.00     0.031 A 
ATOM     50  C   UNL     1       2.892  -1.516  -9.784  1.00  0.00     0.074 A 
ATOM     51  C   UNL     1       3.082  -1.855  -7.345  1.00  0.00     0.049 A 
ATOM     52  N   UNL     1       3.906  -2.207 -10.167  1.00  0.00    -0.248 NA
ATOM     53  C   UNL     1       2.272  -0.745 -10.854  1.00  0.00     0.031 C 
ATOM     54  C   UNL     1       4.519  -2.107  -7.305  1.00  0.00     0.029 A 
ATOM     55  N   UNL     1       2.635  -2.278  -6.089  1.00  0.00    -0.354 N 
ATOM     56  C   UNL     1       4.249  -1.760 -11.427  1.00  0.00     0.074 A 
ATOM     57  C   UNL     1       3.150  -0.927 -11.841  1.00  0.00     0.031 C 
ATOM     58  C   UNL     1       4.792  -2.889  -6.248  1.00  0.00     0.029 A 
ATOM     59  C   UNL     1       3.513  -3.311  -5.700  1.00  0.00     0.049 A 
ATOM     60  H   UNL     1       1.867  -1.928  -5.582  1.00  0.00     0.167 HD
ATOM     61  C   UNL     1       5.503  -2.024 -11.891  1.00  0.00     0.034 A 
ATOM     62  C   UNL     1       3.121  -4.611  -5.520  1.00  0.00     0.034 A 
ATOM     63  C   UNL     1       6.184  -2.980 -11.001  1.00  0.00     0.049 A 
ATOM     64  C   UNL     1       3.871  -5.582  -6.424  1.00  0.00     0.074 A 
ATOM     65  C   UNL     1       7.077  -2.820  -9.953  1.00  0.00     0.029 A 
ATOM     66  N   UNL     1       5.699  -4.283 -10.902  1.00  0.00    -0.354 N 
ATOM     67  N   UNL     1       4.636  -5.215  -7.416  1.00  0.00    -0.248 NA
ATOM     68  C   UNL     1       3.786  -7.037  -6.306  1.00  0.00     0.031 C 
ATOM     69  C   UNL     1       7.021  -3.992  -9.148  1.00  0.00     0.029 A 
ATOM     70  C   UNL     1       6.129  -4.881  -9.725  1.00  0.00     0.049 A 
ATOM     71  H   UNL     1       5.128  -4.719 -11.575  1.00  0.00     0.167 HD
ATOM     72  C   UNL     1       5.023  -6.313  -8.138  1.00  0.00     0.074 A 
ATOM     73  C   UNL     1       4.530  -7.435  -7.354  1.00  0.00     0.031 C 
ATOM     74  C   UNL     1       5.654  -6.212  -9.350  1.00  0.00     0.034 A 
BRANCH  61  75
ATOM     75  C   UNL     1       6.226  -1.166 -12.927  1.00  0.00     0.023 A 
ATOM     76  C   UNL     1       7.640  -1.184 -12.901  1.00  0.00     0.012 A 
ATOM     77  C   UNL     1       5.647  -0.268 -13.857  1.00  0.00     0.148 A 
ATOM     78  C   UNL     1       8.422  -0.307 -13.663  1.00  0.00     0.002 A 
ATOM     79  C   UNL     1       6.422   0.653 -14.572  1.00  0.00     0.091 A 
ATOM     80  F   UNL     1       4.346  -0.343 -14.136  1.00  0.00    -0.205 F 
ATOM     81  C   UNL     1       7.813   0.638 -14.473  1.00  0.00     0.022 A 
BRANCH  79  82
ATOM     82  S   UNL     1       5.693   1.947 -15.598  1.00  0.00     0.127 S 
ATOM     83  O   UNL     1       6.341   3.153 -15.079  1.00  0.00    -0.237 OA
ATOM     84  O   UNL     1       6.120   1.558 -16.940  1.00  0.00    -0.237 OA
ATOM     85  O   UNL     1       4.255   1.895 -15.359  1.00  0.00    -0.744 OA
ENDBRANCH  79  82
ENDBRANCH  61  75
BRANCH  62  86
ATOM     86  C   UNL     1       1.683  -4.744  -5.122  1.00  0.00     0.023 A 
ATOM     87  C   UNL     1       1.272  -4.013  -3.978  1.00  0.00     0.012 A 
ATOM     88  C   UNL     1       0.705  -5.166  -6.037  1.00  0.00     0.148 A 
ATOM     89  C   UNL     1      -0.022  -3.499  -3.889  1.00  0.00     0.002 A 
ATOM     90  C   UNL     1      -0.598  -4.686  -5.915  1.00  0.00     0.091 A 
ATOM     91  F   UNL     1       1.062  -5.969  -7.047  1.00  0.00    -0.205 F 
ATOM     92  C   UNL     1      -0.943  -3.792  -4.888  1.00  0.00     0.022 A 
BRANCH  90  93
ATOM     93  S   UNL     1      -1.844  -5.126  -7.132  1.00  0.00     0.127 S 
ATOM     94  O   UNL     1      -2.291  -6.424  -6.638  1.00  0.00    -0.237 OA
ATOM     95  O   UNL     1      -2.825  -4.050  -6.997  1.00  0.00    -0.237 OA
ATOM     96  O   UNL     1      -1.123  -5.120  -8.397  1.00  0.00    -0.744 OA
ENDBRANCH  90  93
ENDBRANCH  62  86
BRANCH  74  97
ATOM     97  C   UNL     1       5.878  -7.379 -10.290  1.00  0.00     0.023 A 
ATOM     98  C   UNL     1       5.029  -8.504 -10.298  1.00  0.00     0.012 A 
ATOM     99  C   UNL     1       6.873  -7.324 -11.298  1.00  0.00     0.148 A 
ATOM    100  C   UNL     1       5.215  -9.566 -11.188  1.00  0.00     0.002 A 
ATOM    101  C   UNL     1       6.983  -8.332 -12.253  1.00  0.00     0.091 A 
ATOM    102  F   UNL     1       7.736  -6.298 -11.324  1.00  0.00    -0.205 F 
ATOM    103  C   UNL     1       6.183  -9.474 -12.177  1.00  0.00     0.022 A 
BRANCH 101 104
ATOM    104  S   UNL     1       8.042  -8.136 -13.694  1.00  0.00     0.127 S 
ATOM    105  O   UNL     1       9.275  -8.786 -13.257  1.00  0.00    -0.237 OA
ATOM    106  O   UNL     1       7.305  -8.864 -14.730  1.00  0.00    -0.237 OA
ATOM    107  O   UNL     1       8.116  -6.699 -13.918  1.00  0.00    -0.744 OA
ENDBRANCH 101 104
ENDBRANCH  74  97
ENDBRANCH  48  49
ENDBRANCH  40  43
ENDBRANCH  38  39
ENDBRANCH   1  38
TORSDOF 19
