REMARK SMILES O=C(NCCCNC(=O)c1ccc(-c2c3nc(c(-c4cccc(S(=O)(=O)[O-])c4F)c4ccc([nH]4)c(-c4cccc(S(=O)(=O)[O-])c4F)c4nc(c(-c5cccc(S(=O)(=O)[O-])c5F)c5ccc2[nH]5)C=C4)C=C3)cc1)C1=Cc2cc(Cl)cc(-c3ccc(Cl)cc3)c2O[C@@H]1C(F)(F)F
REMARK SMILES IDX 6 1 5 2 4 3 3 4 1 5 2 6 73 8 74 9 90 10 75 11 89 12 76 13
REMARK SMILES IDX 88 14 77 15 80 16 78 17 79 18 91 19 92 20 93 21 94 22 81 23
REMARK SMILES IDX 82 24 87 25 83 26 86 27 84 28 85 29 7 30 8 31 9 33 10 34
REMARK SMILES IDX 11 35 72 36 12 37 71 38 13 39 14 40 15 41 65 42 16 43 70 44
REMARK SMILES IDX 64 45 66 46 17 47 69 48 63 49 62 50 18 52 50 53 30 54 49 55
REMARK SMILES IDX 31 56 34 57 48 58 67 59 32 60 33 61 47 63 68 64 35 65 19 66
REMARK SMILES IDX 20 67 28 68 21 69 23 70 29 71 22 72 24 73 25 74 26 75 27 76
REMARK SMILES IDX 51 77 52 78 60 79 53 80 55 81 61 82 54 83 56 84 57 85 58 86
REMARK SMILES IDX 59 87 36 88 37 89 45 90 38 91 40 92 46 93 39 94 41 95 42 96
REMARK SMILES IDX 43 97 44 98
REMARK H PARENT 3 7 7 32 66 51 34 62
REMARK Flexibility Score: inf
ROOT
ATOM      1  C   UNL     1       4.535   3.880  -1.001  1.00  0.00     0.118 C 
ENDROOT
BRANCH   1   2
ATOM      2  C   UNL     1       3.995   2.522  -1.448  1.00  0.00     0.042 C 
BRANCH   2   3
ATOM      3  C   UNL     1       2.923   1.969  -0.508  1.00  0.00     0.118 C 
BRANCH   3   4
ATOM      4  N   UNL     1       2.113   0.912  -1.124  1.00  0.00    -0.352 N 
ATOM      5  O   UNL     1       1.244  -1.179  -1.332  1.00  0.00    -0.270 OA
ATOM      6  C   UNL     1       2.131  -0.445  -0.920  1.00  0.00     0.251 C 
ATOM      7  H   UNL     1       1.456   1.224  -1.787  1.00  0.00     0.163 HD
BRANCH   6   8
ATOM      8  C   UNL     1       3.229  -0.968  -0.096  1.00  0.00     0.067 C 
ATOM      9  C   UNL     1       4.475  -0.843  -0.565  1.00  0.00     0.025 C 
ATOM     10  C   UNL     1       2.928  -1.282   1.332  1.00  0.00     0.314 C 
ATOM     11  C   UNL     1       5.477  -0.526   0.456  1.00  0.00     0.019 A 
ATOM     12  O   UNL     1       3.786  -0.530   2.225  1.00  0.00    -0.475 OA
ATOM     13  C   UNL     1       6.758  -0.166   0.029  1.00  0.00     0.032 A 
ATOM     14  C   UNL     1       5.041  -0.202   1.760  1.00  0.00     0.135 A 
ATOM     15  C   UNL     1       7.563   0.600   0.863  1.00  0.00     0.042 A 
ATOM     16  C   UNL     1       5.827   0.629   2.578  1.00  0.00     0.026 A 
ATOM     17  Cl  UNL     1       9.086   1.159   0.293  1.00  0.00    -0.084 Cl
ATOM     18  C   UNL     1       7.096   1.019   2.109  1.00  0.00     0.033 A 
BRANCH  10  19
ATOM     19  C   UNL     1       2.976  -2.794   1.614  1.00  0.00     0.429 C 
ATOM     20  F   UNL     1       2.609  -3.063   2.893  1.00  0.00    -0.167 F 
ATOM     21  F   UNL     1       2.126  -3.485   0.818  1.00  0.00    -0.167 F 
ATOM     22  F   UNL     1       4.210  -3.322   1.438  1.00  0.00    -0.167 F 
ENDBRANCH  10  19
BRANCH  16  23
ATOM     23  C   UNL     1       5.300   1.256   3.800  1.00  0.00    -0.015 A 
ATOM     24  C   UNL     1       4.791   2.567   3.748  1.00  0.00     0.010 A 
ATOM     25  C   UNL     1       5.329   0.609   5.040  1.00  0.00     0.010 A 
ATOM     26  C   UNL     1       4.377   3.239   4.898  1.00  0.00     0.021 A 
ATOM     27  C   UNL     1       4.905   1.276   6.197  1.00  0.00     0.021 A 
ATOM     28  C   UNL     1       4.446   2.591   6.123  1.00  0.00     0.041 A 
ATOM     29  Cl  UNL     1       3.975   3.423   7.553  1.00  0.00    -0.084 Cl
ENDBRANCH  16  23
ENDBRANCH   6   8
ENDBRANCH   3   4
ENDBRANCH   2   3
ENDBRANCH   1   2
BRANCH   1  30
ATOM     30  N   UNL     1       5.239   3.881   0.275  1.00  0.00    -0.352 N 
ATOM     31  C   UNL     1       5.965   4.909   0.853  1.00  0.00     0.251 C 
ATOM     32  H   UNL     1       5.194   3.044   0.792  1.00  0.00     0.163 HD
ATOM     33  O   UNL     1       6.518   4.746   1.939  1.00  0.00    -0.269 OA
BRANCH  31  34
ATOM     34  C   UNL     1       6.176   6.165   0.098  1.00  0.00     0.039 A 
ATOM     35  C   UNL     1       7.489   6.620  -0.067  1.00  0.00     0.014 A 
ATOM     36  C   UNL     1       5.131   6.779  -0.586  1.00  0.00     0.014 A 
ATOM     37  C   UNL     1       7.772   7.555  -1.063  1.00  0.00     0.010 A 
ATOM     38  C   UNL     1       5.425   7.621  -1.649  1.00  0.00     0.010 A 
ATOM     39  C   UNL     1       6.754   7.972  -1.934  1.00  0.00    -0.014 A 
BRANCH  39  40
ATOM     40  C   UNL     1       7.045   8.671  -3.213  1.00  0.00     0.031 A 
ATOM     41  C   UNL     1       6.379   9.982  -3.517  1.00  0.00     0.074 A 
ATOM     42  C   UNL     1       7.756   8.030  -4.165  1.00  0.00     0.049 A 
ATOM     43  N   UNL     1       6.311  10.629  -4.650  1.00  0.00    -0.248 NA
ATOM     44  C   UNL     1       5.645  10.621  -2.413  1.00  0.00     0.031 C 
ATOM     45  C   UNL     1       8.370   6.705  -4.021  1.00  0.00     0.029 A 
ATOM     46  N   UNL     1       8.054   8.385  -5.457  1.00  0.00    -0.354 N 
ATOM     47  C   UNL     1       5.472  11.711  -4.415  1.00  0.00     0.074 A 
ATOM     48  C   UNL     1       5.036  11.618  -3.038  1.00  0.00     0.031 C 
ATOM     49  C   UNL     1       8.983   6.370  -5.168  1.00  0.00     0.029 A 
ATOM     50  C   UNL     1       8.771   7.431  -6.144  1.00  0.00     0.049 A 
ATOM     51  H   UNL     1       7.780   9.243  -5.856  1.00  0.00     0.167 HD
ATOM     52  C   UNL     1       5.119  12.707  -5.261  1.00  0.00     0.034 A 
ATOM     53  C   UNL     1       9.204   7.410  -7.420  1.00  0.00     0.034 A 
ATOM     54  C   UNL     1       5.629  12.834  -6.599  1.00  0.00     0.049 A 
ATOM     55  C   UNL     1       8.895   8.587  -8.304  1.00  0.00     0.074 A 
ATOM     56  C   UNL     1       5.411  13.849  -7.512  1.00  0.00     0.029 A 
ATOM     57  N   UNL     1       6.480  11.923  -7.205  1.00  0.00    -0.354 N 
ATOM     58  N   UNL     1       8.200   9.664  -8.024  1.00  0.00    -0.248 NA
ATOM     59  C   UNL     1       9.449   8.565  -9.665  1.00  0.00     0.031 C 
ATOM     60  C   UNL     1       6.143  13.557  -8.669  1.00  0.00     0.029 A 
ATOM     61  C   UNL     1       6.816  12.360  -8.473  1.00  0.00     0.049 A 
ATOM     62  H   UNL     1       6.799  11.087  -6.794  1.00  0.00     0.167 HD
ATOM     63  C   UNL     1       8.267  10.464  -9.157  1.00  0.00     0.074 A 
ATOM     64  C   UNL     1       9.081   9.754 -10.123  1.00  0.00     0.031 C 
ATOM     65  C   UNL     1       7.691  11.670  -9.385  1.00  0.00     0.034 A 
BRANCH  52  66
ATOM     66  C   UNL     1       4.196  13.772  -4.730  1.00  0.00     0.023 A 
ATOM     67  C   UNL     1       4.683  14.696  -3.783  1.00  0.00     0.012 A 
ATOM     68  C   UNL     1       2.862  13.872  -5.169  1.00  0.00     0.148 A 
ATOM     69  C   UNL     1       3.846  15.672  -3.245  1.00  0.00     0.002 A 
ATOM     70  C   UNL     1       2.044  14.875  -4.659  1.00  0.00     0.091 A 
ATOM     71  F   UNL     1       2.406  12.971  -6.051  1.00  0.00    -0.205 F 
ATOM     72  C   UNL     1       2.530  15.767  -3.688  1.00  0.00     0.022 A 
BRANCH  70  73
ATOM     73  S   UNL     1       0.355  15.117  -5.223  1.00  0.00     0.127 S 
ATOM     74  O   UNL     1      -0.410  14.515  -4.132  1.00  0.00    -0.237 OA
ATOM     75  O   UNL     1       0.258  16.575  -5.303  1.00  0.00    -0.237 OA
ATOM     76  O   UNL     1       0.268  14.437  -6.508  1.00  0.00    -0.744 OA
ENDBRANCH  70  73
ENDBRANCH  52  66
BRANCH  53  77
ATOM     77  C   UNL     1      10.062   6.288  -7.900  1.00  0.00     0.023 A 
ATOM     78  C   UNL     1      11.435   6.528  -8.111  1.00  0.00     0.012 A 
ATOM     79  C   UNL     1       9.556   4.990  -8.103  1.00  0.00     0.148 A 
ATOM     80  C   UNL     1      12.281   5.505  -8.541  1.00  0.00     0.002 A 
ATOM     81  C   UNL     1      10.414   3.963  -8.485  1.00  0.00     0.091 A 
ATOM     82  F   UNL     1       8.246   4.780  -7.908  1.00  0.00    -0.205 F 
ATOM     83  C   UNL     1      11.774   4.221  -8.718  1.00  0.00     0.022 A 
BRANCH  81  84
ATOM     84  S   UNL     1       9.868   2.255  -8.610  1.00  0.00     0.127 S 
ATOM     85  O   UNL     1       9.757   2.081 -10.055  1.00  0.00    -0.237 OA
ATOM     86  O   UNL     1      10.976   1.530  -7.985  1.00  0.00    -0.237 OA
ATOM     87  O   UNL     1       8.620   2.194  -7.860  1.00  0.00    -0.744 OA
ENDBRANCH  81  84
ENDBRANCH  53  77
BRANCH  65  88
ATOM     88  C   UNL     1       7.954  12.329 -10.710  1.00  0.00     0.023 A 
ATOM     89  C   UNL     1       7.264  11.887 -11.855  1.00  0.00     0.012 A 
ATOM     90  C   UNL     1       8.798  13.453 -10.794  1.00  0.00     0.148 A 
ATOM     91  C   UNL     1       7.421  12.550 -13.071  1.00  0.00     0.002 A 
ATOM     92  C   UNL     1       8.917  14.133 -11.999  1.00  0.00     0.091 A 
ATOM     93  F   UNL     1       9.461  13.839  -9.694  1.00  0.00    -0.205 F 
ATOM     94  C   UNL     1       8.235  13.679 -13.140  1.00  0.00     0.022 A 
BRANCH  92  95
ATOM     95  S   UNL     1       9.869  15.648 -12.155  1.00  0.00     0.127 S 
ATOM     96  O   UNL     1      11.054  15.183 -12.873  1.00  0.00    -0.237 OA
ATOM     97  O   UNL     1       8.974  16.500 -12.939  1.00  0.00    -0.237 OA
ATOM     98  O   UNL     1      10.103  16.113 -10.794  1.00  0.00    -0.744 OA
ENDBRANCH  92  95
ENDBRANCH  65  88
ENDBRANCH  39  40
ENDBRANCH  31  34
ENDBRANCH   1  30
TORSDOF 15
