REMARK SMILES O=C(NCCCNC(=O)[C@H]1Cc2[nH]cnc2CN1C(=O)c1ccncc1Cl)c1ccc(-c2c3nc(c(-c4cccc(S(=O)(=O)[O-])c4F)c4ccc([nH]4)c(-c4cccc(S(=O)(=O)[O-])c4F)c4nc(c(-c5cccc(S(=O)(=O)[O-])c5F)c5ccc2[nH]5)C=C4)C=C3)cc1
REMARK SMILES IDX 4 1 3 2 1 3 2 4 28 6 29 7 90 8 30 9 89 10 31 11 32 12 33 13
REMARK SMILES IDX 83 14 34 15 88 16 82 17 84 18 35 19 87 20 81 21 80 22 36 24
REMARK SMILES IDX 68 25 48 26 67 27 49 28 52 29 66 30 85 31 50 32 51 33 65 35
REMARK SMILES IDX 86 36 53 37 37 38 38 39 46 40 39 41 41 42 47 43 40 44 42 45
REMARK SMILES IDX 43 46 44 47 45 48 69 49 70 50 78 51 71 52 73 53 79 54 72 55
REMARK SMILES IDX 74 56 75 57 76 58 77 59 54 60 55 61 63 62 56 63 58 64 64 65
REMARK SMILES IDX 57 66 59 67 60 68 61 69 62 70 5 71 6 72 7 73 8 74 9 76 10 77
REMARK SMILES IDX 11 78 18 79 12 80 17 81 13 82 16 83 14 84 15 86 19 87 20 88
REMARK SMILES IDX 21 89 22 90 26 91 23 92 25 93 27 94 24 95
REMARK H PARENT 3 5 84 23 52 34 7 75 13 85
REMARK Flexibility Score: inf
ROOT
ATOM      1  C   UNL     1       3.963  -0.413   1.529  1.00  0.00     0.118 C 
ENDROOT
BRANCH   1   2
ATOM      2  N   UNL     1       2.737  -0.771   0.850  1.00  0.00    -0.352 N 
ATOM      3  O   UNL     1       1.070  -0.718  -0.632  1.00  0.00    -0.269 OA
ATOM      4  C   UNL     1       1.930  -0.084  -0.021  1.00  0.00     0.251 C 
ATOM      5  H   UNL     1       2.421  -1.681   1.052  1.00  0.00     0.163 HD
BRANCH   4   6
ATOM      6  C   UNL     1       1.978   1.387  -0.155  1.00  0.00     0.039 A 
ATOM      7  C   UNL     1       3.154   2.131  -0.261  1.00  0.00     0.014 A 
ATOM      8  C   UNL     1       0.736   2.037  -0.196  1.00  0.00     0.014 A 
ATOM      9  C   UNL     1       3.090   3.520  -0.272  1.00  0.00     0.010 A 
ATOM     10  C   UNL     1       0.668   3.422  -0.238  1.00  0.00     0.010 A 
ATOM     11  C   UNL     1       1.848   4.164  -0.233  1.00  0.00    -0.014 A 
BRANCH  11  12
ATOM     12  C   UNL     1       1.819   5.618  -0.367  1.00  0.00     0.031 A 
ATOM     13  C   UNL     1       2.292   6.132  -1.684  1.00  0.00     0.074 A 
ATOM     14  C   UNL     1       1.261   6.444   0.540  1.00  0.00     0.049 A 
ATOM     15  N   UNL     1       3.304   6.902  -1.923  1.00  0.00    -0.248 NA
ATOM     16  C   UNL     1       1.618   5.635  -2.892  1.00  0.00     0.031 C 
ATOM     17  C   UNL     1       0.475   6.071   1.718  1.00  0.00     0.029 A 
ATOM     18  N   UNL     1       1.153   7.806   0.512  1.00  0.00    -0.354 N 
ATOM     19  C   UNL     1       3.270   7.155  -3.295  1.00  0.00     0.074 A 
ATOM     20  C   UNL     1       2.326   6.224  -3.856  1.00  0.00     0.031 C 
ATOM     21  C   UNL     1      -0.231   7.146   2.135  1.00  0.00     0.029 A 
ATOM     22  C   UNL     1       0.150   8.300   1.339  1.00  0.00     0.049 A 
ATOM     23  H   UNL     1       1.730   8.381  -0.040  1.00  0.00     0.167 HD
ATOM     24  C   UNL     1       3.854   8.257  -3.840  1.00  0.00     0.034 A 
ATOM     25  C   UNL     1      -0.389   9.543   1.306  1.00  0.00     0.034 A 
ATOM     26  C   UNL     1       4.763   8.889  -2.922  1.00  0.00     0.049 A 
ATOM     27  C   UNL     1       0.559  10.429   0.595  1.00  0.00     0.074 A 
ATOM     28  C   UNL     1       5.909   8.516  -2.252  1.00  0.00     0.029 A 
ATOM     29  N   UNL     1       4.328  10.043  -2.320  1.00  0.00    -0.354 N 
ATOM     30  N   UNL     1       1.718  10.783   1.072  1.00  0.00    -0.248 NA
ATOM     31  C   UNL     1       0.378  10.633  -0.832  1.00  0.00     0.031 C 
ATOM     32  C   UNL     1       5.840   9.196  -1.001  1.00  0.00     0.029 A 
ATOM     33  C   UNL     1       4.680   9.973  -1.002  1.00  0.00     0.049 A 
ATOM     34  H   UNL     1       3.851  10.785  -2.758  1.00  0.00     0.167 HD
ATOM     35  C   UNL     1       2.550  10.814  -0.039  1.00  0.00     0.074 A 
ATOM     36  C   UNL     1       1.648  10.845  -1.187  1.00  0.00     0.031 C 
ATOM     37  C   UNL     1       3.877  10.516   0.070  1.00  0.00     0.034 A 
BRANCH  24  38
ATOM     38  C   UNL     1       3.361   8.995  -5.065  1.00  0.00     0.023 A 
ATOM     39  C   UNL     1       4.187  10.024  -5.577  1.00  0.00     0.012 A 
ATOM     40  C   UNL     1       2.034   8.940  -5.549  1.00  0.00     0.148 A 
ATOM     41  C   UNL     1       3.700  10.985  -6.469  1.00  0.00     0.002 A 
ATOM     42  C   UNL     1       1.580   9.850  -6.499  1.00  0.00     0.091 A 
ATOM     43  F   UNL     1       1.156   8.098  -5.000  1.00  0.00    -0.205 F 
ATOM     44  C   UNL     1       2.397  10.895  -6.935  1.00  0.00     0.022 A 
BRANCH  42  45
ATOM     45  S   UNL     1      -0.082   9.742  -7.178  1.00  0.00     0.127 S 
ATOM     46  O   UNL     1      -0.740  10.870  -6.511  1.00  0.00    -0.237 OA
ATOM     47  O   UNL     1       0.170   9.940  -8.610  1.00  0.00    -0.237 OA
ATOM     48  O   UNL     1      -0.562   8.422  -6.833  1.00  0.00    -0.744 OA
ENDBRANCH  42  45
ENDBRANCH  24  38
BRANCH  25  49
ATOM     49  C   UNL     1      -1.764   9.989   1.634  1.00  0.00     0.023 A 
ATOM     50  C   UNL     1      -2.006  11.348   1.922  1.00  0.00     0.012 A 
ATOM     51  C   UNL     1      -2.875   9.152   1.394  1.00  0.00     0.148 A 
ATOM     52  C   UNL     1      -3.308  11.862   1.938  1.00  0.00     0.002 A 
ATOM     53  C   UNL     1      -4.169   9.664   1.422  1.00  0.00     0.091 A 
ATOM     54  F   UNL     1      -2.660   7.877   1.046  1.00  0.00    -0.205 F 
ATOM     55  C   UNL     1      -4.389  11.023   1.681  1.00  0.00     0.022 A 
BRANCH  53  56
ATOM     56  S   UNL     1      -5.608   8.643   1.078  1.00  0.00     0.127 S 
ATOM     57  O   UNL     1      -6.509   9.009   2.172  1.00  0.00    -0.237 OA
ATOM     58  O   UNL     1      -6.015   9.128  -0.238  1.00  0.00    -0.237 OA
ATOM     59  O   UNL     1      -5.138   7.265   1.128  1.00  0.00    -0.744 OA
ENDBRANCH  53  56
ENDBRANCH  25  49
BRANCH  37  60
ATOM     60  C   UNL     1       4.487  10.462   1.446  1.00  0.00     0.023 A 
ATOM     61  C   UNL     1       4.063   9.539   2.424  1.00  0.00     0.012 A 
ATOM     62  C   UNL     1       5.632  11.238   1.694  1.00  0.00     0.148 A 
ATOM     63  C   UNL     1       4.752   9.412   3.632  1.00  0.00     0.002 A 
ATOM     64  C   UNL     1       6.344  11.072   2.874  1.00  0.00     0.091 A 
ATOM     65  F   UNL     1       6.024  12.110   0.752  1.00  0.00    -0.205 F 
ATOM     66  C   UNL     1       5.901  10.167   3.851  1.00  0.00     0.022 A 
BRANCH  64  67
ATOM     67  S   UNL     1       7.904  11.915   3.150  1.00  0.00     0.127 S 
ATOM     68  O   UNL     1       7.516  12.983   4.069  1.00  0.00    -0.237 OA
ATOM     69  O   UNL     1       8.730  10.865   3.746  1.00  0.00    -0.237 OA
ATOM     70  O   UNL     1       8.359  12.351   1.835  1.00  0.00    -0.744 OA
ENDBRANCH  64  67
ENDBRANCH  37  60
ENDBRANCH  11  12
ENDBRANCH   4   6
ENDBRANCH   1   2
BRANCH   1  71
ATOM     71  C   UNL     1       3.847   0.252   2.893  1.00  0.00     0.042 C 
BRANCH  71  72
ATOM     72  C   UNL     1       3.375  -0.571   4.106  1.00  0.00     0.117 C 
BRANCH  72  73
ATOM     73  N   UNL     1       3.771  -1.972   4.246  1.00  0.00    -0.354 N 
ATOM     74  C   UNL     1       4.715  -2.589   5.040  1.00  0.00     0.243 C 
ATOM     75  H   UNL     1       3.269  -2.590   3.667  1.00  0.00     0.163 HD
ATOM     76  O   UNL     1       4.532  -3.762   5.380  1.00  0.00    -0.273 OA
BRANCH  74  77
ATOM     77  C   UNL     1       5.880  -1.801   5.603  1.00  0.00     0.181 C 
ATOM     78  C   UNL     1       7.052  -2.521   6.336  1.00  0.00     0.091 C 
ATOM     79  N   UNL     1       6.419  -0.665   4.838  1.00  0.00    -0.320 N 
ATOM     80  C   UNL     1       7.705  -1.437   7.154  1.00  0.00     0.042 A 
ATOM     81  C   UNL     1       6.732   0.482   5.762  1.00  0.00     0.178 C 
ATOM     82  N   UNL     1       8.430  -1.521   8.307  1.00  0.00    -0.348 N 
ATOM     83  C   UNL     1       7.546  -0.080   6.911  1.00  0.00     0.081 A 
ATOM     84  C   UNL     1       8.600  -0.236   8.760  1.00  0.00     0.197 A 
ATOM     85  H   UNL     1       8.766  -2.343   8.731  1.00  0.00     0.167 HD
ATOM     86  N   UNL     1       8.084   0.651   7.936  1.00  0.00    -0.240 NA
BRANCH  79  87
ATOM     87  C   UNL     1       7.007  -0.603   3.569  1.00  0.00     0.256 C 
ATOM     88  O   UNL     1       7.330   0.539   3.192  1.00  0.00    -0.269 OA
BRANCH  87  89
ATOM     89  C   UNL     1       7.352  -1.656   2.518  1.00  0.00     0.061 A 
ATOM     90  C   UNL     1       8.487  -1.223   1.777  1.00  0.00     0.035 A 
ATOM     91  C   UNL     1       6.722  -2.789   1.980  1.00  0.00     0.072 A 
ATOM     92  C   UNL     1       8.857  -1.804   0.572  1.00  0.00     0.112 A 
ATOM     93  C   UNL     1       7.169  -3.296   0.744  1.00  0.00     0.132 A 
ATOM     94  Cl  UNL     1       5.413  -3.724   2.540  1.00  0.00    -0.082 Cl
ATOM     95  N   UNL     1       8.208  -2.834   0.028  1.00  0.00    -0.263 NA
ENDBRANCH  87  89
ENDBRANCH  79  87
ENDBRANCH  74  77
ENDBRANCH  72  73
ENDBRANCH  71  72
ENDBRANCH   1  71
TORSDOF 15
