REMARK SMILES COCc1nc2ccccc2n1CC(=O)NCCCNC(=O)c1ccc(-c2c3nc(c(-c4cccc(S(=O)(=O)[O-])c4F)c4ccc([nH]4)c(-c4cccc(S(=O)(=O)[O-])c4F)c4nc(c(-c5cccc(S(=O)(=O)[O-])c5F)c5ccc2[nH]5)C=C4)C=C3)cc1
REMARK SMILES IDX 18 1 17 2 16 3 14 4 15 5 13 7 12 8 4 9 5 10 6 11 11 12 7 13
REMARK SMILES IDX 10 14 8 15 9 16 3 17 2 18 1 19 19 20 20 21 21 22 22 24 23 25
REMARK SMILES IDX 24 26 85 27 25 28 84 29 26 30 27 31 28 32 78 33 29 34 83 35
REMARK SMILES IDX 77 36 79 37 30 38 82 39 76 40 75 41 31 43 63 44 43 45 62 46
REMARK SMILES IDX 44 47 47 48 61 49 80 50 45 51 46 52 60 54 81 55 48 56 32 57
REMARK SMILES IDX 33 58 41 59 34 60 36 61 42 62 35 63 37 64 38 65 39 66 40 67
REMARK SMILES IDX 64 68 65 69 73 70 66 71 68 72 74 73 67 74 69 75 70 76 71 77
REMARK SMILES IDX 72 78 49 79 50 80 58 81 51 82 53 83 59 84 52 85 54 86 55 87
REMARK SMILES IDX 56 88 57 89
REMARK H PARENT 16 6 20 23 79 42 47 53
REMARK Flexibility Score: inf
ROOT
ATOM      1  C   UNL     1      -2.812  -3.191   3.789  1.00  0.00     0.042 C 
ENDROOT
BRANCH   1   2
ATOM      2  C   UNL     1      -3.439  -2.625   2.517  1.00  0.00     0.117 C 
BRANCH   2   3
ATOM      3  N   UNL     1      -3.114  -1.223   2.321  1.00  0.00    -0.354 N 
ATOM      4  C   UNL     1      -2.284  -0.629   1.419  1.00  0.00     0.240 C 
ATOM      5  O   UNL     1      -2.214   0.602   1.440  1.00  0.00    -0.273 OA
ATOM      6  H   UNL     1      -3.565  -0.603   2.938  1.00  0.00     0.163 HD
BRANCH   4   7
ATOM      7  C   UNL     1      -1.559  -1.453   0.377  1.00  0.00     0.223 C 
BRANCH   7   8
ATOM      8  N   UNL     1      -0.549  -2.350   0.915  1.00  0.00    -0.316 N 
ATOM      9  C   UNL     1       0.573  -2.013   1.648  1.00  0.00     0.136 A 
ATOM     10  N   UNL     1       1.196  -3.103   2.063  1.00  0.00    -0.231 NA
ATOM     11  C   UNL     1       0.511  -4.163   1.532  1.00  0.00     0.089 A 
ATOM     12  C   UNL     1      -0.551  -3.723   0.751  1.00  0.00     0.069 A 
ATOM     13  C   UNL     1       0.743  -5.539   1.675  1.00  0.00     0.030 A 
ATOM     14  C   UNL     1      -1.381  -4.609   0.048  1.00  0.00     0.028 A 
ATOM     15  C   UNL     1      -0.098  -6.439   1.009  1.00  0.00     0.002 A 
ATOM     16  C   UNL     1      -1.136  -5.978   0.200  1.00  0.00     0.002 A 
BRANCH   9  17
ATOM     17  C   UNL     1       1.030  -0.626   1.976  1.00  0.00     0.235 C 
BRANCH  17  18
ATOM     18  O   UNL     1       0.742   0.274   0.907  1.00  0.00    -0.377 OA
ATOM     19  C   UNL     1       1.627   0.155  -0.197  1.00  0.00     0.195 C 
ENDBRANCH  17  18
ENDBRANCH   9  17
ENDBRANCH   7   8
ENDBRANCH   4   7
ENDBRANCH   2   3
ENDBRANCH   1   2
BRANCH   1  20
ATOM     20  C   UNL     1      -3.246  -2.447   5.053  1.00  0.00     0.118 C 
BRANCH  20  21
ATOM     21  N   UNL     1      -4.684  -2.341   5.208  1.00  0.00    -0.352 N 
ATOM     22  C   UNL     1      -5.668  -3.138   5.716  1.00  0.00     0.251 C 
ATOM     23  H   UNL     1      -5.034  -1.488   4.862  1.00  0.00     0.163 HD
ATOM     24  O   UNL     1      -6.801  -2.649   5.709  1.00  0.00    -0.269 OA
BRANCH  22  25
ATOM     25  C   UNL     1      -5.484  -4.535   6.182  1.00  0.00     0.039 A 
ATOM     26  C   UNL     1      -4.258  -5.186   6.334  1.00  0.00     0.014 A 
ATOM     27  C   UNL     1      -6.669  -5.256   6.418  1.00  0.00     0.014 A 
ATOM     28  C   UNL     1      -4.215  -6.555   6.563  1.00  0.00     0.010 A 
ATOM     29  C   UNL     1      -6.632  -6.616   6.677  1.00  0.00     0.010 A 
ATOM     30  C   UNL     1      -5.406  -7.271   6.671  1.00  0.00    -0.014 A 
BRANCH  30  31
ATOM     31  C   UNL     1      -5.331  -8.716   6.835  1.00  0.00     0.031 A 
ATOM     32  C   UNL     1      -4.706  -9.175   8.112  1.00  0.00     0.074 A 
ATOM     33  C   UNL     1      -5.916  -9.546   5.946  1.00  0.00     0.049 A 
ATOM     34  N   UNL     1      -3.687  -9.956   8.277  1.00  0.00    -0.248 NA
ATOM     35  C   UNL     1      -5.220  -8.589   9.362  1.00  0.00     0.031 C 
ATOM     36  C   UNL     1      -6.783  -9.190   4.817  1.00  0.00     0.029 A 
ATOM     37  N   UNL     1      -5.990 -10.904   5.964  1.00  0.00    -0.354 N 
ATOM     38  C   UNL     1      -3.553 -10.113   9.657  1.00  0.00     0.074 A 
ATOM     39  C   UNL     1      -4.425  -9.147  10.274  1.00  0.00     0.031 C 
ATOM     40  C   UNL     1      -7.506 -10.272   4.455  1.00  0.00     0.029 A 
ATOM     41  C   UNL     1      -7.058 -11.415   5.227  1.00  0.00     0.049 A 
ATOM     42  H   UNL     1      -5.350 -11.472   6.450  1.00  0.00     0.167 HD
ATOM     43  C   UNL     1      -2.889 -11.156  10.227  1.00  0.00     0.034 A 
ATOM     44  C   UNL     1      -7.590 -12.658   5.349  1.00  0.00     0.034 A 
ATOM     45  C   UNL     1      -2.054 -11.857   9.300  1.00  0.00     0.049 A 
ATOM     46  C   UNL     1      -6.560 -13.496   6.011  1.00  0.00     0.074 A 
ATOM     47  C   UNL     1      -0.933 -11.530   8.565  1.00  0.00     0.029 A 
ATOM     48  N   UNL     1      -2.574 -12.987   8.718  1.00  0.00    -0.354 N 
ATOM     49  N   UNL     1      -5.406 -13.781   5.478  1.00  0.00    -0.248 NA
ATOM     50  C   UNL     1      -6.646 -13.653   7.454  1.00  0.00     0.031 C 
ATOM     51  C   UNL     1      -1.123 -12.175   7.308  1.00  0.00     0.029 A 
ATOM     52  C   UNL     1      -2.315 -12.899   7.375  1.00  0.00     0.049 A 
ATOM     53  H   UNL     1      -3.043 -13.720   9.178  1.00  0.00     0.167 HD
ATOM     54  C   UNL     1      -4.513 -13.727   6.540  1.00  0.00     0.074 A 
ATOM     55  C   UNL     1      -5.345 -13.732   7.742  1.00  0.00     0.031 C 
ATOM     56  C   UNL     1      -3.205 -13.389   6.348  1.00  0.00     0.034 A 
BRANCH  43  57
ATOM     57  C   UNL     1      -3.248 -11.718  11.572  1.00  0.00     0.023 A 
ATOM     58  C   UNL     1      -2.281 -12.434  12.303  1.00  0.00     0.012 A 
ATOM     59  C   UNL     1      -4.583 -11.755  12.035  1.00  0.00     0.148 A 
ATOM     60  C   UNL     1      -2.629 -13.139  13.463  1.00  0.00     0.002 A 
ATOM     61  C   UNL     1      -4.911 -12.399  13.220  1.00  0.00     0.091 A 
ATOM     62  F   UNL     1      -5.556 -11.256  11.261  1.00  0.00    -0.205 F 
ATOM     63  C   UNL     1      -3.939 -13.107  13.931  1.00  0.00     0.022 A 
BRANCH  61  64
ATOM     64  S   UNL     1      -6.580 -12.361  13.882  1.00  0.00     0.127 S 
ATOM     65  O   UNL     1      -7.009 -13.745  13.670  1.00  0.00    -0.237 OA
ATOM     66  O   UNL     1      -6.335 -11.999  15.281  1.00  0.00    -0.237 OA
ATOM     67  O   UNL     1      -7.281 -11.349  13.115  1.00  0.00    -0.744 OA
ENDBRANCH  61  64
ENDBRANCH  43  57
BRANCH  44  68
ATOM     68  C   UNL     1      -9.012 -13.092   5.278  1.00  0.00     0.023 A 
ATOM     69  C   UNL     1      -9.303 -14.473   5.228  1.00  0.00     0.012 A 
ATOM     70  C   UNL     1     -10.076 -12.206   5.563  1.00  0.00     0.148 A 
ATOM     71  C   UNL     1     -10.587 -14.957   5.511  1.00  0.00     0.002 A 
ATOM     72  C   UNL     1     -11.355 -12.692   5.830  1.00  0.00     0.091 A 
ATOM     73  F   UNL     1      -9.822 -10.897   5.675  1.00  0.00    -0.205 F 
ATOM     74  C   UNL     1     -11.610 -14.068   5.824  1.00  0.00     0.022 A 
BRANCH  72  75
ATOM     75  S   UNL     1     -12.722 -11.598   6.246  1.00  0.00     0.127 S 
ATOM     76  O   UNL     1     -13.809 -12.145   5.432  1.00  0.00    -0.237 OA
ATOM     77  O   UNL     1     -12.862 -11.820   7.682  1.00  0.00    -0.237 OA
ATOM     78  O   UNL     1     -12.294 -10.263   5.848  1.00  0.00    -0.744 OA
ENDBRANCH  72  75
ENDBRANCH  44  68
BRANCH  56  79
ATOM     79  C   UNL     1      -2.709 -13.262   4.929  1.00  0.00     0.023 A 
ATOM     80  C   UNL     1      -3.103 -12.197   4.091  1.00  0.00     0.012 A 
ATOM     81  C   UNL     1      -1.670 -14.108   4.514  1.00  0.00     0.148 A 
ATOM     82  C   UNL     1      -2.472 -11.982   2.861  1.00  0.00     0.002 A 
ATOM     83  C   UNL     1      -1.021 -13.870   3.309  1.00  0.00     0.091 A 
ATOM     84  F   UNL     1      -1.301 -15.102   5.336  1.00  0.00    -0.205 F 
ATOM     85  C   UNL     1      -1.421 -12.811   2.478  1.00  0.00     0.022 A 
BRANCH  83  86
ATOM     86  S   UNL     1       0.411 -14.824   2.802  1.00  0.00     0.127 S 
ATOM     87  O   UNL     1      -0.092 -15.524   1.621  1.00  0.00    -0.237 OA
ATOM     88  O   UNL     1       1.394 -13.777   2.520  1.00  0.00    -0.237 OA
ATOM     89  O   UNL     1       0.752 -15.680   3.932  1.00  0.00    -0.744 OA
ENDBRANCH  83  86
ENDBRANCH  56  79
ENDBRANCH  30  31
ENDBRANCH  22  25
ENDBRANCH  20  21
ENDBRANCH   1  20
TORSDOF 16
