REMARK SMILES Cc1c(Cl)cccc1NC(=O)NCc1cn([C@@H]2C[NH2+][C@H](C(=O)NCCCNC(=O)c3ccc(-c4c5nc(c(-c6cccc(S(=O)(=O)[O-])c6F)c6ccc([nH]6)c(-c6cccc(S(=O)(=O)[O-])c6F)c6nc(c(-c7cccc(S(=O)(=O)[O-])c7F)c7ccc4[nH]7)C=C6)C=C5)cc3)C2)nn1
REMARK SMILES IDX 24 1 23 2 21 3 22 4 20 6 17 7 18 8 93 9 19 10 16 13 14 14
REMARK SMILES IDX 15 15 95 16 94 17 13 18 12 19 9 20 10 21 11 23 8 25 1 26
REMARK SMILES IDX 2 27 3 28 4 29 5 30 7 31 6 32 25 33 26 34 27 35 28 36 29 38
REMARK SMILES IDX 30 39 31 40 92 41 32 42 91 43 33 44 34 45 35 46 85 47 36 48
REMARK SMILES IDX 90 49 84 50 86 51 37 52 89 53 83 54 82 55 38 57 70 58 50 59
REMARK SMILES IDX 69 60 51 61 54 62 68 63 87 64 52 65 53 66 67 68 88 69 55 70
REMARK SMILES IDX 39 71 40 72 48 73 41 74 43 75 49 76 42 77 44 78 45 79 46 80
REMARK SMILES IDX 47 81 71 82 72 83 80 84 73 85 75 86 81 87 74 88 76 89 77 90
REMARK SMILES IDX 78 91 79 92 56 93 57 94 65 95 58 96 60 97 66 98 59 99 61 100
REMARK SMILES IDX 62 101 63 102 64 103
REMARK H PARENT 23 5 19 11 19 12 9 22 12 24 27 37 86 56 54 67
REMARK Flexibility Score: inf
ROOT
ATOM      1  C   UNL     1      -1.967  -5.900   1.333  1.00  0.00     0.118 C 
ENDROOT
BRANCH   1   2
ATOM      2  N   UNL     1      -3.171  -6.687   1.150  1.00  0.00    -0.351 N 
ATOM      3  C   UNL     1      -4.327  -6.769   1.857  1.00  0.00     0.278 C 
ATOM      4  O   UNL     1      -5.211  -7.487   1.373  1.00  0.00    -0.268 OA
ATOM      5  H   UNL     1      -3.144  -7.276   0.361  1.00  0.00     0.163 HD
BRANCH   3   6
ATOM      6  C   UNL     1      -4.663  -5.947   3.114  1.00  0.00     0.274 C 
ATOM      7  C   UNL     1      -5.107  -3.603   3.574  1.00  0.00     0.170 C 
ATOM      8  C   UNL     1      -3.643  -3.926   3.846  1.00  0.00     0.288 C 
ATOM      9  C   UNL     1      -5.585  -4.790   2.745  1.00  0.00     0.109 C 
ATOM     10  N   UNL     1      -3.511  -5.392   3.860  1.00  0.00    -0.334 N 
ATOM     11  H   UNL     1      -3.520  -5.734   4.821  1.00  0.00     0.347 HD
ATOM     12  H   UNL     1      -2.632  -5.678   3.430  1.00  0.00     0.347 HD
BRANCH   7  13
ATOM     13  N   UNL     1      -5.276  -2.329   2.910  1.00  0.00    -0.243 N 
ATOM     14  C   UNL     1      -5.087  -0.686   1.516  1.00  0.00     0.102 A 
ATOM     15  C   UNL     1      -5.024  -2.058   1.605  1.00  0.00     0.137 A 
ATOM     16  N   UNL     1      -5.430  -0.173   2.733  1.00  0.00    -0.134 NA
ATOM     17  N   UNL     1      -5.556  -1.195   3.584  1.00  0.00    -0.067 NA
BRANCH  14  18
ATOM     18  C   UNL     1      -4.542   0.034   0.354  1.00  0.00     0.178 C 
BRANCH  18  19
ATOM     19  N   UNL     1      -4.530   1.456   0.337  1.00  0.00    -0.332 N 
ATOM     20  N   UNL     1      -2.309   2.036  -0.406  1.00  0.00    -0.308 N 
ATOM     21  C   UNL     1      -3.602   2.312  -0.118  1.00  0.00     0.319 C 
ATOM     22  H   UNL     1      -1.828   2.863  -0.639  1.00  0.00     0.171 HD
ATOM     23  O   UNL     1      -3.935   3.502  -0.195  1.00  0.00    -0.248 OA
ATOM     24  H   UNL     1      -5.331   1.881   0.721  1.00  0.00     0.165 HD
BRANCH  20  25
ATOM     25  C   UNL     1      -1.437   0.922  -0.475  1.00  0.00     0.047 A 
ATOM     26  C   UNL     1       0.571   2.405   0.147  1.00  0.00     0.048 C 
ATOM     27  C   UNL     1      -0.084   1.064  -0.079  1.00  0.00    -0.009 A 
ATOM     28  C   UNL     1       0.709  -0.102   0.058  1.00  0.00     0.046 A 
ATOM     29  Cl  UNL     1       2.365  -0.030   0.564  1.00  0.00    -0.084 Cl
ATOM     30  C   UNL     1       0.194  -1.368  -0.216  1.00  0.00     0.021 A 
ATOM     31  C   UNL     1      -1.843  -0.327  -0.958  1.00  0.00     0.026 A 
ATOM     32  C   UNL     1      -1.074  -1.477  -0.763  1.00  0.00     0.004 A 
ENDBRANCH  20  25
ENDBRANCH  18  19
ENDBRANCH  14  18
ENDBRANCH   7  13
ENDBRANCH   3   6
ENDBRANCH   1   2
BRANCH   1  33
ATOM     33  C   UNL     1      -0.827  -6.681   1.988  1.00  0.00     0.042 C 
BRANCH  33  34
ATOM     34  C   UNL     1      -0.064  -7.510   0.966  1.00  0.00     0.118 C 
BRANCH  34  35
ATOM     35  N   UNL     1       0.660  -6.671  -0.002  1.00  0.00    -0.352 N 
ATOM     36  C   UNL     1       1.425  -7.066  -1.080  1.00  0.00     0.251 C 
ATOM     37  H   UNL     1       0.591  -5.699   0.139  1.00  0.00     0.163 HD
ATOM     38  O   UNL     1       2.204  -6.278  -1.616  1.00  0.00    -0.269 OA
BRANCH  36  39
ATOM     39  C   UNL     1       1.292  -8.444  -1.574  1.00  0.00     0.039 A 
ATOM     40  C   UNL     1       2.409  -9.209  -1.916  1.00  0.00     0.014 A 
ATOM     41  C   UNL     1       0.011  -8.988  -1.617  1.00  0.00     0.014 A 
ATOM     42  C   UNL     1       2.227 -10.557  -2.207  1.00  0.00     0.010 A 
ATOM     43  C   UNL     1      -0.143 -10.345  -1.719  1.00  0.00     0.010 A 
ATOM     44  C   UNL     1       0.948 -11.126  -2.071  1.00  0.00    -0.014 A 
BRANCH  44  45
ATOM     45  C   UNL     1       0.762 -12.570  -2.140  1.00  0.00     0.031 A 
ATOM     46  C   UNL     1       1.658 -13.323  -1.224  1.00  0.00     0.074 A 
ATOM     47  C   UNL     1      -0.259 -13.155  -2.805  1.00  0.00     0.049 A 
ATOM     48  N   UNL     1       2.690 -14.025  -1.558  1.00  0.00    -0.248 NA
ATOM     49  C   UNL     1       1.528 -13.115   0.227  1.00  0.00     0.031 C 
ATOM     50  C   UNL     1      -1.388 -12.504  -3.482  1.00  0.00     0.029 A 
ATOM     51  N   UNL     1      -0.586 -14.473  -2.894  1.00  0.00    -0.354 N 
ATOM     52  C   UNL     1       3.155 -14.585  -0.371  1.00  0.00     0.074 A 
ATOM     53  C   UNL     1       2.583 -13.795   0.685  1.00  0.00     0.031 C 
ATOM     54  C   UNL     1      -2.382 -13.400  -3.667  1.00  0.00     0.029 A 
ATOM     55  C   UNL     1      -1.903 -14.713  -3.285  1.00  0.00     0.049 A 
ATOM     56  H   UNL     1       0.054 -15.197  -2.700  1.00  0.00     0.167 HD
ATOM     57  C   UNL     1       3.706 -15.831  -0.367  1.00  0.00     0.034 A 
ATOM     58  C   UNL     1      -2.561 -15.899  -3.251  1.00  0.00     0.034 A 
ATOM     59  C   UNL     1       4.032 -16.250  -1.713  1.00  0.00     0.049 A 
ATOM     60  C   UNL     1      -1.530 -16.962  -3.221  1.00  0.00     0.074 A 
ATOM     61  C   UNL     1       4.786 -15.726  -2.746  1.00  0.00     0.029 A 
ATOM     62  N   UNL     1       3.193 -17.173  -2.292  1.00  0.00    -0.354 N 
ATOM     63  N   UNL     1      -0.725 -17.201  -4.218  1.00  0.00    -0.248 NA
ATOM     64  C   UNL     1      -1.089 -17.443  -1.924  1.00  0.00     0.031 C 
ATOM     65  C   UNL     1       4.028 -15.996  -3.924  1.00  0.00     0.029 A 
ATOM     66  C   UNL     1       2.911 -16.749  -3.561  1.00  0.00     0.049 A 
ATOM     67  H   UNL     1       2.855 -17.994  -1.867  1.00  0.00     0.167 HD
ATOM     68  C   UNL     1       0.508 -17.398  -3.610  1.00  0.00     0.074 A 
ATOM     69  C   UNL     1       0.201 -17.651  -2.202  1.00  0.00     0.031 C 
ATOM     70  C   UNL     1       1.665 -17.033  -4.237  1.00  0.00     0.034 A 
BRANCH  57  71
ATOM     71  C   UNL     1       3.558 -16.853   0.747  1.00  0.00     0.023 A 
ATOM     72  C   UNL     1       4.232 -18.084   0.569  1.00  0.00     0.012 A 
ATOM     73  C   UNL     1       2.591 -16.806   1.777  1.00  0.00     0.148 A 
ATOM     74  C   UNL     1       3.889 -19.227   1.298  1.00  0.00     0.002 A 
ATOM     75  C   UNL     1       2.304 -17.926   2.551  1.00  0.00     0.091 A 
ATOM     76  F   UNL     1       1.842 -15.718   1.955  1.00  0.00    -0.205 F 
ATOM     77  C   UNL     1       2.921 -19.149   2.288  1.00  0.00     0.022 A 
BRANCH  75  78
ATOM     78  S   UNL     1       1.090 -17.873   3.877  1.00  0.00     0.127 S 
ATOM     79  O   UNL     1       0.015 -18.690   3.320  1.00  0.00    -0.237 OA
ATOM     80  O   UNL     1       1.831 -18.487   4.979  1.00  0.00    -0.237 OA
ATOM     81  O   UNL     1       0.780 -16.463   4.078  1.00  0.00    -0.744 OA
ENDBRANCH  75  78
ENDBRANCH  57  71
BRANCH  58  82
ATOM     82  C   UNL     1      -3.993 -16.200  -3.006  1.00  0.00     0.023 A 
ATOM     83  C   UNL     1      -4.502 -17.477  -3.326  1.00  0.00     0.012 A 
ATOM     84  C   UNL     1      -4.782 -15.360  -2.191  1.00  0.00     0.148 A 
ATOM     85  C   UNL     1      -5.730 -17.918  -2.815  1.00  0.00     0.002 A 
ATOM     86  C   UNL     1      -6.003 -15.801  -1.687  1.00  0.00     0.091 A 
ATOM     87  F   UNL     1      -4.293 -14.167  -1.829  1.00  0.00    -0.205 F 
ATOM     88  C   UNL     1      -6.475 -17.085  -1.986  1.00  0.00     0.022 A 
BRANCH  86  89
ATOM     89  S   UNL     1      -7.000 -14.793  -0.581  1.00  0.00     0.127 S 
ATOM     90  O   UNL     1      -8.331 -14.911  -1.178  1.00  0.00    -0.237 OA
ATOM     91  O   UNL     1      -6.836 -15.489   0.692  1.00  0.00    -0.237 OA
ATOM     92  O   UNL     1      -6.431 -13.453  -0.647  1.00  0.00    -0.744 OA
ENDBRANCH  86  89
ENDBRANCH  58  82
BRANCH  70  93
ATOM     93  C   UNL     1       1.604 -16.668  -5.700  1.00  0.00     0.023 A 
ATOM     94  C   UNL     1       0.860 -15.573  -6.189  1.00  0.00     0.012 A 
ATOM     95  C   UNL     1       2.463 -17.349  -6.578  1.00  0.00     0.148 A 
ATOM     96  C   UNL     1       0.959 -15.182  -7.528  1.00  0.00     0.002 A 
ATOM     97  C   UNL     1       2.596 -16.927  -7.893  1.00  0.00     0.091 A 
ATOM     98  F   UNL     1       3.164 -18.388  -6.097  1.00  0.00    -0.205 F 
ATOM     99  C   UNL     1       1.838 -15.850  -8.377  1.00  0.00     0.022 A 
BRANCH  97 100
ATOM    100  S   UNL     1       3.804 -17.668  -8.992  1.00  0.00     0.127 S 
ATOM    101  O   UNL     1       2.962 -18.481  -9.867  1.00  0.00    -0.237 OA
ATOM    102  O   UNL     1       4.405 -16.498  -9.634  1.00  0.00    -0.237 OA
ATOM    103  O   UNL     1       4.722 -18.412  -8.137  1.00  0.00    -0.744 OA
ENDBRANCH  97 100
ENDBRANCH  70  93
ENDBRANCH  44  45
ENDBRANCH  36  39
ENDBRANCH  34  35
ENDBRANCH  33  34
ENDBRANCH   1  33
TORSDOF 17
