REMARK SMILES O=C(CC[NH+]1CCC(n2nccc2NC(=O)c2ccccc2Cl)CC1)NCCCNC(=O)c1ccc(-c2c3nc(c(-c4cccc(S(=O)(=O)[O-])c4F)c4ccc([nH]4)c(-c4cccc(S(=O)(=O)[O-])c4F)c4nc(c(-c5cccc(S(=O)(=O)[O-])c5F)c5ccc2[nH]5)C=C4)C=C3)cc1
REMARK SMILES IDX 27 1 26 2 1 3 2 4 3 6 4 7 5 8 6 9 25 10 7 12 24 13 8 14 9 15
REMARK SMILES IDX 10 16 13 17 11 18 12 19 14 20 15 21 16 23 17 24 18 25 22 26
REMARK SMILES IDX 19 27 21 28 23 29 20 30 28 31 29 32 30 33 31 34 32 36 33 37
REMARK SMILES IDX 34 38 95 39 35 40 94 41 36 42 37 43 38 44 88 45 39 46 93 47
REMARK SMILES IDX 87 48 89 49 40 50 92 51 86 52 85 53 41 55 73 56 53 57 72 58
REMARK SMILES IDX 54 59 57 60 71 61 90 62 55 63 56 64 70 66 91 67 58 68 42 69
REMARK SMILES IDX 43 70 51 71 44 72 46 73 52 74 45 75 47 76 48 77 49 78 50 79
REMARK SMILES IDX 74 80 75 81 83 82 76 83 78 84 84 85 77 86 79 87 80 88 81 89
REMARK SMILES IDX 82 90 59 91 60 92 68 93 61 94 63 95 69 96 62 97 64 98 65 99
REMARK SMILES IDX 66 100 67 101
REMARK H PARENT 26 5 5 11 14 22 30 35 89 54 57 65
REMARK Flexibility Score: inf
ROOT
ATOM      1  C   UNL     1       1.830   1.560  -1.935  1.00  0.00     0.117 C 
ENDROOT
BRANCH   1   2
ATOM      2  N   UNL     1       2.334   1.070  -0.647  1.00  0.00    -0.356 N 
ATOM      3  O   UNL     1       0.732  -0.484  -0.209  1.00  0.00    -0.275 OA
ATOM      4  C   UNL     1       1.869  -0.067  -0.005  1.00  0.00     0.225 C 
ATOM      5  H   UNL     1       3.052   1.583  -0.209  1.00  0.00     0.163 HD
BRANCH   4   6
ATOM      6  C   UNL     1       2.864  -0.809   0.940  1.00  0.00     0.161 C 
BRANCH   6   7
ATOM      7  C   UNL     1       3.783  -1.949   0.301  1.00  0.00     0.272 C 
BRANCH   7   8
ATOM      8  N   UNL     1       4.949  -1.579  -0.574  1.00  0.00    -0.334 N 
ATOM      9  C   UNL     1       5.021  -2.324  -1.852  1.00  0.00     0.264 C 
ATOM     10  C   UNL     1       4.760  -0.201  -0.876  1.00  0.00     0.264 C 
ATOM     11  H   UNL     1       5.813  -1.799  -0.079  1.00  0.00     0.348 HD
ATOM     12  C   UNL     1       6.015  -1.704  -2.869  1.00  0.00     0.089 C 
ATOM     13  C   UNL     1       5.676   0.439  -1.820  1.00  0.00     0.089 C 
ATOM     14  C   UNL     1       5.670  -0.250  -3.168  1.00  0.00     0.121 C 
BRANCH  14  15
ATOM     15  N   UNL     1       6.609   0.358  -4.091  1.00  0.00    -0.246 N 
ATOM     16  N   UNL     1       6.743  -0.021  -5.375  1.00  0.00    -0.179 NA
ATOM     17  C   UNL     1       7.541   1.282  -3.778  1.00  0.00     0.131 A 
ATOM     18  C   UNL     1       7.937   0.498  -5.703  1.00  0.00     0.137 A 
ATOM     19  C   UNL     1       8.595   1.067  -4.615  1.00  0.00     0.069 A 
BRANCH  17  20
ATOM     20  N   UNL     1       7.459   2.214  -2.836  1.00  0.00    -0.307 N 
ATOM     21  C   UNL     1       8.520   2.958  -2.415  1.00  0.00     0.258 C 
ATOM     22  H   UNL     1       6.582   2.377  -2.418  1.00  0.00     0.171 HD
ATOM     23  O   UNL     1       8.412   2.933  -1.240  1.00  0.00    -0.269 OA
BRANCH  21  24
ATOM     24  C   UNL     1       9.452   3.668  -3.385  1.00  0.00     0.058 A 
ATOM     25  C   UNL     1      10.702   4.026  -2.880  1.00  0.00     0.015 A 
ATOM     26  C   UNL     1       9.172   4.030  -4.724  1.00  0.00     0.053 A 
ATOM     27  C   UNL     1      11.667   4.622  -3.683  1.00  0.00     0.001 A 
ATOM     28  C   UNL     1      10.151   4.607  -5.522  1.00  0.00     0.021 A 
ATOM     29  Cl  UNL     1       7.752   3.773  -5.659  1.00  0.00    -0.083 Cl
ATOM     30  C   UNL     1      11.406   4.862  -5.018  1.00  0.00     0.002 A 
ENDBRANCH  21  24
ENDBRANCH  17  20
ENDBRANCH  14  15
ENDBRANCH   7   8
ENDBRANCH   6   7
ENDBRANCH   4   6
ENDBRANCH   1   2
BRANCH   1  31
ATOM     31  C   UNL     1       2.091   3.043  -2.078  1.00  0.00     0.042 C 
BRANCH  31  32
ATOM     32  C   UNL     1       3.532   3.367  -2.270  1.00  0.00     0.118 C 
BRANCH  32  33
ATOM     33  N   UNL     1       4.104   3.035  -3.569  1.00  0.00    -0.352 N 
ATOM     34  C   UNL     1       4.843   3.939  -4.335  1.00  0.00     0.251 C 
ATOM     35  H   UNL     1       3.962   2.128  -3.925  1.00  0.00     0.163 HD
ATOM     36  O   UNL     1       4.881   3.772  -5.548  1.00  0.00    -0.269 OA
BRANCH  34  37
ATOM     37  C   UNL     1       5.685   4.949  -3.550  1.00  0.00     0.039 A 
ATOM     38  C   UNL     1       6.560   5.947  -3.966  1.00  0.00     0.014 A 
ATOM     39  C   UNL     1       5.908   4.595  -2.235  1.00  0.00     0.014 A 
ATOM     40  C   UNL     1       7.769   6.174  -3.094  1.00  0.00     0.010 A 
ATOM     41  C   UNL     1       6.669   5.310  -1.378  1.00  0.00     0.010 A 
ATOM     42  C   UNL     1       7.945   5.422  -1.823  1.00  0.00    -0.014 A 
BRANCH  42  43
ATOM     43  C   UNL     1       9.075   5.177  -0.446  1.00  0.00     0.031 A 
ATOM     44  C   UNL     1       8.737   6.856  -0.200  1.00  0.00     0.074 A 
ATOM     45  C   UNL     1       9.945   3.974   0.305  1.00  0.00     0.049 A 
ATOM     46  N   UNL     1       9.350   7.798  -0.895  1.00  0.00    -0.248 NA
ATOM     47  C   UNL     1       7.363   7.577   0.117  1.00  0.00     0.031 C 
ATOM     48  C   UNL     1      10.332   2.272   0.191  1.00  0.00     0.029 A 
ATOM     49  N   UNL     1      10.863   3.907   1.451  1.00  0.00    -0.354 N 
ATOM     50  C   UNL     1       8.988   8.961  -0.199  1.00  0.00     0.074 A 
ATOM     51  C   UNL     1       7.621   8.889   0.054  1.00  0.00     0.031 C 
ATOM     52  C   UNL     1      10.804   1.650   1.358  1.00  0.00     0.029 A 
ATOM     53  C   UNL     1      11.116   2.670   2.320  1.00  0.00     0.049 A 
ATOM     54  H   UNL     1      11.357   4.728   1.681  1.00  0.00     0.167 HD
ATOM     55  C   UNL     1       9.863   9.409   0.724  1.00  0.00     0.034 A 
ATOM     56  C   UNL     1      11.837   2.547   3.552  1.00  0.00     0.034 A 
ATOM     57  C   UNL     1      11.136   8.833   0.402  1.00  0.00     0.049 A 
ATOM     58  C   UNL     1      12.344   3.932   3.717  1.00  0.00     0.074 A 
ATOM     59  C   UNL     1      11.866   8.816  -0.774  1.00  0.00     0.029 A 
ATOM     60  N   UNL     1      11.341   7.628   1.013  1.00  0.00    -0.354 N 
ATOM     61  N   UNL     1      13.275   4.396   2.923  1.00  0.00    -0.248 NA
ATOM     62  C   UNL     1      11.277   4.840   4.143  1.00  0.00     0.031 C 
ATOM     63  C   UNL     1      12.485   7.544  -0.859  1.00  0.00     0.029 A 
ATOM     64  C   UNL     1      12.263   6.891   0.343  1.00  0.00     0.049 A 
ATOM     65  H   UNL     1      10.880   7.334   1.831  1.00  0.00     0.167 HD
ATOM     66  C   UNL     1      12.661   5.483   2.315  1.00  0.00     0.074 A 
ATOM     67  C   UNL     1      11.428   5.750   3.164  1.00  0.00     0.031 C 
ATOM     68  C   UNL     1      12.858   5.750   0.965  1.00  0.00     0.034 A 
BRANCH  55  69
ATOM     69  C   UNL     1       9.470   9.854   2.104  1.00  0.00     0.023 A 
ATOM     70  C   UNL     1      10.442  10.671   2.679  1.00  0.00     0.012 A 
ATOM     71  C   UNL     1       8.382   9.424   2.927  1.00  0.00     0.148 A 
ATOM     72  C   UNL     1      10.373  11.024   4.018  1.00  0.00     0.002 A 
ATOM     73  C   UNL     1       8.281   9.835   4.248  1.00  0.00     0.091 A 
ATOM     74  F   UNL     1       7.468   8.560   2.477  1.00  0.00    -0.205 F 
ATOM     75  C   UNL     1       9.291  10.626   4.799  1.00  0.00     0.022 A 
BRANCH  73  76
ATOM     76  S   UNL     1       6.920   9.336   5.327  1.00  0.00     0.127 S 
ATOM     77  O   UNL     1       7.627   8.599   6.370  1.00  0.00    -0.237 OA
ATOM     78  O   UNL     1       6.379  10.631   5.739  1.00  0.00    -0.237 OA
ATOM     79  O   UNL     1       6.016   8.543   4.502  1.00  0.00    -0.744 OA
ENDBRANCH  73  76
ENDBRANCH  55  69
BRANCH  56  80
ATOM     80  C   UNL     1      11.562   1.689   4.868  1.00  0.00     0.023 A 
ATOM     81  C   UNL     1      12.353   1.426   6.054  1.00  0.00     0.012 A 
ATOM     82  C   UNL     1      10.209   1.353   5.011  1.00  0.00     0.148 A 
ATOM     83  C   UNL     1      11.781   0.866   7.258  1.00  0.00     0.002 A 
ATOM     84  C   UNL     1       9.645   0.846   6.189  1.00  0.00     0.091 A 
ATOM     85  F   UNL     1       9.425   1.608   3.963  1.00  0.00    -0.205 F 
ATOM     86  C   UNL     1      10.415   0.606   7.329  1.00  0.00     0.022 A 
BRANCH  84  87
ATOM     87  S   UNL     1       7.882   0.492   6.256  1.00  0.00     0.127 S 
ATOM     88  O   UNL     1       7.880  -0.928   6.607  1.00  0.00    -0.237 OA
ATOM     89  O   UNL     1       7.426   1.392   7.311  1.00  0.00    -0.237 OA
ATOM     90  O   UNL     1       7.370   0.781   4.923  1.00  0.00    -0.744 OA
ENDBRANCH  84  87
ENDBRANCH  56  80
BRANCH  68  91
ATOM     91  C   UNL     1      13.878   4.986   0.108  1.00  0.00     0.023 A 
ATOM     92  C   UNL     1      13.741   3.773  -0.633  1.00  0.00     0.012 A 
ATOM     93  C   UNL     1      15.060   5.697  -0.064  1.00  0.00     0.148 A 
ATOM     94  C   UNL     1      14.819   3.225  -1.363  1.00  0.00     0.002 A 
ATOM     95  C   UNL     1      16.101   5.185  -0.817  1.00  0.00     0.091 A 
ATOM     96  F   UNL     1      15.117   6.923   0.470  1.00  0.00    -0.205 F 
ATOM     97  C   UNL     1      16.010   3.933  -1.441  1.00  0.00     0.022 A 
BRANCH  95  98
ATOM     98  S   UNL     1      17.623   6.101  -0.953  1.00  0.00     0.127 S 
ATOM     99  O   UNL     1      18.557   5.191  -0.296  1.00  0.00    -0.237 OA
ATOM    100  O   UNL     1      17.773   6.214  -2.403  1.00  0.00    -0.237 OA
ATOM    101  O   UNL     1      17.400   7.365  -0.265  1.00  0.00    -0.744 OA
ENDBRANCH  95  98
ENDBRANCH  68  91
ENDBRANCH  42  43
ENDBRANCH  34  37
ENDBRANCH  32  33
ENDBRANCH  31  32
ENDBRANCH   1  31
TORSDOF 18
