REMARK SMILES Cc1cc(C(=O)N[C@H]2C=C[C@H](C(=O)NCCCNC(=O)c3ccc(-c4c5nc(c(-c6cccc(S(=O)(=O)[O-])c6F)c6ccc([nH]6)c(-c6cccc(S(=O)(=O)[O-])c6F)c6nc(c(-c7cccc(S(=O)(=O)[O-])c7F)c7ccc4[nH]7)C=C6)C=C5)cc3)C2)ccc1F
REMARK SMILES IDX 16 1 15 2 14 3 12 4 13 5 11 7 8 8 9 9 84 10 10 11 7 12 5 13
REMARK SMILES IDX 6 14 4 16 1 17 2 18 3 19 87 20 86 21 88 22 85 23 17 24 18 25
REMARK SMILES IDX 19 26 20 28 21 29 22 30 83 31 23 32 82 33 24 34 25 35 26 36
REMARK SMILES IDX 76 37 27 38 81 39 75 40 77 41 28 42 80 43 74 44 73 45 29 47
REMARK SMILES IDX 61 48 41 49 60 50 42 51 45 52 59 53 78 54 43 55 44 56 58 58
REMARK SMILES IDX 79 59 46 60 30 61 31 62 39 63 32 64 34 65 40 66 33 67 35 68
REMARK SMILES IDX 36 69 37 70 38 71 62 72 63 73 71 74 64 75 66 76 72 77 65 78
REMARK SMILES IDX 67 79 68 80 69 81 70 82 47 83 48 84 56 85 49 86 51 87 57 88
REMARK SMILES IDX 50 89 52 90 53 91 54 92 55 93
REMARK H PARENT 14 6 7 15 18 27 77 46 45 57
REMARK Flexibility Score: inf
ROOT
ATOM      1  C   UNL     1      -0.273   7.854   1.375  1.00  0.00     0.042 C 
ENDROOT
BRANCH   1   2
ATOM      2  C   UNL     1      -0.401   6.729   0.353  1.00  0.00     0.117 C 
BRANCH   2   3
ATOM      3  N   UNL     1       0.246   5.528   0.837  1.00  0.00    -0.356 N 
ATOM      4  C   UNL     1      -0.176   4.600   1.728  1.00  0.00     0.227 C 
ATOM      5  O   UNL     1       0.670   3.798   2.138  1.00  0.00    -0.274 OA
ATOM      6  H   UNL     1       1.137   5.358   0.456  1.00  0.00     0.163 HD
BRANCH   4   7
ATOM      7  C   UNL     1      -1.647   4.457   2.179  1.00  0.00     0.103 C 
ATOM      8  C   UNL     1      -2.627   3.315   0.312  1.00  0.00     0.106 C 
ATOM      9  C   UNL     1      -3.319   4.622   0.525  1.00  0.00    -0.006 C 
ATOM     10  C   UNL     1      -2.089   3.060   1.721  1.00  0.00     0.047 C 
ATOM     11  C   UNL     1      -2.753   5.268   1.558  1.00  0.00    -0.016 C 
BRANCH   8  12
ATOM     12  N   UNL     1      -3.518   2.297  -0.166  1.00  0.00    -0.346 N 
ATOM     13  C   UNL     1      -3.255   0.985  -0.489  1.00  0.00     0.251 C 
ATOM     14  O   UNL     1      -4.202   0.268  -0.813  1.00  0.00    -0.269 OA
ATOM     15  H   UNL     1      -4.455   2.577  -0.280  1.00  0.00     0.164 HD
BRANCH  13  16
ATOM     16  C   UNL     1      -1.890   0.378  -0.383  1.00  0.00     0.040 A 
ATOM     17  C   UNL     1       1.812   1.293  -0.374  1.00  0.00     0.047 C 
ATOM     18  C   UNL     1       0.551   0.481  -0.324  1.00  0.00    -0.015 A 
ATOM     19  C   UNL     1      -0.692   1.071  -0.602  1.00  0.00     0.020 A 
ATOM     20  C   UNL     1       0.588  -0.866   0.028  1.00  0.00     0.126 A 
ATOM     21  C   UNL     1      -0.583  -1.605   0.151  1.00  0.00     0.040 A 
ATOM     22  F   UNL     1       1.763  -1.468   0.256  1.00  0.00    -0.207 F 
ATOM     23  C   UNL     1      -1.820  -0.980  -0.033  1.00  0.00     0.017 A 
ENDBRANCH  13  16
ENDBRANCH   8  12
ENDBRANCH   4   7
ENDBRANCH   2   3
ENDBRANCH   1   2
BRANCH   1  24
ATOM     24  C   UNL     1       1.040   8.561   1.147  1.00  0.00     0.118 C 
BRANCH  24  25
ATOM     25  N   UNL     1       0.995   9.347  -0.090  1.00  0.00    -0.352 N 
ATOM     26  C   UNL     1       1.683  10.502  -0.393  1.00  0.00     0.251 C 
ATOM     27  H   UNL     1       0.398   9.005  -0.794  1.00  0.00     0.163 HD
ATOM     28  O   UNL     1       1.286  11.278  -1.241  1.00  0.00    -0.269 OA
BRANCH  26  29
ATOM     29  C   UNL     1       2.926  10.750   0.346  1.00  0.00     0.039 A 
ATOM     30  C   UNL     1       3.422  12.041   0.555  1.00  0.00     0.014 A 
ATOM     31  C   UNL     1       3.624   9.630   0.781  1.00  0.00     0.014 A 
ATOM     32  C   UNL     1       4.651  12.182   1.185  1.00  0.00     0.010 A 
ATOM     33  C   UNL     1       4.654   9.774   1.638  1.00  0.00     0.010 A 
ATOM     34  C   UNL     1       5.249  11.029   1.689  1.00  0.00    -0.014 A 
BRANCH  34  35
ATOM     35  C   UNL     1       6.604  10.917   2.170  1.00  0.00     0.031 A 
ATOM     36  C   UNL     1       6.882  11.384   3.521  1.00  0.00     0.074 A 
ATOM     37  C   UNL     1       7.365  10.101   1.401  1.00  0.00     0.049 A 
ATOM     38  N   UNL     1       8.024  11.788   3.936  1.00  0.00    -0.248 NA
ATOM     39  C   UNL     1       5.832  11.502   4.537  1.00  0.00     0.031 C 
ATOM     40  C   UNL     1       8.566   9.345   1.694  1.00  0.00     0.029 A 
ATOM     41  N   UNL     1       7.139   9.832   0.049  1.00  0.00    -0.354 N 
ATOM     42  C   UNL     1       7.959  11.733   5.310  1.00  0.00     0.074 A 
ATOM     43  C   UNL     1       6.552  11.792   5.626  1.00  0.00     0.031 C 
ATOM     44  C   UNL     1       9.128   8.959   0.528  1.00  0.00     0.029 A 
ATOM     45  C   UNL     1       8.358   9.550  -0.564  1.00  0.00     0.049 A 
ATOM     46  H   UNL     1       6.262   9.840  -0.398  1.00  0.00     0.167 HD
ATOM     47  C   UNL     1       9.074  11.354   6.001  1.00  0.00     0.034 A 
ATOM     48  C   UNL     1       8.819  10.478  -1.458  1.00  0.00     0.034 A 
ATOM     49  C   UNL     1      10.143  11.025   5.054  1.00  0.00     0.049 A 
ATOM     50  C   UNL     1       9.936  11.273  -0.817  1.00  0.00     0.074 A 
ATOM     51  C   UNL     1      10.630   9.813   4.591  1.00  0.00     0.029 A 
ATOM     52  N   UNL     1      10.582  11.989   4.154  1.00  0.00    -0.354 N 
ATOM     53  N   UNL     1      10.039  11.489   0.470  1.00  0.00    -0.248 NA
ATOM     54  C   UNL     1      11.079  11.775  -1.568  1.00  0.00     0.031 C 
ATOM     55  C   UNL     1      11.292  10.051   3.355  1.00  0.00     0.029 A 
ATOM     56  C   UNL     1      11.195  11.401   3.065  1.00  0.00     0.049 A 
ATOM     57  H   UNL     1      10.471  12.959   4.277  1.00  0.00     0.167 HD
ATOM     58  C   UNL     1      11.268  12.030   0.737  1.00  0.00     0.074 A 
ATOM     59  C   UNL     1      11.864  12.225  -0.574  1.00  0.00     0.031 C 
ATOM     60  C   UNL     1      11.745  12.232   2.001  1.00  0.00     0.034 A 
BRANCH  47  61
ATOM     61  C   UNL     1       9.089  10.956   7.463  1.00  0.00     0.023 A 
ATOM     62  C   UNL     1       8.097  11.367   8.381  1.00  0.00     0.012 A 
ATOM     63  C   UNL     1      10.121  10.150   7.996  1.00  0.00     0.148 A 
ATOM     64  C   UNL     1       8.070  10.930   9.714  1.00  0.00     0.002 A 
ATOM     65  C   UNL     1      10.109   9.738   9.331  1.00  0.00     0.091 A 
ATOM     66  F   UNL     1      11.147   9.770   7.225  1.00  0.00    -0.205 F 
ATOM     67  C   UNL     1       9.078  10.109  10.192  1.00  0.00     0.022 A 
BRANCH  65  68
ATOM     68  S   UNL     1      11.465   8.730   9.939  1.00  0.00     0.127 S 
ATOM     69  O   UNL     1      11.322   7.499   9.168  1.00  0.00    -0.237 OA
ATOM     70  O   UNL     1      12.639   9.551   9.662  1.00  0.00    -0.237 OA
ATOM     71  O   UNL     1      11.160   8.586  11.364  1.00  0.00    -0.744 OA
ENDBRANCH  65  68
ENDBRANCH  47  61
BRANCH  48  72
ATOM     72  C   UNL     1       7.701  11.015  -2.319  1.00  0.00     0.023 A 
ATOM     73  C   UNL     1       6.955  12.141  -1.917  1.00  0.00     0.012 A 
ATOM     74  C   UNL     1       7.097  10.107  -3.224  1.00  0.00     0.148 A 
ATOM     75  C   UNL     1       5.608  12.275  -2.299  1.00  0.00     0.002 A 
ATOM     76  C   UNL     1       5.745  10.223  -3.560  1.00  0.00     0.091 A 
ATOM     77  F   UNL     1       7.823   9.066  -3.662  1.00  0.00    -0.205 F 
ATOM     78  C   UNL     1       4.989  11.294  -3.076  1.00  0.00     0.022 A 
BRANCH  76  79
ATOM     79  S   UNL     1       4.925   8.872  -4.426  1.00  0.00     0.127 S 
ATOM     80  O   UNL     1       5.344   9.079  -5.808  1.00  0.00    -0.237 OA
ATOM     81  O   UNL     1       5.434   7.675  -3.763  1.00  0.00    -0.237 OA
ATOM     82  O   UNL     1       3.502   9.111  -4.176  1.00  0.00    -0.744 OA
ENDBRANCH  76  79
ENDBRANCH  48  72
BRANCH  60  83
ATOM     83  C   UNL     1      12.882  13.153   2.367  1.00  0.00     0.023 A 
ATOM     84  C   UNL     1      13.433  13.069   3.674  1.00  0.00     0.012 A 
ATOM     85  C   UNL     1      13.357  14.186   1.554  1.00  0.00     0.148 A 
ATOM     86  C   UNL     1      14.382  13.973   4.149  1.00  0.00     0.002 A 
ATOM     87  C   UNL     1      14.409  14.991   1.979  1.00  0.00     0.091 A 
ATOM     88  F   UNL     1      12.768  14.458   0.383  1.00  0.00    -0.205 F 
ATOM     89  C   UNL     1      14.899  14.922   3.285  1.00  0.00     0.022 A 
BRANCH  87  90
ATOM     90  S   UNL     1      15.235  15.998   0.752  1.00  0.00     0.127 S 
ATOM     91  O   UNL     1      15.684  15.001  -0.217  1.00  0.00    -0.237 OA
ATOM     92  O   UNL     1      14.192  16.915   0.302  1.00  0.00    -0.237 OA
ATOM     93  O   UNL     1      16.315  16.633   1.507  1.00  0.00    -0.744 OA
ENDBRANCH  87  90
ENDBRANCH  60  83
ENDBRANCH  34  35
ENDBRANCH  26  29
ENDBRANCH  24  25
ENDBRANCH   1  24
TORSDOF 15
