REMARK SMILES O=C(/C=C/c1ccc(C(=O)NC2CC2)cc1)NC1(C(=O)NCCCNC(=O)c2ccc(-c3c4nc(c(-c5cccc(S(=O)(=O)[O-])c5F)c5ccc([nH]5)c(-c5cccc(S(=O)(=O)[O-])c5F)c5nc(c(-c6cccc(S(=O)(=O)[O-])c6F)c6ccc3[nH]6)C=C5)C=C4)cc2)CCCC1
REMARK SMILES IDX 22 1 21 2 19 3 20 4 18 6 91 7 94 8 92 9 93 10 17 11 1 12
REMARK SMILES IDX 2 13 3 15 4 16 5 17 6 18 16 19 7 20 15 21 8 22 9 23 10 24
REMARK SMILES IDX 11 25 12 27 13 28 14 29 23 30 24 31 25 32 26 33 27 35 28 36
REMARK SMILES IDX 29 37 90 38 30 39 89 40 31 41 32 42 33 43 83 44 34 45 88 46
REMARK SMILES IDX 82 47 84 48 35 49 87 50 81 51 80 52 36 54 68 55 48 56 67 57
REMARK SMILES IDX 49 58 52 59 66 60 85 61 50 62 51 63 65 65 86 66 53 67 37 68
REMARK SMILES IDX 38 69 46 70 39 71 41 72 47 73 40 74 42 75 43 76 44 77 45 78
REMARK SMILES IDX 69 79 70 80 78 81 71 82 73 83 79 84 72 85 74 86 75 87 76 88
REMARK SMILES IDX 77 89 54 90 55 91 63 92 56 93 58 94 64 95 57 96 59 97 60 98
REMARK SMILES IDX 61 99 62 100
REMARK H PARENT 21 5 17 14 11 26 25 34 84 53 52 64
REMARK Flexibility Score: inf
ROOT
ATOM      1  C   UNL     1       1.090  -3.320   4.095  1.00  0.00     0.117 C 
ENDROOT
BRANCH   1   2
ATOM      2  N   UNL     1       2.053  -2.264   3.883  1.00  0.00    -0.354 N 
ATOM      3  C   UNL     1       2.528  -1.686   2.748  1.00  0.00     0.245 C 
ATOM      4  O   UNL     1       3.392  -0.815   2.933  1.00  0.00    -0.272 OA
ATOM      5  H   UNL     1       2.434  -1.896   4.712  1.00  0.00     0.163 HD
BRANCH   3   6
ATOM      6  C   UNL     1       2.129  -2.135   1.293  1.00  0.00     0.119 C 
ATOM      7  C   UNL     1       0.625  -2.229   0.983  1.00  0.00     0.038 C 
ATOM      8  C   UNL     1       2.700  -3.528   0.972  1.00  0.00     0.038 C 
ATOM      9  C   UNL     1       0.266  -3.688   0.724  1.00  0.00     0.003 C 
ATOM     10  C   UNL     1       1.538  -4.502   0.849  1.00  0.00     0.003 C 
BRANCH   6  11
ATOM     11  N   UNL     1       2.813  -1.157   0.409  1.00  0.00    -0.338 N 
ATOM     12  O   UNL     1       1.194   0.482   0.405  1.00  0.00    -0.270 OA
ATOM     13  C   UNL     1       2.320   0.083   0.120  1.00  0.00     0.244 C 
ATOM     14  H   UNL     1       3.673  -1.418   0.008  1.00  0.00     0.164 HD
BRANCH  13  15
ATOM     15  C   UNL     1       3.217   1.001  -0.617  1.00  0.00     0.072 C 
ATOM     16  C   UNL     1       4.555   0.955  -0.727  1.00  0.00     0.014 C 
BRANCH  16  17
ATOM     17  C   UNL     1       5.257   2.078  -1.357  1.00  0.00    -0.025 A 
ATOM     18  C   UNL     1       6.202   1.885  -2.365  1.00  0.00     0.009 A 
ATOM     19  C   UNL     1       4.986   3.382  -0.929  1.00  0.00     0.009 A 
ATOM     20  C   UNL     1       6.784   2.993  -3.000  1.00  0.00     0.014 A 
ATOM     21  C   UNL     1       5.583   4.480  -1.547  1.00  0.00     0.014 A 
ATOM     22  C   UNL     1       6.444   4.307  -2.629  1.00  0.00     0.039 A 
BRANCH  22  23
ATOM     23  C   UNL     1       7.040   5.431  -3.413  1.00  0.00     0.251 C 
ATOM     24  O   UNL     1       8.038   5.217  -4.104  1.00  0.00    -0.269 OA
ATOM     25  N   UNL     1       6.499   6.702  -3.441  1.00  0.00    -0.349 N 
ATOM     26  H   UNL     1       6.978   7.337  -4.021  1.00  0.00     0.164 HD
BRANCH  25  27
ATOM     27  C   UNL     1       5.369   7.250  -2.774  1.00  0.00     0.082 C 
ATOM     28  C   UNL     1       4.472   8.245  -3.460  1.00  0.00     0.027 C 
ATOM     29  C   UNL     1       3.963   6.870  -3.155  1.00  0.00     0.027 C 
ENDBRANCH  25  27
ENDBRANCH  22  23
ENDBRANCH  16  17
ENDBRANCH  13  15
ENDBRANCH   6  11
ENDBRANCH   3   6
ENDBRANCH   1   2
BRANCH   1  30
ATOM     30  C   UNL     1       1.734  -4.618   4.563  1.00  0.00     0.042 C 
BRANCH  30  31
ATOM     31  C   UNL     1       1.982  -4.663   6.066  1.00  0.00     0.118 C 
BRANCH  31  32
ATOM     32  N   UNL     1       0.741  -4.576   6.832  1.00  0.00    -0.352 N 
ATOM     33  C   UNL     1       0.143  -5.476   7.676  1.00  0.00     0.251 C 
ATOM     34  H   UNL     1       0.252  -3.729   6.725  1.00  0.00     0.163 HD
ATOM     35  O   UNL     1      -1.021  -5.277   8.031  1.00  0.00    -0.269 OA
BRANCH  33  36
ATOM     36  C   UNL     1       0.867  -6.670   8.156  1.00  0.00     0.039 A 
ATOM     37  C   UNL     1       0.163  -7.865   8.326  1.00  0.00     0.014 A 
ATOM     38  C   UNL     1       2.225  -6.611   8.472  1.00  0.00     0.014 A 
ATOM     39  C   UNL     1       0.836  -9.011   8.753  1.00  0.00     0.010 A 
ATOM     40  C   UNL     1       2.914  -7.774   8.794  1.00  0.00     0.010 A 
ATOM     41  C   UNL     1       2.227  -8.985   8.953  1.00  0.00    -0.014 A 
BRANCH  41  42
ATOM     42  C   UNL     1       2.974 -10.217   9.306  1.00  0.00     0.031 A 
ATOM     43  C   UNL     1       3.761 -10.298  10.586  1.00  0.00     0.074 A 
ATOM     44  C   UNL     1       3.018 -11.234   8.424  1.00  0.00     0.049 A 
ATOM     45  N   UNL     1       4.488 -11.284  11.044  1.00  0.00    -0.248 NA
ATOM     46  C   UNL     1       3.759  -9.106  11.450  1.00  0.00     0.031 C 
ATOM     47  C   UNL     1       2.385 -11.232   7.103  1.00  0.00     0.029 A 
ATOM     48  N   UNL     1       3.639 -12.455   8.493  1.00  0.00    -0.354 N 
ATOM     49  C   UNL     1       5.061 -10.819  12.222  1.00  0.00     0.074 A 
ATOM     50  C   UNL     1       4.631  -9.448  12.386  1.00  0.00     0.031 C 
ATOM     51  C   UNL     1       2.640 -12.398   6.492  1.00  0.00     0.029 A 
ATOM     52  C   UNL     1       3.479 -13.217   7.360  1.00  0.00     0.049 A 
ATOM     53  H   UNL     1       4.151 -12.756   9.278  1.00  0.00     0.167 HD
ATOM     54  C   UNL     1       5.848 -11.481  13.104  1.00  0.00     0.034 A 
ATOM     55  C   UNL     1       3.960 -14.436   7.049  1.00  0.00     0.034 A 
ATOM     56  C   UNL     1       6.244 -12.855  12.950  1.00  0.00     0.049 A 
ATOM     57  C   UNL     1       4.782 -15.176   8.065  1.00  0.00     0.074 A 
ATOM     58  C   UNL     1       6.947 -13.654  13.834  1.00  0.00     0.029 A 
ATOM     59  N   UNL     1       5.991 -13.630  11.827  1.00  0.00    -0.354 N 
ATOM     60  N   UNL     1       5.162 -14.787   9.258  1.00  0.00    -0.248 NA
ATOM     61  C   UNL     1       5.209 -16.536   7.710  1.00  0.00     0.031 C 
ATOM     62  C   UNL     1       7.152 -14.899  13.229  1.00  0.00     0.029 A 
ATOM     63  C   UNL     1       6.542 -14.891  11.984  1.00  0.00     0.049 A 
ATOM     64  H   UNL     1       5.492 -13.328  11.034  1.00  0.00     0.167 HD
ATOM     65  C   UNL     1       5.854 -15.860   9.807  1.00  0.00     0.074 A 
ATOM     66  C   UNL     1       5.814 -16.925   8.824  1.00  0.00     0.031 C 
ATOM     67  C   UNL     1       6.476 -15.951  11.009  1.00  0.00     0.034 A 
BRANCH  54  68
ATOM     68  C   UNL     1       6.299 -10.730  14.332  1.00  0.00     0.023 A 
ATOM     69  C   UNL     1       5.356 -10.357  15.314  1.00  0.00     0.012 A 
ATOM     70  C   UNL     1       7.657 -10.409  14.527  1.00  0.00     0.148 A 
ATOM     71  C   UNL     1       5.747  -9.632  16.439  1.00  0.00     0.002 A 
ATOM     72  C   UNL     1       8.046  -9.731  15.677  1.00  0.00     0.091 A 
ATOM     73  F   UNL     1       8.539 -10.749  13.576  1.00  0.00    -0.205 F 
ATOM     74  C   UNL     1       7.092  -9.327  16.625  1.00  0.00     0.022 A 
BRANCH  72  75
ATOM     75  S   UNL     1       9.765  -9.367  16.047  1.00  0.00     0.127 S 
ATOM     76  O   UNL     1       9.821  -7.926  15.804  1.00  0.00    -0.237 OA
ATOM     77  O   UNL     1       9.865  -9.751  17.456  1.00  0.00    -0.237 OA
ATOM     78  O   UNL     1      10.553 -10.189  15.139  1.00  0.00    -0.744 OA
ENDBRANCH  72  75
ENDBRANCH  54  68
BRANCH  55  79
ATOM     79  C   UNL     1       3.612 -15.044   5.734  1.00  0.00     0.023 A 
ATOM     80  C   UNL     1       2.699 -16.114   5.682  1.00  0.00     0.012 A 
ATOM     81  C   UNL     1       4.121 -14.513   4.533  1.00  0.00     0.148 A 
ATOM     82  C   UNL     1       2.315 -16.660   4.457  1.00  0.00     0.002 A 
ATOM     83  C   UNL     1       3.689 -15.022   3.315  1.00  0.00     0.091 A 
ATOM     84  F   UNL     1       4.991 -13.496   4.609  1.00  0.00    -0.205 F 
ATOM     85  C   UNL     1       2.799 -16.106   3.274  1.00  0.00     0.022 A 
BRANCH  83  86
ATOM     86  S   UNL     1       4.144 -14.280   1.744  1.00  0.00     0.127 S 
ATOM     87  O   UNL     1       4.935 -15.343   1.129  1.00  0.00    -0.237 OA
ATOM     88  O   UNL     1       2.835 -14.052   1.132  1.00  0.00    -0.237 OA
ATOM     89  O   UNL     1       4.875 -13.064   2.075  1.00  0.00    -0.744 OA
ENDBRANCH  83  86
ENDBRANCH  55  79
BRANCH  67  90
ATOM     90  C   UNL     1       7.155 -17.255  11.341  1.00  0.00     0.023 A 
ATOM     91  C   UNL     1       8.335 -17.624  10.665  1.00  0.00     0.012 A 
ATOM     92  C   UNL     1       6.656 -18.086  12.363  1.00  0.00     0.148 A 
ATOM     93  C   UNL     1       8.984 -18.820  10.972  1.00  0.00     0.002 A 
ATOM     94  C   UNL     1       7.338 -19.249  12.700  1.00  0.00     0.091 A 
ATOM     95  F   UNL     1       5.523 -17.727  12.983  1.00  0.00    -0.205 F 
ATOM     96  C   UNL     1       8.492 -19.625  11.996  1.00  0.00     0.022 A 
BRANCH  94  97
ATOM     97  S   UNL     1       6.834 -20.297  14.069  1.00  0.00     0.127 S 
ATOM     98  O   UNL     1       6.303 -21.465  13.370  1.00  0.00    -0.237 OA
ATOM     99  O   UNL     1       8.100 -20.526  14.766  1.00  0.00    -0.237 OA
ATOM    100  O   UNL     1       5.859 -19.526  14.828  1.00  0.00    -0.744 OA
ENDBRANCH  94  97
ENDBRANCH  67  90
ENDBRANCH  41  42
ENDBRANCH  33  36
ENDBRANCH  31  32
ENDBRANCH  30  31
ENDBRANCH   1  30
TORSDOF 18
