REMARK SMILES Cc1cccc(CS[C@@H]2CC[C@]([NH3+])(C(=O)NCCCNC(=O)c3ccc(-c4c5nc(c(-c6cccc(S(=O)(=O)[O-])c6F)c6ccc([nH]6)c(-c6cccc(S(=O)(=O)[O-])c6F)c6nc(c(-c7cccc(S(=O)(=O)[O-])c7F)c7ccc4[nH]7)C=C6)C=C5)cc3)C2)c1
REMARK SMILES IDX 18 1 17 2 16 3 14 4 15 5 12 7 9 8 10 9 86 10 11 11 8 12 7 13
REMARK SMILES IDX 6 14 1 15 2 16 3 17 87 18 4 19 5 20 13 21 19 25 20 26 21 27
REMARK SMILES IDX 22 29 23 30 24 31 85 32 25 33 84 34 26 35 27 36 28 37 78 38
REMARK SMILES IDX 29 39 83 40 77 41 79 42 30 43 82 44 76 45 75 46 31 48 63 49
REMARK SMILES IDX 43 50 62 51 44 52 47 53 61 54 80 55 45 56 46 57 60 59 81 60
REMARK SMILES IDX 48 61 32 62 33 63 41 64 34 65 36 66 42 67 35 68 37 69 38 70
REMARK SMILES IDX 39 71 40 72 64 73 65 74 73 75 66 76 68 77 74 78 67 79 69 80
REMARK SMILES IDX 70 81 71 82 72 83 49 84 50 85 58 86 51 87 53 88 59 89 52 90
REMARK SMILES IDX 54 91 55 92 56 93 57 94
REMARK H PARENT 16 6 13 22 13 23 13 24 20 28 79 47 47 58
REMARK Flexibility Score: inf
ROOT
ATOM      1  C   UNL     1       1.773   0.860  -5.871  1.00  0.00     0.042 C 
ENDROOT
BRANCH   1   2
ATOM      2  C   UNL     1       2.278   1.016  -4.431  1.00  0.00     0.118 C 
BRANCH   2   3
ATOM      3  N   UNL     1       2.306   2.386  -3.947  1.00  0.00    -0.351 N 
ATOM      4  C   UNL     1       1.304   3.203  -3.517  1.00  0.00     0.281 C 
ATOM      5  O   UNL     1       1.637   4.296  -3.040  1.00  0.00    -0.268 OA
ATOM      6  H   UNL     1       3.202   2.794  -3.926  1.00  0.00     0.163 HD
BRANCH   4   7
ATOM      7  C   UNL     1      -0.202   2.863  -3.721  1.00  0.00     0.175 C 
ATOM      8  C   UNL     1      -2.352   2.848  -2.545  1.00  0.00     0.054 C 
ATOM      9  C   UNL     1      -2.079   1.438  -3.062  1.00  0.00     0.022 C 
ATOM     10  C   UNL     1      -1.046   3.633  -2.678  1.00  0.00     0.093 C 
ATOM     11  C   UNL     1      -0.606   1.418  -3.438  1.00  0.00     0.080 C 
BRANCH   8  12
ATOM     12  S   UNL     1      -3.211   2.889  -0.927  1.00  0.00    -0.154 SA
BRANCH  12  13
ATOM     13  C   UNL     1      -1.885   2.617   0.298  1.00  0.00     0.105 C 
BRANCH  13  14
ATOM     14  C   UNL     1      -1.156   1.300   0.224  1.00  0.00    -0.038 A 
ATOM     15  C   UNL     1       2.449   0.043  -0.007  1.00  0.00     0.044 C 
ATOM     16  C   UNL     1       0.952   0.065   0.096  1.00  0.00    -0.051 A 
ATOM     17  C   UNL     1       0.240  -1.139   0.132  1.00  0.00     0.003 A 
ATOM     18  C   UNL     1       0.248   1.277   0.148  1.00  0.00     0.008 A 
ATOM     19  C   UNL     1      -1.150  -1.131   0.235  1.00  0.00     0.001 A 
ATOM     20  C   UNL     1      -1.843   0.079   0.295  1.00  0.00     0.004 A 
ENDBRANCH  13  14
ENDBRANCH  12  13
ENDBRANCH   8  12
BRANCH   7  21
ATOM     21  N   UNL     1      -0.588   3.256  -5.094  1.00  0.00    -0.345 N 
ATOM     22  H   UNL     1      -1.573   3.040  -5.245  1.00  0.00     0.345 HD
ATOM     23  H   UNL     1      -0.019   2.743  -5.767  1.00  0.00     0.345 HD
ATOM     24  H   UNL     1      -0.437   4.258  -5.215  1.00  0.00     0.345 HD
ENDBRANCH   7  21
ENDBRANCH   4   7
ENDBRANCH   2   3
ENDBRANCH   1   2
BRANCH   1  25
ATOM     25  C   UNL     1       2.903   0.606  -6.851  1.00  0.00     0.118 C 
BRANCH  25  26
ATOM     26  N   UNL     1       3.610  -0.646  -6.546  1.00  0.00    -0.352 N 
ATOM     27  C   UNL     1       4.882  -1.123  -6.794  1.00  0.00     0.251 C 
ATOM     28  H   UNL     1       3.051  -1.289  -6.053  1.00  0.00     0.163 HD
ATOM     29  O   UNL     1       5.054  -2.340  -6.686  1.00  0.00    -0.269 OA
BRANCH  27  30
ATOM     30  C   UNL     1       6.008  -0.229  -7.133  1.00  0.00     0.039 A 
ATOM     31  C   UNL     1       7.308  -0.687  -7.374  1.00  0.00     0.014 A 
ATOM     32  C   UNL     1       5.819   1.134  -7.011  1.00  0.00     0.014 A 
ATOM     33  C   UNL     1       8.365   0.229  -7.290  1.00  0.00     0.010 A 
ATOM     34  C   UNL     1       6.767   2.039  -7.346  1.00  0.00     0.010 A 
ATOM     35  C   UNL     1       8.056   1.580  -7.171  1.00  0.00    -0.014 A 
BRANCH  35  36
ATOM     36  C   UNL     1       8.874   2.649  -6.627  1.00  0.00     0.031 A 
ATOM     37  C   UNL     1       9.678   3.462  -7.526  1.00  0.00     0.074 A 
ATOM     38  C   UNL     1       8.464   3.142  -5.431  1.00  0.00     0.049 A 
ATOM     39  N   UNL     1      10.411   4.439  -7.133  1.00  0.00    -0.248 NA
ATOM     40  C   UNL     1       9.715   3.219  -8.959  1.00  0.00     0.031 C 
ATOM     41  C   UNL     1       8.514   4.515  -4.941  1.00  0.00     0.029 A 
ATOM     42  N   UNL     1       7.866   2.459  -4.381  1.00  0.00    -0.354 N 
ATOM     43  C   UNL     1      10.751   5.147  -8.258  1.00  0.00     0.074 A 
ATOM     44  C   UNL     1      10.470   4.247  -9.349  1.00  0.00     0.031 C 
ATOM     45  C   UNL     1       8.210   4.527  -3.631  1.00  0.00     0.029 A 
ATOM     46  C   UNL     1       8.140   3.145  -3.192  1.00  0.00     0.049 A 
ATOM     47  H   UNL     1       7.338   1.631  -4.459  1.00  0.00     0.167 HD
ATOM     48  C   UNL     1      11.058   6.467  -8.112  1.00  0.00     0.034 A 
ATOM     49  C   UNL     1       9.007   2.556  -2.306  1.00  0.00     0.034 A 
ATOM     50  C   UNL     1      11.176   6.823  -6.676  1.00  0.00     0.049 A 
ATOM     51  C   UNL     1      10.371   3.241  -2.260  1.00  0.00     0.074 A 
ATOM     52  C   UNL     1      10.412   7.534  -5.764  1.00  0.00     0.029 A 
ATOM     53  N   UNL     1      12.108   6.136  -5.912  1.00  0.00    -0.354 N 
ATOM     54  N   UNL     1      10.666   4.381  -2.831  1.00  0.00    -0.248 NA
ATOM     55  C   UNL     1      11.536   2.628  -1.623  1.00  0.00     0.031 C 
ATOM     56  C   UNL     1      10.839   7.165  -4.443  1.00  0.00     0.029 A 
ATOM     57  C   UNL     1      11.889   6.267  -4.550  1.00  0.00     0.049 A 
ATOM     58  H   UNL     1      12.847   5.611  -6.296  1.00  0.00     0.167 HD
ATOM     59  C   UNL     1      12.031   4.521  -2.870  1.00  0.00     0.074 A 
ATOM     60  C   UNL     1      12.526   3.432  -2.041  1.00  0.00     0.031 C 
ATOM     61  C   UNL     1      12.689   5.450  -3.634  1.00  0.00     0.034 A 
BRANCH  48  62
ATOM     62  C   UNL     1      11.072   7.497  -9.233  1.00  0.00     0.023 A 
ATOM     63  C   UNL     1      11.291   8.842  -8.864  1.00  0.00     0.012 A 
ATOM     64  C   UNL     1      10.818   7.280 -10.613  1.00  0.00     0.148 A 
ATOM     65  C   UNL     1      11.229   9.896  -9.785  1.00  0.00     0.002 A 
ATOM     66  C   UNL     1      10.774   8.325 -11.538  1.00  0.00     0.091 A 
ATOM     67  F   UNL     1      10.577   6.060 -11.077  1.00  0.00    -0.205 F 
ATOM     68  C   UNL     1      10.969   9.640 -11.123  1.00  0.00     0.022 A 
BRANCH  66  69
ATOM     69  S   UNL     1      10.431   8.054 -13.291  1.00  0.00     0.127 S 
ATOM     70  O   UNL     1       9.223   8.856 -13.491  1.00  0.00    -0.237 OA
ATOM     71  O   UNL     1      11.632   8.592 -13.928  1.00  0.00    -0.237 OA
ATOM     72  O   UNL     1      10.237   6.619 -13.466  1.00  0.00    -0.744 OA
ENDBRANCH  66  69
ENDBRANCH  48  62
BRANCH  49  73
ATOM     73  C   UNL     1       8.779   1.065  -2.268  1.00  0.00     0.023 A 
ATOM     74  C   UNL     1       7.488   0.632  -1.868  1.00  0.00     0.012 A 
ATOM     75  C   UNL     1       9.572   0.190  -3.035  1.00  0.00     0.148 A 
ATOM     76  C   UNL     1       6.936  -0.543  -2.386  1.00  0.00     0.002 A 
ATOM     77  C   UNL     1       9.021  -0.993  -3.526  1.00  0.00     0.091 A 
ATOM     78  F   UNL     1      10.825   0.546  -3.343  1.00  0.00    -0.205 F 
ATOM     79  C   UNL     1       7.688  -1.332  -3.252  1.00  0.00     0.022 A 
BRANCH  77  80
ATOM     80  S   UNL     1       9.983  -2.064  -4.601  1.00  0.00     0.127 S 
ATOM     81  O   UNL     1      10.671  -2.909  -3.629  1.00  0.00    -0.237 OA
ATOM     82  O   UNL     1       8.958  -2.752  -5.387  1.00  0.00    -0.237 OA
ATOM     83  O   UNL     1      10.820  -1.161  -5.378  1.00  0.00    -0.744 OA
ENDBRANCH  77  80
ENDBRANCH  49  73
BRANCH  61  84
ATOM     84  C   UNL     1      14.195   5.630  -3.551  1.00  0.00     0.023 A 
ATOM     85  C   UNL     1      14.839   5.579  -2.296  1.00  0.00     0.012 A 
ATOM     86  C   UNL     1      14.993   6.003  -4.660  1.00  0.00     0.148 A 
ATOM     87  C   UNL     1      16.209   5.822  -2.156  1.00  0.00     0.002 A 
ATOM     88  C   UNL     1      16.327   6.364  -4.496  1.00  0.00     0.091 A 
ATOM     89  F   UNL     1      14.485   5.960  -5.896  1.00  0.00    -0.205 F 
ATOM     90  C   UNL     1      16.949   6.240  -3.252  1.00  0.00     0.022 A 
BRANCH  88  91
ATOM     91  S   UNL     1      17.276   7.141  -5.814  1.00  0.00     0.127 S 
ATOM     92  O   UNL     1      17.839   8.306  -5.128  1.00  0.00    -0.237 OA
ATOM     93  O   UNL     1      18.246   6.100  -6.142  1.00  0.00    -0.237 OA
ATOM     94  O   UNL     1      16.315   7.469  -6.858  1.00  0.00    -0.744 OA
ENDBRANCH  88  91
ENDBRANCH  61  84
ENDBRANCH  35  36
ENDBRANCH  27  30
ENDBRANCH  25  26
ENDBRANCH   1  25
TORSDOF 17
