REMARK SMILES CC(C)[N@H+](C)Cc1cc2c(cc1Cl)C=C(C(=O)NCCCNC(=O)c1ccc(-c3c4nc(c(-c5cccc(S(=O)(=O)[O-])c5F)c5ccc([nH]5)c(-c5cccc(S(=O)(=O)[O-])c5F)c5nc(c(-c6cccc(S(=O)(=O)[O-])c6F)c6ccc3[nH]6)C=C5)C=C4)cc1)[C@@H](C(F)(F)F)O2
REMARK SMILES IDX 20 1 19 2 18 3 16 4 17 5 15 7 7 8 8 9 12 10 9 11 11 12 13 13
REMARK SMILES IDX 10 14 93 15 14 16 88 17 6 18 4 19 5 20 2 22 1 23 3 24 89 25
REMARK SMILES IDX 90 26 91 27 92 28 21 29 22 30 23 31 24 33 25 34 26 35 87 36
REMARK SMILES IDX 27 37 86 38 28 39 29 40 30 41 80 42 31 43 85 44 79 45 81 46
REMARK SMILES IDX 32 47 84 48 78 49 77 50 33 52 65 53 45 54 64 55 46 56 49 57
REMARK SMILES IDX 63 58 82 59 47 60 48 61 62 63 83 64 50 65 34 66 35 67 43 68
REMARK SMILES IDX 36 69 38 70 44 71 37 72 39 73 40 74 41 75 42 76 66 77 67 78
REMARK SMILES IDX 75 79 68 80 70 81 76 82 69 83 71 84 72 85 73 86 74 87 51 88
REMARK SMILES IDX 52 89 60 90 53 91 55 92 61 93 54 94 56 95 57 96 58 97 59 98
REMARK H PARENT 18 6 4 21 22 32 81 51 49 62
REMARK Flexibility Score: inf
ROOT
ATOM      1  C   UNL     1      -1.993   9.795   5.183  1.00  0.00     0.042 C 
ENDROOT
BRANCH   1   2
ATOM      2  C   UNL     1      -0.581   9.358   4.835  1.00  0.00     0.118 C 
BRANCH   2   3
ATOM      3  N   UNL     1      -0.015   8.492   5.855  1.00  0.00    -0.352 N 
ATOM      4  C   UNL     1       0.143   7.162   6.034  1.00  0.00     0.251 C 
ATOM      5  O   UNL     1       0.656   6.829   7.107  1.00  0.00    -0.270 OA
ATOM      6  H   UNL     1       0.346   9.007   6.612  1.00  0.00     0.163 HD
BRANCH   4   7
ATOM      7  C   UNL     1      -0.245   6.121   5.041  1.00  0.00     0.067 C 
ATOM      8  C   UNL     1      -1.078   1.663   2.810  1.00  0.00     0.029 A 
ATOM      9  C   UNL     1      -1.213   3.008   2.417  1.00  0.00     0.058 A 
ATOM     10  C   UNL     1      -0.766   1.401   4.157  1.00  0.00     0.050 A 
ATOM     11  C   UNL     1      -0.955   4.046   3.311  1.00  0.00     0.128 A 
ATOM     12  C   UNL     1      -0.466   2.448   5.035  1.00  0.00     0.033 A 
ATOM     13  Cl  UNL     1      -0.772  -0.181   4.858  1.00  0.00    -0.084 Cl
ATOM     14  C   UNL     1      -0.548   3.772   4.610  1.00  0.00     0.019 A 
ATOM     15  O   UNL     1      -1.171   5.310   2.852  1.00  0.00    -0.475 OA
ATOM     16  C   UNL     1      -0.247   4.864   5.518  1.00  0.00     0.025 C 
ATOM     17  C   UNL     1      -0.560   6.400   3.596  1.00  0.00     0.314 C 
BRANCH   8  18
ATOM     18  C   UNL     1      -1.364   0.606   1.761  1.00  0.00     0.300 C 
BRANCH  18  19
ATOM     19  N   UNL     1      -0.547  -0.602   1.871  1.00  0.00    -0.332 N 
ATOM     20  C   UNL     1      -1.335  -1.810   1.668  1.00  0.00     0.333 C 
ATOM     21  H   UNL     1      -0.244  -0.573   2.845  1.00  0.00     0.348 HD
BRANCH  19  22
ATOM     22  C   UNL     1       0.764  -0.627   1.208  1.00  0.00     0.177 C 
ATOM     23  C   UNL     1       0.744  -0.396  -0.307  1.00  0.00     0.075 C 
ATOM     24  C   UNL     1       1.760   0.334   1.868  1.00  0.00     0.075 C 
ENDBRANCH  19  22
ENDBRANCH  18  19
ENDBRANCH   8  18
BRANCH  17  25
ATOM     25  C   UNL     1       0.656   6.890   2.789  1.00  0.00     0.429 C 
ATOM     26  F   UNL     1       0.248   7.503   1.649  1.00  0.00    -0.167 F 
ATOM     27  F   UNL     1       1.412   7.790   3.457  1.00  0.00    -0.167 F 
ATOM     28  F   UNL     1       1.478   5.877   2.430  1.00  0.00    -0.167 F 
ENDBRANCH  17  25
ENDBRANCH   4   7
ENDBRANCH   2   3
ENDBRANCH   1   2
BRANCH   1  29
ATOM     29  C   UNL     1      -2.015  10.803   6.324  1.00  0.00     0.118 C 
BRANCH  29  30
ATOM     30  N   UNL     1      -1.304  12.034   5.978  1.00  0.00    -0.352 N 
ATOM     31  C   UNL     1      -1.793  13.278   5.658  1.00  0.00     0.251 C 
ATOM     32  H   UNL     1      -0.323  11.959   5.974  1.00  0.00     0.163 HD
ATOM     33  O   UNL     1      -1.059  14.101   5.119  1.00  0.00    -0.269 OA
BRANCH  31  34
ATOM     34  C   UNL     1      -3.200  13.602   5.957  1.00  0.00     0.039 A 
ATOM     35  C   UNL     1      -3.763  13.173   7.157  1.00  0.00     0.014 A 
ATOM     36  C   UNL     1      -3.966  14.319   5.035  1.00  0.00     0.014 A 
ATOM     37  C   UNL     1      -5.131  13.265   7.341  1.00  0.00     0.010 A 
ATOM     38  C   UNL     1      -5.326  14.523   5.283  1.00  0.00     0.010 A 
ATOM     39  C   UNL     1      -5.930  13.950   6.412  1.00  0.00    -0.014 A 
BRANCH  39  40
ATOM     40  C   UNL     1      -7.387  14.056   6.669  1.00  0.00     0.031 A 
ATOM     41  C   UNL     1      -8.388  13.462   5.718  1.00  0.00     0.074 A 
ATOM     42  C   UNL     1      -7.800  14.635   7.814  1.00  0.00     0.049 A 
ATOM     43  N   UNL     1      -9.693  13.441   5.813  1.00  0.00    -0.248 NA
ATOM     44  C   UNL     1      -7.868  12.811   4.504  1.00  0.00     0.031 C 
ATOM     45  C   UNL     1      -6.916  15.254   8.806  1.00  0.00     0.029 A 
ATOM     46  N   UNL     1      -9.051  14.771   8.354  1.00  0.00    -0.354 N 
ATOM     47  C   UNL     1     -10.150  12.822   4.657  1.00  0.00     0.074 A 
ATOM     48  C   UNL     1      -8.985  12.482   3.869  1.00  0.00     0.031 C 
ATOM     49  C   UNL     1      -7.643  15.639   9.863  1.00  0.00     0.029 A 
ATOM     50  C   UNL     1      -9.050  15.366   9.593  1.00  0.00     0.049 A 
ATOM     51  H   UNL     1      -9.872  14.473   7.899  1.00  0.00     0.167 HD
ATOM     52  C   UNL     1     -11.424  12.543   4.295  1.00  0.00     0.034 A 
ATOM     53  C   UNL     1     -10.065  15.672  10.421  1.00  0.00     0.034 A 
ATOM     54  C   UNL     1     -12.574  12.833   5.107  1.00  0.00     0.049 A 
ATOM     55  C   UNL     1     -11.465  15.345  10.005  1.00  0.00     0.074 A 
ATOM     56  C   UNL     1     -13.904  12.565   4.838  1.00  0.00     0.029 A 
ATOM     57  N   UNL     1     -12.530  13.446   6.350  1.00  0.00    -0.354 N 
ATOM     58  N   UNL     1     -11.872  14.725   8.924  1.00  0.00    -0.248 NA
ATOM     59  C   UNL     1     -12.544  15.752  10.913  1.00  0.00     0.031 C 
ATOM     60  C   UNL     1     -14.666  13.019   5.919  1.00  0.00     0.029 A 
ATOM     61  C   UNL     1     -13.810  13.563   6.864  1.00  0.00     0.049 A 
ATOM     62  H   UNL     1     -11.711  13.754   6.801  1.00  0.00     0.167 HD
ATOM     63  C   UNL     1     -13.255  14.666   9.019  1.00  0.00     0.074 A 
ATOM     64  C   UNL     1     -13.615  15.291  10.277  1.00  0.00     0.031 C 
ATOM     65  C   UNL     1     -14.145  14.157   8.133  1.00  0.00     0.034 A 
BRANCH  52  66
ATOM     66  C   UNL     1     -11.642  11.845   2.981  1.00  0.00     0.023 A 
ATOM     67  C   UNL     1     -11.405  10.459   2.889  1.00  0.00     0.012 A 
ATOM     68  C   UNL     1     -12.138  12.540   1.861  1.00  0.00     0.148 A 
ATOM     69  C   UNL     1     -11.642   9.777   1.697  1.00  0.00     0.002 A 
ATOM     70  C   UNL     1     -12.400  11.848   0.684  1.00  0.00     0.091 A 
ATOM     71  F   UNL     1     -12.337  13.861   1.966  1.00  0.00    -0.205 F 
ATOM     72  C   UNL     1     -12.147  10.468   0.599  1.00  0.00     0.022 A 
BRANCH  70  73
ATOM     73  S   UNL     1     -13.100  12.635  -0.771  1.00  0.00     0.127 S 
ATOM     74  O   UNL     1     -11.962  12.615  -1.690  1.00  0.00    -0.237 OA
ATOM     75  O   UNL     1     -14.185  11.720  -1.125  1.00  0.00    -0.237 OA
ATOM     76  O   UNL     1     -13.533  13.957  -0.343  1.00  0.00    -0.744 OA
ENDBRANCH  70  73
ENDBRANCH  52  66
BRANCH  53  77
ATOM     77  C   UNL     1      -9.750  16.288  11.737  1.00  0.00     0.023 A 
ATOM     78  C   UNL     1      -9.792  15.492  12.897  1.00  0.00     0.012 A 
ATOM     79  C   UNL     1      -9.267  17.609  11.819  1.00  0.00     0.148 A 
ATOM     80  C   UNL     1      -9.348  16.000  14.118  1.00  0.00     0.002 A 
ATOM     81  C   UNL     1      -8.783  18.092  13.027  1.00  0.00     0.091 A 
ATOM     82  F   UNL     1      -9.233  18.339  10.695  1.00  0.00    -0.205 F 
ATOM     83  C   UNL     1      -8.830  17.292  14.180  1.00  0.00     0.022 A 
BRANCH  81  84
ATOM     84  S   UNL     1      -7.974  19.688  13.179  1.00  0.00     0.127 S 
ATOM     85  O   UNL     1      -8.831  20.366  14.149  1.00  0.00    -0.237 OA
ATOM     86  O   UNL     1      -6.655  19.305  13.682  1.00  0.00    -0.237 OA
ATOM     87  O   UNL     1      -7.973  20.263  11.841  1.00  0.00    -0.744 OA
ENDBRANCH  81  84
ENDBRANCH  53  77
BRANCH  65  88
ATOM     88  C   UNL     1     -15.603  14.253   8.476  1.00  0.00     0.023 A 
ATOM     89  C   UNL     1     -16.281  15.467   8.257  1.00  0.00     0.012 A 
ATOM     90  C   UNL     1     -16.321  13.116   8.893  1.00  0.00     0.148 A 
ATOM     91  C   UNL     1     -17.658  15.551   8.454  1.00  0.00     0.002 A 
ATOM     92  C   UNL     1     -17.698  13.199   9.057  1.00  0.00     0.091 A 
ATOM     93  F   UNL     1     -15.646  11.977   9.102  1.00  0.00    -0.205 F 
ATOM     94  C   UNL     1     -18.367  14.416   8.842  1.00  0.00     0.022 A 
BRANCH  92  95
ATOM     95  S   UNL     1     -18.709  11.777   9.483  1.00  0.00     0.127 S 
ATOM     96  O   UNL     1     -19.191  12.143  10.814  1.00  0.00    -0.237 OA
ATOM     97  O   UNL     1     -19.730  11.800   8.436  1.00  0.00    -0.237 OA
ATOM     98  O   UNL     1     -17.822  10.623   9.443  1.00  0.00    -0.744 OA
ENDBRANCH  92  95
ENDBRANCH  65  88
ENDBRANCH  39  40
ENDBRANCH  31  34
ENDBRANCH  29  30
ENDBRANCH   1  29
TORSDOF 17
