REMARK SMILES CC(C)C[C@H](NS(=O)(=O)N1C[C@@H](C)C[C@H](C)C1)C(=O)NCCCNC(=O)c1ccc(-c2c3nc(c(-c4cccc(S(=O)(=O)[O-])c4F)c4ccc([nH]4)c(-c4cccc(S(=O)(=O)[O-])c4F)c4nc(c(-c5cccc(S(=O)(=O)[O-])c5F)c5ccc2[nH]5)C=C4)C=C3)cc1
REMARK SMILES IDX 22 1 21 2 20 3 18 4 19 5 5 7 4 8 2 9 1 10 3 11 6 12 7 14
REMARK SMILES IDX 8 15 9 16 10 17 11 18 17 19 12 20 15 21 13 22 14 23 16 24
REMARK SMILES IDX 23 25 24 26 25 27 26 29 27 30 28 31 89 32 29 33 88 34 30 35
REMARK SMILES IDX 31 36 32 37 82 38 33 39 87 40 81 41 83 42 34 43 86 44 80 45
REMARK SMILES IDX 79 46 35 48 67 49 47 50 66 51 48 52 51 53 65 54 84 55 49 56
REMARK SMILES IDX 50 57 64 59 85 60 52 61 36 62 37 63 45 64 38 65 40 66 46 67
REMARK SMILES IDX 39 68 41 69 42 70 43 71 44 72 68 73 69 74 77 75 70 76 72 77
REMARK SMILES IDX 78 78 71 79 73 80 74 81 75 82 76 83 53 84 54 85 62 86 55 87
REMARK SMILES IDX 57 88 63 89 56 90 58 91 59 92 60 93 61 94
REMARK H PARENT 20 6 6 13 24 28 83 47 51 58
REMARK Flexibility Score: inf
ROOT
ATOM      1  C   UNL     1      -3.923  -1.693  -3.194  1.00  0.00     0.042 C 
ENDROOT
BRANCH   1   2
ATOM      2  C   UNL     1      -3.820  -0.181  -3.078  1.00  0.00     0.117 C 
BRANCH   2   3
ATOM      3  N   UNL     1      -3.960   0.362  -1.746  1.00  0.00    -0.355 N 
ATOM      4  C   UNL     1      -2.986   0.949  -0.969  1.00  0.00     0.238 C 
ATOM      5  O   UNL     1      -3.353   1.537   0.053  1.00  0.00    -0.273 OA
ATOM      6  H   UNL     1      -4.858   0.307  -1.348  1.00  0.00     0.163 HD
BRANCH   4   7
ATOM      7  C   UNL     1      -1.472   0.897  -1.364  1.00  0.00     0.160 C 
BRANCH   7   8
ATOM      8  C   UNL     1      -1.087   1.977  -2.368  1.00  0.00     0.033 C 
BRANCH   8   9
ATOM      9  C   UNL     1      -1.337   3.450  -2.033  1.00  0.00    -0.015 C 
ATOM     10  C   UNL     1      -0.455   3.942  -0.892  1.00  0.00     0.007 C 
ATOM     11  C   UNL     1      -1.044   4.258  -3.308  1.00  0.00     0.007 C 
ENDBRANCH   8   9
ENDBRANCH   7   8
BRANCH   7  12
ATOM     12  N   UNL     1      -1.266  -0.469  -1.910  1.00  0.00    -0.190 NA
ATOM     13  H   UNL     1      -2.055  -0.621  -2.538  1.00  0.00     0.143 HD
BRANCH  12  14
ATOM     14  S   UNL     1       0.045  -1.027  -2.736  1.00  0.00     0.280 S 
ATOM     15  O   UNL     1       1.177  -0.818  -1.862  1.00  0.00    -0.195 OA
ATOM     16  O   UNL     1      -0.344  -2.352  -3.143  1.00  0.00    -0.195 OA
BRANCH  14  17
ATOM     17  N   UNL     1       0.258  -0.073  -4.104  1.00  0.00    -0.188 NA
ATOM     18  C   UNL     1       1.602  -0.167  -4.734  1.00  0.00     0.106 C 
ATOM     19  C   UNL     1      -0.766   0.152  -5.147  1.00  0.00     0.106 C 
ATOM     20  C   UNL     1       1.673  -1.211  -5.864  1.00  0.00     0.001 C 
ATOM     21  C   UNL     1      -0.846  -0.971  -6.166  1.00  0.00     0.001 C 
ATOM     22  C   UNL     1       1.787  -2.647  -5.350  1.00  0.00     0.009 C 
ATOM     23  C   UNL     1       0.512  -1.081  -6.865  1.00  0.00     0.009 C 
ATOM     24  C   UNL     1      -1.974  -0.706  -7.172  1.00  0.00     0.009 C 
ENDBRANCH  14  17
ENDBRANCH  12  14
ENDBRANCH   7  12
ENDBRANCH   4   7
ENDBRANCH   2   3
ENDBRANCH   1   2
BRANCH   1  25
ATOM     25  C   UNL     1      -5.307  -2.142  -3.621  1.00  0.00     0.118 C 
BRANCH  25  26
ATOM     26  N   UNL     1      -5.661  -1.663  -4.958  1.00  0.00    -0.352 N 
ATOM     27  C   UNL     1      -6.074  -2.350  -6.073  1.00  0.00     0.251 C 
ATOM     28  H   UNL     1      -5.592  -0.688  -5.078  1.00  0.00     0.163 HD
ATOM     29  O   UNL     1      -6.149  -1.758  -7.147  1.00  0.00    -0.269 OA
BRANCH  27  30
ATOM     30  C   UNL     1      -6.412  -3.786  -5.986  1.00  0.00     0.039 A 
ATOM     31  C   UNL     1      -6.106  -4.627  -7.059  1.00  0.00     0.014 A 
ATOM     32  C   UNL     1      -7.035  -4.305  -4.851  1.00  0.00     0.014 A 
ATOM     33  C   UNL     1      -6.369  -5.995  -6.961  1.00  0.00     0.010 A 
ATOM     34  C   UNL     1      -7.172  -5.677  -4.703  1.00  0.00     0.010 A 
ATOM     35  C   UNL     1      -6.871  -6.537  -5.767  1.00  0.00    -0.014 A 
BRANCH  35  36
ATOM     36  C   UNL     1      -7.126  -7.990  -5.608  1.00  0.00     0.031 A 
ATOM     37  C   UNL     1      -8.513  -8.473  -5.266  1.00  0.00     0.074 A 
ATOM     38  C   UNL     1      -6.100  -8.861  -5.672  1.00  0.00     0.049 A 
ATOM     39  N   UNL     1      -8.922  -9.685  -5.000  1.00  0.00    -0.248 NA
ATOM     40  C   UNL     1      -9.573  -7.453  -5.170  1.00  0.00     0.031 C 
ATOM     41  C   UNL     1      -4.698  -8.506  -5.906  1.00  0.00     0.029 A 
ATOM     42  N   UNL     1      -6.074 -10.224  -5.519  1.00  0.00    -0.354 N 
ATOM     43  C   UNL     1     -10.265  -9.566  -4.659  1.00  0.00     0.074 A 
ATOM     44  C   UNL     1     -10.591  -8.159  -4.704  1.00  0.00     0.031 C 
ATOM     45  C   UNL     1      -3.953  -9.623  -5.895  1.00  0.00     0.029 A 
ATOM     46  C   UNL     1      -4.814 -10.767  -5.618  1.00  0.00     0.049 A 
ATOM     47  H   UNL     1      -6.882 -10.763  -5.354  1.00  0.00     0.167 HD
ATOM     48  C   UNL     1     -11.158 -10.540  -4.371  1.00  0.00     0.034 A 
ATOM     49  C   UNL     1      -4.401 -12.043  -5.492  1.00  0.00     0.034 A 
ATOM     50  C   UNL     1     -10.841 -11.941  -4.386  1.00  0.00     0.049 A 
ATOM     51  C   UNL     1      -5.423 -13.114  -5.225  1.00  0.00     0.074 A 
ATOM     52  C   UNL     1     -11.692 -13.017  -4.209  1.00  0.00     0.029 A 
ATOM     53  N   UNL     1      -9.572 -12.460  -4.587  1.00  0.00    -0.354 N 
ATOM     54  N   UNL     1      -6.720 -12.997  -5.064  1.00  0.00    -0.248 NA
ATOM     55  C   UNL     1      -4.933 -14.498  -5.160  1.00  0.00     0.031 C 
ATOM     56  C   UNL     1     -10.930 -14.188  -4.274  1.00  0.00     0.029 A 
ATOM     57  C   UNL     1      -9.612 -13.842  -4.529  1.00  0.00     0.049 A 
ATOM     58  H   UNL     1      -8.761 -11.925  -4.748  1.00  0.00     0.167 HD
ATOM     59  C   UNL     1      -7.204 -14.292  -4.917  1.00  0.00     0.074 A 
ATOM     60  C   UNL     1      -6.064 -15.178  -5.029  1.00  0.00     0.031 C 
ATOM     61  C   UNL     1      -8.475 -14.710  -4.696  1.00  0.00     0.034 A 
BRANCH  48  62
ATOM     62  C   UNL     1     -12.576 -10.126  -4.070  1.00  0.00     0.023 A 
ATOM     63  C   UNL     1     -13.384  -9.598  -5.098  1.00  0.00     0.012 A 
ATOM     64  C   UNL     1     -13.124 -10.303  -2.785  1.00  0.00     0.148 A 
ATOM     65  C   UNL     1     -14.699  -9.211  -4.844  1.00  0.00     0.002 A 
ATOM     66  C   UNL     1     -14.452  -9.963  -2.551  1.00  0.00     0.091 A 
ATOM     67  F   UNL     1     -12.337 -10.787  -1.814  1.00  0.00    -0.205 F 
ATOM     68  C   UNL     1     -15.236  -9.404  -3.574  1.00  0.00     0.022 A 
BRANCH  66  69
ATOM     69  S   UNL     1     -15.264 -10.249  -0.975  1.00  0.00     0.127 S 
ATOM     70  O   UNL     1     -15.458  -8.883  -0.491  1.00  0.00    -0.237 OA
ATOM     71  O   UNL     1     -16.492 -10.931  -1.383  1.00  0.00    -0.237 OA
ATOM     72  O   UNL     1     -14.346 -11.064  -0.191  1.00  0.00    -0.744 OA
ENDBRANCH  66  69
ENDBRANCH  48  62
BRANCH  49  73
ATOM     73  C   UNL     1      -2.963 -12.386  -5.686  1.00  0.00     0.023 A 
ATOM     74  C   UNL     1      -2.574 -13.114  -6.827  1.00  0.00     0.012 A 
ATOM     75  C   UNL     1      -1.981 -11.980  -4.763  1.00  0.00     0.148 A 
ATOM     76  C   UNL     1      -1.239 -13.464  -7.028  1.00  0.00     0.002 A 
ATOM     77  C   UNL     1      -0.644 -12.284  -4.997  1.00  0.00     0.091 A 
ATOM     78  F   UNL     1      -2.372 -11.294  -3.680  1.00  0.00    -0.205 F 
ATOM     79  C   UNL     1      -0.273 -13.042  -6.118  1.00  0.00     0.022 A 
BRANCH  77  80
ATOM     80  S   UNL     1       0.682 -11.678  -3.948  1.00  0.00     0.127 S 
ATOM     81  O   UNL     1       1.150 -12.910  -3.317  1.00  0.00    -0.237 OA
ATOM     82  O   UNL     1       1.601 -11.101  -4.930  1.00  0.00    -0.237 OA
ATOM     83  O   UNL     1       0.066 -10.706  -3.056  1.00  0.00    -0.744 OA
ENDBRANCH  77  80
ENDBRANCH  49  73
BRANCH  61  84
ATOM     84  C   UNL     1      -8.717 -16.193  -4.606  1.00  0.00     0.023 A 
ATOM     85  C   UNL     1      -8.279 -16.912  -3.477  1.00  0.00     0.012 A 
ATOM     86  C   UNL     1      -9.451 -16.857  -5.609  1.00  0.00     0.148 A 
ATOM     87  C   UNL     1      -8.539 -18.277  -3.363  1.00  0.00     0.002 A 
ATOM     88  C   UNL     1      -9.752 -18.205  -5.463  1.00  0.00     0.091 A 
ATOM     89  F   UNL     1      -9.844 -16.158  -6.683  1.00  0.00    -0.205 F 
ATOM     90  C   UNL     1      -9.285 -18.920  -4.348  1.00  0.00     0.022 A 
BRANCH  88  91
ATOM     91  S   UNL     1     -10.794 -19.090  -6.628  1.00  0.00     0.127 S 
ATOM     92  O   UNL     1      -9.826 -19.965  -7.288  1.00  0.00    -0.237 OA
ATOM     93  O   UNL     1     -11.733 -19.779  -5.742  1.00  0.00    -0.237 OA
ATOM     94  O   UNL     1     -11.400 -18.075  -7.479  1.00  0.00    -0.744 OA
ENDBRANCH  88  91
ENDBRANCH  61  84
ENDBRANCH  35  36
ENDBRANCH  27  30
ENDBRANCH  25  26
ENDBRANCH   1  25
TORSDOF 18
