REMARK SMILES CC[C@@H](C(=O)NCCCNC(=O)c1ccc(-c2c3nc(c(-c4cccc(S(=O)(=O)[O-])c4F)c4ccc([nH]4)c(-c4cccc(S(=O)(=O)[O-])c4F)c4nc(c(-c5cccc(S(=O)(=O)[O-])c5F)c5ccc2[nH]5)C=C4)C=C3)cc1)N1C(=O)/C(=C\c2ccc(C(=O)OC)cc2)SC1=S
REMARK SMILES IDX 7 1 6 2 4 3 5 4 3 6 2 7 1 8 76 9 77 10 92 11 78 12 79 13
REMARK SMILES IDX 91 14 93 15 80 16 81 17 82 18 90 19 83 20 89 21 84 22 85 23
REMARK SMILES IDX 86 24 87 25 88 26 8 27 9 28 10 29 11 30 12 32 13 33 14 34
REMARK SMILES IDX 75 35 15 36 74 37 16 38 17 39 18 40 68 41 19 42 73 43 67 44
REMARK SMILES IDX 69 45 20 46 72 47 66 48 65 49 21 51 53 52 33 53 52 54 34 55
REMARK SMILES IDX 37 56 51 57 70 58 35 59 36 60 50 62 71 63 38 64 22 65 23 66
REMARK SMILES IDX 31 67 24 68 26 69 32 70 25 71 27 72 28 73 29 74 30 75 54 76
REMARK SMILES IDX 55 77 63 78 56 79 58 80 64 81 57 82 59 83 60 84 61 85 62 86
REMARK SMILES IDX 39 87 40 88 48 89 41 90 43 91 49 92 42 93 44 94 45 95 46 96
REMARK SMILES IDX 47 97
REMARK H PARENT 6 5 10 31 69 50 37 61
REMARK Flexibility Score: inf
ROOT
ATOM      1  C   UNL     1       1.691  -0.926   2.119  1.00  0.00     0.117 C 
ENDROOT
BRANCH   1   2
ATOM      2  N   UNL     1       0.564  -1.830   1.924  1.00  0.00    -0.354 N 
ATOM      3  C   UNL     1       0.072  -2.455   0.811  1.00  0.00     0.243 C 
ATOM      4  O   UNL     1      -0.937  -3.152   0.967  1.00  0.00    -0.273 OA
ATOM      5  H   UNL     1       0.062  -2.027   2.748  1.00  0.00     0.163 HD
BRANCH   3   6
ATOM      6  C   UNL     1       0.762  -2.337  -0.573  1.00  0.00     0.181 C 
BRANCH   6   7
ATOM      7  C   UNL     1       0.372  -1.079  -1.367  1.00  0.00     0.032 C 
ATOM      8  C   UNL     1       0.964   0.252  -0.951  1.00  0.00     0.006 C 
ENDBRANCH   6   7
BRANCH   6   9
ATOM      9  N   UNL     1       0.467  -3.625  -1.304  1.00  0.00    -0.280 N 
ATOM     10  C   UNL     1       1.155  -4.753  -0.858  1.00  0.00     0.266 C 
ATOM     11  C   UNL     1      -0.488  -3.878  -2.276  1.00  0.00     0.149 C 
ATOM     12  O   UNL     1       2.035  -4.753  -0.007  1.00  0.00    -0.268 OA
ATOM     13  C   UNL     1       0.676  -5.981  -1.562  1.00  0.00     0.081 C 
ATOM     14  S   UNL     1      -0.300  -5.523  -2.893  1.00  0.00    -0.054 SA
ATOM     15  S   UNL     1      -1.697  -2.937  -2.937  1.00  0.00    -0.052 S 
ATOM     16  C   UNL     1       0.841  -7.270  -1.232  1.00  0.00     0.029 C 
BRANCH  16  17
ATOM     17  C   UNL     1       1.462  -7.735   0.003  1.00  0.00    -0.024 A 
ATOM     18  C   UNL     1       2.705  -8.369  -0.022  1.00  0.00     0.009 A 
ATOM     19  C   UNL     1       0.797  -7.546   1.221  1.00  0.00     0.009 A 
ATOM     20  C   UNL     1       3.308  -8.761   1.176  1.00  0.00     0.016 A 
ATOM     21  C   UNL     1       1.398  -7.937   2.416  1.00  0.00     0.016 A 
ATOM     22  C   UNL     1       2.668  -8.527   2.401  1.00  0.00     0.060 A 
BRANCH  22  23
ATOM     23  C   UNL     1       3.383  -8.886   3.653  1.00  0.00     0.337 C 
ATOM     24  O   UNL     1       4.455  -9.473   3.679  1.00  0.00    -0.246 OA
BRANCH  23  25
ATOM     25  O   UNL     1       2.696  -8.436   4.731  1.00  0.00    -0.465 OA
ATOM     26  C   UNL     1       3.357  -8.643   5.978  1.00  0.00     0.282 C 
ENDBRANCH  23  25
ENDBRANCH  22  23
ENDBRANCH  16  17
ENDBRANCH   6   9
ENDBRANCH   3   6
ENDBRANCH   1   2
BRANCH   1  27
ATOM     27  C   UNL     1       1.218   0.489   2.457  1.00  0.00     0.042 C 
BRANCH  27  28
ATOM     28  C   UNL     1       0.715   0.672   3.883  1.00  0.00     0.118 C 
BRANCH  28  29
ATOM     29  N   UNL     1       1.789   0.902   4.834  1.00  0.00    -0.352 N 
ATOM     30  C   UNL     1       2.087   2.019   5.582  1.00  0.00     0.251 C 
ATOM     31  H   UNL     1       2.399   0.141   4.964  1.00  0.00     0.163 HD
ATOM     32  O   UNL     1       3.155   2.057   6.189  1.00  0.00    -0.269 OA
BRANCH  30  33
ATOM     33  C   UNL     1       1.160   3.178   5.653  1.00  0.00     0.039 A 
ATOM     34  C   UNL     1       1.700   4.469   5.682  1.00  0.00     0.014 A 
ATOM     35  C   UNL     1      -0.225   3.015   5.737  1.00  0.00     0.014 A 
ATOM     36  C   UNL     1       0.855   5.584   5.740  1.00  0.00     0.010 A 
ATOM     37  C   UNL     1      -1.067   4.126   5.696  1.00  0.00     0.010 A 
ATOM     38  C   UNL     1      -0.540   5.425   5.716  1.00  0.00    -0.014 A 
BRANCH  38  39
ATOM     39  C   UNL     1      -1.454   6.601   5.724  1.00  0.00     0.031 A 
ATOM     40  C   UNL     1      -2.444   6.795   6.844  1.00  0.00     0.074 A 
ATOM     41  C   UNL     1      -1.450   7.460   4.684  1.00  0.00     0.049 A 
ATOM     42  N   UNL     1      -3.343   7.734   6.998  1.00  0.00    -0.248 NA
ATOM     43  C   UNL     1      -2.445   5.788   7.917  1.00  0.00     0.031 C 
ATOM     44  C   UNL     1      -0.601   7.345   3.497  1.00  0.00     0.029 A 
ATOM     45  N   UNL     1      -2.203   8.584   4.445  1.00  0.00    -0.354 N 
ATOM     46  C   UNL     1      -4.040   7.409   8.156  1.00  0.00     0.074 A 
ATOM     47  C   UNL     1      -3.485   6.166   8.645  1.00  0.00     0.031 C 
ATOM     48  C   UNL     1      -0.874   8.358   2.660  1.00  0.00     0.029 A 
ATOM     49  C   UNL     1      -1.940   9.175   3.231  1.00  0.00     0.049 A 
ATOM     50  H   UNL     1      -2.867   8.933   5.082  1.00  0.00     0.167 HD
ATOM     51  C   UNL     1      -5.034   8.091   8.775  1.00  0.00     0.034 A 
ATOM     52  C   UNL     1      -2.500  10.247   2.634  1.00  0.00     0.034 A 
ATOM     53  C   UNL     1      -5.561   9.346   8.308  1.00  0.00     0.049 A 
ATOM     54  C   UNL     1      -3.576  11.012   3.356  1.00  0.00     0.074 A 
ATOM     55  C   UNL     1      -6.497  10.165   8.915  1.00  0.00     0.029 A 
ATOM     56  N   UNL     1      -5.214   9.955   7.112  1.00  0.00    -0.354 N 
ATOM     57  N   UNL     1      -4.108  10.776   4.530  1.00  0.00    -0.248 NA
ATOM     58  C   UNL     1      -4.102  12.210   2.688  1.00  0.00     0.031 C 
ATOM     59  C   UNL     1      -6.746  11.248   8.066  1.00  0.00     0.029 A 
ATOM     60  C   UNL     1      -5.931  11.129   6.952  1.00  0.00     0.049 A 
ATOM     61  H   UNL     1      -4.555   9.604   6.471  1.00  0.00     0.167 HD
ATOM     62  C   UNL     1      -5.006  11.813   4.758  1.00  0.00     0.074 A 
ATOM     63  C   UNL     1      -4.931  12.689   3.606  1.00  0.00     0.031 C 
ATOM     64  C   UNL     1      -5.823  12.016   5.821  1.00  0.00     0.034 A 
BRANCH  51  65
ATOM     65  C   UNL     1      -5.595   7.508  10.049  1.00  0.00     0.023 A 
ATOM     66  C   UNL     1      -4.799   7.468  11.213  1.00  0.00     0.012 A 
ATOM     67  C   UNL     1      -6.920   7.034  10.105  1.00  0.00     0.148 A 
ATOM     68  C   UNL     1      -5.295   6.920  12.396  1.00  0.00     0.002 A 
ATOM     69  C   UNL     1      -7.424   6.537  11.302  1.00  0.00     0.091 A 
ATOM     70  F   UNL     1      -7.659   7.062   8.986  1.00  0.00    -0.205 F 
ATOM     71  C   UNL     1      -6.609   6.464  12.443  1.00  0.00     0.022 A 
BRANCH  69  72
ATOM     72  S   UNL     1      -9.130   6.005  11.486  1.00  0.00     0.127 S 
ATOM     73  O   UNL     1      -8.977   4.553  11.580  1.00  0.00    -0.237 OA
ATOM     74  O   UNL     1      -9.523   6.658  12.736  1.00  0.00    -0.237 OA
ATOM     75  O   UNL     1      -9.831   6.486  10.304  1.00  0.00    -0.744 OA
ENDBRANCH  69  72
ENDBRANCH  51  65
BRANCH  52  76
ATOM     76  C   UNL     1      -2.007  10.687   1.298  1.00  0.00     0.023 A 
ATOM     77  C   UNL     1      -1.260  11.876   1.190  1.00  0.00     0.012 A 
ATOM     78  C   UNL     1      -2.231   9.908   0.147  1.00  0.00     0.148 A 
ATOM     79  C   UNL     1      -0.765  12.293  -0.047  1.00  0.00     0.002 A 
ATOM     80  C   UNL     1      -1.687  10.299  -1.070  1.00  0.00     0.091 A 
ATOM     81  F   UNL     1      -2.951   8.784   0.273  1.00  0.00    -0.205 F 
ATOM     82  C   UNL     1      -0.968  11.500  -1.173  1.00  0.00     0.022 A 
BRANCH  80  83
ATOM     83  S   UNL     1      -1.778   9.275  -2.543  1.00  0.00     0.127 S 
ATOM     84  O   UNL     1      -2.611  10.090  -3.423  1.00  0.00    -0.237 OA
ATOM     85  O   UNL     1      -0.370   9.187  -2.932  1.00  0.00    -0.237 OA
ATOM     86  O   UNL     1      -2.363   8.012  -2.113  1.00  0.00    -0.744 OA
ENDBRANCH  80  83
ENDBRANCH  52  76
BRANCH  64  87
ATOM     87  C   UNL     1      -6.683  13.254   5.819  1.00  0.00     0.023 A 
ATOM     88  C   UNL     1      -7.782  13.350   4.943  1.00  0.00     0.012 A 
ATOM     89  C   UNL     1      -6.444  14.291   6.743  1.00  0.00     0.148 A 
ATOM     90  C   UNL     1      -8.608  14.473   4.963  1.00  0.00     0.002 A 
ATOM     91  C   UNL     1      -7.302  15.382   6.793  1.00  0.00     0.091 A 
ATOM     92  F   UNL     1      -5.383  14.190   7.557  1.00  0.00    -0.205 F 
ATOM     93  C   UNL     1      -8.376  15.482   5.895  1.00  0.00     0.022 A 
BRANCH  91  94
ATOM     94  S   UNL     1      -7.141  16.680   8.025  1.00  0.00     0.127 S 
ATOM     95  O   UNL     1      -6.692  17.808   7.212  1.00  0.00    -0.237 OA
ATOM     96  O   UNL     1      -8.509  16.798   8.531  1.00  0.00    -0.237 OA
ATOM     97  O   UNL     1      -6.176  16.192   9.001  1.00  0.00    -0.744 OA
ENDBRANCH  91  94
ENDBRANCH  64  87
ENDBRANCH  38  39
ENDBRANCH  30  33
ENDBRANCH  28  29
ENDBRANCH  27  28
ENDBRANCH   1  27
TORSDOF 18
