REMARK SMILES CC[C@@H](C)[C@H](NC(=O)N1CCn2c1nc1ccccc12)C(=O)N[C@H](C)C(=O)NCCCNC(=O)c1ccc(-c2c3nc(c(-c4cccc(S(=O)(=O)[O-])c4F)c4ccc([nH]4)c(-c4cccc(S(=O)(=O)[O-])c4F)c4nc(c(-c5cccc(S(=O)(=O)[O-])c5F)c5ccc2[nH]5)C=C4)C=C3)cc1
REMARK SMILES IDX 29 1 28 2 26 3 27 4 24 6 25 7 23 8 21 9 22 10 5 12 3 13 4 14
REMARK SMILES IDX 2 15 1 16 6 17 7 18 8 20 9 21 10 22 13 23 11 24 12 25 14 26
REMARK SMILES IDX 20 27 15 28 19 29 16 30 18 31 17 32 30 33 31 34 32 35 33 36
REMARK SMILES IDX 34 38 35 39 36 40 97 41 37 42 96 43 38 44 39 45 40 46 90 47
REMARK SMILES IDX 41 48 95 49 89 50 91 51 42 52 94 53 88 54 87 55 43 57 75 58
REMARK SMILES IDX 55 59 74 60 56 61 59 62 73 63 92 64 57 65 58 66 72 68 93 69
REMARK SMILES IDX 60 70 44 71 45 72 53 73 46 74 48 75 54 76 47 77 49 78 50 79
REMARK SMILES IDX 51 80 52 81 76 82 77 83 85 84 78 85 80 86 86 87 79 88 81 89
REMARK SMILES IDX 82 90 83 91 84 92 61 93 62 94 70 95 63 96 65 97 71 98 64 99
REMARK SMILES IDX 66 100 67 101 68 102 69 103
REMARK H PARENT 28 5 23 11 6 19 32 37 91 56 59 67
REMARK Flexibility Score: inf
ROOT
ATOM      1  C   UNL     1       6.245   4.078   4.712  1.00  0.00     0.117 C 
ENDROOT
BRANCH   1   2
ATOM      2  N   UNL     1       5.298   3.136   5.289  1.00  0.00    -0.354 N 
ATOM      3  C   UNL     1       4.323   2.331   4.780  1.00  0.00     0.242 C 
ATOM      4  O   UNL     1       3.870   1.505   5.590  1.00  0.00    -0.273 OA
ATOM      5  H   UNL     1       5.380   3.063   6.267  1.00  0.00     0.163 HD
BRANCH   3   6
ATOM      6  C   UNL     1       3.724   2.361   3.321  1.00  0.00     0.168 C 
ATOM      7  C   UNL     1       2.193   2.312   3.327  1.00  0.00     0.041 C 
BRANCH   6   8
ATOM      8  N   UNL     1       4.329   3.152   2.249  1.00  0.00    -0.343 N 
ATOM      9  C   UNL     1       4.322   4.386   1.698  1.00  0.00     0.243 C 
ATOM     10  O   UNL     1       5.366   4.578   1.048  1.00  0.00    -0.273 OA
ATOM     11  H   UNL     1       4.966   2.587   1.754  1.00  0.00     0.164 HD
BRANCH   9  12
ATOM     12  C   UNL     1       3.292   5.558   1.837  1.00  0.00     0.176 C 
BRANCH  12  13
ATOM     13  C   UNL     1       3.233   6.347   3.187  1.00  0.00     0.018 C 
ATOM     14  C   UNL     1       4.538   7.130   3.331  1.00  0.00     0.010 C 
BRANCH  13  15
ATOM     15  C   UNL     1       2.754   5.431   4.323  1.00  0.00     0.002 C 
ATOM     16  C   UNL     1       2.685   5.848   5.780  1.00  0.00     0.004 C 
ENDBRANCH  13  15
ENDBRANCH  12  13
BRANCH  12  17
ATOM     17  N   UNL     1       1.936   5.303   1.340  1.00  0.00    -0.326 N 
ATOM     18  C   UNL     1       1.229   6.203   0.593  1.00  0.00     0.324 C 
ATOM     19  H   UNL     1       1.513   4.440   1.554  1.00  0.00     0.166 HD
ATOM     20  O   UNL     1       0.030   6.337   0.854  1.00  0.00    -0.248 OA
BRANCH  18  21
ATOM     21  N   UNL     1       1.866   6.962  -0.335  1.00  0.00    -0.262 N 
ATOM     22  C   UNL     1       1.500   8.353  -0.684  1.00  0.00     0.152 C 
ATOM     23  C   UNL     1       2.892   6.543  -1.140  1.00  0.00     0.214 A 
ATOM     24  C   UNL     1       2.350   8.690  -1.921  1.00  0.00     0.148 C 
ATOM     25  N   UNL     1       3.196   7.518  -2.036  1.00  0.00    -0.308 N 
ATOM     26  N   UNL     1       3.653   5.493  -1.290  1.00  0.00    -0.212 NA
ATOM     27  C   UNL     1       4.311   7.188  -2.716  1.00  0.00     0.070 A 
ATOM     28  C   UNL     1       4.607   5.917  -2.209  1.00  0.00     0.091 A 
ATOM     29  C   UNL     1       5.096   7.852  -3.658  1.00  0.00     0.028 A 
ATOM     30  C   UNL     1       5.779   5.279  -2.645  1.00  0.00     0.031 A 
ATOM     31  C   UNL     1       6.254   7.191  -4.081  1.00  0.00     0.002 A 
ATOM     32  C   UNL     1       6.597   5.932  -3.579  1.00  0.00     0.002 A 
ENDBRANCH  18  21
ENDBRANCH  12  17
ENDBRANCH   9  12
ENDBRANCH   6   8
ENDBRANCH   3   6
ENDBRANCH   1   2
BRANCH   1  33
ATOM     33  C   UNL     1       6.279   5.465   5.369  1.00  0.00     0.042 C 
BRANCH  33  34
ATOM     34  C   UNL     1       6.649   5.589   6.841  1.00  0.00     0.118 C 
BRANCH  34  35
ATOM     35  N   UNL     1       7.633   6.644   7.054  1.00  0.00    -0.352 N 
ATOM     36  C   UNL     1       7.574   8.015   6.941  1.00  0.00     0.251 C 
ATOM     37  H   UNL     1       8.516   6.309   7.335  1.00  0.00     0.163 HD
ATOM     38  O   UNL     1       8.642   8.627   6.928  1.00  0.00    -0.269 OA
BRANCH  36  39
ATOM     39  C   UNL     1       6.305   8.777   6.843  1.00  0.00     0.039 A 
ATOM     40  C   UNL     1       5.209   8.488   7.657  1.00  0.00     0.014 A 
ATOM     41  C   UNL     1       6.275   9.927   6.035  1.00  0.00     0.014 A 
ATOM     42  C   UNL     1       4.084   9.317   7.636  1.00  0.00     0.010 A 
ATOM     43  C   UNL     1       5.157  10.768   6.026  1.00  0.00     0.010 A 
ATOM     44  C   UNL     1       4.060  10.471   6.836  1.00  0.00    -0.014 A 
BRANCH  44  45
ATOM     45  C   UNL     1       2.911  11.381   7.011  1.00  0.00     0.031 A 
ATOM     46  C   UNL     1       3.280  12.767   7.476  1.00  0.00     0.074 A 
ATOM     47  C   UNL     1       1.807  11.216   6.251  1.00  0.00     0.049 A 
ATOM     48  N   UNL     1       3.678  13.732   6.699  1.00  0.00    -0.248 NA
ATOM     49  C   UNL     1       3.460  13.058   8.902  1.00  0.00     0.031 C 
ATOM     50  C   UNL     1       1.829  10.979   4.803  1.00  0.00     0.029 A 
ATOM     51  N   UNL     1       0.481  11.455   6.541  1.00  0.00    -0.354 N 
ATOM     52  C   UNL     1       4.193  14.738   7.510  1.00  0.00     0.074 A 
ATOM     53  C   UNL     1       4.040  14.268   8.869  1.00  0.00     0.031 C 
ATOM     54  C   UNL     1       0.604  11.240   4.304  1.00  0.00     0.029 A 
ATOM     55  C   UNL     1      -0.311  11.563   5.398  1.00  0.00     0.049 A 
ATOM     56  H   UNL     1       0.130  11.540   7.457  1.00  0.00     0.167 HD
ATOM     57  C   UNL     1       4.698  15.911   7.032  1.00  0.00     0.034 A 
ATOM     58  C   UNL     1      -1.414  12.362   5.312  1.00  0.00     0.034 A 
ATOM     59  C   UNL     1       4.581  16.079   5.614  1.00  0.00     0.049 A 
ATOM     60  C   UNL     1      -0.749  13.698   5.048  1.00  0.00     0.074 A 
ATOM     61  C   UNL     1       5.387  15.983   4.502  1.00  0.00     0.029 A 
ATOM     62  N   UNL     1       3.333  16.368   5.116  1.00  0.00    -0.354 N 
ATOM     63  N   UNL     1      -0.203  14.080   3.921  1.00  0.00    -0.248 NA
ATOM     64  C   UNL     1      -0.302  14.447   6.224  1.00  0.00     0.031 C 
ATOM     65  C   UNL     1       4.495  15.753   3.405  1.00  0.00     0.029 A 
ATOM     66  C   UNL     1       3.199  15.716   3.918  1.00  0.00     0.049 A 
ATOM     67  H   UNL     1       2.656  16.940   5.543  1.00  0.00     0.167 HD
ATOM     68  C   UNL     1       0.895  14.864   4.295  1.00  0.00     0.074 A 
ATOM     69  C   UNL     1       0.762  15.061   5.726  1.00  0.00     0.031 C 
ATOM     70  C   UNL     1       1.940  15.164   3.467  1.00  0.00     0.034 A 
BRANCH  57  71
ATOM     71  C   UNL     1       5.094  17.078   7.867  1.00  0.00     0.023 A 
ATOM     72  C   UNL     1       4.087  18.029   8.129  1.00  0.00     0.012 A 
ATOM     73  C   UNL     1       6.428  17.382   8.201  1.00  0.00     0.148 A 
ATOM     74  C   UNL     1       4.395  19.274   8.672  1.00  0.00     0.002 A 
ATOM     75  C   UNL     1       6.730  18.629   8.754  1.00  0.00     0.091 A 
ATOM     76  F   UNL     1       7.379  16.474   7.938  1.00  0.00    -0.205 F 
ATOM     77  C   UNL     1       5.716  19.577   8.977  1.00  0.00     0.022 A 
BRANCH  75  78
ATOM     78  S   UNL     1       8.398  19.155   9.180  1.00  0.00     0.127 S 
ATOM     79  O   UNL     1       8.597  20.293   8.280  1.00  0.00    -0.237 OA
ATOM     80  O   UNL     1       8.247  19.518  10.591  1.00  0.00    -0.237 OA
ATOM     81  O   UNL     1       9.258  18.010   8.934  1.00  0.00    -0.744 OA
ENDBRANCH  75  78
ENDBRANCH  57  71
BRANCH  58  82
ATOM     82  C   UNL     1      -2.456  12.134   6.376  1.00  0.00     0.023 A 
ATOM     83  C   UNL     1      -2.797  10.785   6.653  1.00  0.00     0.012 A 
ATOM     84  C   UNL     1      -3.103  13.129   7.133  1.00  0.00     0.148 A 
ATOM     85  C   UNL     1      -3.622  10.433   7.723  1.00  0.00     0.002 A 
ATOM     86  C   UNL     1      -3.896  12.774   8.227  1.00  0.00     0.091 A 
ATOM     87  F   UNL     1      -2.926  14.414   6.803  1.00  0.00    -0.205 F 
ATOM     88  C   UNL     1      -4.144  11.428   8.533  1.00  0.00     0.022 A 
BRANCH  86  89
ATOM     89  S   UNL     1      -4.589  13.990   9.358  1.00  0.00     0.127 S 
ATOM     90  O   UNL     1      -5.968  13.522   9.505  1.00  0.00    -0.237 OA
ATOM     91  O   UNL     1      -3.746  13.797  10.537  1.00  0.00    -0.237 OA
ATOM     92  O   UNL     1      -4.448  15.273   8.690  1.00  0.00    -0.744 OA
ENDBRANCH  86  89
ENDBRANCH  58  82
BRANCH  70  93
ATOM     93  C   UNL     1       1.801  14.766   2.032  1.00  0.00     0.023 A 
ATOM     94  C   UNL     1       0.893  15.489   1.238  1.00  0.00     0.012 A 
ATOM     95  C   UNL     1       2.608  13.777   1.432  1.00  0.00     0.148 A 
ATOM     96  C   UNL     1       0.809  15.267  -0.133  1.00  0.00     0.002 A 
ATOM     97  C   UNL     1       2.531  13.573   0.058  1.00  0.00     0.091 A 
ATOM     98  F   UNL     1       3.467  13.081   2.192  1.00  0.00    -0.205 F 
ATOM     99  C   UNL     1       1.637  14.321  -0.725  1.00  0.00     0.022 A 
BRANCH  97 100
ATOM    100  S   UNL     1       3.520  12.351  -0.800  1.00  0.00     0.127 S 
ATOM    101  O   UNL     1       2.568  11.822  -1.781  1.00  0.00    -0.237 OA
ATOM    102  O   UNL     1       4.593  13.155  -1.374  1.00  0.00    -0.237 OA
ATOM    103  O   UNL     1       3.916  11.370   0.205  1.00  0.00    -0.744 OA
ENDBRANCH  97 100
ENDBRANCH  70  93
ENDBRANCH  44  45
ENDBRANCH  36  39
ENDBRANCH  34  35
ENDBRANCH  33  34
ENDBRANCH   1  33
TORSDOF 19
