REMARK SMILES O=C(NCCCNC(=O)c1conc1-c1ccc(Cl)cc1)c1ccc(-c2c3nc(c(-c4cccc(S(=O)(=O)[O-])c4F)c4ccc([nH]4)c(-c4cccc(S(=O)(=O)[O-])c4F)c4nc(c(-c5cccc(S(=O)(=O)[O-])c5F)c5ccc2[nH]5)C=C4)C=C3)cc1
REMARK SMILES IDX 4 1 3 2 1 3 2 4 22 6 23 7 84 8 24 9 83 10 25 11 26 12 27 13
REMARK SMILES IDX 77 14 28 15 82 16 76 17 78 18 29 19 81 20 75 21 74 22 30 24
REMARK SMILES IDX 62 25 42 26 61 27 43 28 46 29 60 30 79 31 44 32 45 33 59 35
REMARK SMILES IDX 80 36 47 37 31 38 32 39 40 40 33 41 35 42 41 43 34 44 36 45
REMARK SMILES IDX 37 46 38 47 39 48 63 49 64 50 72 51 65 52 67 53 73 54 66 55
REMARK SMILES IDX 68 56 69 57 70 58 71 59 48 60 49 61 57 62 50 63 52 64 58 65
REMARK SMILES IDX 51 66 53 67 54 68 55 69 56 70 5 71 6 72 7 73 8 74 9 76 10 77
REMARK SMILES IDX 11 78 14 79 12 80 13 81 15 82 16 83 21 84 17 85 20 86 18 87
REMARK SMILES IDX 19 88
REMARK H PARENT 3 5 78 23 46 34 7 75
REMARK Flexibility Score: inf
ROOT
ATOM      1  C   UNL     1       4.592   1.550  -0.013  1.00  0.00     0.118 C 
ENDROOT
BRANCH   1   2
ATOM      2  N   UNL     1       3.233   1.131   0.285  1.00  0.00    -0.352 N 
ATOM      3  O   UNL     1       1.363  -0.083   0.227  1.00  0.00    -0.269 OA
ATOM      4  C   UNL     1       2.579  -0.050   0.044  1.00  0.00     0.251 C 
ATOM      5  H   UNL     1       2.688   1.814   0.738  1.00  0.00     0.163 HD
BRANCH   4   6
ATOM      6  C   UNL     1       3.286  -1.266  -0.421  1.00  0.00     0.039 A 
ATOM      7  C   UNL     1       4.529  -1.645   0.096  1.00  0.00     0.014 A 
ATOM      8  C   UNL     1       2.624  -2.115  -1.319  1.00  0.00     0.014 A 
ATOM      9  C   UNL     1       5.133  -2.831  -0.333  1.00  0.00     0.010 A 
ATOM     10  C   UNL     1       3.212  -3.318  -1.721  1.00  0.00     0.010 A 
ATOM     11  C   UNL     1       4.477  -3.679  -1.239  1.00  0.00    -0.014 A 
BRANCH  11  12
ATOM     12  C   UNL     1       5.093  -4.978  -1.604  1.00  0.00     0.031 A 
ATOM     13  C   UNL     1       5.773  -5.170  -2.927  1.00  0.00     0.074 A 
ATOM     14  C   UNL     1       5.055  -5.990  -0.716  1.00  0.00     0.049 A 
ATOM     15  N   UNL     1       6.517  -6.168  -3.327  1.00  0.00    -0.248 NA
ATOM     16  C   UNL     1       5.604  -4.104  -3.926  1.00  0.00     0.031 C 
ATOM     17  C   UNL     1       4.387  -5.945   0.586  1.00  0.00     0.029 A 
ATOM     18  N   UNL     1       5.604  -7.246  -0.768  1.00  0.00    -0.354 N 
ATOM     19  C   UNL     1       6.910  -5.854  -4.622  1.00  0.00     0.074 A 
ATOM     20  C   UNL     1       6.305  -4.580  -4.948  1.00  0.00     0.031 C 
ATOM     21  C   UNL     1       4.598  -7.106   1.226  1.00  0.00     0.029 A 
ATOM     22  C   UNL     1       5.409  -7.977   0.380  1.00  0.00     0.049 A 
ATOM     23  H   UNL     1       6.089  -7.591  -1.552  1.00  0.00     0.167 HD
ATOM     24  C   UNL     1       7.735  -6.545  -5.444  1.00  0.00     0.034 A 
ATOM     25  C   UNL     1       5.860  -9.197   0.724  1.00  0.00     0.034 A 
ATOM     26  C   UNL     1       8.382  -7.783  -5.096  1.00  0.00     0.049 A 
ATOM     27  C   UNL     1       6.729  -9.962  -0.231  1.00  0.00     0.074 A 
ATOM     28  C   UNL     1       9.352  -8.482  -5.796  1.00  0.00     0.029 A 
ATOM     29  N   UNL     1       8.105  -8.520  -3.957  1.00  0.00    -0.354 N 
ATOM     30  N   UNL     1       7.253  -9.563  -1.363  1.00  0.00    -0.248 NA
ATOM     31  C   UNL     1       7.078 -11.339   0.146  1.00  0.00     0.031 C 
ATOM     32  C   UNL     1       9.665  -9.641  -5.074  1.00  0.00     0.029 A 
ATOM     33  C   UNL     1       8.864  -9.678  -3.945  1.00  0.00     0.049 A 
ATOM     34  H   UNL     1       7.463  -8.259  -3.257  1.00  0.00     0.167 HD
ATOM     35  C   UNL     1       8.020 -10.627  -1.819  1.00  0.00     0.074 A 
ATOM     36  C   UNL     1       7.889 -11.691  -0.845  1.00  0.00     0.031 C 
ATOM     37  C   UNL     1       8.761 -10.712  -2.950  1.00  0.00     0.034 A 
BRANCH  24  38
ATOM     38  C   UNL     1       8.072  -5.913  -6.763  1.00  0.00     0.023 A 
ATOM     39  C   UNL     1       9.279  -5.196  -6.874  1.00  0.00     0.012 A 
ATOM     40  C   UNL     1       7.232  -6.027  -7.883  1.00  0.00     0.148 A 
ATOM     41  C   UNL     1       9.647  -4.605  -8.083  1.00  0.00     0.002 A 
ATOM     42  C   UNL     1       7.601  -5.425  -9.083  1.00  0.00     0.091 A 
ATOM     43  F   UNL     1       6.072  -6.691  -7.763  1.00  0.00    -0.205 F 
ATOM     44  C   UNL     1       8.808  -4.719  -9.189  1.00  0.00     0.022 A 
BRANCH  42  45
ATOM     45  S   UNL     1       6.503  -5.525 -10.498  1.00  0.00     0.127 S 
ATOM     46  O   UNL     1       5.335  -4.774 -10.045  1.00  0.00    -0.237 OA
ATOM     47  O   UNL     1       7.262  -4.866 -11.563  1.00  0.00    -0.237 OA
ATOM     48  O   UNL     1       6.324  -6.960 -10.689  1.00  0.00    -0.744 OA
ENDBRANCH  42  45
ENDBRANCH  24  38
BRANCH  25  49
ATOM     49  C   UNL     1       5.588  -9.721   2.087  1.00  0.00     0.023 A 
ATOM     50  C   UNL     1       6.617  -9.679   3.046  1.00  0.00     0.012 A 
ATOM     51  C   UNL     1       4.323 -10.205   2.456  1.00  0.00     0.148 A 
ATOM     52  C   UNL     1       6.388 -10.114   4.352  1.00  0.00     0.002 A 
ATOM     53  C   UNL     1       4.095 -10.613   3.767  1.00  0.00     0.091 A 
ATOM     54  F   UNL     1       3.348 -10.239   1.535  1.00  0.00    -0.205 F 
ATOM     55  C   UNL     1       5.124 -10.576   4.716  1.00  0.00     0.022 A 
BRANCH  53  56
ATOM     56  S   UNL     1       2.448 -11.136   4.250  1.00  0.00     0.127 S 
ATOM     57  O   UNL     1       2.225 -12.312   3.417  1.00  0.00    -0.237 OA
ATOM     58  O   UNL     1       2.591 -11.422   5.678  1.00  0.00    -0.237 OA
ATOM     59  O   UNL     1       1.638  -9.959   3.954  1.00  0.00    -0.744 OA
ENDBRANCH  53  56
ENDBRANCH  25  49
BRANCH  37  60
ATOM     60  C   UNL     1       9.482 -12.002  -3.203  1.00  0.00     0.023 A 
ATOM     61  C   UNL     1       8.815 -13.028  -3.897  1.00  0.00     0.012 A 
ATOM     62  C   UNL     1      10.818 -12.189  -2.808  1.00  0.00     0.148 A 
ATOM     63  C   UNL     1       9.466 -14.228  -4.185  1.00  0.00     0.002 A 
ATOM     64  C   UNL     1      11.463 -13.385  -3.108  1.00  0.00     0.091 A 
ATOM     65  F   UNL     1      11.447 -11.204  -2.148  1.00  0.00    -0.205 F 
ATOM     66  C   UNL     1      10.792 -14.407  -3.793  1.00  0.00     0.022 A 
BRANCH  64  67
ATOM     67  S   UNL     1      13.177 -13.609  -2.623  1.00  0.00     0.127 S 
ATOM     68  O   UNL     1      13.118 -13.517  -1.167  1.00  0.00    -0.237 OA
ATOM     69  O   UNL     1      13.500 -14.946  -3.126  1.00  0.00    -0.237 OA
ATOM     70  O   UNL     1      13.865 -12.526  -3.318  1.00  0.00    -0.744 OA
ENDBRANCH  64  67
ENDBRANCH  37  60
ENDBRANCH  11  12
ENDBRANCH   4   6
ENDBRANCH   1   2
BRANCH   1  71
ATOM     71  C   UNL     1       4.644   2.837  -0.839  1.00  0.00     0.042 C 
BRANCH  71  72
ATOM     72  C   UNL     1       3.957   4.044  -0.201  1.00  0.00     0.118 C 
BRANCH  72  73
ATOM     73  N   UNL     1       4.559   4.436   1.062  1.00  0.00    -0.352 N 
ATOM     74  C   UNL     1       5.572   5.317   1.347  1.00  0.00     0.256 C 
ATOM     75  H   UNL     1       4.172   3.993   1.852  1.00  0.00     0.163 HD
ATOM     76  O   UNL     1       6.026   5.319   2.489  1.00  0.00    -0.269 OA
BRANCH  74  77
ATOM     77  C   UNL     1       6.083   6.202   0.328  1.00  0.00     0.107 A 
ATOM     78  C   UNL     1       5.351   6.973  -0.543  1.00  0.00     0.245 A 
ATOM     79  C   UNL     1       7.432   6.617   0.091  1.00  0.00     0.126 A 
ATOM     80  O   UNL     1       6.173   7.745  -1.285  1.00  0.00    -0.363 OA
ATOM     81  N   UNL     1       7.475   7.532  -0.893  1.00  0.00    -0.079 NA
BRANCH  79  82
ATOM     82  C   UNL     1       8.665   6.194   0.756  1.00  0.00     0.005 A 
ATOM     83  C   UNL     1       8.895   4.850   1.082  1.00  0.00     0.012 A 
ATOM     84  C   UNL     1       9.651   7.145   1.067  1.00  0.00     0.012 A 
ATOM     85  C   UNL     1      10.081   4.468   1.720  1.00  0.00     0.021 A 
ATOM     86  C   UNL     1      10.834   6.764   1.706  1.00  0.00     0.021 A 
ATOM     87  C   UNL     1      11.042   5.426   2.032  1.00  0.00     0.041 A 
ATOM     88  Cl  UNL     1      12.497   4.957   2.822  1.00  0.00    -0.084 Cl
ENDBRANCH  79  82
ENDBRANCH  74  77
ENDBRANCH  72  73
ENDBRANCH  71  72
ENDBRANCH   1  71
TORSDOF 14
