REMARK SMILES CCN(CC)C(=O)C[N@@H+](C)[C@@H](C)c1ccc(C(=O)NCCCNC(=O)c2ccc(-c3c4nc(c(-c5cccc(S(=O)(=O)[O-])c5F)c5ccc([nH]5)c(-c5cccc(S(=O)(=O)[O-])c5F)c5nc(c(-c6cccc(S(=O)(=O)[O-])c6F)c6ccc3[nH]6)C=C5)C=C4)cc2)o1
REMARK SMILES IDX 20 1 19 2 17 3 18 4 16 6 13 7 14 8 89 9 15 10 11 11 12 12
REMARK SMILES IDX 9 13 10 14 8 16 6 17 3 18 7 19 2 20 1 21 4 22 5 23 21 24
REMARK SMILES IDX 22 25 23 26 24 27 25 29 26 30 27 31 88 32 28 33 87 34 29 35
REMARK SMILES IDX 30 36 31 37 81 38 32 39 86 40 80 41 82 42 33 43 85 44 79 45
REMARK SMILES IDX 78 46 34 48 66 49 46 50 65 51 47 52 50 53 64 54 83 55 48 56
REMARK SMILES IDX 49 57 63 59 84 60 51 61 35 62 36 63 44 64 37 65 39 66 45 67
REMARK SMILES IDX 38 68 40 69 41 70 42 71 43 72 67 73 68 74 76 75 69 76 71 77
REMARK SMILES IDX 77 78 70 79 72 80 73 81 74 82 75 83 52 84 53 85 61 86 54 87
REMARK SMILES IDX 56 88 62 89 55 90 57 91 58 92 59 93 60 94
REMARK H PARENT 19 5 9 15 23 28 82 47 50 58
REMARK Flexibility Score: inf
ROOT
ATOM      1  C   UNL     1       1.590  -2.442  -1.482  1.00  0.00     0.118 C 
ENDROOT
BRANCH   1   2
ATOM      2  N   UNL     1       0.576  -1.484  -1.896  1.00  0.00    -0.349 N 
ATOM      3  C   UNL     1       0.628  -0.113  -2.074  1.00  0.00     0.287 C 
ATOM      4  O   UNL     1      -0.435   0.427  -2.388  1.00  0.00    -0.266 OA
ATOM      5  H   UNL     1      -0.305  -1.882  -2.082  1.00  0.00     0.163 HD
BRANCH   3   6
ATOM      6  C   UNL     1       1.867   0.622  -1.887  1.00  0.00     0.191 A 
ATOM      7  C   UNL     1       3.054   2.421  -1.348  1.00  0.00     0.161 A 
ATOM      8  C   UNL     1       3.955   1.411  -1.610  1.00  0.00     0.053 A 
ATOM      9  O   UNL     1       1.781   1.952  -1.529  1.00  0.00    -0.450 OA
ATOM     10  C   UNL     1       3.202   0.295  -2.028  1.00  0.00     0.057 A 
BRANCH   7  11
ATOM     11  C   UNL     1       3.228   3.884  -1.027  1.00  0.00     0.248 C 
ATOM     12  C   UNL     1       4.703   4.299  -1.190  1.00  0.00     0.084 C 
BRANCH  11  13
ATOM     13  N   UNL     1       2.598   4.333   0.237  1.00  0.00    -0.321 N 
ATOM     14  C   UNL     1       2.674   5.787   0.395  1.00  0.00     0.333 C 
ATOM     15  H   UNL     1       1.629   4.035   0.126  1.00  0.00     0.348 HD
BRANCH  13  16
ATOM     16  C   UNL     1       3.077   3.680   1.470  1.00  0.00     0.364 C 
BRANCH  16  17
ATOM     17  C   UNL     1       2.460   2.302   1.742  1.00  0.00     0.277 C 
ATOM     18  N   UNL     1       1.100   2.211   2.038  1.00  0.00    -0.338 N 
ATOM     19  O   UNL     1       3.207   1.319   1.812  1.00  0.00    -0.268 OA
BRANCH  18  20
ATOM     20  C   UNL     1       0.586   0.931   2.517  1.00  0.00     0.116 C 
ATOM     21  C   UNL     1       0.271  -0.007   1.368  1.00  0.00     0.027 C 
ENDBRANCH  18  20
BRANCH  18  22
ATOM     22  C   UNL     1       0.108   3.264   1.816  1.00  0.00     0.116 C 
ATOM     23  C   UNL     1      -0.116   4.116   3.054  1.00  0.00     0.027 C 
ENDBRANCH  18  22
ENDBRANCH  16  17
ENDBRANCH  13  16
ENDBRANCH  11  13
ENDBRANCH   7  11
ENDBRANCH   3   6
ENDBRANCH   1   2
BRANCH   1  24
ATOM     24  C   UNL     1       1.221  -3.261  -0.250  1.00  0.00     0.042 C 
BRANCH  24  25
ATOM     25  C   UNL     1      -0.005  -4.150  -0.397  1.00  0.00     0.118 C 
BRANCH  25  26
ATOM     26  N   UNL     1       0.187  -5.206  -1.377  1.00  0.00    -0.352 N 
ATOM     27  C   UNL     1       0.436  -6.549  -1.232  1.00  0.00     0.251 C 
ATOM     28  H   UNL     1       0.128  -4.905  -2.313  1.00  0.00     0.163 HD
ATOM     29  O   UNL     1       0.786  -7.185  -2.226  1.00  0.00    -0.269 OA
BRANCH  27  30
ATOM     30  C   UNL     1       0.302  -7.248   0.071  1.00  0.00     0.039 A 
ATOM     31  C   UNL     1       1.160  -8.322   0.341  1.00  0.00     0.014 A 
ATOM     32  C   UNL     1      -0.703  -6.937   0.990  1.00  0.00     0.014 A 
ATOM     33  C   UNL     1       1.032  -9.049   1.530  1.00  0.00     0.010 A 
ATOM     34  C   UNL     1      -0.772  -7.603   2.215  1.00  0.00     0.010 A 
ATOM     35  C   UNL     1       0.075  -8.685   2.491  1.00  0.00    -0.014 A 
BRANCH  35  36
ATOM     36  C   UNL     1      -0.065  -9.444   3.764  1.00  0.00     0.031 A 
ATOM     37  C   UNL     1      -1.348 -10.168   4.090  1.00  0.00     0.074 A 
ATOM     38  C   UNL     1       0.940  -9.436   4.663  1.00  0.00     0.049 A 
ATOM     39  N   UNL     1      -1.654 -10.868   5.154  1.00  0.00    -0.248 NA
ATOM     40  C   UNL     1      -2.441 -10.072   3.108  1.00  0.00     0.031 C 
ATOM     41  C   UNL     1       2.199  -8.703   4.518  1.00  0.00     0.029 A 
ATOM     42  N   UNL     1       1.052 -10.046   5.888  1.00  0.00    -0.354 N 
ATOM     43  C   UNL     1      -2.978 -11.259   4.989  1.00  0.00     0.074 A 
ATOM     44  C   UNL     1      -3.430 -10.689   3.738  1.00  0.00     0.031 C 
ATOM     45  C   UNL     1       2.960  -8.915   5.604  1.00  0.00     0.029 A 
ATOM     46  C   UNL     1       2.239  -9.782   6.532  1.00  0.00     0.049 A 
ATOM     47  H   UNL     1       0.349 -10.620   6.271  1.00  0.00     0.167 HD
ATOM     48  C   UNL     1      -3.741 -12.050   5.782  1.00  0.00     0.034 A 
ATOM     49  C   UNL     1       2.699 -10.195   7.729  1.00  0.00     0.034 A 
ATOM     50  C   UNL     1      -3.274 -12.671   6.992  1.00  0.00     0.049 A 
ATOM     51  C   UNL     1       1.863 -11.135   8.554  1.00  0.00     0.074 A 
ATOM     52  C   UNL     1      -3.938 -13.568   7.811  1.00  0.00     0.029 A 
ATOM     53  N   UNL     1      -2.026 -12.462   7.558  1.00  0.00    -0.354 N 
ATOM     54  N   UNL     1       0.679 -11.633   8.292  1.00  0.00    -0.248 NA
ATOM     55  C   UNL     1       2.445 -11.605   9.820  1.00  0.00     0.031 C 
ATOM     56  C   UNL     1      -3.093 -13.895   8.879  1.00  0.00     0.029 A 
ATOM     57  C   UNL     1      -1.900 -13.210   8.717  1.00  0.00     0.049 A 
ATOM     58  H   UNL     1      -1.332 -11.869   7.191  1.00  0.00     0.167 HD
ATOM     59  C   UNL     1       0.387 -12.496   9.342  1.00  0.00     0.074 A 
ATOM     60  C   UNL     1       1.532 -12.476  10.229  1.00  0.00     0.031 C 
ATOM     61  C   UNL     1      -0.735 -13.225   9.564  1.00  0.00     0.034 A 
BRANCH  48  62
ATOM     62  C   UNL     1      -5.146 -12.349   5.326  1.00  0.00     0.023 A 
ATOM     63  C   UNL     1      -5.348 -13.217   4.233  1.00  0.00     0.012 A 
ATOM     64  C   UNL     1      -6.263 -11.826   6.007  1.00  0.00     0.148 A 
ATOM     65  C   UNL     1      -6.636 -13.531   3.801  1.00  0.00     0.002 A 
ATOM     66  C   UNL     1      -7.545 -12.178   5.597  1.00  0.00     0.091 A 
ATOM     67  F   UNL     1      -6.054 -10.987   7.031  1.00  0.00    -0.205 F 
ATOM     68  C   UNL     1      -7.733 -13.021   4.489  1.00  0.00     0.022 A 
BRANCH  66  69
ATOM     69  S   UNL     1      -9.023 -11.633   6.463  1.00  0.00     0.127 S 
ATOM     70  O   UNL     1      -9.560 -10.641   5.533  1.00  0.00    -0.237 OA
ATOM     71  O   UNL     1      -9.802 -12.869   6.552  1.00  0.00    -0.237 OA
ATOM     72  O   UNL     1      -8.566 -11.112   7.743  1.00  0.00    -0.744 OA
ENDBRANCH  66  69
ENDBRANCH  48  62
BRANCH  49  73
ATOM     73  C   UNL     1       4.062  -9.792   8.179  1.00  0.00     0.023 A 
ATOM     74  C   UNL     1       5.090 -10.755   8.205  1.00  0.00     0.012 A 
ATOM     75  C   UNL     1       4.354  -8.466   8.550  1.00  0.00     0.148 A 
ATOM     76  C   UNL     1       6.376 -10.412   8.622  1.00  0.00     0.002 A 
ATOM     77  C   UNL     1       5.650  -8.118   8.913  1.00  0.00     0.091 A 
ATOM     78  F   UNL     1       3.359  -7.567   8.533  1.00  0.00    -0.205 F 
ATOM     79  C   UNL     1       6.659  -9.093   8.966  1.00  0.00     0.022 A 
BRANCH  77  80
ATOM     80  S   UNL     1       6.131  -6.419   9.244  1.00  0.00     0.127 S 
ATOM     81  O   UNL     1       6.269  -6.425  10.698  1.00  0.00    -0.237 OA
ATOM     82  O   UNL     1       7.390  -6.309   8.506  1.00  0.00    -0.237 OA
ATOM     83  O   UNL     1       5.052  -5.599   8.710  1.00  0.00    -0.744 OA
ENDBRANCH  77  80
ENDBRANCH  49  73
BRANCH  61  84
ATOM     84  C   UNL     1      -0.778 -14.078  10.804  1.00  0.00     0.023 A 
ATOM     85  C   UNL     1      -0.922 -13.466  12.065  1.00  0.00     0.012 A 
ATOM     86  C   UNL     1      -0.735 -15.483  10.720  1.00  0.00     0.148 A 
ATOM     87  C   UNL     1      -0.986 -14.236  13.226  1.00  0.00     0.002 A 
ATOM     88  C   UNL     1      -0.845 -16.247  11.877  1.00  0.00     0.091 A 
ATOM     89  F   UNL     1      -0.575 -16.050   9.515  1.00  0.00    -0.205 F 
ATOM     90  C   UNL     1      -0.958 -15.626  13.131  1.00  0.00     0.022 A 
BRANCH  88  91
ATOM     91  S   UNL     1      -0.911 -18.042  11.832  1.00  0.00     0.127 S 
ATOM     92  O   UNL     1       0.457 -18.401  12.200  1.00  0.00    -0.237 OA
ATOM     93  O   UNL     1      -1.916 -18.347  12.851  1.00  0.00    -0.237 OA
ATOM     94  O   UNL     1      -1.312 -18.387  10.474  1.00  0.00    -0.744 OA
ENDBRANCH  88  91
ENDBRANCH  61  84
ENDBRANCH  35  36
ENDBRANCH  27  30
ENDBRANCH  25  26
ENDBRANCH  24  25
ENDBRANCH   1  24
TORSDOF 19
