REMARK SMILES O=C(C[C@@H](C(=O)NCCCNC(=O)c1ccc(-c2c3nc(c(-c4cccc(S(=O)(=O)[O-])c4F)c4ccc([nH]4)c(-c4cccc(S(=O)(=O)[O-])c4F)c4nc(c(-c5cccc(S(=O)(=O)[O-])c5F)c5ccc2[nH]5)C=C4)C=C3)cc1)[NH+]1CCN(c2cccc(Cl)c2)CC1)c1ccc(F)cc1
REMARK SMILES IDX 9 1 8 2 7 3 5 4 6 5 4 7 3 8 2 9 1 10 90 11 91 12 96 13 92 14
REMARK SMILES IDX 95 15 93 16 94 17 77 18 78 19 89 20 79 22 88 23 80 24 81 25
REMARK SMILES IDX 82 26 87 27 83 28 85 29 84 30 86 31 10 32 11 33 12 34 13 36
REMARK SMILES IDX 14 37 15 38 76 39 16 40 75 41 17 42 18 43 19 44 69 45 20 46
REMARK SMILES IDX 74 47 68 48 70 49 21 50 73 51 67 52 66 53 22 55 54 56 34 57
REMARK SMILES IDX 53 58 35 59 38 60 52 61 71 62 36 63 37 64 51 66 72 67 39 68
REMARK SMILES IDX 23 69 24 70 32 71 25 72 27 73 33 74 26 75 28 76 29 77 30 78
REMARK SMILES IDX 31 79 55 80 56 81 64 82 57 83 59 84 65 85 58 86 60 87 61 88
REMARK SMILES IDX 62 89 63 90 40 91 41 92 49 93 42 94 44 95 50 96 43 97 45 98
REMARK SMILES IDX 46 99 47 100 48 101
REMARK H PARENT 7 6 77 21 11 35 70 54 38 65
REMARK Flexibility Score: inf
ROOT
ATOM      1  C   UNL     1       1.681   2.926   0.537  1.00  0.00     0.042 C 
ENDROOT
BRANCH   1   2
ATOM      2  C   UNL     1       2.266   2.672  -0.864  1.00  0.00     0.118 C 
BRANCH   2   3
ATOM      3  N   UNL     1       3.679   2.350  -0.887  1.00  0.00    -0.351 N 
ATOM      4  C   UNL     1       4.417   1.277  -1.273  1.00  0.00     0.278 C 
ATOM      5  O   UNL     1       5.632   1.483  -1.188  1.00  0.00    -0.268 OA
ATOM      6  H   UNL     1       4.237   3.083  -0.541  1.00  0.00     0.163 HD
BRANCH   4   7
ATOM      7  C   UNL     1       3.800  -0.076  -1.767  1.00  0.00     0.282 C 
BRANCH   7   8
ATOM      8  C   UNL     1       2.846  -0.834  -0.814  1.00  0.00     0.156 C 
BRANCH   8   9
ATOM      9  C   UNL     1       2.429  -0.377   0.563  1.00  0.00     0.169 C 
ATOM     10  O   UNL     1       1.223  -0.348   0.825  1.00  0.00    -0.294 OA
BRANCH   9  11
ATOM     11  C   UNL     1       3.398  -0.072   1.659  1.00  0.00     0.018 A 
ATOM     12  C   UNL     1       4.774   0.026   1.463  1.00  0.00     0.015 A 
ATOM     13  C   UNL     1       2.880   0.220   2.930  1.00  0.00     0.015 A 
ATOM     14  C   UNL     1       5.595   0.586   2.445  1.00  0.00     0.040 A 
ATOM     15  C   UNL     1       3.709   0.715   3.939  1.00  0.00     0.040 A 
ATOM     16  C   UNL     1       5.051   0.942   3.669  1.00  0.00     0.123 A 
ATOM     17  F   UNL     1       5.825   1.528   4.590  1.00  0.00    -0.207 F 
ENDBRANCH   9  11
ENDBRANCH   8   9
ENDBRANCH   7   8
BRANCH   7  18
ATOM     18  N   UNL     1       4.712  -0.977  -2.591  1.00  0.00    -0.321 N 
ATOM     19  C   UNL     1       6.142  -0.633  -2.755  1.00  0.00     0.284 C 
ATOM     20  C   UNL     1       4.661  -2.442  -2.357  1.00  0.00     0.284 C 
ATOM     21  H   UNL     1       4.223  -0.738  -3.454  1.00  0.00     0.348 HD
ATOM     22  C   UNL     1       7.073  -1.041  -1.581  1.00  0.00     0.178 C 
ATOM     23  C   UNL     1       5.484  -2.943  -1.137  1.00  0.00     0.178 C 
ATOM     24  N   UNL     1       6.865  -2.447  -1.197  1.00  0.00    -0.360 N 
BRANCH  24  25
ATOM     25  C   UNL     1       7.793  -3.054  -0.360  1.00  0.00     0.038 A 
ATOM     26  C   UNL     1       8.328  -2.423   0.772  1.00  0.00     0.026 A 
ATOM     27  C   UNL     1       8.253  -4.340  -0.672  1.00  0.00     0.046 A 
ATOM     28  C   UNL     1       9.318  -3.039   1.547  1.00  0.00     0.004 A 
ATOM     29  C   UNL     1       9.255  -4.946   0.086  1.00  0.00     0.043 A 
ATOM     30  C   UNL     1       9.794  -4.299   1.193  1.00  0.00     0.020 A 
ATOM     31  Cl  UNL     1       9.852  -6.494  -0.375  1.00  0.00    -0.084 Cl
ENDBRANCH  24  25
ENDBRANCH   7  18
ENDBRANCH   4   7
ENDBRANCH   2   3
ENDBRANCH   1   2
BRANCH   1  32
ATOM     32  C   UNL     1       2.608   3.459   1.636  1.00  0.00     0.118 C 
BRANCH  32  33
ATOM     33  N   UNL     1       2.579   4.903   1.754  1.00  0.00    -0.352 N 
ATOM     34  C   UNL     1       2.274   5.679   2.849  1.00  0.00     0.251 C 
ATOM     35  H   UNL     1       2.810   5.399   0.935  1.00  0.00     0.163 HD
ATOM     36  O   UNL     1       2.128   6.890   2.690  1.00  0.00    -0.269 OA
BRANCH  34  37
ATOM     37  C   UNL     1       2.100   5.099   4.210  1.00  0.00     0.039 A 
ATOM     38  C   UNL     1       1.024   5.545   4.983  1.00  0.00     0.014 A 
ATOM     39  C   UNL     1       3.027   4.219   4.779  1.00  0.00     0.014 A 
ATOM     40  C   UNL     1       0.869   5.108   6.306  1.00  0.00     0.010 A 
ATOM     41  C   UNL     1       2.844   3.747   6.091  1.00  0.00     0.010 A 
ATOM     42  C   UNL     1       1.774   4.199   6.881  1.00  0.00    -0.014 A 
BRANCH  42  43
ATOM     43  C   UNL     1       1.588   3.758   8.299  1.00  0.00     0.031 A 
ATOM     44  C   UNL     1       2.587   4.118   9.374  1.00  0.00     0.074 A 
ATOM     45  C   UNL     1       0.504   3.031   8.644  1.00  0.00     0.049 A 
ATOM     46  N   UNL     1       2.514   3.917  10.668  1.00  0.00    -0.248 NA
ATOM     47  C   UNL     1       3.831   4.773   8.944  1.00  0.00     0.031 C 
ATOM     48  C   UNL     1      -0.510   2.536   7.713  1.00  0.00     0.029 A 
ATOM     49  N   UNL     1       0.075   2.579   9.871  1.00  0.00    -0.354 N 
ATOM     50  C   UNL     1       3.704   4.401  11.203  1.00  0.00     0.074 A 
ATOM     51  C   UNL     1       4.497   4.873  10.087  1.00  0.00     0.031 C 
ATOM     52  C   UNL     1      -1.450   1.866   8.400  1.00  0.00     0.029 A 
ATOM     53  C   UNL     1      -1.103   1.869   9.820  1.00  0.00     0.049 A 
ATOM     54  H   UNL     1       0.566   2.747  10.707  1.00  0.00     0.167 HD
ATOM     55  C   UNL     1       4.095   4.477  12.500  1.00  0.00     0.034 A 
ATOM     56  C   UNL     1      -1.833   1.294  10.798  1.00  0.00     0.034 A 
ATOM     57  C   UNL     1       3.302   4.044  13.621  1.00  0.00     0.049 A 
ATOM     58  C   UNL     1      -1.402   1.434  12.235  1.00  0.00     0.074 A 
ATOM     59  C   UNL     1       3.582   4.171  14.972  1.00  0.00     0.029 A 
ATOM     60  N   UNL     1       2.084   3.390  13.530  1.00  0.00    -0.354 N 
ATOM     61  N   UNL     1      -0.365   2.063  12.729  1.00  0.00    -0.248 NA
ATOM     62  C   UNL     1      -2.270   0.821  13.253  1.00  0.00     0.031 C 
ATOM     63  C   UNL     1       2.547   3.569  15.697  1.00  0.00     0.029 A 
ATOM     64  C   UNL     1       1.607   3.095  14.798  1.00  0.00     0.049 A 
ATOM     65  H   UNL     1       1.625   3.168  12.688  1.00  0.00     0.167 HD
ATOM     66  C   UNL     1      -0.474   1.953  14.111  1.00  0.00     0.074 A 
ATOM     67  C   UNL     1      -1.692   1.219  14.379  1.00  0.00     0.031 C 
ATOM     68  C   UNL     1       0.370   2.409  15.071  1.00  0.00     0.034 A 
BRANCH  55  69
ATOM     69  C   UNL     1       5.433   5.111  12.793  1.00  0.00     0.023 A 
ATOM     70  C   UNL     1       5.589   6.504  12.640  1.00  0.00     0.012 A 
ATOM     71  C   UNL     1       6.507   4.348  13.294  1.00  0.00     0.148 A 
ATOM     72  C   UNL     1       6.800   7.123  12.945  1.00  0.00     0.002 A 
ATOM     73  C   UNL     1       7.699   4.979  13.637  1.00  0.00     0.091 A 
ATOM     74  F   UNL     1       6.347   3.023  13.421  1.00  0.00    -0.205 F 
ATOM     75  C   UNL     1       7.850   6.363  13.452  1.00  0.00     0.022 A 
BRANCH  73  76
ATOM     76  S   UNL     1       9.082   4.102  14.377  1.00  0.00     0.127 S 
ATOM     77  O   UNL     1      10.043   4.084  13.274  1.00  0.00    -0.237 OA
ATOM     78  O   UNL     1       9.447   4.981  15.488  1.00  0.00    -0.237 OA
ATOM     79  O   UNL     1       8.564   2.801  14.778  1.00  0.00    -0.744 OA
ENDBRANCH  73  76
ENDBRANCH  55  69
BRANCH  56  80
ATOM     80  C   UNL     1      -3.101   0.585  10.457  1.00  0.00     0.023 A 
ATOM     81  C   UNL     1      -4.336   1.145  10.837  1.00  0.00     0.012 A 
ATOM     82  C   UNL     1      -3.087  -0.630   9.747  1.00  0.00     0.148 A 
ATOM     83  C   UNL     1      -5.534   0.492  10.543  1.00  0.00     0.002 A 
ATOM     84  C   UNL     1      -4.286  -1.246   9.406  1.00  0.00     0.091 A 
ATOM     85  F   UNL     1      -1.901  -1.155   9.410  1.00  0.00    -0.205 F 
ATOM     86  C   UNL     1      -5.510  -0.697   9.819  1.00  0.00     0.022 A 
BRANCH  84  87
ATOM     87  S   UNL     1      -4.354  -2.707   8.364  1.00  0.00     0.127 S 
ATOM     88  O   UNL     1      -4.765  -3.735   9.314  1.00  0.00    -0.237 OA
ATOM     89  O   UNL     1      -5.372  -2.329   7.383  1.00  0.00    -0.237 OA
ATOM     90  O   UNL     1      -3.013  -2.855   7.809  1.00  0.00    -0.744 OA
ENDBRANCH  84  87
ENDBRANCH  56  80
BRANCH  68  91
ATOM     91  C   UNL     1      -0.000   2.159  16.512  1.00  0.00     0.023 A 
ATOM     92  C   UNL     1       0.070   0.854  17.040  1.00  0.00     0.012 A 
ATOM     93  C   UNL     1      -0.360   3.226  17.361  1.00  0.00     0.148 A 
ATOM     94  C   UNL     1      -0.249   0.609  18.376  1.00  0.00     0.002 A 
ATOM     95  C   UNL     1      -0.630   2.981  18.703  1.00  0.00     0.091 A 
ATOM     96  F   UNL     1      -0.442   4.459  16.840  1.00  0.00    -0.205 F 
ATOM     97  C   UNL     1      -0.588   1.673  19.209  1.00  0.00     0.022 A 
BRANCH  95  98
ATOM     98  S   UNL     1      -0.983   4.302  19.870  1.00  0.00     0.127 S 
ATOM     99  O   UNL     1      -2.424   4.152  20.064  1.00  0.00    -0.237 OA
ATOM    100  O   UNL     1      -0.169   3.924  21.026  1.00  0.00    -0.237 OA
ATOM    101  O   UNL     1      -0.562   5.535  19.216  1.00  0.00    -0.744 OA
ENDBRANCH  95  98
ENDBRANCH  68  91
ENDBRANCH  42  43
ENDBRANCH  34  37
ENDBRANCH  32  33
ENDBRANCH   1  32
TORSDOF 18
