REMARK SMILES CC1=C(C)C[C@@H](C(=O)NCc2cccnc2)[C@H](C(=O)NCCCNC(=O)c2ccc(-c3c4nc(c(-c5cccc(S(=O)(=O)[O-])c5F)c5ccc([nH]5)c(-c5cccc(S(=O)(=O)[O-])c5F)c5nc(c(-c6cccc(S(=O)(=O)[O-])c6F)c6ccc3[nH]6)C=C5)C=C4)cc2)C1
REMARK SMILES IDX 22 1 21 2 20 3 18 4 19 5 17 7 1 8 2 9 3 10 90 11 4 12 5 13
REMARK SMILES IDX 6 14 7 15 8 16 9 17 10 19 11 20 12 21 16 22 13 23 15 24
REMARK SMILES IDX 14 25 23 26 24 27 25 28 26 30 27 31 28 32 89 33 29 34 88 35
REMARK SMILES IDX 30 36 31 37 32 38 82 39 33 40 87 41 81 42 83 43 34 44 86 45
REMARK SMILES IDX 80 46 79 47 35 49 67 50 47 51 66 52 48 53 51 54 65 55 84 56
REMARK SMILES IDX 49 57 50 58 64 60 85 61 52 62 36 63 37 64 45 65 38 66 40 67
REMARK SMILES IDX 46 68 39 69 41 70 42 71 43 72 44 73 68 74 69 75 77 76 70 77
REMARK SMILES IDX 72 78 78 79 71 80 73 81 74 82 75 83 76 84 53 85 54 86 62 87
REMARK SMILES IDX 55 88 57 89 63 90 56 91 58 92 59 93 60 94 61 95
REMARK H PARENT 20 6 9 18 24 29 83 48 51 59
REMARK Flexibility Score: inf
ROOT
ATOM      1  C   UNL     1       3.814  -1.964  -3.837  1.00  0.00     0.042 C 
ENDROOT
BRANCH   1   2
ATOM      2  C   UNL     1       3.018  -0.733  -3.470  1.00  0.00     0.117 C 
BRANCH   2   3
ATOM      3  N   UNL     1       2.196  -0.242  -4.554  1.00  0.00    -0.356 N 
ATOM      4  C   UNL     1       0.857  -0.014  -4.597  1.00  0.00     0.224 C 
ATOM      5  O   UNL     1       0.401   0.498  -5.622  1.00  0.00    -0.275 OA
ATOM      6  H   UNL     1       2.680  -0.043  -5.388  1.00  0.00     0.163 HD
BRANCH   4   7
ATOM      7  C   UNL     1      -0.068  -0.378  -3.433  1.00  0.00     0.095 C 
ATOM      8  C   UNL     1       1.149   0.166   0.277  1.00  0.00     0.039 C 
ATOM      9  C   UNL     1       0.730  -0.596  -0.953  1.00  0.00    -0.074 C 
ATOM     10  C   UNL     1       0.728  -1.946  -1.029  1.00  0.00    -0.074 C 
ATOM     11  C   UNL     1       0.369   0.294  -2.127  1.00  0.00     0.045 C 
ATOM     12  C   UNL     1       1.220  -2.868   0.061  1.00  0.00     0.039 C 
ATOM     13  C   UNL     1       0.291  -2.695  -2.269  1.00  0.00     0.045 C 
ATOM     14  C   UNL     1      -0.351  -1.885  -3.395  1.00  0.00     0.095 C 
BRANCH  14  15
ATOM     15  C   UNL     1      -1.846  -2.175  -3.558  1.00  0.00     0.224 C 
ATOM     16  O   UNL     1      -2.267  -2.655  -4.617  1.00  0.00    -0.275 OA
ATOM     17  N   UNL     1      -2.782  -1.903  -2.614  1.00  0.00    -0.352 N 
ATOM     18  H   UNL     1      -3.707  -2.028  -2.927  1.00  0.00     0.163 HD
BRANCH  17  19
ATOM     19  C   UNL     1      -2.687  -1.465  -1.239  1.00  0.00     0.153 C 
BRANCH  19  20
ATOM     20  C   UNL     1      -3.571  -0.285  -0.951  1.00  0.00    -0.010 A 
ATOM     21  C   UNL     1      -4.963  -0.380  -0.980  1.00  0.00     0.009 A 
ATOM     22  C   UNL     1      -3.034   0.956  -0.621  1.00  0.00     0.116 A 
ATOM     23  C   UNL     1      -5.738   0.749  -0.724  1.00  0.00     0.020 A 
ATOM     24  N   UNL     1      -3.757   2.073  -0.379  1.00  0.00    -0.264 NA
ATOM     25  C   UNL     1      -5.096   1.944  -0.449  1.00  0.00     0.111 A 
ENDBRANCH  19  20
ENDBRANCH  17  19
ENDBRANCH  14  15
ENDBRANCH   4   7
ENDBRANCH   2   3
ENDBRANCH   1   2
BRANCH   1  26
ATOM     26  C   UNL     1       5.014  -1.631  -4.699  1.00  0.00     0.118 C 
BRANCH  26  27
ATOM     27  N   UNL     1       5.974  -0.780  -3.998  1.00  0.00    -0.352 N 
ATOM     28  C   UNL     1       7.240  -1.066  -3.542  1.00  0.00     0.251 C 
ATOM     29  H   UNL     1       5.668   0.139  -3.825  1.00  0.00     0.163 HD
ATOM     30  O   UNL     1       7.799  -0.304  -2.766  1.00  0.00    -0.269 OA
BRANCH  28  31
ATOM     31  C   UNL     1       7.904  -2.308  -3.986  1.00  0.00     0.039 A 
ATOM     32  C   UNL     1       8.620  -3.071  -3.062  1.00  0.00     0.014 A 
ATOM     33  C   UNL     1       7.784  -2.733  -5.310  1.00  0.00     0.014 A 
ATOM     34  C   UNL     1       9.137  -4.307  -3.451  1.00  0.00     0.010 A 
ATOM     35  C   UNL     1       8.190  -4.011  -5.660  1.00  0.00     0.010 A 
ATOM     36  C   UNL     1       8.877  -4.810  -4.737  1.00  0.00    -0.014 A 
BRANCH  36  37
ATOM     37  C   UNL     1       9.289  -6.177  -5.136  1.00  0.00     0.031 A 
ATOM     38  C   UNL     1      10.207  -6.376  -6.312  1.00  0.00     0.074 A 
ATOM     39  C   UNL     1       8.747  -7.239  -4.506  1.00  0.00     0.049 A 
ATOM     40  N   UNL     1      10.616  -7.492  -6.854  1.00  0.00    -0.248 NA
ATOM     41  C   UNL     1      10.704  -5.166  -6.990  1.00  0.00     0.031 C 
ATOM     42  C   UNL     1       7.766  -7.170  -3.418  1.00  0.00     0.029 A 
ATOM     43  N   UNL     1       8.916  -8.585  -4.710  1.00  0.00    -0.354 N 
ATOM     44  C   UNL     1      11.379  -7.122  -7.954  1.00  0.00     0.074 A 
ATOM     45  C   UNL     1      11.350  -5.679  -8.026  1.00  0.00     0.031 C 
ATOM     46  C   UNL     1       7.428  -8.415  -3.049  1.00  0.00     0.029 A 
ATOM     47  C   UNL     1       8.133  -9.370  -3.895  1.00  0.00     0.049 A 
ATOM     48  H   UNL     1       9.540  -8.955  -5.377  1.00  0.00     0.167 HD
ATOM     49  C   UNL     1      12.068  -7.912  -8.810  1.00  0.00     0.034 A 
ATOM     50  C   UNL     1       7.986 -10.708  -3.848  1.00  0.00     0.034 A 
ATOM     51  C   UNL     1      12.132  -9.343  -8.701  1.00  0.00     0.049 A 
ATOM     52  C   UNL     1       8.800 -11.560  -4.783  1.00  0.00     0.074 A 
ATOM     53  C   UNL     1      12.894 -10.226  -9.445  1.00  0.00     0.029 A 
ATOM     54  N   UNL     1      11.398 -10.102  -7.804  1.00  0.00    -0.354 N 
ATOM     55  N   UNL     1       9.666 -11.188  -5.694  1.00  0.00    -0.248 NA
ATOM     56  C   UNL     1       8.643 -13.016  -4.662  1.00  0.00     0.031 C 
ATOM     57  C   UNL     1      12.593 -11.524  -9.021  1.00  0.00     0.029 A 
ATOM     58  C   UNL     1      11.669 -11.446  -7.991  1.00  0.00     0.049 A 
ATOM     59  H   UNL     1      10.775  -9.739  -7.134  1.00  0.00     0.167 HD
ATOM     60  C   UNL     1      10.174 -12.361  -6.238  1.00  0.00     0.074 A 
ATOM     61  C   UNL     1       9.545 -13.456  -5.529  1.00  0.00     0.031 C 
ATOM     62  C   UNL     1      11.066 -12.521  -7.247  1.00  0.00     0.034 A 
BRANCH  49  63
ATOM     63  C   UNL     1      12.852  -7.249  -9.910  1.00  0.00     0.023 A 
ATOM     64  C   UNL     1      14.025  -6.532  -9.598  1.00  0.00     0.012 A 
ATOM     65  C   UNL     1      12.475  -7.405 -11.258  1.00  0.00     0.148 A 
ATOM     66  C   UNL     1      14.798  -5.960 -10.607  1.00  0.00     0.002 A 
ATOM     67  C   UNL     1      13.275  -6.872 -12.261  1.00  0.00     0.091 A 
ATOM     68  F   UNL     1      11.344  -8.070 -11.532  1.00  0.00    -0.205 F 
ATOM     69  C   UNL     1      14.430  -6.141 -11.938  1.00  0.00     0.022 A 
BRANCH  67  70
ATOM     70  S   UNL     1      12.936  -7.117 -14.008  1.00  0.00     0.127 S 
ATOM     71  O   UNL     1      12.612  -5.758 -14.439  1.00  0.00    -0.237 OA
ATOM     72  O   UNL     1      14.218  -7.624 -14.499  1.00  0.00    -0.237 OA
ATOM     73  O   UNL     1      11.836  -8.069 -14.076  1.00  0.00    -0.744 OA
ENDBRANCH  67  70
ENDBRANCH  49  63
BRANCH  50  74
ATOM     74  C   UNL     1       7.062 -11.327  -2.855  1.00  0.00     0.023 A 
ATOM     75  C   UNL     1       7.589 -12.088  -1.794  1.00  0.00     0.012 A 
ATOM     76  C   UNL     1       5.667 -11.154  -2.948  1.00  0.00     0.148 A 
ATOM     77  C   UNL     1       6.743 -12.700  -0.868  1.00  0.00     0.002 A 
ATOM     78  C   UNL     1       4.833 -11.715  -1.988  1.00  0.00     0.091 A 
ATOM     79  F   UNL     1       5.182 -10.437  -3.971  1.00  0.00    -0.205 F 
ATOM     80  C   UNL     1       5.367 -12.506  -0.959  1.00  0.00     0.022 A 
BRANCH  78  81
ATOM     81  S   UNL     1       3.066 -11.397  -1.948  1.00  0.00     0.127 S 
ATOM     82  O   UNL     1       2.521 -12.678  -2.389  1.00  0.00    -0.237 OA
ATOM     83  O   UNL     1       2.845 -11.086  -0.535  1.00  0.00    -0.237 OA
ATOM     84  O   UNL     1       2.852 -10.270  -2.846  1.00  0.00    -0.744 OA
ENDBRANCH  78  81
ENDBRANCH  50  74
BRANCH  62  85
ATOM     85  C   UNL     1      11.431 -13.929  -7.636  1.00  0.00     0.023 A 
ATOM     86  C   UNL     1      10.493 -14.731  -8.316  1.00  0.00     0.012 A 
ATOM     87  C   UNL     1      12.724 -14.430  -7.392  1.00  0.00     0.148 A 
ATOM     88  C   UNL     1      10.825 -16.024  -8.716  1.00  0.00     0.002 A 
ATOM     89  C   UNL     1      13.065 -15.700  -7.840  1.00  0.00     0.091 A 
ATOM     90  F   UNL     1      13.596 -13.655  -6.731  1.00  0.00    -0.205 F 
ATOM     91  C   UNL     1      12.113 -16.504  -8.489  1.00  0.00     0.022 A 
BRANCH  89  92
ATOM     92  S   UNL     1      14.725 -16.366  -7.680  1.00  0.00     0.127 S 
ATOM     93  O   UNL     1      14.530 -17.414  -6.679  1.00  0.00    -0.237 OA
ATOM     94  O   UNL     1      14.993 -16.856  -9.033  1.00  0.00    -0.237 OA
ATOM     95  O   UNL     1      15.567 -15.254  -7.261  1.00  0.00    -0.744 OA
ENDBRANCH  89  92
ENDBRANCH  62  85
ENDBRANCH  36  37
ENDBRANCH  28  31
ENDBRANCH  26  27
ENDBRANCH   1  26
TORSDOF 16
