REMARK SMILES CN(Cc1ccc(Cl)cc1Cl)S(=O)(=O)CCCC(=O)NCCCNC(=O)c1ccc(-c2c3nc(c(-c4cccc(S(=O)(=O)[O-])c4F)c4ccc([nH]4)c(-c4cccc(S(=O)(=O)[O-])c4F)c4nc(c(-c5cccc(S(=O)(=O)[O-])c5F)c5ccc2[nH]5)C=C4)C=C3)cc1
REMARK SMILES IDX 18 1 19 2 20 3 17 5 16 6 15 7 12 8 13 9 14 10 2 11 1 12 3 13
REMARK SMILES IDX 4 14 5 15 10 16 6 17 9 18 11 19 7 20 8 21 21 22 22 23 23 24
REMARK SMILES IDX 24 25 25 26 26 28 27 29 28 30 89 31 29 32 88 33 30 34 31 35
REMARK SMILES IDX 32 36 82 37 33 38 87 39 81 40 83 41 34 42 86 43 80 44 79 45
REMARK SMILES IDX 35 47 67 48 47 49 66 50 48 51 51 52 65 53 84 54 49 55 50 56
REMARK SMILES IDX 64 58 85 59 52 60 36 61 37 62 45 63 38 64 40 65 46 66 39 67
REMARK SMILES IDX 41 68 42 69 43 70 44 71 68 72 69 73 77 74 70 75 72 76 78 77
REMARK SMILES IDX 71 78 73 79 74 80 75 81 76 82 53 83 54 84 62 85 55 86 57 87
REMARK SMILES IDX 63 88 56 89 58 90 59 91 60 92 61 93
REMARK H PARENT 20 4 24 27 83 46 51 57
REMARK Flexibility Score: inf
ROOT
ATOM      1  C   UNL     1      -0.981   2.145  -4.417  1.00  0.00     0.220 C 
ATOM      2  O   UNL     1      -1.227   1.882  -5.596  1.00  0.00    -0.275 OA
ATOM      3  N   UNL     1      -1.940   2.791  -3.687  1.00  0.00    -0.356 N 
ATOM      4  H   UNL     1      -2.724   3.118  -4.183  1.00  0.00     0.163 HD
ENDROOT
BRANCH   1   5
ATOM      5  C   UNL     1       0.338   1.706  -3.771  1.00  0.00     0.101 C 
BRANCH   5   6
ATOM      6  C   UNL     1       1.326   2.831  -3.446  1.00  0.00     0.027 C 
BRANCH   6   7
ATOM      7  C   UNL     1       1.665   3.107  -1.977  1.00  0.00     0.155 C 
BRANCH   7   8
ATOM      8  S   UNL     1       2.481   1.826  -1.013  1.00  0.00     0.214 S 
ATOM      9  O   UNL     1       2.983   2.434   0.201  1.00  0.00    -0.212 OA
ATOM     10  O   UNL     1       3.411   1.149  -1.898  1.00  0.00    -0.212 OA
BRANCH   8  11
ATOM     11  N   UNL     1       1.379   0.661  -0.519  1.00  0.00    -0.201 NA
ATOM     12  C   UNL     1       1.965  -0.477   0.214  1.00  0.00     0.124 C 
BRANCH  11  13
ATOM     13  C   UNL     1      -0.033   0.900  -0.211  1.00  0.00     0.138 C 
BRANCH  13  14
ATOM     14  C   UNL     1      -0.568   1.176   1.178  1.00  0.00    -0.014 A 
ATOM     15  C   UNL     1      -1.354   0.177   1.794  1.00  0.00     0.008 A 
ATOM     16  C   UNL     1      -0.504   2.427   1.817  1.00  0.00     0.047 A 
ATOM     17  C   UNL     1      -2.031   0.419   2.995  1.00  0.00     0.021 A 
ATOM     18  C   UNL     1      -1.160   2.660   3.032  1.00  0.00     0.041 A 
ATOM     19  Cl  UNL     1       0.270   3.799   1.131  1.00  0.00    -0.084 Cl
ATOM     20  C   UNL     1      -1.921   1.658   3.615  1.00  0.00     0.042 A 
ATOM     21  Cl  UNL     1      -2.749   1.960   5.092  1.00  0.00    -0.084 Cl
ENDBRANCH  13  14
ENDBRANCH  11  13
ENDBRANCH   8  11
ENDBRANCH   7   8
ENDBRANCH   6   7
ENDBRANCH   5   6
ENDBRANCH   1   5
BRANCH   3  22
ATOM     22  C   UNL     1      -1.925   3.044  -2.272  1.00  0.00     0.117 C 
BRANCH  22  23
ATOM     23  C   UNL     1      -2.415   4.404  -1.831  1.00  0.00     0.042 C 
BRANCH  23  24
ATOM     24  C   UNL     1      -3.847   4.387  -1.334  1.00  0.00     0.118 C 
BRANCH  24  25
ATOM     25  N   UNL     1      -4.052   3.571  -0.133  1.00  0.00    -0.352 N 
ATOM     26  C   UNL     1      -4.393   3.906   1.159  1.00  0.00     0.251 C 
ATOM     27  H   UNL     1      -3.923   2.605  -0.277  1.00  0.00     0.163 HD
ATOM     28  O   UNL     1      -4.457   3.019   2.007  1.00  0.00    -0.269 OA
BRANCH  26  29
ATOM     29  C   UNL     1      -4.653   5.311   1.538  1.00  0.00     0.039 A 
ATOM     30  C   UNL     1      -4.205   5.799   2.771  1.00  0.00     0.014 A 
ATOM     31  C   UNL     1      -5.339   6.156   0.673  1.00  0.00     0.014 A 
ATOM     32  C   UNL     1      -4.362   7.156   3.080  1.00  0.00     0.010 A 
ATOM     33  C   UNL     1      -5.356   7.520   0.911  1.00  0.00     0.010 A 
ATOM     34  C   UNL     1      -4.896   8.038   2.129  1.00  0.00    -0.014 A 
BRANCH  34  35
ATOM     35  C   UNL     1      -5.054   9.498   2.363  1.00  0.00     0.031 A 
ATOM     36  C   UNL     1      -6.417  10.124   2.187  1.00  0.00     0.074 A 
ATOM     37  C   UNL     1      -3.973  10.276   2.572  1.00  0.00     0.049 A 
ATOM     38  N   UNL     1      -6.746  11.385   2.100  1.00  0.00    -0.248 NA
ATOM     39  C   UNL     1      -7.554   9.200   2.018  1.00  0.00     0.031 C 
ATOM     40  C   UNL     1      -2.591   9.805   2.677  1.00  0.00     0.029 A 
ATOM     41  N   UNL     1      -3.866  11.640   2.690  1.00  0.00    -0.354 N 
ATOM     42  C   UNL     1      -8.101  11.401   1.788  1.00  0.00     0.074 A 
ATOM     43  C   UNL     1      -8.523  10.026   1.656  1.00  0.00     0.031 C 
ATOM     44  C   UNL     1      -1.776  10.860   2.847  1.00  0.00     0.029 A 
ATOM     45  C   UNL     1      -2.570  12.083   2.821  1.00  0.00     0.049 A 
ATOM     46  H   UNL     1      -4.644  12.244   2.681  1.00  0.00     0.167 HD
ATOM     47  C   UNL     1      -8.932  12.462   1.662  1.00  0.00     0.034 A 
ATOM     48  C   UNL     1      -2.079  13.336   2.897  1.00  0.00     0.034 A 
ATOM     49  C   UNL     1      -8.526  13.819   1.898  1.00  0.00     0.049 A 
ATOM     50  C   UNL     1      -3.037  14.496   2.853  1.00  0.00     0.074 A 
ATOM     51  C   UNL     1      -9.306  14.960   1.921  1.00  0.00     0.029 A 
ATOM     52  N   UNL     1      -7.225  14.215   2.171  1.00  0.00    -0.354 N 
ATOM     53  N   UNL     1      -4.339  14.485   2.696  1.00  0.00    -0.248 NA
ATOM     54  C   UNL     1      -2.465  15.838   3.030  1.00  0.00     0.031 C 
ATOM     55  C   UNL     1      -8.474  16.049   2.197  1.00  0.00     0.029 A 
ATOM     56  C   UNL     1      -7.180  15.582   2.367  1.00  0.00     0.049 A 
ATOM     57  H   UNL     1      -6.449  13.611   2.218  1.00  0.00     0.167 HD
ATOM     58  C   UNL     1      -4.747  15.810   2.795  1.00  0.00     0.074 A 
ATOM     59  C   UNL     1      -3.555  16.595   3.044  1.00  0.00     0.031 C 
ATOM     60  C   UNL     1      -5.991  16.334   2.677  1.00  0.00     0.034 A 
BRANCH  47  61
ATOM     61  C   UNL     1     -10.375  12.190   1.321  1.00  0.00     0.023 A 
ATOM     62  C   UNL     1     -11.210  11.560   2.268  1.00  0.00     0.012 A 
ATOM     63  C   UNL     1     -10.918  12.593   0.086  1.00  0.00     0.148 A 
ATOM     64  C   UNL     1     -12.546  11.293   1.974  1.00  0.00     0.002 A 
ATOM     65  C   UNL     1     -12.265  12.370  -0.180  1.00  0.00     0.091 A 
ATOM     66  F   UNL     1     -10.108  13.172  -0.812  1.00  0.00    -0.205 F 
ATOM     67  C   UNL     1     -13.076  11.707   0.756  1.00  0.00     0.022 A 
BRANCH  65  68
ATOM     68  S   UNL     1     -13.066  12.941  -1.683  1.00  0.00     0.127 S 
ATOM     69  O   UNL     1     -13.311  11.681  -2.383  1.00  0.00    -0.237 OA
ATOM     70  O   UNL     1     -14.268  13.592  -1.163  1.00  0.00    -0.237 OA
ATOM     71  O   UNL     1     -12.118  13.839  -2.327  1.00  0.00    -0.744 OA
ENDBRANCH  65  68
ENDBRANCH  47  61
BRANCH  48  72
ATOM     72  C   UNL     1      -0.618  13.553   3.102  1.00  0.00     0.023 A 
ATOM     73  C   UNL     1      -0.163  14.022   4.351  1.00  0.00     0.012 A 
ATOM     74  C   UNL     1       0.322  13.271   2.093  1.00  0.00     0.148 A 
ATOM     75  C   UNL     1       1.196  14.237   4.580  1.00  0.00     0.002 A 
ATOM     76  C   UNL     1       1.680  13.436   2.346  1.00  0.00     0.091 A 
ATOM     77  F   UNL     1      -0.129  12.834   0.909  1.00  0.00    -0.205 F 
ATOM     78  C   UNL     1       2.118  13.934   3.583  1.00  0.00     0.022 A 
BRANCH  76  79
ATOM     79  S   UNL     1       2.946  12.950   1.167  1.00  0.00     0.127 S 
ATOM     80  O   UNL     1       3.448  14.245   0.717  1.00  0.00    -0.237 OA
ATOM     81  O   UNL     1       3.869  12.190   2.010  1.00  0.00    -0.237 OA
ATOM     82  O   UNL     1       2.258  12.152   0.161  1.00  0.00    -0.744 OA
ENDBRANCH  76  79
ENDBRANCH  48  72
BRANCH  60  83
ATOM     83  C   UNL     1      -6.147  17.819   2.862  1.00  0.00     0.023 A 
ATOM     84  C   UNL     1      -5.710  18.701   1.855  1.00  0.00     0.012 A 
ATOM     85  C   UNL     1      -6.811  18.331   3.994  1.00  0.00     0.148 A 
ATOM     86  C   UNL     1      -5.908  20.075   1.985  1.00  0.00     0.002 A 
ATOM     87  C   UNL     1      -7.049  19.695   4.093  1.00  0.00     0.091 A 
ATOM     88  F   UNL     1      -7.202  17.474   4.948  1.00  0.00    -0.205 F 
ATOM     89  C   UNL     1      -6.588  20.570   3.096  1.00  0.00     0.022 A 
BRANCH  87  90
ATOM     90  S   UNL     1      -8.005  20.410   5.436  1.00  0.00     0.127 S 
ATOM     91  O   UNL     1      -6.969  21.088   6.211  1.00  0.00    -0.237 OA
ATOM     92  O   UNL     1      -8.919  21.303   4.724  1.00  0.00    -0.237 OA
ATOM     93  O   UNL     1      -8.655  19.291   6.105  1.00  0.00    -0.744 OA
ENDBRANCH  87  90
ENDBRANCH  60  83
ENDBRANCH  34  35
ENDBRANCH  26  29
ENDBRANCH  24  25
ENDBRANCH  23  24
ENDBRANCH  22  23
ENDBRANCH   3  22
TORSDOF 19
