REMARK SMILES C[C@H](O)Cn1c(C2CCCCC2)nc2cc(C(=O)NCCCNC(=O)c3ccc(-c4c5nc(c(-c6cccc(S(=O)(=O)[O-])c6F)c6ccc([nH]6)c(-c6cccc(S(=O)(=O)[O-])c6F)c6nc(c(-c7cccc(S(=O)(=O)[O-])c7F)c7ccc4[nH]7)C=C6)C=C5)cc3)ccc21
REMARK SMILES IDX 21 1 20 2 19 3 17 4 18 5 16 7 5 8 6 9 91 10 13 11 14 12
REMARK SMILES IDX 90 13 15 14 89 15 4 16 2 17 1 18 3 19 7 21 8 22 12 23 9 24
REMARK SMILES IDX 11 25 10 26 22 27 23 28 24 29 25 31 26 32 27 33 88 34 28 35
REMARK SMILES IDX 87 36 29 37 30 38 31 39 81 40 32 41 86 42 80 43 82 44 33 45
REMARK SMILES IDX 85 46 79 47 78 48 34 50 66 51 46 52 65 53 47 54 50 55 64 56
REMARK SMILES IDX 83 57 48 58 49 59 63 61 84 62 51 63 35 64 36 65 44 66 37 67
REMARK SMILES IDX 39 68 45 69 38 70 40 71 41 72 42 73 43 74 67 75 68 76 76 77
REMARK SMILES IDX 69 78 71 79 77 80 70 81 72 82 73 83 74 84 75 85 52 86 53 87
REMARK SMILES IDX 61 88 54 89 56 90 62 91 55 92 57 93 58 94 59 95 60 96
REMARK H PARENT 19 6 3 20 23 30 82 49 50 60
REMARK Flexibility Score: inf
ROOT
ATOM      1  C   UNL     1      -6.181  -0.307  -4.472  1.00  0.00     0.042 C 
ENDROOT
BRANCH   1   2
ATOM      2  C   UNL     1      -6.621  -1.092  -3.232  1.00  0.00     0.118 C 
BRANCH   2   3
ATOM      3  N   UNL     1      -6.080  -2.442  -3.229  1.00  0.00    -0.352 N 
ATOM      4  C   UNL     1      -5.023  -3.044  -2.594  1.00  0.00     0.251 C 
ATOM      5  O   UNL     1      -4.905  -4.260  -2.764  1.00  0.00    -0.269 OA
ATOM      6  H   UNL     1      -6.582  -3.058  -3.809  1.00  0.00     0.163 HD
BRANCH   4   7
ATOM      7  C   UNL     1      -4.044  -2.341  -1.710  1.00  0.00     0.042 A 
ATOM      8  N   UNL     1      -1.188  -0.945   0.968  1.00  0.00    -0.325 N 
ATOM      9  C   UNL     1      -0.800  -2.177   1.488  1.00  0.00     0.113 A 
ATOM     10  C   UNL     1      -2.156  -1.190   0.002  1.00  0.00     0.068 A 
ATOM     11  N   UNL     1      -1.490  -3.151   0.917  1.00  0.00    -0.233 NA
ATOM     12  C   UNL     1      -2.329  -2.565   0.009  1.00  0.00     0.090 A 
ATOM     13  C   UNL     1      -2.888  -0.360  -0.856  1.00  0.00     0.029 A 
ATOM     14  C   UNL     1      -3.281  -3.150  -0.843  1.00  0.00     0.044 A 
ATOM     15  C   UNL     1      -3.807  -0.966  -1.726  1.00  0.00     0.016 A 
BRANCH   8  16
ATOM     16  C   UNL     1      -0.841   0.407   1.392  1.00  0.00     0.155 C 
BRANCH  16  17
ATOM     17  C   UNL     1       0.634   0.803   1.321  1.00  0.00     0.131 C 
ATOM     18  C   UNL     1       0.866   2.248   1.741  1.00  0.00     0.040 C 
BRANCH  17  19
ATOM     19  O   UNL     1       1.168   0.610   0.015  1.00  0.00    -0.392 OA
ATOM     20  H   UNL     1       0.709   1.192  -0.611  1.00  0.00     0.211 HD
ENDBRANCH  17  19
ENDBRANCH  16  17
ENDBRANCH   8  16
BRANCH   9  21
ATOM     21  C   UNL     1       0.237  -2.467   2.560  1.00  0.00     0.056 C 
ATOM     22  C   UNL     1       1.680  -2.347   2.031  1.00  0.00     0.011 C 
ATOM     23  C   UNL     1      -0.086  -1.783   3.892  1.00  0.00     0.011 C 
ATOM     24  C   UNL     1       2.767  -2.057   3.071  1.00  0.00     0.001 C 
ATOM     25  C   UNL     1       1.062  -1.845   4.887  1.00  0.00     0.001 C 
ATOM     26  C   UNL     1       2.312  -1.241   4.273  1.00  0.00     0.000 C 
ENDBRANCH   9  21
ENDBRANCH   4   7
ENDBRANCH   2   3
ENDBRANCH   1   2
BRANCH   1  27
ATOM     27  C   UNL     1      -6.893  -0.754  -5.751  1.00  0.00     0.118 C 
BRANCH  27  28
ATOM     28  N   UNL     1      -8.333  -0.581  -5.708  1.00  0.00    -0.352 N 
ATOM     29  C   UNL     1      -9.197   0.462  -5.902  1.00  0.00     0.251 C 
ATOM     30  H   UNL     1      -8.802  -1.417  -5.487  1.00  0.00     0.163 HD
ATOM     31  O   UNL     1     -10.395   0.181  -5.806  1.00  0.00    -0.269 OA
BRANCH  29  32
ATOM     32  C   UNL     1      -8.808   1.877  -6.159  1.00  0.00     0.039 A 
ATOM     33  C   UNL     1      -7.508   2.335  -6.365  1.00  0.00     0.014 A 
ATOM     34  C   UNL     1      -9.857   2.818  -6.162  1.00  0.00     0.014 A 
ATOM     35  C   UNL     1      -7.253   3.699  -6.479  1.00  0.00     0.010 A 
ATOM     36  C   UNL     1      -9.610   4.181  -6.301  1.00  0.00     0.010 A 
ATOM     37  C   UNL     1      -8.299   4.625  -6.415  1.00  0.00    -0.014 A 
BRANCH  37  38
ATOM     38  C   UNL     1      -7.958   6.038  -6.563  1.00  0.00     0.031 A 
ATOM     39  C   UNL     1      -7.269   6.393  -7.837  1.00  0.00     0.074 A 
ATOM     40  C   UNL     1      -8.282   6.996  -5.671  1.00  0.00     0.049 A 
ATOM     41  N   UNL     1      -6.048   6.796  -7.996  1.00  0.00    -0.248 NA
ATOM     42  C   UNL     1      -7.997   6.161  -9.092  1.00  0.00     0.031 C 
ATOM     43  C   UNL     1      -9.183   6.896  -4.521  1.00  0.00     0.029 A 
ATOM     44  N   UNL     1      -7.942   8.318  -5.684  1.00  0.00    -0.354 N 
ATOM     45  C   UNL     1      -5.920   7.072  -9.356  1.00  0.00     0.074 A 
ATOM     46  C   UNL     1      -7.092   6.531  -9.998  1.00  0.00     0.031 C 
ATOM     47  C   UNL     1      -9.501   8.141  -4.098  1.00  0.00     0.029 A 
ATOM     48  C   UNL     1      -8.720   9.109  -4.845  1.00  0.00     0.049 A 
ATOM     49  H   UNL     1      -7.211   8.678  -6.236  1.00  0.00     0.167 HD
ATOM     50  C   UNL     1      -4.967   7.911  -9.845  1.00  0.00     0.034 A 
ATOM     51  C   UNL     1      -8.758  10.463  -4.832  1.00  0.00     0.034 A 
ATOM     52  C   UNL     1      -3.918   8.168  -8.900  1.00  0.00     0.049 A 
ATOM     53  C   UNL     1      -7.487  10.936  -5.428  1.00  0.00     0.074 A 
ATOM     54  C   UNL     1      -2.979   7.405  -8.239  1.00  0.00     0.029 A 
ATOM     55  N   UNL     1      -3.955   9.374  -8.248  1.00  0.00    -0.354 N 
ATOM     56  N   UNL     1      -6.316  10.768  -4.881  1.00  0.00    -0.248 NA
ATOM     57  C   UNL     1      -7.477  11.306  -6.833  1.00  0.00     0.031 C 
ATOM     58  C   UNL     1      -2.849   8.013  -6.956  1.00  0.00     0.029 A 
ATOM     59  C   UNL     1      -3.693   9.126  -6.928  1.00  0.00     0.049 A 
ATOM     60  H   UNL     1      -4.136  10.254  -8.652  1.00  0.00     0.167 HD
ATOM     61  C   UNL     1      -5.455  10.588  -5.954  1.00  0.00     0.074 A 
ATOM     62  C   UNL     1      -6.198  11.054  -7.120  1.00  0.00     0.031 C 
ATOM     63  C   UNL     1      -4.333   9.821  -5.833  1.00  0.00     0.034 A 
BRANCH  50  64
ATOM     64  C   UNL     1      -5.152   8.774 -11.066  1.00  0.00     0.023 A 
ATOM     65  C   UNL     1      -4.011   9.352 -11.662  1.00  0.00     0.012 A 
ATOM     66  C   UNL     1      -6.413   9.253 -11.484  1.00  0.00     0.148 A 
ATOM     67  C   UNL     1      -4.123  10.364 -12.622  1.00  0.00     0.002 A 
ATOM     68  C   UNL     1      -6.521  10.201 -12.493  1.00  0.00     0.091 A 
ATOM     69  F   UNL     1      -7.513   8.893 -10.812  1.00  0.00    -0.205 F 
ATOM     70  C   UNL     1      -5.379  10.778 -13.051  1.00  0.00     0.022 A 
BRANCH  68  71
ATOM     71  S   UNL     1      -8.123  10.731 -13.107  1.00  0.00     0.127 S 
ATOM     72  O   UNL     1      -8.271  12.027 -12.455  1.00  0.00    -0.237 OA
ATOM     73  O   UNL     1      -7.892  10.781 -14.550  1.00  0.00    -0.237 OA
ATOM     74  O   UNL     1      -9.053   9.686 -12.690  1.00  0.00    -0.744 OA
ENDBRANCH  68  71
ENDBRANCH  50  64
BRANCH  51  75
ATOM     75  C   UNL     1      -9.893  11.390  -4.590  1.00  0.00     0.023 A 
ATOM     76  C   UNL     1      -9.628  12.765  -4.412  1.00  0.00     0.012 A 
ATOM     77  C   UNL     1     -11.229  11.003  -4.835  1.00  0.00     0.148 A 
ATOM     78  C   UNL     1     -10.640  13.724  -4.540  1.00  0.00     0.002 A 
ATOM     79  C   UNL     1     -12.236  11.960  -4.947  1.00  0.00     0.091 A 
ATOM     80  F   UNL     1     -11.502   9.712  -5.060  1.00  0.00    -0.205 F 
ATOM     81  C   UNL     1     -11.942  13.322  -4.821  1.00  0.00     0.022 A 
BRANCH  79  82
ATOM     82  S   UNL     1     -13.938  11.507  -5.310  1.00  0.00     0.127 S 
ATOM     83  O   UNL     1     -14.688  12.385  -4.411  1.00  0.00    -0.237 OA
ATOM     84  O   UNL     1     -14.047  11.844  -6.726  1.00  0.00    -0.237 OA
ATOM     85  O   UNL     1     -14.044  10.090  -4.981  1.00  0.00    -0.744 OA
ENDBRANCH  79  82
ENDBRANCH  51  75
BRANCH  63  86
ATOM     86  C   UNL     1      -3.895   9.415  -4.450  1.00  0.00     0.023 A 
ATOM     87  C   UNL     1      -4.650   8.519  -3.665  1.00  0.00     0.012 A 
ATOM     88  C   UNL     1      -2.607   9.780  -4.025  1.00  0.00     0.148 A 
ATOM     89  C   UNL     1      -4.133   8.004  -2.474  1.00  0.00     0.002 A 
ATOM     90  C   UNL     1      -2.080   9.233  -2.863  1.00  0.00     0.091 A 
ATOM     91  F   UNL     1      -1.902  10.621  -4.797  1.00  0.00    -0.205 F 
ATOM     92  C   UNL     1      -2.842   8.350  -2.080  1.00  0.00     0.022 A 
BRANCH  90  93
ATOM     93  S   UNL     1      -0.384   9.528  -2.356  1.00  0.00     0.127 S 
ATOM     94  O   UNL     1      -0.561  10.279  -1.114  1.00  0.00    -0.237 OA
ATOM     95  O   UNL     1       0.123   8.166  -2.177  1.00  0.00    -0.237 OA
ATOM     96  O   UNL     1       0.245  10.265  -3.444  1.00  0.00    -0.744 OA
ENDBRANCH  90  93
ENDBRANCH  63  86
ENDBRANCH  37  38
ENDBRANCH  29  32
ENDBRANCH  27  28
ENDBRANCH   1  27
TORSDOF 17
