REMARK SMILES Cc1cc(C)c2c(c1)C=C(C(=O)NCCCNC(=O)c1ccc(-c3c4nc(c(-c5cccc(S(=O)(=O)[O-])c5F)c5ccc([nH]5)c(-c5cccc(S(=O)(=O)[O-])c5F)c5nc(c(-c6cccc(S(=O)(=O)[O-])c6F)c6ccc3[nH]6)C=C5)C=C4)cc1)[C@@H](C(F)(F)F)O2
REMARK SMILES IDX 16 1 15 2 14 3 13 4 11 5 12 6 10 8 1 9 2 10 3 11 8 12 4 13
REMARK SMILES IDX 7 14 5 15 6 16 9 17 88 18 83 19 84 20 85 21 86 22 87 23
REMARK SMILES IDX 17 24 18 25 19 27 20 28 21 29 82 30 22 31 81 32 23 33 24 34
REMARK SMILES IDX 25 35 75 36 26 37 80 38 74 39 76 40 27 41 79 42 73 43 72 44
REMARK SMILES IDX 28 46 60 47 40 48 59 49 41 50 44 51 58 52 77 53 42 54 43 55
REMARK SMILES IDX 57 57 78 58 45 59 29 60 30 61 38 62 31 63 33 64 39 65 32 66
REMARK SMILES IDX 34 67 35 68 36 69 37 70 61 71 62 72 70 73 63 74 65 75 71 76
REMARK SMILES IDX 64 77 66 78 67 79 68 80 69 81 46 82 47 83 55 84 48 85 50 86
REMARK SMILES IDX 56 87 49 88 51 89 52 90 53 91 54 92
REMARK H PARENT 13 7 17 26 76 45 44 56
REMARK Flexibility Score: inf
ROOT
ATOM      1  C   UNL     1       1.720  10.965   2.499  1.00  0.00     0.118 C 
ENDROOT
BRANCH   1   2
ATOM      2  C   UNL     1       1.030   9.640   2.796  1.00  0.00     0.042 C 
BRANCH   2   3
ATOM      3  C   UNL     1       0.294   9.097   1.582  1.00  0.00     0.118 C 
BRANCH   3   4
ATOM      4  N   UNL     1       1.201   8.490   0.618  1.00  0.00    -0.352 N 
ATOM      5  C   UNL     1       1.507   7.242   0.193  1.00  0.00     0.251 C 
ATOM      6  O   UNL     1       2.363   7.184  -0.696  1.00  0.00    -0.270 OA
ATOM      7  H   UNL     1       1.736   9.171   0.149  1.00  0.00     0.163 HD
BRANCH   5   8
ATOM      8  C   UNL     1       0.888   5.987   0.708  1.00  0.00     0.067 C 
ATOM      9  C   UNL     1       1.085  -0.141  -0.072  1.00  0.00     0.044 C 
ATOM     10  C   UNL     1       0.679   1.152   0.568  1.00  0.00    -0.050 A 
ATOM     11  C   UNL     1      -0.238   1.168   1.628  1.00  0.00     0.010 A 
ATOM     12  C   UNL     1       1.209   2.363   0.099  1.00  0.00     0.015 A 
ATOM     13  C   UNL     1      -0.616   2.373   2.232  1.00  0.00    -0.008 A 
ATOM     14  C   UNL     1       0.837   3.574   0.688  1.00  0.00     0.018 A 
ATOM     15  C   UNL     1      -1.587   2.388   3.378  1.00  0.00     0.048 C 
ATOM     16  C   UNL     1      -0.072   3.569   1.748  1.00  0.00     0.130 A 
ATOM     17  C   UNL     1       1.411   4.838   0.242  1.00  0.00     0.025 C 
ATOM     18  O   UNL     1      -0.436   4.716   2.394  1.00  0.00    -0.475 OA
ATOM     19  C   UNL     1      -0.271   5.955   1.661  1.00  0.00     0.314 C 
BRANCH  19  20
ATOM     20  C   UNL     1      -1.605   6.318   0.981  1.00  0.00     0.429 C 
ATOM     21  F   UNL     1      -2.538   6.649   1.908  1.00  0.00    -0.167 F 
ATOM     22  F   UNL     1      -1.498   7.384   0.151  1.00  0.00    -0.167 F 
ATOM     23  F   UNL     1      -2.111   5.304   0.243  1.00  0.00    -0.167 F 
ENDBRANCH  19  20
ENDBRANCH   5   8
ENDBRANCH   3   4
ENDBRANCH   2   3
ENDBRANCH   1   2
BRANCH   1  24
ATOM     24  N   UNL     1       0.757  12.014   2.167  1.00  0.00    -0.352 N 
ATOM     25  C   UNL     1       0.292  13.057   2.928  1.00  0.00     0.251 C 
ATOM     26  H   UNL     1       0.385  11.964   1.257  1.00  0.00     0.163 HD
ATOM     27  O   UNL     1      -0.725  13.658   2.583  1.00  0.00    -0.269 OA
BRANCH  25  28
ATOM     28  C   UNL     1       1.014  13.454   4.150  1.00  0.00     0.039 A 
ATOM     29  C   UNL     1       0.296  13.822   5.290  1.00  0.00     0.014 A 
ATOM     30  C   UNL     1       2.410  13.481   4.158  1.00  0.00     0.014 A 
ATOM     31  C   UNL     1       0.985  14.158   6.456  1.00  0.00     0.010 A 
ATOM     32  C   UNL     1       3.090  13.706   5.345  1.00  0.00     0.010 A 
ATOM     33  C   UNL     1       2.387  14.072   6.499  1.00  0.00    -0.014 A 
BRANCH  33  34
ATOM     34  C   UNL     1       3.148  14.393   7.729  1.00  0.00     0.031 A 
ATOM     35  C   UNL     1       4.126  15.536   7.725  1.00  0.00     0.074 A 
ATOM     36  C   UNL     1       3.008  13.616   8.820  1.00  0.00     0.049 A 
ATOM     37  N   UNL     1       4.910  15.952   8.684  1.00  0.00    -0.248 NA
ATOM     38  C   UNL     1       4.267  16.291   6.468  1.00  0.00     0.031 C 
ATOM     39  C   UNL     1       2.140  12.441   8.914  1.00  0.00     0.029 A 
ATOM     40  N   UNL     1       3.598  13.694  10.055  1.00  0.00    -0.354 N 
ATOM     41  C   UNL     1       5.643  17.001   8.143  1.00  0.00     0.074 A 
ATOM     42  C   UNL     1       5.268  17.110   6.753  1.00  0.00     0.031 C 
ATOM     43  C   UNL     1       2.222  11.932  10.153  1.00  0.00     0.029 A 
ATOM     44  C   UNL     1       3.171  12.723  10.931  1.00  0.00     0.049 A 
ATOM     45  H   UNL     1       4.263  14.379  10.293  1.00  0.00     0.167 HD
ATOM     46  C   UNL     1       6.510  17.837   8.761  1.00  0.00     0.034 A 
ATOM     47  C   UNL     1       3.499  12.507  12.220  1.00  0.00     0.034 A 
ATOM     48  C   UNL     1       6.846  17.745  10.154  1.00  0.00     0.049 A 
ATOM     49  C   UNL     1       4.470  13.443  12.887  1.00  0.00     0.074 A 
ATOM     50  C   UNL     1       7.671  18.570  10.895  1.00  0.00     0.029 A 
ATOM     51  N   UNL     1       6.371  16.769  11.017  1.00  0.00    -0.354 N 
ATOM     52  N   UNL     1       5.056  14.509  12.397  1.00  0.00    -0.248 NA
ATOM     53  C   UNL     1       4.806  13.165  14.290  1.00  0.00     0.031 C 
ATOM     54  C   UNL     1       7.709  18.080  12.204  1.00  0.00     0.029 A 
ATOM     55  C   UNL     1       6.891  16.963  12.284  1.00  0.00     0.049 A 
ATOM     56  H   UNL     1       5.754  16.044  10.765  1.00  0.00     0.167 HD
ATOM     57  C   UNL     1       5.810  15.044  13.435  1.00  0.00     0.074 A 
ATOM     58  C   UNL     1       5.587  14.195  14.589  1.00  0.00     0.031 C 
ATOM     59  C   UNL     1       6.624  16.129  13.430  1.00  0.00     0.034 A 
BRANCH  46  60
ATOM     60  C   UNL     1       7.083  18.968   7.945  1.00  0.00     0.023 A 
ATOM     61  C   UNL     1       6.231  20.013   7.527  1.00  0.00     0.012 A 
ATOM     62  C   UNL     1       8.451  19.022   7.617  1.00  0.00     0.148 A 
ATOM     63  C   UNL     1       6.719  21.068   6.758  1.00  0.00     0.002 A 
ATOM     64  C   UNL     1       8.940  20.104   6.892  1.00  0.00     0.091 A 
ATOM     65  F   UNL     1       9.243  18.012   8.001  1.00  0.00    -0.205 F 
ATOM     66  C   UNL     1       8.074  21.118   6.450  1.00  0.00     0.022 A 
BRANCH  64  67
ATOM     67  S   UNL     1      10.684  20.308   6.511  1.00  0.00     0.127 S 
ATOM     68  O   UNL     1      10.705  20.044   5.073  1.00  0.00    -0.237 OA
ATOM     69  O   UNL     1      10.918  21.705   6.878  1.00  0.00    -0.237 OA
ATOM     70  O   UNL     1      11.390  19.337   7.336  1.00  0.00    -0.744 OA
ENDBRANCH  64  67
ENDBRANCH  46  60
BRANCH  47  71
ATOM     71  C   UNL     1       2.804  11.431  12.982  1.00  0.00     0.023 A 
ATOM     72  C   UNL     1       1.856  11.795  13.959  1.00  0.00     0.012 A 
ATOM     73  C   UNL     1       3.003  10.066  12.695  1.00  0.00     0.148 A 
ATOM     74  C   UNL     1       1.127  10.822  14.643  1.00  0.00     0.002 A 
ATOM     75  C   UNL     1       2.236   9.104  13.342  1.00  0.00     0.091 A 
ATOM     76  F   UNL     1       3.911   9.741  11.764  1.00  0.00    -0.205 F 
ATOM     77  C   UNL     1       1.308   9.479  14.327  1.00  0.00     0.022 A 
BRANCH  75  78
ATOM     78  S   UNL     1       2.295   7.360  12.911  1.00  0.00     0.127 S 
ATOM     79  O   UNL     1       2.784   6.761  14.150  1.00  0.00    -0.237 OA
ATOM     80  O   UNL     1       0.892   7.082  12.602  1.00  0.00    -0.237 OA
ATOM     81  O   UNL     1       3.196   7.264  11.771  1.00  0.00    -0.744 OA
ENDBRANCH  75  78
ENDBRANCH  47  71
BRANCH  59  82
ATOM     82  C   UNL     1       7.348  16.475  14.705  1.00  0.00     0.023 A 
ATOM     83  C   UNL     1       8.441  15.686  15.114  1.00  0.00     0.012 A 
ATOM     84  C   UNL     1       7.035  17.651  15.416  1.00  0.00     0.148 A 
ATOM     85  C   UNL     1       9.204  16.054  16.221  1.00  0.00     0.002 A 
ATOM     86  C   UNL     1       7.832  18.038  16.487  1.00  0.00     0.091 A 
ATOM     87  F   UNL     1       5.983  18.379  15.016  1.00  0.00    -0.205 F 
ATOM     88  C   UNL     1       8.910  17.236  16.897  1.00  0.00     0.022 A 
BRANCH  86  89
ATOM     89  S   UNL     1       7.603  19.597  17.352  1.00  0.00     0.127 S 
ATOM     90  O   UNL     1       7.171  19.143  18.673  1.00  0.00    -0.237 OA
ATOM     91  O   UNL     1       8.948  20.171  17.313  1.00  0.00    -0.237 OA
ATOM     92  O   UNL     1       6.603  20.337  16.593  1.00  0.00    -0.744 OA
ENDBRANCH  86  89
ENDBRANCH  59  82
ENDBRANCH  33  34
ENDBRANCH  25  28
ENDBRANCH   1  24
TORSDOF 14
