REMARK SMILES COc1ccc(-c2cc(=O)oc3cc(OCC(=O)N[C@@H](C)C(=O)NCCCNC(=O)c4ccc(-c5c6nc(c(-c7cccc(S(=O)(=O)[O-])c7F)c7ccc([nH]7)c(-c7cccc(S(=O)(=O)[O-])c7F)c7nc(c(-c8cccc(S(=O)(=O)[O-])c8F)c8ccc5[nH]8)C=C7)C=C6)cc4)ccc23)cc1
REMARK SMILES IDX 22 1 23 2 24 3 20 5 21 6 19 7 17 8 18 9 16 11 15 12 14 13
REMARK SMILES IDX 7 14 8 15 96 16 9 17 12 18 95 19 10 20 11 21 13 22 94 23
REMARK SMILES IDX 6 24 3 25 4 26 98 27 5 28 97 29 2 30 1 31 25 32 26 33 27 34
REMARK SMILES IDX 28 35 29 36 30 38 31 39 32 40 93 41 33 42 92 43 34 44 35 45
REMARK SMILES IDX 36 46 86 47 37 48 91 49 85 50 87 51 38 52 90 53 84 54 83 55
REMARK SMILES IDX 39 57 71 58 51 59 70 60 52 61 55 62 69 63 88 64 53 65 54 66
REMARK SMILES IDX 68 68 89 69 56 70 40 71 41 72 49 73 42 74 44 75 50 76 43 77
REMARK SMILES IDX 45 78 46 79 47 80 48 81 72 82 73 83 81 84 74 85 76 86 82 87
REMARK SMILES IDX 75 88 77 89 78 90 79 91 80 92 57 93 58 94 66 95 59 96 61 97
REMARK SMILES IDX 67 98 60 99 62 100 63 101 64 102 65 103
REMARK H PARENT 24 4 19 10 28 37 87 56 55 67
REMARK Flexibility Score: inf
ROOT
ATOM      1  C   UNL     1       8.260  -4.687   0.699  1.00  0.00     0.242 C 
ATOM      2  O   UNL     1       7.594  -5.385   1.467  1.00  0.00    -0.273 OA
ATOM      3  N   UNL     1       9.521  -5.104   0.376  1.00  0.00    -0.354 N 
ATOM      4  H   UNL     1       9.849  -5.867   0.905  1.00  0.00     0.163 HD
ENDROOT
BRANCH   1   5
ATOM      5  C   UNL     1       7.651  -3.447   0.029  1.00  0.00     0.168 C 
ATOM      6  C   UNL     1       7.348  -3.765  -1.437  1.00  0.00     0.041 C 
BRANCH   5   7
ATOM      7  N   UNL     1       8.543  -2.301   0.235  1.00  0.00    -0.342 N 
ATOM      8  C   UNL     1       8.227  -0.994   0.474  1.00  0.00     0.258 C 
ATOM      9  O   UNL     1       9.127  -0.212   0.780  1.00  0.00    -0.271 OA
ATOM     10  H   UNL     1       9.505  -2.502   0.197  1.00  0.00     0.164 HD
BRANCH   8  11
ATOM     11  C   UNL     1       6.786  -0.541   0.370  1.00  0.00     0.329 C 
BRANCH  11  12
ATOM     12  O   UNL     1       6.360  -0.939  -0.923  1.00  0.00    -0.484 OA
BRANCH  12  13
ATOM     13  C   UNL     1       6.075   0.035  -1.830  1.00  0.00     0.123 A 
ATOM     14  C   UNL     1       3.510   1.000  -4.710  1.00  0.00    -0.000 A 
ATOM     15  C   UNL     1       3.710   0.653  -5.990  1.00  0.00     0.103 A 
ATOM     16  C   UNL     1       4.711   1.231  -3.873  1.00  0.00     0.026 A 
ATOM     17  C   UNL     1       5.083   0.408  -6.485  1.00  0.00     0.336 A 
ATOM     18  C   UNL     1       5.764   0.383  -4.178  1.00  0.00     0.142 A 
ATOM     19  C   UNL     1       4.555   1.731  -2.575  1.00  0.00     0.016 A 
ATOM     20  O   UNL     1       5.328   0.375  -7.681  1.00  0.00    -0.246 OA
ATOM     21  O   UNL     1       6.007   0.021  -5.511  1.00  0.00    -0.423 OA
ATOM     22  C   UNL     1       6.436  -0.255  -3.151  1.00  0.00     0.094 A 
ATOM     23  C   UNL     1       5.229   1.103  -1.533  1.00  0.00     0.047 A 
BRANCH  14  24
ATOM     24  C   UNL     1       2.260   0.537  -4.055  1.00  0.00    -0.017 A 
ATOM     25  C   UNL     1       0.330  -0.157  -2.179  1.00  0.00     0.118 A 
ATOM     26  C   UNL     1       0.126   0.941  -3.020  1.00  0.00     0.047 A 
ATOM     27  C   UNL     1       1.422  -0.995  -2.353  1.00  0.00     0.047 A 
ATOM     28  C   UNL     1       1.101   1.302  -3.957  1.00  0.00     0.012 A 
ATOM     29  C   UNL     1       2.379  -0.651  -3.295  1.00  0.00     0.012 A 
BRANCH  25  30
ATOM     30  O   UNL     1      -0.548  -0.390  -1.156  1.00  0.00    -0.497 OA
ATOM     31  C   UNL     1       0.045   0.026   0.081  1.00  0.00     0.278 C 
ENDBRANCH  25  30
ENDBRANCH  14  24
ENDBRANCH  12  13
ENDBRANCH  11  12
ENDBRANCH   8  11
ENDBRANCH   5   7
ENDBRANCH   1   5
BRANCH   3  32
ATOM     32  C   UNL     1      10.460  -4.608  -0.621  1.00  0.00     0.117 C 
BRANCH  32  33
ATOM     33  C   UNL     1      11.721  -4.028   0.003  1.00  0.00     0.042 C 
BRANCH  33  34
ATOM     34  C   UNL     1      12.514  -5.030   0.826  1.00  0.00     0.118 C 
BRANCH  34  35
ATOM     35  N   UNL     1      12.975  -6.163   0.036  1.00  0.00    -0.352 N 
ATOM     36  C   UNL     1      14.251  -6.623  -0.168  1.00  0.00     0.251 C 
ATOM     37  H   UNL     1      12.266  -6.673  -0.419  1.00  0.00     0.163 HD
ATOM     38  O   UNL     1      14.456  -7.484  -1.020  1.00  0.00    -0.269 OA
BRANCH  36  39
ATOM     39  C   UNL     1      15.372  -6.075   0.625  1.00  0.00     0.039 A 
ATOM     40  C   UNL     1      16.584  -5.799  -0.014  1.00  0.00     0.014 A 
ATOM     41  C   UNL     1      15.232  -5.843   1.996  1.00  0.00     0.014 A 
ATOM     42  C   UNL     1      17.637  -5.242   0.715  1.00  0.00     0.010 A 
ATOM     43  C   UNL     1      16.247  -5.205   2.697  1.00  0.00     0.010 A 
ATOM     44  C   UNL     1      17.468  -4.918   2.070  1.00  0.00    -0.014 A 
BRANCH  44  45
ATOM     45  C   UNL     1      18.559  -4.302   2.864  1.00  0.00     0.031 A 
ATOM     46  C   UNL     1      19.127  -5.035   4.051  1.00  0.00     0.074 A 
ATOM     47  C   UNL     1      18.970  -3.050   2.580  1.00  0.00     0.049 A 
ATOM     48  N   UNL     1      20.025  -4.636   4.913  1.00  0.00    -0.248 NA
ATOM     49  C   UNL     1      18.588  -6.378   4.327  1.00  0.00     0.031 C 
ATOM     50  C   UNL     1      18.431  -2.203   1.513  1.00  0.00     0.029 A 
ATOM     51  N   UNL     1      19.916  -2.262   3.183  1.00  0.00    -0.354 N 
ATOM     52  C   UNL     1      20.121  -5.652   5.857  1.00  0.00     0.074 A 
ATOM     53  C   UNL     1      19.166  -6.671   5.482  1.00  0.00     0.031 C 
ATOM     54  C   UNL     1      19.062  -1.017   1.533  1.00  0.00     0.029 A 
ATOM     55  C   UNL     1      20.032  -1.011   2.623  1.00  0.00     0.049 A 
ATOM     56  H   UNL     1      20.462  -2.563   3.946  1.00  0.00     0.167 HD
ATOM     57  C   UNL     1      20.953  -5.746   6.920  1.00  0.00     0.034 A 
ATOM     58  C   UNL     1      20.834   0.021   2.950  1.00  0.00     0.034 A 
ATOM     59  C   UNL     1      21.956  -4.769   7.242  1.00  0.00     0.049 A 
ATOM     60  C   UNL     1      21.816  -0.149   4.078  1.00  0.00     0.074 A 
ATOM     61  C   UNL     1      22.922  -4.819   8.230  1.00  0.00     0.029 A 
ATOM     62  N   UNL     1      22.128  -3.567   6.573  1.00  0.00    -0.354 N 
ATOM     63  N   UNL     1      22.007  -1.187   4.856  1.00  0.00    -0.248 NA
ATOM     64  C   UNL     1      22.721   0.978   4.347  1.00  0.00     0.031 C 
ATOM     65  C   UNL     1      23.679  -3.645   8.159  1.00  0.00     0.029 A 
ATOM     66  C   UNL     1      23.187  -2.868   7.123  1.00  0.00     0.049 A 
ATOM     67  H   UNL     1      21.578  -3.257   5.817  1.00  0.00     0.167 HD
ATOM     68  C   UNL     1      23.076  -0.854   5.680  1.00  0.00     0.074 A 
ATOM     69  C   UNL     1      23.503   0.475   5.293  1.00  0.00     0.031 C 
ATOM     70  C   UNL     1      23.642  -1.575   6.679  1.00  0.00     0.034 A 
BRANCH  57  71
ATOM     71  C   UNL     1      20.866  -6.988   7.767  1.00  0.00     0.023 A 
ATOM     72  C   UNL     1      21.357  -8.207   7.257  1.00  0.00     0.012 A 
ATOM     73  C   UNL     1      20.348  -6.945   9.076  1.00  0.00     0.148 A 
ATOM     74  C   UNL     1      21.303  -9.371   8.022  1.00  0.00     0.002 A 
ATOM     75  C   UNL     1      20.335  -8.101   9.848  1.00  0.00     0.091 A 
ATOM     76  F   UNL     1      19.861  -5.783   9.535  1.00  0.00    -0.205 F 
ATOM     77  C   UNL     1      20.802  -9.316   9.320  1.00  0.00     0.022 A 
BRANCH  75  78
ATOM     78  S   UNL     1      19.778  -8.114  11.556  1.00  0.00     0.127 S 
ATOM     79  O   UNL     1      18.467  -8.749  11.435  1.00  0.00    -0.237 OA
ATOM     80  O   UNL     1      20.796  -8.938  12.210  1.00  0.00    -0.237 OA
ATOM     81  O   UNL     1      19.766  -6.721  11.980  1.00  0.00    -0.744 OA
ENDBRANCH  75  78
ENDBRANCH  57  71
BRANCH  58  82
ATOM     82  C   UNL     1      20.814   1.265   2.131  1.00  0.00     0.023 A 
ATOM     83  C   UNL     1      21.898   1.537   1.274  1.00  0.00     0.012 A 
ATOM     84  C   UNL     1      19.723   2.155   2.163  1.00  0.00     0.148 A 
ATOM     85  C   UNL     1      21.911   2.687   0.485  1.00  0.00     0.002 A 
ATOM     86  C   UNL     1      19.720   3.274   1.337  1.00  0.00     0.091 A 
ATOM     87  F   UNL     1      18.707   1.887   2.995  1.00  0.00    -0.205 F 
ATOM     88  C   UNL     1      20.819   3.550   0.508  1.00  0.00     0.022 A 
BRANCH  86  89
ATOM     89  S   UNL     1      18.299   4.367   1.211  1.00  0.00     0.127 S 
ATOM     90  O   UNL     1      18.742   5.524   1.984  1.00  0.00    -0.237 OA
ATOM     91  O   UNL     1      18.209   4.588  -0.233  1.00  0.00    -0.237 OA
ATOM     92  O   UNL     1      17.183   3.615   1.769  1.00  0.00    -0.744 OA
ENDBRANCH  86  89
ENDBRANCH  58  82
BRANCH  70  93
ATOM     93  C   UNL     1      24.808  -0.965   7.407  1.00  0.00     0.023 A 
ATOM     94  C   UNL     1      24.583   0.069   8.336  1.00  0.00     0.012 A 
ATOM     95  C   UNL     1      26.111  -1.471   7.233  1.00  0.00     0.148 A 
ATOM     96  C   UNL     1      25.643   0.609   9.063  1.00  0.00     0.002 A 
ATOM     97  C   UNL     1      27.155  -0.957   7.993  1.00  0.00     0.091 A 
ATOM     98  F   UNL     1      26.308  -2.440   6.327  1.00  0.00    -0.205 F 
ATOM     99  C   UNL     1      26.925   0.088   8.902  1.00  0.00     0.022 A 
BRANCH  97 100
ATOM    100  S   UNL     1      28.816  -1.637   7.911  1.00  0.00     0.127 S 
ATOM    101  O   UNL     1      29.494  -0.668   7.053  1.00  0.00    -0.237 OA
ATOM    102  O   UNL     1      29.238  -1.611   9.312  1.00  0.00    -0.237 OA
ATOM    103  O   UNL     1      28.666  -2.976   7.356  1.00  0.00    -0.744 OA
ENDBRANCH  97 100
ENDBRANCH  70  93
ENDBRANCH  44  45
ENDBRANCH  36  39
ENDBRANCH  34  35
ENDBRANCH  33  34
ENDBRANCH  32  33
ENDBRANCH   3  32
TORSDOF 19
