REMARK SMILES C[C@@H](C(=O)NCCCNC(=O)c1ccc(-c2c3nc(c(-c4cccc(S(=O)(=O)[O-])c4F)c4ccc([nH]4)c(-c4cccc(S(=O)(=O)[O-])c4F)c4nc(c(-c5cccc(S(=O)(=O)[O-])c5F)c5ccc2[nH]5)C=C4)C=C3)cc1)[C@@H](C)C(=O)c1ccc(Br)cc1
REMARK SMILES IDX 7 1 6 2 5 3 3 4 4 5 2 7 1 8 75 9 76 10 77 11 78 12 79 13
REMARK SMILES IDX 80 14 85 15 81 16 84 17 82 18 83 19 8 20 9 21 10 22 11 24
REMARK SMILES IDX 12 25 13 26 74 27 14 28 73 29 15 30 16 31 17 32 67 33 18 34
REMARK SMILES IDX 72 35 66 36 68 37 19 38 71 39 65 40 64 41 20 43 52 44 32 45
REMARK SMILES IDX 51 46 33 47 36 48 50 49 69 50 34 51 35 52 49 54 70 55 37 56
REMARK SMILES IDX 21 57 22 58 30 59 23 60 25 61 31 62 24 63 26 64 27 65 28 66
REMARK SMILES IDX 29 67 53 68 54 69 62 70 55 71 57 72 63 73 56 74 58 75 59 76
REMARK SMILES IDX 60 77 61 78 38 79 39 80 47 81 40 82 42 83 48 84 41 85 43 86
REMARK SMILES IDX 44 87 45 88 46 89
REMARK H PARENT 5 6 9 23 68 42 36 53
REMARK Flexibility Score: inf
ROOT
ATOM      1  C   UNL     1       4.237  -1.020  -0.726  1.00  0.00     0.042 C 
ENDROOT
BRANCH   1   2
ATOM      2  C   UNL     1       3.304  -0.540  -1.835  1.00  0.00     0.117 C 
BRANCH   2   3
ATOM      3  N   UNL     1       2.236  -1.488  -2.100  1.00  0.00    -0.356 N 
ATOM      4  C   UNL     1       0.907  -1.433  -1.808  1.00  0.00     0.223 C 
ATOM      5  O   UNL     1       0.225  -2.419  -2.075  1.00  0.00    -0.275 OA
ATOM      6  H   UNL     1       2.519  -2.305  -2.570  1.00  0.00     0.163 HD
BRANCH   4   7
ATOM      7  C   UNL     1       0.314  -0.172  -1.183  1.00  0.00     0.086 C 
ATOM      8  C   UNL     1       0.588  -0.196   0.324  1.00  0.00     0.019 C 
BRANCH   7   9
ATOM      9  C   UNL     1      -1.199  -0.066  -1.489  1.00  0.00     0.070 C 
ATOM     10  C   UNL     1      -1.819   1.233  -0.963  1.00  0.00     0.017 C 
BRANCH   9  11
ATOM     11  C   UNL     1      -1.617  -0.234  -2.960  1.00  0.00     0.166 C 
ATOM     12  O   UNL     1      -2.491  -1.040  -3.286  1.00  0.00    -0.294 OA
BRANCH  11  13
ATOM     13  C   UNL     1      -1.169   0.731  -4.002  1.00  0.00     0.018 A 
ATOM     14  C   UNL     1      -2.166   1.342  -4.777  1.00  0.00     0.013 A 
ATOM     15  C   UNL     1       0.173   1.021  -4.259  1.00  0.00     0.013 A 
ATOM     16  C   UNL     1      -1.827   2.270  -5.764  1.00  0.00     0.016 A 
ATOM     17  C   UNL     1       0.513   1.957  -5.241  1.00  0.00     0.016 A 
ATOM     18  C   UNL     1      -0.487   2.582  -5.983  1.00  0.00     0.018 A 
ATOM     19  Br  UNL     1      -0.022   3.849  -7.306  1.00  0.00    -0.051 Br
ENDBRANCH  11  13
ENDBRANCH   9  11
ENDBRANCH   7   9
ENDBRANCH   4   7
ENDBRANCH   2   3
ENDBRANCH   1   2
BRANCH   1  20
ATOM     20  C   UNL     1       4.969  -2.323  -1.030  1.00  0.00     0.118 C 
BRANCH  20  21
ATOM     21  N   UNL     1       5.879  -2.208  -2.159  1.00  0.00    -0.352 N 
ATOM     22  C   UNL     1       7.229  -2.449  -2.239  1.00  0.00     0.251 C 
ATOM     23  H   UNL     1       5.461  -1.911  -2.999  1.00  0.00     0.163 HD
ATOM     24  O   UNL     1       7.830  -2.112  -3.257  1.00  0.00    -0.269 OA
BRANCH  22  25
ATOM     25  C   UNL     1       7.965  -3.085  -1.121  1.00  0.00     0.039 A 
ATOM     26  C   UNL     1       9.255  -2.631  -0.831  1.00  0.00     0.014 A 
ATOM     27  C   UNL     1       7.426  -4.147  -0.389  1.00  0.00     0.014 A 
ATOM     28  C   UNL     1       9.977  -3.202   0.221  1.00  0.00     0.010 A 
ATOM     29  C   UNL     1       8.115  -4.662   0.710  1.00  0.00     0.010 A 
ATOM     30  C   UNL     1       9.403  -4.204   1.021  1.00  0.00    -0.014 A 
BRANCH  30  31
ATOM     31  C   UNL     1      10.140  -4.757   2.189  1.00  0.00     0.031 A 
ATOM     32  C   UNL     1      10.530  -6.210   2.242  1.00  0.00     0.074 A 
ATOM     33  C   UNL     1      10.414  -3.954   3.237  1.00  0.00     0.049 A 
ATOM     34  N   UNL     1      11.195  -6.851   3.170  1.00  0.00    -0.248 NA
ATOM     35  C   UNL     1      10.100  -7.063   1.122  1.00  0.00     0.031 C 
ATOM     36  C   UNL     1      10.008  -2.551   3.355  1.00  0.00     0.029 A 
ATOM     37  N   UNL     1      11.084  -4.203   4.409  1.00  0.00    -0.354 N 
ATOM     38  C   UNL     1      11.242  -8.179   2.761  1.00  0.00     0.074 A 
ATOM     39  C   UNL     1      10.502  -8.261   1.521  1.00  0.00     0.031 C 
ATOM     40  C   UNL     1      10.448  -2.062   4.524  1.00  0.00     0.029 A 
ATOM     41  C   UNL     1      11.148  -3.117   5.250  1.00  0.00     0.049 A 
ATOM     42  H   UNL     1      11.482  -5.077   4.626  1.00  0.00     0.167 HD
ATOM     43  C   UNL     1      11.870  -9.228   3.344  1.00  0.00     0.034 A 
ATOM     44  C   UNL     1      11.711  -2.981   6.467  1.00  0.00     0.034 A 
ATOM     45  C   UNL     1      12.637  -9.138   4.559  1.00  0.00     0.049 A 
ATOM     46  C   UNL     1      12.453  -4.145   7.064  1.00  0.00     0.074 A 
ATOM     47  C   UNL     1      13.381 -10.124   5.183  1.00  0.00     0.029 A 
ATOM     48  N   UNL     1      12.755  -7.998   5.338  1.00  0.00    -0.354 N 
ATOM     49  N   UNL     1      12.632  -5.348   6.575  1.00  0.00    -0.248 NA
ATOM     50  C   UNL     1      13.108  -3.920   8.361  1.00  0.00     0.031 C 
ATOM     51  C   UNL     1      13.932  -9.585   6.351  1.00  0.00     0.029 A 
ATOM     52  C   UNL     1      13.552  -8.256   6.441  1.00  0.00     0.049 A 
ATOM     53  H   UNL     1      12.333  -7.131   5.138  1.00  0.00     0.167 HD
ATOM     54  C   UNL     1      13.444  -6.013   7.487  1.00  0.00     0.074 A 
ATOM     55  C   UNL     1      13.746  -5.068   8.542  1.00  0.00     0.031 C 
ATOM     56  C   UNL     1      13.884  -7.296   7.462  1.00  0.00     0.034 A 
BRANCH  43  57
ATOM     57  C   UNL     1      11.809 -10.560   2.638  1.00  0.00     0.023 A 
ATOM     58  C   UNL     1      12.529 -10.741   1.439  1.00  0.00     0.012 A 
ATOM     59  C   UNL     1      11.098 -11.646   3.185  1.00  0.00     0.148 A 
ATOM     60  C   UNL     1      12.513 -11.967   0.776  1.00  0.00     0.002 A 
ATOM     61  C   UNL     1      11.123 -12.879   2.541  1.00  0.00     0.091 A 
ATOM     62  F   UNL     1      10.403 -11.452   4.315  1.00  0.00    -0.205 F 
ATOM     63  C   UNL     1      11.819 -13.037   1.332  1.00  0.00     0.022 A 
BRANCH  61  64
ATOM     64  S   UNL     1      10.328 -14.341   3.217  1.00  0.00     0.127 S 
ATOM     65  O   UNL     1       9.204 -14.517   2.297  1.00  0.00    -0.237 OA
ATOM     66  O   UNL     1      11.381 -15.350   3.090  1.00  0.00    -0.237 OA
ATOM     67  O   UNL     1       9.969 -14.007   4.587  1.00  0.00    -0.744 OA
ENDBRANCH  61  64
ENDBRANCH  43  57
BRANCH  44  68
ATOM     68  C   UNL     1      11.659  -1.665   7.165  1.00  0.00     0.023 A 
ATOM     69  C   UNL     1      12.838  -0.905   7.301  1.00  0.00     0.012 A 
ATOM     70  C   UNL     1      10.447  -1.147   7.662  1.00  0.00     0.148 A 
ATOM     71  C   UNL     1      12.817   0.330   7.949  1.00  0.00     0.002 A 
ATOM     72  C   UNL     1      10.423   0.110   8.254  1.00  0.00     0.091 A 
ATOM     73  F   UNL     1       9.339  -1.890   7.533  1.00  0.00    -0.205 F 
ATOM     74  C   UNL     1      11.609   0.843   8.415  1.00  0.00     0.022 A 
BRANCH  72  75
ATOM     75  S   UNL     1       8.891   0.905   8.752  1.00  0.00     0.127 S 
ATOM     76  O   UNL     1       8.977   0.833  10.209  1.00  0.00    -0.237 OA
ATOM     77  O   UNL     1       9.052   2.249   8.192  1.00  0.00    -0.237 OA
ATOM     78  O   UNL     1       7.827   0.127   8.138  1.00  0.00    -0.744 OA
ENDBRANCH  72  75
ENDBRANCH  44  68
BRANCH  56  79
ATOM     79  C   UNL     1      14.762  -7.750   8.600  1.00  0.00     0.023 A 
ATOM     80  C   UNL     1      14.206  -7.940   9.881  1.00  0.00     0.012 A 
ATOM     81  C   UNL     1      16.125  -8.038   8.390  1.00  0.00     0.148 A 
ATOM     82  C   UNL     1      15.001  -8.368  10.943  1.00  0.00     0.002 A 
ATOM     83  C   UNL     1      16.900  -8.512   9.442  1.00  0.00     0.091 A 
ATOM     84  F   UNL     1      16.643  -7.833   7.170  1.00  0.00    -0.205 F 
ATOM     85  C   UNL     1      16.343  -8.664  10.722  1.00  0.00     0.022 A 
BRANCH  83  86
ATOM     86  S   UNL     1      18.613  -9.006   9.225  1.00  0.00     0.127 S 
ATOM     87  O   UNL     1      19.327  -7.881   9.825  1.00  0.00    -0.237 OA
ATOM     88  O   UNL     1      18.680 -10.251   9.992  1.00  0.00    -0.237 OA
ATOM     89  O   UNL     1      18.799  -9.175   7.790  1.00  0.00    -0.744 OA
ENDBRANCH  83  86
ENDBRANCH  56  79
ENDBRANCH  30  31
ENDBRANCH  22  25
ENDBRANCH  20  21
ENDBRANCH   1  20
TORSDOF 16
