REMARK SMILES [NH3+][C@H](C(=O)NCCCNC(=O)c1ccc(-c2c3nc(c(-c4cccc(S(=O)(=O)[O-])c4F)c4ccc([nH]4)c(-c4cccc(S(=O)(=O)[O-])c4F)c4nc(c(-c5cccc(S(=O)(=O)[O-])c5F)c5ccc2[nH]5)C=C4)C=C3)cc1)c1cc(F)c(Cl)c(Cl)c1
REMARK SMILES IDX 8 1 7 2 6 3 5 4 3 5 4 6 2 8 1 9 75 13 76 14 83 15 77 16
REMARK SMILES IDX 81 17 78 18 79 19 82 20 80 21 9 22 10 23 11 25 12 26 13 27
REMARK SMILES IDX 74 28 14 29 73 30 15 31 16 32 17 33 67 34 18 35 72 36 66 37
REMARK SMILES IDX 68 38 19 39 71 40 65 41 64 42 20 44 52 45 32 46 51 47 33 48
REMARK SMILES IDX 36 49 50 50 69 51 34 52 35 53 49 55 70 56 37 57 21 58 22 59
REMARK SMILES IDX 30 60 23 61 25 62 31 63 24 64 26 65 27 66 28 67 29 68 53 69
REMARK SMILES IDX 54 70 62 71 55 72 57 73 63 74 56 75 58 76 59 77 60 78 61 79
REMARK SMILES IDX 38 80 39 81 47 82 40 83 42 84 48 85 41 86 43 87 44 88 45 89
REMARK SMILES IDX 46 90
REMARK H PARENT 5 7 1 10 1 11 1 12 9 24 68 43 36 54
REMARK Flexibility Score: inf
ROOT
ATOM      1  C   UNL     1      -0.851  -3.849   0.526  1.00  0.00     0.118 C 
ENDROOT
BRANCH   1   2
ATOM      2  C   UNL     1      -1.263  -2.499  -0.058  1.00  0.00     0.042 C 
BRANCH   2   3
ATOM      3  C   UNL     1      -0.944  -1.310   0.846  1.00  0.00     0.118 C 
BRANCH   3   4
ATOM      4  N   UNL     1       0.409  -0.817   0.673  1.00  0.00    -0.351 N 
ATOM      5  C   UNL     1       0.957   0.159  -0.095  1.00  0.00     0.283 C 
ATOM      6  O   UNL     1       2.173   0.339   0.078  1.00  0.00    -0.268 OA
ATOM      7  H   UNL     1       1.069  -1.290   1.230  1.00  0.00     0.163 HD
BRANCH   5   8
ATOM      8  C   UNL     1       0.247   0.963  -1.220  1.00  0.00     0.302 C 
BRANCH   8   9
ATOM      9  N   UNL     1       0.750   0.495  -2.528  1.00  0.00    -0.343 N 
ATOM     10  H   UNL     1       0.290   1.017  -3.275  1.00  0.00     0.345 HD
ATOM     11  H   UNL     1       0.548  -0.499  -2.634  1.00  0.00     0.345 HD
ATOM     12  H   UNL     1       1.757   0.646  -2.578  1.00  0.00     0.345 HD
ENDBRANCH   8   9
BRANCH   8  13
ATOM     13  C   UNL     1      -1.260   1.119  -1.210  1.00  0.00     0.023 A 
ATOM     14  C   UNL     1      -1.836   2.236  -0.584  1.00  0.00     0.051 A 
ATOM     15  C   UNL     1      -2.124   0.192  -1.819  1.00  0.00     0.032 A 
ATOM     16  C   UNL     1      -3.222   2.387  -0.534  1.00  0.00     0.143 A 
ATOM     17  C   UNL     1      -3.518   0.325  -1.725  1.00  0.00     0.063 A 
ATOM     18  F   UNL     1      -3.718   3.477   0.071  1.00  0.00    -0.205 F 
ATOM     19  C   UNL     1      -4.076   1.429  -1.079  1.00  0.00     0.095 A 
ATOM     20  Cl  UNL     1      -4.485  -0.945  -2.386  1.00  0.00    -0.083 Cl
ATOM     21  Cl  UNL     1      -5.782   1.643  -0.913  1.00  0.00    -0.079 Cl
ENDBRANCH   8  13
ENDBRANCH   5   8
ENDBRANCH   3   4
ENDBRANCH   2   3
ENDBRANCH   1   2
BRANCH   1  22
ATOM     22  N   UNL     1      -1.643  -4.209   1.696  1.00  0.00    -0.352 N 
ATOM     23  C   UNL     1      -2.439  -5.300   1.942  1.00  0.00     0.251 C 
ATOM     24  H   UNL     1      -1.600  -3.559   2.434  1.00  0.00     0.163 HD
ATOM     25  O   UNL     1      -3.170  -5.283   2.931  1.00  0.00    -0.269 OA
BRANCH  23  26
ATOM     26  C   UNL     1      -2.436  -6.483   1.050  1.00  0.00     0.039 A 
ATOM     27  C   UNL     1      -3.642  -7.161   0.834  1.00  0.00     0.014 A 
ATOM     28  C   UNL     1      -1.259  -6.971   0.478  1.00  0.00     0.014 A 
ATOM     29  C   UNL     1      -3.673  -8.291   0.011  1.00  0.00     0.010 A 
ATOM     30  C   UNL     1      -1.304  -8.053  -0.401  1.00  0.00     0.010 A 
ATOM     31  C   UNL     1      -2.509  -8.731  -0.638  1.00  0.00    -0.014 A 
BRANCH  31  32
ATOM     32  C   UNL     1      -2.534  -9.888  -1.571  1.00  0.00     0.031 A 
ATOM     33  C   UNL     1      -1.736 -11.130  -1.273  1.00  0.00     0.074 A 
ATOM     34  C   UNL     1      -3.212  -9.787  -2.733  1.00  0.00     0.049 A 
ATOM     35  N   UNL     1      -1.585 -12.208  -1.999  1.00  0.00    -0.248 NA
ATOM     36  C   UNL     1      -0.987 -11.155  -0.005  1.00  0.00     0.031 C 
ATOM     37  C   UNL     1      -3.959  -8.607  -3.175  1.00  0.00     0.029 A 
ATOM     38  N   UNL     1      -3.357 -10.677  -3.768  1.00  0.00    -0.354 N 
ATOM     39  C   UNL     1      -0.700 -13.020  -1.299  1.00  0.00     0.074 A 
ATOM     40  C   UNL     1      -0.323 -12.298  -0.103  1.00  0.00     0.031 C 
ATOM     41  C   UNL     1      -4.482  -8.846  -4.388  1.00  0.00     0.029 A 
ATOM     42  C   UNL     1      -4.087 -10.181  -4.824  1.00  0.00     0.049 A 
ATOM     43  H   UNL     1      -2.975 -11.585  -3.756  1.00  0.00     0.167 HD
ATOM     44  C   UNL     1      -0.264 -14.265  -1.607  1.00  0.00     0.034 A 
ATOM     45  C   UNL     1      -4.396 -10.736  -6.013  1.00  0.00     0.034 A 
ATOM     46  C   UNL     1      -0.681 -15.001  -2.771  1.00  0.00     0.049 A 
ATOM     47  C   UNL     1      -3.941 -12.139  -6.304  1.00  0.00     0.074 A 
ATOM     48  C   UNL     1      -0.365 -16.300  -3.126  1.00  0.00     0.029 A 
ATOM     49  N   UNL     1      -1.502 -14.502  -3.770  1.00  0.00    -0.354 N 
ATOM     50  N   UNL     1      -3.234 -12.950  -5.555  1.00  0.00    -0.248 NA
ATOM     51  C   UNL     1      -4.358 -12.720  -7.589  1.00  0.00     0.031 C 
ATOM     52  C   UNL     1      -0.983 -16.582  -4.349  1.00  0.00     0.029 A 
ATOM     53  C   UNL     1      -1.700 -15.465  -4.745  1.00  0.00     0.049 A 
ATOM     54  H   UNL     1      -1.887 -13.596  -3.784  1.00  0.00     0.167 HD
ATOM     55  C   UNL     1      -3.150 -14.145  -6.260  1.00  0.00     0.074 A 
ATOM     56  C   UNL     1      -3.900 -13.961  -7.485  1.00  0.00     0.031 C 
ATOM     57  C   UNL     1      -2.496 -15.286  -5.932  1.00  0.00     0.034 A 
BRANCH  44  58
ATOM     58  C   UNL     1       0.669 -14.945  -0.637  1.00  0.00     0.023 A 
ATOM     59  C   UNL     1       0.167 -15.405   0.598  1.00  0.00     0.012 A 
ATOM     60  C   UNL     1       2.014 -15.194  -0.971  1.00  0.00     0.148 A 
ATOM     61  C   UNL     1       0.996 -16.075   1.498  1.00  0.00     0.002 A 
ATOM     62  C   UNL     1       2.824 -15.901  -0.087  1.00  0.00     0.091 A 
ATOM     63  F   UNL     1       2.478 -14.734  -2.142  1.00  0.00    -0.205 F 
ATOM     64  C   UNL     1       2.319 -16.331   1.151  1.00  0.00     0.022 A 
BRANCH  62  65
ATOM     65  S   UNL     1       4.520 -16.350  -0.472  1.00  0.00     0.127 S 
ATOM     66  O   UNL     1       5.267 -15.498   0.454  1.00  0.00    -0.237 OA
ATOM     67  O   UNL     1       4.543 -17.776  -0.139  1.00  0.00    -0.237 OA
ATOM     68  O   UNL     1       4.707 -16.052  -1.883  1.00  0.00    -0.744 OA
ENDBRANCH  62  65
ENDBRANCH  44  58
BRANCH  45  69
ATOM     69  C   UNL     1      -5.235  -9.985  -6.990  1.00  0.00     0.023 A 
ATOM     70  C   UNL     1      -6.553 -10.411  -7.241  1.00  0.00     0.012 A 
ATOM     71  C   UNL     1      -4.745  -8.842  -7.652  1.00  0.00     0.148 A 
ATOM     72  C   UNL     1      -7.357  -9.736  -8.160  1.00  0.00     0.002 A 
ATOM     73  C   UNL     1      -5.571  -8.141  -8.524  1.00  0.00     0.091 A 
ATOM     74  F   UNL     1      -3.483  -8.460  -7.412  1.00  0.00    -0.205 F 
ATOM     75  C   UNL     1      -6.870  -8.596  -8.793  1.00  0.00     0.022 A 
BRANCH  73  76
ATOM     76  S   UNL     1      -5.066  -6.589  -9.276  1.00  0.00     0.127 S 
ATOM     77  O   UNL     1      -4.793  -6.999 -10.653  1.00  0.00    -0.237 OA
ATOM     78  O   UNL     1      -6.264  -5.764  -9.107  1.00  0.00    -0.237 OA
ATOM     79  O   UNL     1      -3.918  -6.139  -8.506  1.00  0.00    -0.744 OA
ENDBRANCH  73  76
ENDBRANCH  45  69
BRANCH  57  80
ATOM     80  C   UNL     1      -2.585 -16.442  -6.893  1.00  0.00     0.023 A 
ATOM     81  C   UNL     1      -1.882 -16.392  -8.113  1.00  0.00     0.012 A 
ATOM     82  C   UNL     1      -3.308 -17.603  -6.558  1.00  0.00     0.148 A 
ATOM     83  C   UNL     1      -1.924 -17.468  -8.999  1.00  0.00     0.002 A 
ATOM     84  C   UNL     1      -3.306 -18.690  -7.424  1.00  0.00     0.091 A 
ATOM     85  F   UNL     1      -3.987 -17.623  -5.401  1.00  0.00    -0.205 F 
ATOM     86  C   UNL     1      -2.625 -18.620  -8.650  1.00  0.00     0.022 A 
BRANCH  84  87
ATOM     87  S   UNL     1      -4.103 -20.247  -7.014  1.00  0.00     0.127 S 
ATOM     88  O   UNL     1      -5.282 -20.215  -7.876  1.00  0.00    -0.237 OA
ATOM     89  O   UNL     1      -3.088 -21.228  -7.404  1.00  0.00    -0.237 OA
ATOM     90  O   UNL     1      -4.370 -20.195  -5.583  1.00  0.00    -0.744 OA
ENDBRANCH  84  87
ENDBRANCH  57  80
ENDBRANCH  31  32
ENDBRANCH  23  26
ENDBRANCH   1  22
TORSDOF 15
