REMARK SMILES CC1(C)C[C@@H]([C@H](CCNC(=O)c2ccccc2C(=O)NCCCNC(=O)c2ccc(-c3c4nc(c(-c5cccc(S(=O)(=O)[O-])c5F)c5ccc([nH]5)c(-c5cccc(S(=O)(=O)[O-])c5F)c5nc(c(-c6cccc(S(=O)(=O)[O-])c6F)c6ccc3[nH]6)C=C5)C=C4)cc2)c2ccccc2)CCO1
REMARK SMILES IDX 21 1 20 2 18 3 19 4 17 6 12 7 13 8 14 9 16 10 15 11 10 12
REMARK SMILES IDX 9 13 11 15 8 16 7 17 6 18 5 19 1 20 2 21 3 22 4 23 98 24
REMARK SMILES IDX 97 25 96 26 90 27 91 28 95 29 92 30 94 31 93 32 22 33 23 34
REMARK SMILES IDX 24 35 25 36 26 38 27 39 28 40 89 41 29 42 88 43 30 44 31 45
REMARK SMILES IDX 32 46 82 47 33 48 87 49 81 50 83 51 34 52 86 53 80 54 79 55
REMARK SMILES IDX 35 57 67 58 47 59 66 60 48 61 51 62 65 63 84 64 49 65 50 66
REMARK SMILES IDX 64 68 85 69 52 70 36 71 37 72 45 73 38 74 40 75 46 76 39 77
REMARK SMILES IDX 41 78 42 79 43 80 44 81 68 82 69 83 77 84 70 85 72 86 78 87
REMARK SMILES IDX 71 88 73 89 74 90 75 91 76 92 53 93 54 94 62 95 55 96 57 97
REMARK SMILES IDX 63 98 56 99 58 100 59 101 60 102 61 103
REMARK H PARENT 20 5 9 14 24 37 83 56 51 67
REMARK Flexibility Score: inf
ROOT
ATOM      1  C   UNL     1       0.479  -2.074  -3.607  1.00  0.00     0.118 C 
ENDROOT
BRANCH   1   2
ATOM      2  N   UNL     1      -0.583  -1.631  -2.723  1.00  0.00    -0.352 N 
ATOM      3  C   UNL     1      -1.715  -2.241  -2.253  1.00  0.00     0.252 C 
ATOM      4  O   UNL     1      -2.337  -1.635  -1.373  1.00  0.00    -0.269 OA
ATOM      5  H   UNL     1      -0.465  -0.710  -2.396  1.00  0.00     0.163 HD
BRANCH   3   6
ATOM      6  C   UNL     1      -2.299  -3.521  -2.731  1.00  0.00     0.052 A 
ATOM      7  C   UNL     1      -1.659  -4.740  -2.949  1.00  0.00     0.052 A 
ATOM      8  C   UNL     1      -2.400  -5.884  -3.325  1.00  0.00     0.014 A 
ATOM      9  C   UNL     1      -3.783  -5.839  -3.451  1.00  0.00     0.001 A 
ATOM     10  C   UNL     1      -3.708  -3.502  -2.859  1.00  0.00     0.014 A 
ATOM     11  C   UNL     1      -4.441  -4.642  -3.214  1.00  0.00     0.001 A 
BRANCH   7  12
ATOM     12  C   UNL     1      -0.226  -5.012  -2.876  1.00  0.00     0.252 C 
ATOM     13  N   UNL     1       0.452  -4.970  -1.699  1.00  0.00    -0.352 N 
ATOM     14  H   UNL     1       1.318  -5.436  -1.725  1.00  0.00     0.163 HD
ATOM     15  O   UNL     1       0.339  -5.414  -3.882  1.00  0.00    -0.269 OA
BRANCH  13  16
ATOM     16  C   UNL     1       0.153  -4.374  -0.415  1.00  0.00     0.117 C 
BRANCH  16  17
ATOM     17  C   UNL     1       1.145  -4.821   0.677  1.00  0.00     0.030 C 
BRANCH  17  18
ATOM     18  C   UNL     1       2.579  -4.207   0.567  1.00  0.00     0.024 C 
BRANCH  18  19
ATOM     19  C   UNL     1       3.406  -4.439   1.877  1.00  0.00     0.002 C 
ATOM     20  C   UNL     1       6.297  -3.729   0.287  1.00  0.00     0.042 C 
ATOM     21  C   UNL     1       5.959  -3.822   1.780  1.00  0.00     0.063 C 
ATOM     22  C   UNL     1       6.923  -2.872   2.514  1.00  0.00     0.042 C 
ATOM     23  C   UNL     1       4.518  -3.397   2.115  1.00  0.00     0.039 C 
ATOM     24  O   UNL     1       6.219  -5.126   2.316  1.00  0.00    -0.376 OA
ATOM     25  C   UNL     1       5.342  -6.147   1.856  1.00  0.00     0.161 C 
ATOM     26  C   UNL     1       3.881  -5.863   2.188  1.00  0.00     0.033 C 
ENDBRANCH  18  19
BRANCH  18  27
ATOM     27  C   UNL     1       3.264  -4.543  -0.746  1.00  0.00    -0.045 A 
ATOM     28  C   UNL     1       3.713  -5.815  -1.116  1.00  0.00     0.004 A 
ATOM     29  C   UNL     1       3.324  -3.541  -1.723  1.00  0.00     0.004 A 
ATOM     30  C   UNL     1       4.279  -6.044  -2.379  1.00  0.00     0.000 A 
ATOM     31  C   UNL     1       3.827  -3.779  -3.002  1.00  0.00     0.000 A 
ATOM     32  C   UNL     1       4.337  -5.025  -3.323  1.00  0.00     0.000 A 
ENDBRANCH  18  27
ENDBRANCH  17  18
ENDBRANCH  16  17
ENDBRANCH  13  16
ENDBRANCH   7  12
ENDBRANCH   3   6
ENDBRANCH   1   2
BRANCH   1  33
ATOM     33  C   UNL     1       1.348  -0.958  -4.210  1.00  0.00     0.042 C 
BRANCH  33  34
ATOM     34  C   UNL     1       1.837   0.179  -3.302  1.00  0.00     0.118 C 
BRANCH  34  35
ATOM     35  N   UNL     1       2.731  -0.149  -2.198  1.00  0.00    -0.352 N 
ATOM     36  C   UNL     1       4.093  -0.323  -2.073  1.00  0.00     0.251 C 
ATOM     37  H   UNL     1       2.253  -0.275  -1.347  1.00  0.00     0.163 HD
ATOM     38  O   UNL     1       4.542  -0.510  -0.940  1.00  0.00    -0.269 OA
BRANCH  36  39
ATOM     39  C   UNL     1       5.022  -0.379  -3.226  1.00  0.00     0.039 A 
ATOM     40  C   UNL     1       6.090  -1.301  -3.194  1.00  0.00     0.014 A 
ATOM     41  C   UNL     1       4.913   0.487  -4.304  1.00  0.00     0.014 A 
ATOM     42  C   UNL     1       6.996  -1.401  -4.260  1.00  0.00     0.010 A 
ATOM     43  C   UNL     1       5.787   0.367  -5.379  1.00  0.00     0.010 A 
ATOM     44  C   UNL     1       6.840  -0.566  -5.365  1.00  0.00    -0.014 A 
BRANCH  44  45
ATOM     45  C   UNL     1       7.785  -0.491  -6.505  1.00  0.00     0.031 A 
ATOM     46  C   UNL     1       8.530   0.799  -6.678  1.00  0.00     0.074 A 
ATOM     47  C   UNL     1       7.760  -1.414  -7.481  1.00  0.00     0.049 A 
ATOM     48  N   UNL     1       8.954   1.374  -7.768  1.00  0.00    -0.248 NA
ATOM     49  C   UNL     1       8.746   1.582  -5.449  1.00  0.00     0.031 C 
ATOM     50  C   UNL     1       7.081  -2.706  -7.416  1.00  0.00     0.029 A 
ATOM     51  N   UNL     1       8.250  -1.352  -8.764  1.00  0.00    -0.354 N 
ATOM     52  C   UNL     1       9.386   2.635  -7.375  1.00  0.00     0.074 A 
ATOM     53  C   UNL     1       9.198   2.725  -5.943  1.00  0.00     0.031 C 
ATOM     54  C   UNL     1       7.141  -3.291  -8.625  1.00  0.00     0.029 A 
ATOM     55  C   UNL     1       7.804  -2.385  -9.559  1.00  0.00     0.049 A 
ATOM     56  H   UNL     1       8.856  -0.644  -9.081  1.00  0.00     0.167 HD
ATOM     57  C   UNL     1       9.879   3.628  -8.151  1.00  0.00     0.034 A 
ATOM     58  C   UNL     1       7.869  -2.544 -10.897  1.00  0.00     0.034 A 
ATOM     59  C   UNL     1      10.120   3.480  -9.559  1.00  0.00     0.049 A 
ATOM     60  C   UNL     1       8.502  -1.459 -11.732  1.00  0.00     0.074 A 
ATOM     61  C   UNL     1      10.690   4.383 -10.437  1.00  0.00     0.029 A 
ATOM     62  N   UNL     1       9.821   2.340 -10.290  1.00  0.00    -0.354 N 
ATOM     63  N   UNL     1       8.970  -0.293 -11.353  1.00  0.00    -0.248 NA
ATOM     64  C   UNL     1       8.632  -1.715 -13.174  1.00  0.00     0.031 C 
ATOM     65  C   UNL     1      10.738   3.786 -11.701  1.00  0.00     0.029 A 
ATOM     66  C   UNL     1      10.211   2.506 -11.605  1.00  0.00     0.049 A 
ATOM     67  H   UNL     1       9.393   1.531  -9.926  1.00  0.00     0.167 HD
ATOM     68  C   UNL     1       9.489   0.302 -12.497  1.00  0.00     0.074 A 
ATOM     69  C   UNL     1       9.283  -0.633 -13.584  1.00  0.00     0.031 C 
ATOM     70  C   UNL     1      10.071   1.518 -12.644  1.00  0.00     0.034 A 
BRANCH  57  71
ATOM     71  C   UNL     1      10.212   4.939  -7.490  1.00  0.00     0.023 A 
ATOM     72  C   UNL     1      11.317   5.022  -6.619  1.00  0.00     0.012 A 
ATOM     73  C   UNL     1       9.456   6.098  -7.758  1.00  0.00     0.148 A 
ATOM     74  C   UNL     1      11.639   6.226  -5.992  1.00  0.00     0.002 A 
ATOM     75  C   UNL     1       9.813   7.306  -7.167  1.00  0.00     0.091 A 
ATOM     76  F   UNL     1       8.394   5.998  -8.570  1.00  0.00    -0.205 F 
ATOM     77  C   UNL     1      10.895   7.368  -6.274  1.00  0.00     0.022 A 
BRANCH  75  78
ATOM     78  S   UNL     1       8.967   8.849  -7.530  1.00  0.00     0.127 S 
ATOM     79  O   UNL     1       8.222   9.076  -6.292  1.00  0.00    -0.237 OA
ATOM     80  O   UNL     1      10.084   9.770  -7.746  1.00  0.00    -0.237 OA
ATOM     81  O   UNL     1       8.156   8.593  -8.712  1.00  0.00    -0.744 OA
ENDBRANCH  75  78
ENDBRANCH  57  71
BRANCH  58  82
ATOM     82  C   UNL     1       7.353  -3.794 -11.526  1.00  0.00     0.023 A 
ATOM     83  C   UNL     1       8.278  -4.726 -12.036  1.00  0.00     0.012 A 
ATOM     84  C   UNL     1       5.977  -4.088 -11.593  1.00  0.00     0.148 A 
ATOM     85  C   UNL     1       7.844  -5.915 -12.623  1.00  0.00     0.002 A 
ATOM     86  C   UNL     1       5.553  -5.298 -12.135  1.00  0.00     0.091 A 
ATOM     87  F   UNL     1       5.110  -3.184 -11.116  1.00  0.00    -0.205 F 
ATOM     88  C   UNL     1       6.484  -6.206 -12.663  1.00  0.00     0.022 A 
BRANCH  86  89
ATOM     89  S   UNL     1       3.832  -5.815 -12.118  1.00  0.00     0.127 S 
ATOM     90  O   UNL     1       3.467  -5.686 -13.526  1.00  0.00    -0.237 OA
ATOM     91  O   UNL     1       3.933  -7.191 -11.632  1.00  0.00    -0.237 OA
ATOM     92  O   UNL     1       3.160  -4.903 -11.202  1.00  0.00    -0.744 OA
ENDBRANCH  86  89
ENDBRANCH  58  82
BRANCH  70  93
ATOM     93  C   UNL     1      10.602   1.890 -14.001  1.00  0.00     0.023 A 
ATOM     94  C   UNL     1       9.717   2.318 -15.008  1.00  0.00     0.012 A 
ATOM     95  C   UNL     1      11.992   1.939 -14.228  1.00  0.00     0.148 A 
ATOM     96  C   UNL     1      10.209   2.780 -16.229  1.00  0.00     0.002 A 
ATOM     97  C   UNL     1      12.476   2.441 -15.429  1.00  0.00     0.091 A 
ATOM     98  F   UNL     1      12.812   1.510 -13.257  1.00  0.00    -0.205 F 
ATOM     99  C   UNL     1      11.585   2.855 -16.433  1.00  0.00     0.022 A 
BRANCH  97 100
ATOM    100  S   UNL     1      14.230   2.666 -15.742  1.00  0.00     0.127 S 
ATOM    101  O   UNL     1      14.492   1.622 -16.731  1.00  0.00    -0.237 OA
ATOM    102  O   UNL     1      14.279   4.031 -16.267  1.00  0.00    -0.237 OA
ATOM    103  O   UNL     1      14.894   2.489 -14.457  1.00  0.00    -0.744 OA
ENDBRANCH  97 100
ENDBRANCH  70  93
ENDBRANCH  44  45
ENDBRANCH  36  39
ENDBRANCH  34  35
ENDBRANCH  33  34
ENDBRANCH   1  33
TORSDOF 19
