REMARK SMILES O=C(CSc1ccnc(C(=O)NCCCNC(=O)c2ccc(-c3c4nc(c(-c5cccc(S(=O)(=O)[O-])c5F)c5ccc([nH]5)c(-c5cccc(S(=O)(=O)[O-])c5F)c5nc(c(-c6cccc(S(=O)(=O)[O-])c6F)c6ccc3[nH]6)C=C5)C=C4)cc2)c1)NCC(F)(F)F
REMARK SMILES IDX 13 1 12 2 10 3 11 4 9 6 5 7 6 8 82 9 7 10 8 11 4 12 3 13
REMARK SMILES IDX 2 14 1 15 83 16 84 18 85 19 86 20 87 21 88 22 14 23 15 24
REMARK SMILES IDX 16 25 17 26 18 28 19 29 20 30 81 31 21 32 80 33 22 34 23 35
REMARK SMILES IDX 24 36 74 37 25 38 79 39 73 40 75 41 26 42 78 43 72 44 71 45
REMARK SMILES IDX 27 47 59 48 39 49 58 50 40 51 43 52 57 53 76 54 41 55 42 56
REMARK SMILES IDX 56 58 77 59 44 60 28 61 29 62 37 63 30 64 32 65 38 66 31 67
REMARK SMILES IDX 33 68 34 69 35 70 36 71 60 72 61 73 69 74 62 75 64 76 70 77
REMARK SMILES IDX 63 78 65 79 66 80 67 81 68 82 45 83 46 84 54 85 47 86 49 87
REMARK SMILES IDX 55 88 48 89 50 90 51 91 52 92 53 93
REMARK H PARENT 12 5 83 17 16 27 75 46 43 57
REMARK Flexibility Score: inf
ROOT
ATOM      1  C   UNL     1      -0.724   1.920   1.406  1.00  0.00     0.118 C 
ENDROOT
BRANCH   1   2
ATOM      2  N   UNL     1      -0.807   3.309   1.802  1.00  0.00    -0.351 N 
ATOM      3  C   UNL     1       0.013   4.392   1.587  1.00  0.00     0.269 C 
ATOM      4  O   UNL     1      -0.391   5.464   2.046  1.00  0.00    -0.268 OA
ATOM      5  H   UNL     1      -1.610   3.521   2.331  1.00  0.00     0.163 HD
BRANCH   3   6
ATOM      6  C   UNL     1       1.322   4.348   0.831  1.00  0.00     0.129 A 
ATOM      7  C   UNL     1       3.316   3.324  -0.045  1.00  0.00     0.012 A 
ATOM      8  C   UNL     1       3.736   4.580  -0.475  1.00  0.00     0.035 A 
ATOM      9  C   UNL     1       2.105   3.213   0.646  1.00  0.00     0.049 A 
ATOM     10  C   UNL     1       2.918   5.663  -0.230  1.00  0.00     0.113 A 
ATOM     11  N   UNL     1       1.727   5.570   0.389  1.00  0.00    -0.251 NA
BRANCH   7  12
ATOM     12  S   UNL     1       4.432   1.946  -0.288  1.00  0.00    -0.116 SA
BRANCH  12  13
ATOM     13  C   UNL     1       3.369   0.711  -1.119  1.00  0.00     0.174 C 
BRANCH  13  14
ATOM     14  C   UNL     1       2.563  -0.104  -0.124  1.00  0.00     0.230 C 
ATOM     15  O   UNL     1       1.350  -0.249  -0.259  1.00  0.00    -0.274 OA
ATOM     16  N   UNL     1       3.279  -0.671   0.906  1.00  0.00    -0.346 N 
ATOM     17  H   UNL     1       4.259  -0.578   0.903  1.00  0.00     0.163 HD
BRANCH  16  18
ATOM     18  C   UNL     1       2.648  -1.409   2.009  1.00  0.00     0.231 C 
BRANCH  18  19
ATOM     19  C   UNL     1       3.264  -2.764   2.344  1.00  0.00     0.405 C 
ATOM     20  F   UNL     1       4.588  -2.639   2.574  1.00  0.00    -0.169 F 
ATOM     21  F   UNL     1       2.686  -3.283   3.448  1.00  0.00    -0.169 F 
ATOM     22  F   UNL     1       3.094  -3.641   1.331  1.00  0.00    -0.169 F 
ENDBRANCH  18  19
ENDBRANCH  16  18
ENDBRANCH  13  14
ENDBRANCH  12  13
ENDBRANCH   7  12
ENDBRANCH   3   6
ENDBRANCH   1   2
BRANCH   1  23
ATOM     23  C   UNL     1      -0.018   1.093   2.478  1.00  0.00     0.042 C 
BRANCH  23  24
ATOM     24  C   UNL     1      -0.923   0.193   3.307  1.00  0.00     0.118 C 
BRANCH  24  25
ATOM     25  N   UNL     1      -1.643  -0.782   2.504  1.00  0.00    -0.352 N 
ATOM     26  C   UNL     1      -1.933  -2.104   2.712  1.00  0.00     0.251 C 
ATOM     27  H   UNL     1      -1.984  -0.425   1.652  1.00  0.00     0.163 HD
ATOM     28  O   UNL     1      -2.529  -2.709   1.821  1.00  0.00    -0.269 OA
BRANCH  26  29
ATOM     29  C   UNL     1      -1.528  -2.830   3.940  1.00  0.00     0.039 A 
ATOM     30  C   UNL     1      -1.254  -4.198   3.818  1.00  0.00     0.014 A 
ATOM     31  C   UNL     1      -1.455  -2.232   5.200  1.00  0.00     0.014 A 
ATOM     32  C   UNL     1      -0.884  -4.946   4.937  1.00  0.00     0.010 A 
ATOM     33  C   UNL     1      -0.995  -2.959   6.301  1.00  0.00     0.010 A 
ATOM     34  C   UNL     1      -0.723  -4.329   6.186  1.00  0.00    -0.014 A 
BRANCH  34  35
ATOM     35  C   UNL     1      -0.265  -5.119   7.360  1.00  0.00     0.031 A 
ATOM     36  C   UNL     1      -1.140  -5.282   8.575  1.00  0.00     0.074 A 
ATOM     37  C   UNL     1       0.965  -5.670   7.340  1.00  0.00     0.049 A 
ATOM     38  N   UNL     1      -0.919  -5.979   9.661  1.00  0.00    -0.248 NA
ATOM     39  C   UNL     1      -2.417  -4.550   8.589  1.00  0.00     0.031 C 
ATOM     40  C   UNL     1       1.942  -5.512   6.260  1.00  0.00     0.029 A 
ATOM     41  N   UNL     1       1.606  -6.469   8.252  1.00  0.00    -0.354 N 
ATOM     42  C   UNL     1      -2.009  -5.750  10.493  1.00  0.00     0.074 A 
ATOM     43  C   UNL     1      -2.872  -4.815   9.805  1.00  0.00     0.031 C 
ATOM     44  C   UNL     1       3.047  -6.213   6.560  1.00  0.00     0.029 A 
ATOM     45  C   UNL     1       2.870  -6.847   7.862  1.00  0.00     0.049 A 
ATOM     46  H   UNL     1       1.201  -6.745   9.106  1.00  0.00     0.167 HD
ATOM     47  C   UNL     1      -2.283  -6.289  11.706  1.00  0.00     0.034 A 
ATOM     48  C   UNL     1       3.782  -7.622   8.478  1.00  0.00     0.034 A 
ATOM     49  C   UNL     1      -1.436  -7.243  12.373  1.00  0.00     0.049 A 
ATOM     50  C   UNL     1       3.428  -8.255   9.796  1.00  0.00     0.074 A 
ATOM     51  C   UNL     1      -1.660  -7.909  13.566  1.00  0.00     0.029 A 
ATOM     52  N   UNL     1      -0.197  -7.660  11.912  1.00  0.00    -0.354 N 
ATOM     53  N   UNL     1       2.322  -8.150  10.492  1.00  0.00    -0.248 NA
ATOM     54  C   UNL     1       4.430  -9.150  10.389  1.00  0.00     0.031 C 
ATOM     55  C   UNL     1      -0.542  -8.705  13.840  1.00  0.00     0.029 A 
ATOM     56  C   UNL     1       0.360  -8.568  12.798  1.00  0.00     0.049 A 
ATOM     57  H   UNL     1       0.226  -7.356  11.076  1.00  0.00     0.167 HD
ATOM     58  C   UNL     1       2.480  -8.992  11.587  1.00  0.00     0.074 A 
ATOM     59  C   UNL     1       3.777  -9.621  11.442  1.00  0.00     0.031 C 
ATOM     60  C   UNL     1       1.635  -9.216  12.624  1.00  0.00     0.034 A 
BRANCH  47  61
ATOM     61  C   UNL     1      -3.578  -5.894  12.373  1.00  0.00     0.023 A 
ATOM     62  C   UNL     1      -4.805  -6.333  11.833  1.00  0.00     0.012 A 
ATOM     63  C   UNL     1      -3.582  -5.136  13.561  1.00  0.00     0.148 A 
ATOM     64  C   UNL     1      -6.014  -5.991  12.439  1.00  0.00     0.002 A 
ATOM     65  C   UNL     1      -4.788  -4.841  14.187  1.00  0.00     0.091 A 
ATOM     66  F   UNL     1      -2.409  -4.710  14.051  1.00  0.00    -0.205 F 
ATOM     67  C   UNL     1      -6.005  -5.256  13.620  1.00  0.00     0.022 A 
BRANCH  65  68
ATOM     68  S   UNL     1      -4.880  -3.972  15.756  1.00  0.00     0.127 S 
ATOM     69  O   UNL     1      -5.458  -2.691  15.350  1.00  0.00    -0.237 OA
ATOM     70  O   UNL     1      -5.780  -4.829  16.529  1.00  0.00    -0.237 OA
ATOM     71  O   UNL     1      -3.517  -3.909  16.262  1.00  0.00    -0.744 OA
ENDBRANCH  65  68
ENDBRANCH  47  61
BRANCH  48  72
ATOM     72  C   UNL     1       5.088  -7.904   7.817  1.00  0.00     0.023 A 
ATOM     73  C   UNL     1       5.359  -9.199   7.335  1.00  0.00     0.012 A 
ATOM     74  C   UNL     1       6.048  -6.890   7.639  1.00  0.00     0.148 A 
ATOM     75  C   UNL     1       6.578  -9.489   6.721  1.00  0.00     0.002 A 
ATOM     76  C   UNL     1       7.236  -7.171   6.974  1.00  0.00     0.091 A 
ATOM     77  F   UNL     1       5.775  -5.666   8.112  1.00  0.00    -0.205 F 
ATOM     78  C   UNL     1       7.511  -8.474   6.532  1.00  0.00     0.022 A 
BRANCH  76  79
ATOM     79  S   UNL     1       8.434  -5.896   6.567  1.00  0.00     0.127 S 
ATOM     80  O   UNL     1       9.547  -6.240   7.449  1.00  0.00    -0.237 OA
ATOM     81  O   UNL     1       8.675  -6.152   5.145  1.00  0.00    -0.237 OA
ATOM     82  O   UNL     1       7.775  -4.630   6.846  1.00  0.00    -0.744 OA
ENDBRANCH  76  79
ENDBRANCH  48  72
BRANCH  60  83
ATOM     83  C   UNL     1       2.071 -10.214  13.666  1.00  0.00     0.023 A 
ATOM     84  C   UNL     1       3.143  -9.913  14.530  1.00  0.00     0.012 A 
ATOM     85  C   UNL     1       1.396 -11.443  13.809  1.00  0.00     0.148 A 
ATOM     86  C   UNL     1       3.572 -10.840  15.480  1.00  0.00     0.002 A 
ATOM     87  C   UNL     1       1.793 -12.338  14.794  1.00  0.00     0.091 A 
ATOM     88  F   UNL     1       0.390 -11.724  12.968  1.00  0.00    -0.205 F 
ATOM     89  C   UNL     1       2.892 -12.047  15.618  1.00  0.00     0.022 A 
BRANCH  87  90
ATOM     90  S   UNL     1       0.910 -13.870  15.108  1.00  0.00     0.127 S 
ATOM     91  O   UNL     1       1.804 -14.859  14.507  1.00  0.00    -0.237 OA
ATOM     92  O   UNL     1       0.856 -13.906  16.570  1.00  0.00    -0.237 OA
ATOM     93  O   UNL     1      -0.388 -13.721  14.463  1.00  0.00    -0.744 OA
ENDBRANCH  87  90
ENDBRANCH  60  83
ENDBRANCH  34  35
ENDBRANCH  26  29
ENDBRANCH  24  25
ENDBRANCH  23  24
ENDBRANCH   1  23
TORSDOF 18
