REMARK SMILES C/C=C/c1cncc(-c2ccc([C@@H](C)C(=O)NCCCNC(=O)c3ccc(-c4c5nc(c(-c6cccc(S(=O)(=O)[O-])c6F)c6ccc([nH]6)c(-c6cccc(S(=O)(=O)[O-])c6F)c6nc(c(-c7cccc(S(=O)(=O)[O-])c7F)c7ccc4[nH]7)C=C6)C=C5)cc3)cc2)c1
REMARK SMILES IDX 19 1 18 2 17 3 15 4 16 5 13 7 14 8 12 9 9 10 10 11 88 12
REMARK SMILES IDX 11 13 87 14 8 15 4 16 5 17 89 18 6 19 7 20 3 21 1 22 2 23
REMARK SMILES IDX 20 24 21 25 22 26 23 28 24 29 25 30 86 31 26 32 85 33 27 34
REMARK SMILES IDX 28 35 29 36 79 37 30 38 84 39 78 40 80 41 31 42 83 43 77 44
REMARK SMILES IDX 76 45 32 47 64 48 44 49 63 50 45 51 48 52 62 53 81 54 46 55
REMARK SMILES IDX 47 56 61 58 82 59 49 60 33 61 34 62 42 63 35 64 37 65 43 66
REMARK SMILES IDX 36 67 38 68 39 69 40 70 41 71 65 72 66 73 74 74 67 75 69 76
REMARK SMILES IDX 75 77 68 78 70 79 71 80 72 81 73 82 50 83 51 84 59 85 52 86
REMARK SMILES IDX 54 87 60 88 53 89 55 90 56 91 57 92 58 93
REMARK H PARENT 17 6 21 27 80 46 48 57
REMARK Flexibility Score: inf
ROOT
ATOM      1  C   UNL     1       0.127  10.139   0.362  1.00  0.00     0.042 C 
ENDROOT
BRANCH   1   2
ATOM      2  C   UNL     1       0.848  11.249  -0.397  1.00  0.00     0.117 C 
BRANCH   2   3
ATOM      3  N   UNL     1       2.253  10.960  -0.606  1.00  0.00    -0.356 N 
ATOM      4  C   UNL     1       2.926  10.448  -1.673  1.00  0.00     0.227 C 
ATOM      5  O   UNL     1       4.144  10.287  -1.525  1.00  0.00    -0.274 OA
ATOM      6  H   UNL     1       2.826  11.172   0.166  1.00  0.00     0.163 HD
BRANCH   4   7
ATOM      7  C   UNL     1       2.268  10.094  -3.015  1.00  0.00     0.105 C 
ATOM      8  C   UNL     1       1.593  11.275  -3.714  1.00  0.00     0.023 C 
BRANCH   7   9
ATOM      9  C   UNL     1       1.471   8.799  -2.977  1.00  0.00    -0.036 A 
ATOM     10  C   UNL     1       0.082   6.309  -2.761  1.00  0.00    -0.017 A 
ATOM     11  C   UNL     1      -0.557   7.536  -2.522  1.00  0.00     0.009 A 
ATOM     12  C   UNL     1       1.431   6.359  -3.139  1.00  0.00     0.009 A 
ATOM     13  C   UNL     1       0.113   8.757  -2.661  1.00  0.00     0.005 A 
ATOM     14  C   UNL     1       2.118   7.579  -3.229  1.00  0.00     0.005 A 
BRANCH  10  15
ATOM     15  C   UNL     1      -0.653   5.036  -2.617  1.00  0.00     0.001 A 
ATOM     16  C   UNL     1      -0.827   2.701  -1.919  1.00  0.00    -0.007 A 
ATOM     17  C   UNL     1      -2.159   2.738  -2.322  1.00  0.00     0.119 A 
ATOM     18  C   UNL     1      -0.073   3.873  -2.082  1.00  0.00     0.020 A 
ATOM     19  N   UNL     1      -2.755   3.815  -2.878  1.00  0.00    -0.263 NA
ATOM     20  C   UNL     1      -1.994   4.925  -2.998  1.00  0.00     0.119 A 
BRANCH  16  21
ATOM     21  C   UNL     1      -0.265   1.444  -1.412  1.00  0.00     0.005 C 
ATOM     22  C   UNL     1       1.088   0.045   0.151  1.00  0.00     0.035 C 
ATOM     23  C   UNL     1       0.577   1.350  -0.372  1.00  0.00    -0.030 C 
ENDBRANCH  16  21
ENDBRANCH  10  15
ENDBRANCH   7   9
ENDBRANCH   4   7
ENDBRANCH   2   3
ENDBRANCH   1   2
BRANCH   1  24
ATOM     24  C   UNL     1       0.303  10.200   1.873  1.00  0.00     0.118 C 
BRANCH  24  25
ATOM     25  N   UNL     1      -0.365  11.353   2.458  1.00  0.00    -0.352 N 
ATOM     26  C   UNL     1      -1.357  11.434   3.402  1.00  0.00     0.251 C 
ATOM     27  H   UNL     1      -0.051  12.223   2.118  1.00  0.00     0.163 HD
ATOM     28  O   UNL     1      -1.906  12.521   3.579  1.00  0.00    -0.269 OA
BRANCH  26  29
ATOM     29  C   UNL     1      -1.774  10.260   4.207  1.00  0.00     0.039 A 
ATOM     30  C   UNL     1      -3.105  10.184   4.635  1.00  0.00     0.014 A 
ATOM     31  C   UNL     1      -0.865   9.283   4.622  1.00  0.00     0.014 A 
ATOM     32  C   UNL     1      -3.520   9.135   5.459  1.00  0.00     0.010 A 
ATOM     33  C   UNL     1      -1.301   8.186   5.364  1.00  0.00     0.010 A 
ATOM     34  C   UNL     1      -2.622   8.121   5.827  1.00  0.00    -0.014 A 
BRANCH  34  35
ATOM     35  C   UNL     1      -3.035   7.026   6.742  1.00  0.00     0.031 A 
ATOM     36  C   UNL     1      -2.375   6.874   8.091  1.00  0.00     0.074 A 
ATOM     37  C   UNL     1      -3.963   6.133   6.345  1.00  0.00     0.049 A 
ATOM     38  N   UNL     1      -2.599   5.986   9.025  1.00  0.00    -0.248 NA
ATOM     39  C   UNL     1      -1.300   7.824   8.421  1.00  0.00     0.031 C 
ATOM     40  C   UNL     1      -4.607   6.112   5.031  1.00  0.00     0.029 A 
ATOM     41  N   UNL     1      -4.511   5.061   7.002  1.00  0.00    -0.354 N 
ATOM     42  C   UNL     1      -1.669   6.242  10.026  1.00  0.00     0.074 A 
ATOM     43  C   UNL     1      -0.850   7.342   9.570  1.00  0.00     0.031 C 
ATOM     44  C   UNL     1      -5.471   5.085   4.982  1.00  0.00     0.029 A 
ATOM     45  C   UNL     1      -5.432   4.368   6.253  1.00  0.00     0.049 A 
ATOM     46  H   UNL     1      -4.267   4.811   7.922  1.00  0.00     0.167 HD
ATOM     47  C   UNL     1      -1.529   5.643  11.234  1.00  0.00     0.034 A 
ATOM     48  C   UNL     1      -6.171   3.284   6.560  1.00  0.00     0.034 A 
ATOM     49  C   UNL     1      -2.386   4.591  11.711  1.00  0.00     0.049 A 
ATOM     50  C   UNL     1      -6.070   2.700   7.943  1.00  0.00     0.074 A 
ATOM     51  C   UNL     1      -2.393   3.981  12.953  1.00  0.00     0.029 A 
ATOM     52  N   UNL     1      -3.392   3.995  10.967  1.00  0.00    -0.354 N 
ATOM     53  N   UNL     1      -5.300   3.066   8.940  1.00  0.00    -0.248 NA
ATOM     54  C   UNL     1      -6.976   1.588   8.262  1.00  0.00     0.031 C 
ATOM     55  C   UNL     1      -3.398   3.007  12.954  1.00  0.00     0.029 A 
ATOM     56  C   UNL     1      -4.030   3.026  11.721  1.00  0.00     0.049 A 
ATOM     57  H   UNL     1      -3.619   4.227  10.037  1.00  0.00     0.167 HD
ATOM     58  C   UNL     1      -5.654   2.257  10.013  1.00  0.00     0.074 A 
ATOM     59  C   UNL     1      -6.724   1.397   9.550  1.00  0.00     0.031 C 
ATOM     60  C   UNL     1      -5.131   2.217  11.264  1.00  0.00     0.034 A 
BRANCH  47  61
ATOM     61  C   UNL     1      -0.445   6.158  12.147  1.00  0.00     0.023 A 
ATOM     62  C   UNL     1      -0.579   7.433  12.736  1.00  0.00     0.012 A 
ATOM     63  C   UNL     1       0.685   5.375  12.452  1.00  0.00     0.148 A 
ATOM     64  C   UNL     1       0.412   7.938  13.577  1.00  0.00     0.002 A 
ATOM     65  C   UNL     1       1.647   5.866  13.329  1.00  0.00     0.091 A 
ATOM     66  F   UNL     1       0.810   4.175  11.868  1.00  0.00    -0.205 F 
ATOM     67  C   UNL     1       1.519   7.151  13.881  1.00  0.00     0.022 A 
BRANCH  65  68
ATOM     68  S   UNL     1       3.068   4.896  13.846  1.00  0.00     0.127 S 
ATOM     69  O   UNL     1       4.149   5.532  13.096  1.00  0.00    -0.237 OA
ATOM     70  O   UNL     1       3.102   5.140  15.289  1.00  0.00    -0.237 OA
ATOM     71  O   UNL     1       2.769   3.520  13.474  1.00  0.00    -0.744 OA
ENDBRANCH  65  68
ENDBRANCH  47  61
BRANCH  48  72
ATOM     72  C   UNL     1      -7.147   2.749   5.569  1.00  0.00     0.023 A 
ATOM     73  C   UNL     1      -8.525   2.941   5.785  1.00  0.00     0.012 A 
ATOM     74  C   UNL     1      -6.719   2.094   4.398  1.00  0.00     0.148 A 
ATOM     75  C   UNL     1      -9.463   2.464   4.869  1.00  0.00     0.002 A 
ATOM     76  C   UNL     1      -7.656   1.667   3.464  1.00  0.00     0.091 A 
ATOM     77  F   UNL     1      -5.403   1.915   4.216  1.00  0.00    -0.205 F 
ATOM     78  C   UNL     1      -9.028   1.837   3.705  1.00  0.00     0.022 A 
BRANCH  76  79
ATOM     79  S   UNL     1      -7.187   0.961   1.880  1.00  0.00     0.127 S 
ATOM     80  O   UNL     1      -7.579  -0.436   2.047  1.00  0.00    -0.237 OA
ATOM     81  O   UNL     1      -8.018   1.727   0.951  1.00  0.00    -0.237 OA
ATOM     82  O   UNL     1      -5.756   1.204   1.749  1.00  0.00    -0.744 OA
ENDBRANCH  76  79
ENDBRANCH  48  72
BRANCH  60  83
ATOM     83  C   UNL     1      -5.732   1.239  12.238  1.00  0.00     0.023 A 
ATOM     84  C   UNL     1      -5.496  -0.142  12.083  1.00  0.00     0.012 A 
ATOM     85  C   UNL     1      -6.486   1.691  13.339  1.00  0.00     0.148 A 
ATOM     86  C   UNL     1      -6.035  -1.059  12.985  1.00  0.00     0.002 A 
ATOM     87  C   UNL     1      -6.979   0.774  14.261  1.00  0.00     0.091 A 
ATOM     88  F   UNL     1      -6.721   3.006  13.460  1.00  0.00    -0.205 F 
ATOM     89  C   UNL     1      -6.766  -0.601  14.078  1.00  0.00     0.022 A 
BRANCH  87  90
ATOM     90  S   UNL     1      -7.845   1.295  15.746  1.00  0.00     0.127 S 
ATOM     91  O   UNL     1      -9.241   1.094  15.365  1.00  0.00    -0.237 OA
ATOM     92  O   UNL     1      -7.346   0.353  16.750  1.00  0.00    -0.237 OA
ATOM     93  O   UNL     1      -7.442   2.677  15.972  1.00  0.00    -0.744 OA
ENDBRANCH  87  90
ENDBRANCH  60  83
ENDBRANCH  34  35
ENDBRANCH  26  29
ENDBRANCH  24  25
ENDBRANCH   1  24
TORSDOF 16
