REMARK SMILES Cc1ccccc1SCC(=O)N[C@H]1C=C[C@H](C(=O)NCCCNC(=O)c2ccc(-c3c4nc(c(-c5cccc(S(=O)(=O)[O-])c5F)c5ccc([nH]5)c(-c5cccc(S(=O)(=O)[O-])c5F)c5nc(c(-c6cccc(S(=O)(=O)[O-])c6F)c6ccc3[nH]6)C=C5)C=C4)cc2)C1
REMARK SMILES IDX 20 1 19 2 17 3 18 4 16 6 13 7 14 8 89 9 15 10 12 11 10 12
REMARK SMILES IDX 11 13 9 15 8 16 7 17 1 18 2 19 3 20 4 21 6 22 5 23 21 24
REMARK SMILES IDX 22 25 23 26 24 27 25 29 26 30 27 31 88 32 28 33 87 34 29 35
REMARK SMILES IDX 30 36 31 37 81 38 32 39 86 40 80 41 82 42 33 43 85 44 79 45
REMARK SMILES IDX 78 46 34 48 66 49 46 50 65 51 47 52 50 53 64 54 83 55 48 56
REMARK SMILES IDX 49 57 63 59 84 60 51 61 35 62 36 63 44 64 37 65 39 66 45 67
REMARK SMILES IDX 38 68 40 69 41 70 42 71 43 72 67 73 68 74 76 75 69 76 71 77
REMARK SMILES IDX 77 78 70 79 72 80 73 81 74 82 75 83 52 84 53 85 61 86 54 87
REMARK SMILES IDX 56 88 62 89 55 90 57 91 58 92 59 93 60 94
REMARK H PARENT 19 5 12 14 23 28 82 47 50 58
REMARK Flexibility Score: inf
ROOT
ATOM      1  C   UNL     1       2.524   8.978   4.120  1.00  0.00     0.117 C 
ENDROOT
BRANCH   1   2
ATOM      2  N   UNL     1       1.634   8.382   3.115  1.00  0.00    -0.356 N 
ATOM      3  C   UNL     1       1.546   7.079   2.692  1.00  0.00     0.227 C 
ATOM      4  O   UNL     1       0.548   6.715   2.069  1.00  0.00    -0.274 OA
ATOM      5  H   UNL     1       1.009   9.007   2.683  1.00  0.00     0.163 HD
BRANCH   3   6
ATOM      6  C   UNL     1       2.690   6.121   3.023  1.00  0.00     0.103 C 
ATOM      7  C   UNL     1       2.203   3.730   2.609  1.00  0.00     0.106 C 
ATOM      8  C   UNL     1       2.154   4.074   4.065  1.00  0.00    -0.006 C 
ATOM      9  C   UNL     1       2.823   4.989   1.987  1.00  0.00     0.047 C 
ATOM     10  C   UNL     1       2.412   5.367   4.290  1.00  0.00    -0.016 C 
BRANCH   7  11
ATOM     11  N   UNL     1       3.024   2.545   2.467  1.00  0.00    -0.349 N 
ATOM     12  C   UNL     1       3.396   1.869   1.347  1.00  0.00     0.230 C 
ATOM     13  O   UNL     1       4.114   0.875   1.508  1.00  0.00    -0.274 OA
ATOM     14  H   UNL     1       3.366   2.172   3.311  1.00  0.00     0.164 HD
BRANCH  12  15
ATOM     15  C   UNL     1       3.094   2.382  -0.042  1.00  0.00     0.174 C 
BRANCH  15  16
ATOM     16  S   UNL     1       1.354   2.496  -0.521  1.00  0.00    -0.116 SA
BRANCH  16  17
ATOM     17  C   UNL     1       0.522   0.938  -0.223  1.00  0.00     0.011 A 
ATOM     18  C   UNL     1       2.426  -0.793  -0.502  1.00  0.00     0.045 C 
ATOM     19  C   UNL     1       1.005  -0.382  -0.261  1.00  0.00    -0.038 A 
ATOM     20  C   UNL     1       0.100  -1.451  -0.050  1.00  0.00     0.004 A 
ATOM     21  C   UNL     1      -1.264  -1.238   0.131  1.00  0.00     0.000 A 
ATOM     22  C   UNL     1      -0.869   1.124  -0.038  1.00  0.00     0.015 A 
ATOM     23  C   UNL     1      -1.753   0.056   0.129  1.00  0.00     0.001 A 
ENDBRANCH  16  17
ENDBRANCH  15  16
ENDBRANCH  12  15
ENDBRANCH   7  11
ENDBRANCH   3   6
ENDBRANCH   1   2
BRANCH   1  24
ATOM     24  C   UNL     1       3.678   9.849   3.573  1.00  0.00     0.042 C 
BRANCH  24  25
ATOM     25  C   UNL     1       3.216  11.201   3.028  1.00  0.00     0.118 C 
BRANCH  25  26
ATOM     26  N   UNL     1       3.006  12.354   3.932  1.00  0.00    -0.352 N 
ATOM     27  C   UNL     1       2.561  13.688   3.670  1.00  0.00     0.251 C 
ATOM     28  H   UNL     1       3.208  12.170   4.878  1.00  0.00     0.163 HD
ATOM     29  O   UNL     1       2.813  14.545   4.515  1.00  0.00    -0.269 OA
BRANCH  27  30
ATOM     30  C   UNL     1       1.686  13.993   2.472  1.00  0.00     0.039 A 
ATOM     31  C   UNL     1       0.395  15.458   2.312  1.00  0.00     0.014 A 
ATOM     32  C   UNL     1       1.200  12.283   1.689  1.00  0.00     0.014 A 
ATOM     33  C   UNL     1      -1.464  15.200   1.702  1.00  0.00     0.010 A 
ATOM     34  C   UNL     1      -0.506  12.123   0.842  1.00  0.00     0.010 A 
ATOM     35  C   UNL     1      -1.901  13.455   0.920  1.00  0.00    -0.014 A 
BRANCH  35  36
ATOM     36  C   UNL     1      -2.931  12.915   0.043  1.00  0.00     0.031 A 
ATOM     37  C   UNL     1      -3.247  13.599  -1.196  1.00  0.00     0.074 A 
ATOM     38  C   UNL     1      -3.247  11.592   0.176  1.00  0.00     0.049 A 
ATOM     39  N   UNL     1      -4.437  13.776  -1.643  1.00  0.00    -0.248 NA
ATOM     40  C   UNL     1      -2.183  14.007  -2.107  1.00  0.00     0.031 C 
ATOM     41  C   UNL     1      -4.185  10.728  -0.527  1.00  0.00     0.029 A 
ATOM     42  N   UNL     1      -2.878  10.741   1.232  1.00  0.00    -0.354 N 
ATOM     43  C   UNL     1      -4.289  13.954  -3.003  1.00  0.00     0.074 A 
ATOM     44  C   UNL     1      -2.888  14.257  -3.217  1.00  0.00     0.031 C 
ATOM     45  C   UNL     1      -4.665   9.825   0.369  1.00  0.00     0.029 A 
ATOM     46  C   UNL     1      -4.049  10.123   1.662  1.00  0.00     0.049 A 
ATOM     47  H   UNL     1      -1.972  10.608   1.595  1.00  0.00     0.167 HD
ATOM     48  C   UNL     1      -5.282  13.536  -3.840  1.00  0.00     0.034 A 
ATOM     49  C   UNL     1      -4.623  10.653   2.795  1.00  0.00     0.034 A 
ATOM     50  C   UNL     1      -6.288  12.751  -3.086  1.00  0.00     0.049 A 
ATOM     51  C   UNL     1      -5.924  11.341   2.483  1.00  0.00     0.074 A 
ATOM     52  C   UNL     1      -6.525  11.386  -3.006  1.00  0.00     0.029 A 
ATOM     53  N   UNL     1      -6.958  13.315  -1.999  1.00  0.00    -0.354 N 
ATOM     54  N   UNL     1      -6.283  11.649   1.272  1.00  0.00    -0.248 NA
ATOM     55  C   UNL     1      -6.942  11.691   3.466  1.00  0.00     0.031 C 
ATOM     56  C   UNL     1      -7.224  11.125  -1.794  1.00  0.00     0.029 A 
ATOM     57  C   UNL     1      -7.431  12.328  -1.143  1.00  0.00     0.049 A 
ATOM     58  H   UNL     1      -7.079  14.282  -1.859  1.00  0.00     0.167 HD
ATOM     59  C   UNL     1      -7.511  12.228   1.270  1.00  0.00     0.074 A 
ATOM     60  C   UNL     1      -7.905  12.199   2.671  1.00  0.00     0.031 C 
ATOM     61  C   UNL     1      -8.082  12.687   0.116  1.00  0.00     0.034 A 
BRANCH  48  62
ATOM     62  C   UNL     1      -5.155  13.490  -5.356  1.00  0.00     0.023 A 
ATOM     63  C   UNL     1      -5.949  12.550  -6.052  1.00  0.00     0.012 A 
ATOM     64  C   UNL     1      -4.334  14.324  -6.156  1.00  0.00     0.148 A 
ATOM     65  C   UNL     1      -5.874  12.373  -7.436  1.00  0.00     0.002 A 
ATOM     66  C   UNL     1      -4.225  14.117  -7.538  1.00  0.00     0.091 A 
ATOM     67  F   UNL     1      -3.714  15.371  -5.596  1.00  0.00    -0.205 F 
ATOM     68  C   UNL     1      -4.992  13.138  -8.178  1.00  0.00     0.022 A 
BRANCH  66  69
ATOM     69  S   UNL     1      -3.083  15.036  -8.588  1.00  0.00     0.127 S 
ATOM     70  O   UNL     1      -2.441  13.967  -9.358  1.00  0.00    -0.237 OA
ATOM     71  O   UNL     1      -3.986  15.879  -9.368  1.00  0.00    -0.237 OA
ATOM     72  O   UNL     1      -2.183  15.741  -7.685  1.00  0.00    -0.744 OA
ENDBRANCH  66  69
ENDBRANCH  48  62
BRANCH  49  73
ATOM     73  C   UNL     1      -3.563  11.145   3.785  1.00  0.00     0.023 A 
ATOM     74  C   UNL     1      -2.875  10.123   4.468  1.00  0.00     0.012 A 
ATOM     75  C   UNL     1      -2.800  12.265   3.381  1.00  0.00     0.148 A 
ATOM     76  C   UNL     1      -1.475  10.110   4.495  1.00  0.00     0.002 A 
ATOM     77  C   UNL     1      -1.420  12.112   3.115  1.00  0.00     0.091 A 
ATOM     78  F   UNL     1      -3.459  13.398   3.092  1.00  0.00    -0.205 F 
ATOM     79  C   UNL     1      -0.756  11.072   3.780  1.00  0.00     0.022 A 
BRANCH  77  80
ATOM     80  S   UNL     1      -0.428  13.521   2.519  1.00  0.00     0.127 S 
ATOM     81  O   UNL     1       0.611  13.824   1.065  1.00  0.00    -0.237 OA
ATOM     82  O   UNL     1      -0.290  14.197   0.832  1.00  0.00    -0.237 OA
ATOM     83  O   UNL     1      -0.297  14.166   3.847  1.00  0.00    -0.744 OA
ENDBRANCH  77  80
ENDBRANCH  49  73
BRANCH  61  84
ATOM     84  C   UNL     1      -9.341  13.504   0.066  1.00  0.00     0.023 A 
ATOM     85  C   UNL     1      -9.741  14.322   1.138  1.00  0.00     0.012 A 
ATOM     86  C   UNL     1     -10.078  13.598  -1.138  1.00  0.00     0.148 A 
ATOM     87  C   UNL     1     -10.866  15.143   1.046  1.00  0.00     0.002 A 
ATOM     88  C   UNL     1     -11.112  14.512  -1.265  1.00  0.00     0.091 A 
ATOM     89  F   UNL     1      -9.793  12.784  -2.166  1.00  0.00    -0.205 F 
ATOM     90  C   UNL     1     -11.536  15.259  -0.164  1.00  0.00     0.022 A 
BRANCH  88  91
ATOM     91  S   UNL     1     -11.809  14.886  -2.877  1.00  0.00     0.127 S 
ATOM     92  O   UNL     1     -12.972  14.003  -2.916  1.00  0.00    -0.237 OA
ATOM     93  O   UNL     1     -12.127  16.310  -2.755  1.00  0.00    -0.237 OA
ATOM     94  O   UNL     1     -10.747  14.594  -3.830  1.00  0.00    -0.744 OA
ENDBRANCH  88  91
ENDBRANCH  61  84
ENDBRANCH  35  36
ENDBRANCH  27  30
ENDBRANCH  25  26
ENDBRANCH  24  25
ENDBRANCH   1  24
TORSDOF 17
