REMARK SMILES CNC(=O)c1ccc(Cl)cc1NC(=O)[C@H]1[C@@H](C(=O)NCCCNC(=O)c2ccc(-c3c4nc(c(-c5cccc(S(=O)(=O)[O-])c5F)c5ccc([nH]5)c(-c5cccc(S(=O)(=O)[O-])c5F)c5nc(c(-c6cccc(S(=O)(=O)[O-])c6F)c6ccc3[nH]6)C=C5)C=C4)cc2)[C@H]2C=C[C@@H]1C2
REMARK SMILES IDX 21 1 20 2 19 3 17 4 18 5 16 7 15 8 92 9 89 10 91 11 93 12
REMARK SMILES IDX 90 13 13 14 12 15 14 17 11 18 5 19 6 20 7 21 10 22 8 23 9 24
REMARK SMILES IDX 3 25 1 26 2 27 4 29 22 30 23 31 24 32 25 34 26 35 27 36
REMARK SMILES IDX 88 37 28 38 87 39 29 40 30 41 31 42 81 43 32 44 86 45 80 46
REMARK SMILES IDX 82 47 33 48 85 49 79 50 78 51 34 53 66 54 46 55 65 56 47 57
REMARK SMILES IDX 50 58 64 59 83 60 48 61 49 62 63 64 84 65 51 66 35 67 36 68
REMARK SMILES IDX 44 69 37 70 39 71 45 72 38 73 40 74 41 75 42 76 43 77 67 78
REMARK SMILES IDX 68 79 76 80 69 81 71 82 77 83 70 84 72 85 73 86 74 87 75 88
REMARK SMILES IDX 52 89 53 90 61 91 54 92 56 93 62 94 55 95 57 96 58 97 59 98
REMARK SMILES IDX 60 99
REMARK H PARENT 19 6 12 16 2 28 23 33 82 52 50 63
REMARK Flexibility Score: inf
ROOT
ATOM      1  C   UNL     1      -3.249  -5.870   1.589  1.00  0.00     0.042 C 
ENDROOT
BRANCH   1   2
ATOM      2  C   UNL     1      -2.095  -4.937   1.127  1.00  0.00     0.117 C 
BRANCH   2   3
ATOM      3  N   UNL     1      -0.779  -4.898   1.805  1.00  0.00    -0.356 N 
ATOM      4  C   UNL     1       0.496  -5.365   1.520  1.00  0.00     0.224 C 
ATOM      5  O   UNL     1       1.444  -4.736   2.000  1.00  0.00    -0.275 OA
ATOM      6  H   UNL     1      -0.819  -4.426   2.668  1.00  0.00     0.163 HD
BRANCH   4   7
ATOM      7  C   UNL     1       0.748  -6.542   0.580  1.00  0.00     0.098 C 
ATOM      8  C   UNL     1      -0.341  -7.574   0.578  1.00  0.00     0.099 C 
ATOM      9  C   UNL     1       0.293  -8.715  -0.306  1.00  0.00     0.025 C 
ATOM     10  C   UNL     1       2.012  -7.520   0.476  1.00  0.00     0.025 C 
ATOM     11  C   UNL     1       0.935  -9.638   0.660  1.00  0.00    -0.027 C 
ATOM     12  C   UNL     1       1.616  -8.125  -0.878  1.00  0.00     0.017 C 
ATOM     13  C   UNL     1       1.951  -8.928   1.170  1.00  0.00    -0.027 C 
BRANCH   8  14
ATOM     14  C   UNL     1      -0.859  -7.995   2.006  1.00  0.00     0.228 C 
ATOM     15  N   UNL     1      -0.568  -7.466   3.250  1.00  0.00    -0.325 N 
ATOM     16  H   UNL     1      -1.380  -7.499   3.806  1.00  0.00     0.169 HD
ATOM     17  O   UNL     1      -1.811  -8.795   2.004  1.00  0.00    -0.274 OA
BRANCH  15  18
ATOM     18  C   UNL     1       0.499  -6.883   4.022  1.00  0.00     0.055 A 
ATOM     19  C   UNL     1       0.245  -6.142   5.203  1.00  0.00     0.063 A 
ATOM     20  C   UNL     1       1.259  -5.820   6.132  1.00  0.00     0.017 A 
ATOM     21  C   UNL     1       2.580  -6.125   5.861  1.00  0.00     0.021 A 
ATOM     22  C   UNL     1       1.847  -7.104   3.771  1.00  0.00     0.047 A 
ATOM     23  C   UNL     1       2.872  -6.732   4.656  1.00  0.00     0.043 A 
ATOM     24  Cl  UNL     1       4.512  -7.073   4.252  1.00  0.00    -0.084 Cl
BRANCH  19  25
ATOM     25  C   UNL     1      -1.065  -5.568   5.530  1.00  0.00     0.253 C 
ATOM     26  C   UNL     1      -0.205  -3.165   5.443  1.00  0.00     0.143 C 
ATOM     27  N   UNL     1      -1.218  -4.198   5.575  1.00  0.00    -0.355 N 
ATOM     28  H   UNL     1      -2.138  -3.876   5.715  1.00  0.00     0.163 HD
ATOM     29  O   UNL     1      -1.994  -6.329   5.794  1.00  0.00    -0.269 OA
ENDBRANCH  19  25
ENDBRANCH  15  18
ENDBRANCH   8  14
ENDBRANCH   4   7
ENDBRANCH   2   3
ENDBRANCH   1   2
BRANCH   1  30
ATOM     30  C   UNL     1      -3.622  -5.994   3.068  1.00  0.00     0.118 C 
BRANCH  30  31
ATOM     31  N   UNL     1      -4.309  -4.836   3.610  1.00  0.00    -0.352 N 
ATOM     32  C   UNL     1      -5.439  -4.796   4.399  1.00  0.00     0.251 C 
ATOM     33  H   UNL     1      -3.916  -3.962   3.384  1.00  0.00     0.163 HD
ATOM     34  O   UNL     1      -5.960  -3.712   4.653  1.00  0.00    -0.269 OA
BRANCH  32  35
ATOM     35  C   UNL     1      -6.034  -6.038   4.950  1.00  0.00     0.039 A 
ATOM     36  C   UNL     1      -7.350  -6.380   4.623  1.00  0.00     0.014 A 
ATOM     37  C   UNL     1      -5.325  -6.821   5.864  1.00  0.00     0.014 A 
ATOM     38  C   UNL     1      -7.937  -7.527   5.179  1.00  0.00     0.010 A 
ATOM     39  C   UNL     1      -5.901  -7.983   6.393  1.00  0.00     0.010 A 
ATOM     40  C   UNL     1      -7.215  -8.350   6.061  1.00  0.00    -0.014 A 
BRANCH  40  41
ATOM     41  C   UNL     1      -7.815  -9.597   6.620  1.00  0.00     0.031 A 
ATOM     42  C   UNL     1      -8.088  -9.729   8.098  1.00  0.00     0.074 A 
ATOM     43  C   UNL     1      -8.052 -10.646   5.806  1.00  0.00     0.049 A 
ATOM     44  N   UNL     1      -8.585 -10.745   8.759  1.00  0.00    -0.248 NA
ATOM     45  C   UNL     1      -7.744  -8.578   8.946  1.00  0.00     0.031 C 
ATOM     46  C   UNL     1      -7.761 -10.678   4.372  1.00  0.00     0.029 A 
ATOM     47  N   UNL     1      -8.559 -11.896   6.069  1.00  0.00    -0.354 N 
ATOM     48  C   UNL     1      -8.578 -10.373  10.099  1.00  0.00     0.074 A 
ATOM     49  C   UNL     1      -8.011  -9.042  10.159  1.00  0.00     0.031 C 
ATOM     50  C   UNL     1      -8.086 -11.886   3.883  1.00  0.00     0.029 A 
ATOM     51  C   UNL     1      -8.581 -12.726   4.970  1.00  0.00     0.049 A 
ATOM     52  H   UNL     1      -8.877 -12.173   6.958  1.00  0.00     0.167 HD
ATOM     53  C   UNL     1      -9.019 -11.064  11.179  1.00  0.00     0.034 A 
ATOM     54  C   UNL     1      -8.940 -14.020   4.850  1.00  0.00     0.034 A 
ATOM     55  C   UNL     1      -9.608 -12.376  11.113  1.00  0.00     0.049 A 
ATOM     56  C   UNL     1      -9.455 -14.755   6.060  1.00  0.00     0.074 A 
ATOM     57  C   UNL     1     -10.177 -13.115  12.136  1.00  0.00     0.029 A 
ATOM     58  N   UNL     1      -9.685 -13.154   9.969  1.00  0.00    -0.354 N 
ATOM     59  N   UNL     1      -9.607 -14.319   7.287  1.00  0.00    -0.248 NA
ATOM     60  C   UNL     1      -9.882 -16.148   5.863  1.00  0.00     0.031 C 
ATOM     61  C   UNL     1     -10.559 -14.357  11.619  1.00  0.00     0.029 A 
ATOM     62  C   UNL     1     -10.269 -14.375  10.264  1.00  0.00     0.049 A 
ATOM     63  H   UNL     1      -9.371 -12.880   9.077  1.00  0.00     0.167 HD
ATOM     64  C   UNL     1     -10.173 -15.370   7.999  1.00  0.00     0.074 A 
ATOM     65  C   UNL     1     -10.361 -16.457   7.060  1.00  0.00     0.031 C 
ATOM     66  C   UNL     1     -10.495 -15.434   9.315  1.00  0.00     0.034 A 
BRANCH  53  67
ATOM     67  C   UNL     1      -8.917 -10.406  12.533  1.00  0.00     0.023 A 
ATOM     68  C   UNL     1      -9.756  -9.317  12.848  1.00  0.00     0.012 A 
ATOM     69  C   UNL     1      -8.047 -10.912  13.520  1.00  0.00     0.148 A 
ATOM     70  C   UNL     1      -9.706  -8.720  14.107  1.00  0.00     0.002 A 
ATOM     71  C   UNL     1      -8.035 -10.341  14.788  1.00  0.00     0.091 A 
ATOM     72  F   UNL     1      -7.247 -11.940  13.202  1.00  0.00    -0.205 F 
ATOM     73  C   UNL     1      -8.854  -9.237  15.079  1.00  0.00     0.022 A 
BRANCH  71  74
ATOM     74  S   UNL     1      -7.036 -10.983  16.137  1.00  0.00     0.127 S 
ATOM     75  O   UNL     1      -6.064  -9.907  16.322  1.00  0.00    -0.237 OA
ATOM     76  O   UNL     1      -8.019 -11.108  17.214  1.00  0.00    -0.237 OA
ATOM     77  O   UNL     1      -6.485 -12.246  15.666  1.00  0.00    -0.744 OA
ENDBRANCH  71  74
ENDBRANCH  53  67
BRANCH  54  78
ATOM     78  C   UNL     1      -8.864 -14.697   3.522  1.00  0.00     0.023 A 
ATOM     79  C   UNL     1     -10.051 -15.063   2.857  1.00  0.00     0.012 A 
ATOM     80  C   UNL     1      -7.624 -14.966   2.910  1.00  0.00     0.148 A 
ATOM     81  C   UNL     1     -10.004 -15.715   1.623  1.00  0.00     0.002 A 
ATOM     82  C   UNL     1      -7.586 -15.563   1.655  1.00  0.00     0.091 A 
ATOM     83  F   UNL     1      -6.506 -14.624   3.565  1.00  0.00    -0.205 F 
ATOM     84  C   UNL     1      -8.773 -15.955   1.018  1.00  0.00     0.022 A 
BRANCH  82  85
ATOM     85  S   UNL     1      -6.056 -15.797   0.743  1.00  0.00     0.127 S 
ATOM     86  O   UNL     1      -5.915 -17.251   0.763  1.00  0.00    -0.237 OA
ATOM     87  O   UNL     1      -6.395 -15.230  -0.563  1.00  0.00    -0.237 OA
ATOM     88  O   UNL     1      -5.042 -15.053   1.476  1.00  0.00    -0.744 OA
ENDBRANCH  82  85
ENDBRANCH  54  78
BRANCH  66  89
ATOM     89  C   UNL     1     -11.119 -16.708   9.825  1.00  0.00     0.023 A 
ATOM     90  C   UNL     1     -10.338 -17.873   9.954  1.00  0.00     0.012 A 
ATOM     91  C   UNL     1     -12.461 -16.724  10.255  1.00  0.00     0.148 A 
ATOM     92  C   UNL     1     -10.891 -19.043  10.473  1.00  0.00     0.002 A 
ATOM     93  C   UNL     1     -12.990 -17.878  10.821  1.00  0.00     0.091 A 
ATOM     94  F   UNL     1     -13.193 -15.610  10.110  1.00  0.00    -0.205 F 
ATOM     95  C   UNL     1     -12.211 -19.042  10.919  1.00  0.00     0.022 A 
BRANCH  93  96
ATOM     96  S   UNL     1     -14.647 -17.943  11.513  1.00  0.00     0.127 S 
ATOM     97  O   UNL     1     -15.328 -18.830  10.572  1.00  0.00    -0.237 OA
ATOM     98  O   UNL     1     -14.407 -18.524  12.834  1.00  0.00    -0.237 OA
ATOM     99  O   UNL     1     -15.131 -16.569  11.534  1.00  0.00    -0.744 OA
ENDBRANCH  93  96
ENDBRANCH  66  89
ENDBRANCH  40  41
ENDBRANCH  32  35
ENDBRANCH  30  31
ENDBRANCH   1  30
TORSDOF 16
