REMARK SMILES O=C(NCCCNC(=O)c1ccc(NC(=O)c2ccc([N+](=O)[O-])cc2Cl)cc1Cl)c1ccc(-c2c3nc(c(-c4cccc(S(=O)(=O)[O-])c4F)c4ccc([nH]4)c(-c4cccc(S(=O)(=O)[O-])c4F)c4nc(c(-c5cccc(S(=O)(=O)[O-])c5F)c5ccc2[nH]5)C=C4)C=C3)cc1
REMARK SMILES IDX 5 1 4 2 3 3 1 4 2 5 30 7 31 8 92 9 32 10 91 11 33 12 34 13
REMARK SMILES IDX 35 14 85 15 36 16 90 17 84 18 86 19 37 20 89 21 83 22 82 23
REMARK SMILES IDX 38 25 70 26 50 27 69 28 51 29 54 30 68 31 87 32 52 33 53 34
REMARK SMILES IDX 67 36 88 37 55 38 39 39 40 40 48 41 41 42 43 43 49 44 42 45
REMARK SMILES IDX 44 46 45 47 46 48 47 49 71 50 72 51 80 52 73 53 75 54 81 55
REMARK SMILES IDX 74 56 76 57 77 58 78 59 79 60 56 61 57 62 65 63 58 64 60 65
REMARK SMILES IDX 66 66 59 67 61 68 62 69 63 70 64 71 6 72 7 73 8 74 9 76
REMARK SMILES IDX 10 77 11 78 28 79 12 80 27 81 29 82 13 83 14 84 15 85 16 87
REMARK SMILES IDX 17 88 18 89 25 90 19 91 24 92 26 93 20 94 21 95 22 96 23 97
REMARK H PARENT 3 6 86 24 54 35 7 75 14 86
REMARK Flexibility Score: inf
ROOT
ATOM      1  C   UNL     1       5.117  -0.641   2.270  1.00  0.00     0.042 C 
ENDROOT
BRANCH   1   2
ATOM      2  C   UNL     1       4.660  -1.028   0.871  1.00  0.00     0.118 C 
BRANCH   2   3
ATOM      3  N   UNL     1       3.213  -0.999   0.715  1.00  0.00    -0.352 N 
ATOM      4  O   UNL     1       1.193  -0.197   0.144  1.00  0.00    -0.269 OA
ATOM      5  C   UNL     1       2.413  -0.151  -0.011  1.00  0.00     0.251 C 
ATOM      6  H   UNL     1       2.730  -1.701   1.208  1.00  0.00     0.163 HD
BRANCH   5   7
ATOM      7  C   UNL     1       3.008   0.827  -0.946  1.00  0.00     0.039 A 
ATOM      8  C   UNL     1       4.063   0.469  -1.789  1.00  0.00     0.014 A 
ATOM      9  C   UNL     1       2.486   2.122  -0.994  1.00  0.00     0.014 A 
ATOM     10  C   UNL     1       4.700   1.438  -2.557  1.00  0.00     0.010 A 
ATOM     11  C   UNL     1       3.065   3.071  -1.839  1.00  0.00     0.010 A 
ATOM     12  C   UNL     1       4.200   2.746  -2.600  1.00  0.00    -0.014 A 
BRANCH  12  13
ATOM     13  C   UNL     1       4.824   3.756  -3.490  1.00  0.00     0.031 A 
ATOM     14  C   UNL     1       5.429   5.009  -2.925  1.00  0.00     0.074 A 
ATOM     15  C   UNL     1       4.787   3.562  -4.822  1.00  0.00     0.049 A 
ATOM     16  N   UNL     1       5.923   6.043  -3.556  1.00  0.00    -0.248 NA
ATOM     17  C   UNL     1       5.475   5.123  -1.458  1.00  0.00     0.031 C 
ATOM     18  C   UNL     1       4.200   2.397  -5.486  1.00  0.00     0.029 A 
ATOM     19  N   UNL     1       5.218   4.354  -5.857  1.00  0.00    -0.354 N 
ATOM     20  C   UNL     1       6.288   6.952  -2.571  1.00  0.00     0.074 A 
ATOM     21  C   UNL     1       5.958   6.347  -1.298  1.00  0.00     0.031 C 
ATOM     22  C   UNL     1       4.292   2.554  -6.813  1.00  0.00     0.029 A 
ATOM     23  C   UNL     1       4.884   3.857  -7.094  1.00  0.00     0.049 A 
ATOM     24  H   UNL     1       5.716   5.193  -5.726  1.00  0.00     0.167 HD
ATOM     25  C   UNL     1       6.850   8.177  -2.716  1.00  0.00     0.034 A 
ATOM     26  C   UNL     1       4.992   4.404  -8.319  1.00  0.00     0.034 A 
ATOM     27  C   UNL     1       7.185   8.760  -3.989  1.00  0.00     0.049 A 
ATOM     28  C   UNL     1       5.611   5.763  -8.459  1.00  0.00     0.074 A 
ATOM     29  C   UNL     1       7.823   9.961  -4.242  1.00  0.00     0.029 A 
ATOM     30  N   UNL     1       6.889   8.197  -5.221  1.00  0.00    -0.354 N 
ATOM     31  N   UNL     1       6.059   6.561  -7.520  1.00  0.00    -0.248 NA
ATOM     32  C   UNL     1       5.769   6.288  -9.822  1.00  0.00     0.031 C 
ATOM     33  C   UNL     1       7.871  10.145  -5.628  1.00  0.00     0.029 A 
ATOM     34  C   UNL     1       7.312   9.034  -6.239  1.00  0.00     0.049 A 
ATOM     35  H   UNL     1       6.444   7.329  -5.353  1.00  0.00     0.167 HD
ATOM     36  C   UNL     1       6.587   7.664  -8.177  1.00  0.00     0.074 A 
ATOM     37  C   UNL     1       6.405   7.431  -9.596  1.00  0.00     0.031 C 
ATOM     38  C   UNL     1       7.170   8.768  -7.650  1.00  0.00     0.034 A 
BRANCH  25  39
ATOM     39  C   UNL     1       7.134   8.969  -1.465  1.00  0.00     0.023 A 
ATOM     40  C   UNL     1       8.149   8.552  -0.579  1.00  0.00     0.012 A 
ATOM     41  C   UNL     1       6.415  10.148  -1.182  1.00  0.00     0.148 A 
ATOM     42  C   UNL     1       8.407   9.264   0.592  1.00  0.00     0.002 A 
ATOM     43  C   UNL     1       6.712  10.879  -0.037  1.00  0.00     0.091 A 
ATOM     44  F   UNL     1       5.441  10.523  -2.024  1.00  0.00    -0.205 F 
ATOM     45  C   UNL     1       7.695  10.431   0.859  1.00  0.00     0.022 A 
BRANCH  43  46
ATOM     46  S   UNL     1       5.906  12.438   0.346  1.00  0.00     0.127 S 
ATOM     47  O   UNL     1       4.999  12.044   1.423  1.00  0.00    -0.237 OA
ATOM     48  O   UNL     1       7.030  13.272   0.772  1.00  0.00    -0.237 OA
ATOM     49  O   UNL     1       5.267  12.871  -0.889  1.00  0.00    -0.744 OA
ENDBRANCH  43  46
ENDBRANCH  25  39
BRANCH  26  50
ATOM     50  C   UNL     1       4.509   3.636  -9.499  1.00  0.00     0.023 A 
ATOM     51  C   UNL     1       5.439   3.068 -10.389  1.00  0.00     0.012 A 
ATOM     52  C   UNL     1       3.134   3.389  -9.684  1.00  0.00     0.148 A 
ATOM     53  C   UNL     1       5.006   2.278 -11.454  1.00  0.00     0.002 A 
ATOM     54  C   UNL     1       2.714   2.555 -10.712  1.00  0.00     0.091 A 
ATOM     55  F   UNL     1       2.269   3.942  -8.822  1.00  0.00    -0.205 F 
ATOM     56  C   UNL     1       3.647   2.011 -11.608  1.00  0.00     0.022 A 
BRANCH  54  57
ATOM     57  S   UNL     1       1.004   2.040 -10.903  1.00  0.00     0.127 S 
ATOM     58  O   UNL     1       0.656   2.634 -12.191  1.00  0.00    -0.237 OA
ATOM     59  O   UNL     1       1.133   0.582 -10.911  1.00  0.00    -0.237 OA
ATOM     60  O   UNL     1       0.295   2.579  -9.751  1.00  0.00    -0.744 OA
ENDBRANCH  54  57
ENDBRANCH  26  50
BRANCH  38  61
ATOM     61  C   UNL     1       7.720   9.799  -8.600  1.00  0.00     0.023 A 
ATOM     62  C   UNL     1       6.851  10.657  -9.300  1.00  0.00     0.012 A 
ATOM     63  C   UNL     1       9.113   9.987  -8.702  1.00  0.00     0.148 A 
ATOM     64  C   UNL     1       7.361  11.679 -10.099  1.00  0.00     0.002 A 
ATOM     65  C   UNL     1       9.613  11.039  -9.457  1.00  0.00     0.091 A 
ATOM     66  F   UNL     1       9.920   9.144  -8.042  1.00  0.00    -0.205 F 
ATOM     67  C   UNL     1       8.739  11.880 -10.165  1.00  0.00     0.022 A 
BRANCH  65  68
ATOM     68  S   UNL     1      11.363  11.439  -9.515  1.00  0.00     0.127 S 
ATOM     69  O   UNL     1      11.690  11.143 -10.909  1.00  0.00    -0.237 OA
ATOM     70  O   UNL     1      11.364  12.862  -9.176  1.00  0.00    -0.237 OA
ATOM     71  O   UNL     1      12.008  10.579  -8.532  1.00  0.00    -0.744 OA
ENDBRANCH  65  68
ENDBRANCH  38  61
ENDBRANCH  12  13
ENDBRANCH   5   7
ENDBRANCH   2   3
ENDBRANCH   1   2
BRANCH   1  72
ATOM     72  C   UNL     1       4.569  -1.518   3.386  1.00  0.00     0.118 C 
BRANCH  72  73
ATOM     73  N   UNL     1       4.859  -2.934   3.216  1.00  0.00    -0.352 N 
ATOM     74  C   UNL     1       5.321  -3.857   4.117  1.00  0.00     0.252 C 
ATOM     75  H   UNL     1       4.696  -3.284   2.310  1.00  0.00     0.163 HD
ATOM     76  O   UNL     1       5.517  -5.016   3.757  1.00  0.00    -0.269 OA
BRANCH  74  77
ATOM     77  C   UNL     1       5.707  -3.462   5.485  1.00  0.00     0.058 A 
ATOM     78  C   UNL     1       6.991  -3.834   5.885  1.00  0.00     0.017 A 
ATOM     79  C   UNL     1       4.885  -2.797   6.394  1.00  0.00     0.055 A 
ATOM     80  C   UNL     1       7.484  -3.439   7.129  1.00  0.00     0.027 A 
ATOM     81  C   UNL     1       5.423  -2.323   7.601  1.00  0.00     0.047 A 
ATOM     82  Cl  UNL     1       3.190  -2.580   6.143  1.00  0.00    -0.083 Cl
ATOM     83  C   UNL     1       6.752  -2.588   7.953  1.00  0.00     0.043 A 
BRANCH  83  84
ATOM     84  N   UNL     1       7.244  -1.964   9.120  1.00  0.00    -0.322 N 
ATOM     85  C   UNL     1       8.506  -1.838   9.663  1.00  0.00     0.257 C 
ATOM     86  H   UNL     1       6.541  -1.531   9.657  1.00  0.00     0.170 HD
ATOM     87  O   UNL     1       8.662  -1.291  10.753  1.00  0.00    -0.269 OA
BRANCH  85  88
ATOM     88  C   UNL     1       9.691  -2.396   8.999  1.00  0.00     0.059 A 
ATOM     89  C   UNL     1      10.248  -3.544   9.583  1.00  0.00     0.022 A 
ATOM     90  C   UNL     1      10.190  -1.895   7.789  1.00  0.00     0.060 A 
ATOM     91  C   UNL     1      11.224  -4.265   8.896  1.00  0.00     0.086 A 
ATOM     92  C   UNL     1      11.157  -2.624   7.089  1.00  0.00     0.107 A 
ATOM     93  Cl  UNL     1       9.590  -0.443   7.075  1.00  0.00    -0.083 Cl
ATOM     94  C   UNL     1      11.642  -3.824   7.632  1.00  0.00     0.270 A 
BRANCH  94  95
ATOM     95  N   UNL     1      12.547  -4.665   6.841  1.00  0.00     0.062 N 
ATOM     96  O   UNL     1      13.101  -5.612   7.418  1.00  0.00    -0.258 OA
ATOM     97  O   UNL     1      12.676  -4.396   5.640  1.00  0.00    -0.258 OA
ENDBRANCH  94  95
ENDBRANCH  85  88
ENDBRANCH  83  84
ENDBRANCH  74  77
ENDBRANCH  72  73
ENDBRANCH   1  72
TORSDOF 16
