REMARK SMILES [NH3+]CC1([C@H](O)C(=O)NCCCNC(=O)c2ccc(-c3c4nc(c(-c5cccc(S(=O)(=O)[O-])c5F)c5ccc([nH]5)c(-c5cccc(S(=O)(=O)[O-])c5F)c5nc(c(-c6cccc(S(=O)(=O)[O-])c6F)c6ccc3[nH]6)C=C5)C=C4)cc2)Cc2ccccc2C1
REMARK SMILES IDX 10 1 9 2 8 3 6 4 7 5 4 7 3 8 78 9 85 10 79 11 84 12 80 13
REMARK SMILES IDX 83 14 81 15 82 16 2 17 1 18 5 22 11 24 12 25 13 26 14 28
REMARK SMILES IDX 15 29 16 30 77 31 17 32 76 33 18 34 19 35 20 36 70 37 21 38
REMARK SMILES IDX 75 39 69 40 71 41 22 42 74 43 68 44 67 45 23 47 55 48 35 49
REMARK SMILES IDX 54 50 36 51 39 52 53 53 72 54 37 55 38 56 52 58 73 59 40 60
REMARK SMILES IDX 24 61 25 62 33 63 26 64 28 65 34 66 27 67 29 68 30 69 31 70
REMARK SMILES IDX 32 71 56 72 57 73 65 74 58 75 60 76 66 77 59 78 61 79 62 80
REMARK SMILES IDX 63 81 64 82 41 83 42 84 50 85 43 86 45 87 51 88 44 89 46 90
REMARK SMILES IDX 47 91 48 92 49 93
REMARK H PARENT 8 6 1 19 1 20 1 21 5 23 12 27 71 46 39 57
REMARK Flexibility Score: inf
ROOT
ATOM      1  C   UNL     1       0.915  -0.176  -1.226  1.00  0.00     0.042 C 
ENDROOT
BRANCH   1   2
ATOM      2  C   UNL     1       1.782  -0.665  -0.087  1.00  0.00     0.117 C 
BRANCH   2   3
ATOM      3  N   UNL     1       2.748   0.285   0.426  1.00  0.00    -0.354 N 
ATOM      4  C   UNL     1       3.279   0.284   1.691  1.00  0.00     0.249 C 
ATOM      5  O   UNL     1       4.400   0.766   1.866  1.00  0.00    -0.272 OA
ATOM      6  H   UNL     1       3.049   0.995  -0.186  1.00  0.00     0.163 HD
BRANCH   4   7
ATOM      7  C   UNL     1       2.454  -0.276   2.878  1.00  0.00     0.215 C 
BRANCH   7   8
ATOM      8  C   UNL     1       2.688  -1.786   3.280  1.00  0.00     0.062 C 
ATOM      9  C   UNL     1       3.240  -2.733   2.158  1.00  0.00     0.052 C 
ATOM     10  C   UNL     1       1.335  -2.466   3.687  1.00  0.00     0.052 C 
ATOM     11  C   UNL     1       1.999  -3.332   1.572  1.00  0.00    -0.044 A 
ATOM     12  C   UNL     1       0.901  -3.100   2.400  1.00  0.00    -0.044 A 
ATOM     13  C   UNL     1       1.855  -3.970   0.347  1.00  0.00     0.004 A 
ATOM     14  C   UNL     1      -0.380  -3.426   1.986  1.00  0.00     0.004 A 
ATOM     15  C   UNL     1       0.567  -4.287  -0.085  1.00  0.00     0.000 A 
ATOM     16  C   UNL     1      -0.544  -4.003   0.723  1.00  0.00     0.000 A 
BRANCH   8  17
ATOM     17  C   UNL     1       3.668  -1.833   4.483  1.00  0.00     0.269 C 
BRANCH  17  18
ATOM     18  N   UNL     1       5.026  -1.372   4.198  1.00  0.00    -0.357 N 
ATOM     19  H   UNL     1       5.593  -1.440   5.043  1.00  0.00     0.344 HD
ATOM     20  H   UNL     1       4.997  -0.401   3.885  1.00  0.00     0.344 HD
ATOM     21  H   UNL     1       5.436  -1.952   3.466  1.00  0.00     0.344 HD
ENDBRANCH  17  18
ENDBRANCH   8  17
ENDBRANCH   7   8
BRANCH   7  22
ATOM     22  O   UNL     1       1.072   0.079   2.818  1.00  0.00    -0.382 OA
ATOM     23  H   UNL     1       0.653  -0.379   2.073  1.00  0.00     0.211 HD
ENDBRANCH   7  22
ENDBRANCH   4   7
ENDBRANCH   2   3
ENDBRANCH   1   2
BRANCH   1  24
ATOM     24  C   UNL     1       1.640  -0.126  -2.562  1.00  0.00     0.118 C 
BRANCH  24  25
ATOM     25  N   UNL     1       2.127  -1.430  -3.015  1.00  0.00    -0.352 N 
ATOM     26  C   UNL     1       1.710  -2.265  -4.031  1.00  0.00     0.251 C 
ATOM     27  H   UNL     1       2.892  -1.774  -2.500  1.00  0.00     0.163 HD
ATOM     28  O   UNL     1       2.175  -3.391  -4.110  1.00  0.00    -0.269 OA
BRANCH  26  29
ATOM     29  C   UNL     1       0.685  -1.813  -5.001  1.00  0.00     0.039 A 
ATOM     30  C   UNL     1      -0.290  -2.715  -5.437  1.00  0.00     0.014 A 
ATOM     31  C   UNL     1       0.673  -0.502  -5.472  1.00  0.00     0.014 A 
ATOM     32  C   UNL     1      -1.340  -2.265  -6.244  1.00  0.00     0.010 A 
ATOM     33  C   UNL     1      -0.433  -0.029  -6.164  1.00  0.00     0.010 A 
ATOM     34  C   UNL     1      -1.456  -0.902  -6.557  1.00  0.00    -0.014 A 
BRANCH  34  35
ATOM     35  C   UNL     1      -2.642  -0.345  -7.263  1.00  0.00     0.031 A 
ATOM     36  C   UNL     1      -2.462   0.446  -8.533  1.00  0.00     0.074 A 
ATOM     37  C   UNL     1      -3.857  -0.422  -6.683  1.00  0.00     0.049 A 
ATOM     38  N   UNL     1      -3.344   1.140  -9.204  1.00  0.00    -0.248 NA
ATOM     39  C   UNL     1      -1.103   0.504  -9.099  1.00  0.00     0.031 C 
ATOM     40  C   UNL     1      -4.148  -1.068  -5.399  1.00  0.00     0.029 A 
ATOM     41  N   UNL     1      -5.073   0.082  -7.077  1.00  0.00    -0.354 N 
ATOM     42  C   UNL     1      -2.639   1.762 -10.227  1.00  0.00     0.074 A 
ATOM     43  C   UNL     1      -1.250   1.391 -10.072  1.00  0.00     0.031 C 
ATOM     44  C   UNL     1      -5.452  -0.925  -5.116  1.00  0.00     0.029 A 
ATOM     45  C   UNL     1      -6.086  -0.148  -6.175  1.00  0.00     0.049 A 
ATOM     46  H   UNL     1      -5.206   0.563  -7.926  1.00  0.00     0.167 HD
ATOM     47  C   UNL     1      -3.108   2.544 -11.228  1.00  0.00     0.034 A 
ATOM     48  C   UNL     1      -7.379   0.234  -6.191  1.00  0.00     0.034 A 
ATOM     49  C   UNL     1      -4.500   2.838 -11.430  1.00  0.00     0.049 A 
ATOM     50  C   UNL     1      -7.890   1.026  -7.363  1.00  0.00     0.074 A 
ATOM     51  C   UNL     1      -5.092   3.509 -12.484  1.00  0.00     0.029 A 
ATOM     52  N   UNL     1      -5.518   2.475 -10.563  1.00  0.00    -0.354 N 
ATOM     53  N   UNL     1      -7.236   1.455  -8.415  1.00  0.00    -0.248 NA
ATOM     54  C   UNL     1      -9.322   1.359  -7.369  1.00  0.00     0.031 C 
ATOM     55  C   UNL     1      -6.470   3.561 -12.249  1.00  0.00     0.029 A 
ATOM     56  C   UNL     1      -6.735   2.911 -11.055  1.00  0.00     0.049 A 
ATOM     57  H   UNL     1      -5.393   1.979  -9.721  1.00  0.00     0.167 HD
ATOM     58  C   UNL     1      -8.180   2.080  -9.221  1.00  0.00     0.074 A 
ATOM     59  C   UNL     1      -9.456   1.951  -8.548  1.00  0.00     0.031 C 
ATOM     60  C   UNL     1      -8.004   2.721 -10.402  1.00  0.00     0.034 A 
BRANCH  47  61
ATOM     61  C   UNL     1      -2.118   3.075 -12.231  1.00  0.00     0.023 A 
ATOM     62  C   UNL     1      -1.540   2.193 -13.167  1.00  0.00     0.012 A 
ATOM     63  C   UNL     1      -1.811   4.448 -12.294  1.00  0.00     0.148 A 
ATOM     64  C   UNL     1      -0.649   2.663 -14.130  1.00  0.00     0.002 A 
ATOM     65  C   UNL     1      -0.955   4.916 -13.284  1.00  0.00     0.091 A 
ATOM     66  F   UNL     1      -2.354   5.267 -11.382  1.00  0.00    -0.205 F 
ATOM     67  C   UNL     1      -0.366   4.024 -14.196  1.00  0.00     0.022 A 
BRANCH  65  68
ATOM     68  S   UNL     1      -0.585   6.660 -13.504  1.00  0.00     0.127 S 
ATOM     69  O   UNL     1       0.811   6.721 -13.074  1.00  0.00    -0.237 OA
ATOM     70  O   UNL     1      -0.789   6.839 -14.942  1.00  0.00    -0.237 OA
ATOM     71  O   UNL     1      -1.530   7.380 -12.662  1.00  0.00    -0.744 OA
ENDBRANCH  65  68
ENDBRANCH  47  61
BRANCH  48  72
ATOM     72  C   UNL     1      -8.296  -0.191  -5.095  1.00  0.00     0.023 A 
ATOM     73  C   UNL     1      -9.288  -1.155  -5.364  1.00  0.00     0.012 A 
ATOM     74  C   UNL     1      -8.178   0.324  -3.790  1.00  0.00     0.148 A 
ATOM     75  C   UNL     1     -10.167  -1.572  -4.364  1.00  0.00     0.002 A 
ATOM     76  C   UNL     1      -9.021  -0.137  -2.784  1.00  0.00     0.091 A 
ATOM     77  F   UNL     1      -7.239   1.251  -3.554  1.00  0.00    -0.205 F 
ATOM     78  C   UNL     1     -10.027  -1.072  -3.073  1.00  0.00     0.022 A 
BRANCH  76  79
ATOM     79  S   UNL     1      -8.816   0.352  -1.068  1.00  0.00     0.127 S 
ATOM     80  O   UNL     1      -9.899   1.317  -0.899  1.00  0.00    -0.237 OA
ATOM     81  O   UNL     1      -9.005  -0.916  -0.362  1.00  0.00    -0.237 OA
ATOM     82  O   UNL     1      -7.463   0.886  -0.979  1.00  0.00    -0.744 OA
ENDBRANCH  76  79
ENDBRANCH  48  72
BRANCH  60  83
ATOM     83  C   UNL     1      -9.219   3.313 -11.063  1.00  0.00     0.023 A 
ATOM     84  C   UNL     1      -9.789   4.491 -10.542  1.00  0.00     0.012 A 
ATOM     85  C   UNL     1      -9.739   2.754 -12.247  1.00  0.00     0.148 A 
ATOM     86  C   UNL     1     -10.877   5.090 -11.175  1.00  0.00     0.002 A 
ATOM     87  C   UNL     1     -10.794   3.382 -12.898  1.00  0.00     0.091 A 
ATOM     88  F   UNL     1      -9.193   1.623 -12.714  1.00  0.00    -0.205 F 
ATOM     89  C   UNL     1     -11.370   4.544 -12.358  1.00  0.00     0.022 A 
BRANCH  87  90
ATOM     90  S   UNL     1     -11.430   2.804 -14.475  1.00  0.00     0.127 S 
ATOM     91  O   UNL     1     -12.702   2.201 -14.079  1.00  0.00    -0.237 OA
ATOM     92  O   UNL     1     -11.554   4.047 -15.236  1.00  0.00    -0.237 OA
ATOM     93  O   UNL     1     -10.432   1.877 -14.992  1.00  0.00    -0.744 OA
ENDBRANCH  87  90
ENDBRANCH  60  83
ENDBRANCH  34  35
ENDBRANCH  26  29
ENDBRANCH  24  25
ENDBRANCH   1  24
TORSDOF 17
