REMARK SMILES Cc1cccc(C(=O)Nc2ccc(C(=O)NNC(=O)c3ccccc3C(=O)NCCCNC(=O)c3ccc(-c4c5nc(c(-c6cccc(S(=O)(=O)[O-])c6F)c6ccc([nH]6)c(-c6cccc(S(=O)(=O)[O-])c6F)c6nc(c(-c7cccc(S(=O)(=O)[O-])c7F)c7ccc4[nH]7)C=C6)C=C5)cc3)cc2)c1
REMARK SMILES IDX 29 1 28 2 26 3 27 4 25 6 20 7 21 8 22 9 24 10 23 11 18 12
REMARK SMILES IDX 17 13 19 15 16 16 14 17 15 18 13 20 10 21 11 22 99 23 12 24
REMARK SMILES IDX 98 25 9 26 7 27 8 28 6 30 1 31 2 32 3 33 100 34 4 35 5 36
REMARK SMILES IDX 30 37 31 38 32 39 33 40 34 42 35 43 36 44 97 45 37 46 96 47
REMARK SMILES IDX 38 48 39 49 40 50 90 51 41 52 95 53 89 54 91 55 42 56 94 57
REMARK SMILES IDX 88 58 87 59 43 61 75 62 55 63 74 64 56 65 59 66 73 67 92 68
REMARK SMILES IDX 57 69 58 70 72 72 93 73 60 74 44 75 45 76 53 77 46 78 48 79
REMARK SMILES IDX 54 80 47 81 49 82 50 83 51 84 52 85 76 86 77 87 85 88 78 89
REMARK SMILES IDX 80 90 86 91 79 92 81 93 82 94 83 95 84 96 61 97 62 98 70 99
REMARK SMILES IDX 63 100 65 101 71 102 64 103 66 104 67 105 68 106 69 107
REMARK H PARENT 28 5 17 14 16 19 9 29 32 41 91 60 59 71
REMARK Flexibility Score: inf
ROOT
ATOM      1  C   UNL     1       4.018   1.015  -2.635  1.00  0.00     0.118 C 
ENDROOT
BRANCH   1   2
ATOM      2  N   UNL     1       4.066   0.588  -1.220  1.00  0.00    -0.352 N 
ATOM      3  C   UNL     1       5.125   0.282  -0.377  1.00  0.00     0.252 C 
ATOM      4  O   UNL     1       4.981   0.284   0.847  1.00  0.00    -0.269 OA
ATOM      5  H   UNL     1       3.181   0.505  -0.797  1.00  0.00     0.163 HD
BRANCH   3   6
ATOM      6  C   UNL     1       6.464  -0.098  -0.873  1.00  0.00     0.052 A 
ATOM      7  C   UNL     1       7.118   0.620  -1.871  1.00  0.00     0.054 A 
ATOM      8  C   UNL     1       8.147  -0.000  -2.587  1.00  0.00     0.015 A 
ATOM      9  C   UNL     1       8.680  -1.208  -2.121  1.00  0.00     0.001 A 
ATOM     10  C   UNL     1       7.105  -1.204  -0.299  1.00  0.00     0.014 A 
ATOM     11  C   UNL     1       8.229  -1.750  -0.916  1.00  0.00     0.001 A 
BRANCH   7  12
ATOM     12  C   UNL     1       6.770   2.050  -2.057  1.00  0.00     0.270 C 
ATOM     13  N   UNL     1       6.437   2.705  -0.885  1.00  0.00    -0.263 N 
ATOM     14  H   UNL     1       6.766   2.344  -0.030  1.00  0.00     0.191 HD
ATOM     15  O   UNL     1       6.778   2.552  -3.192  1.00  0.00    -0.267 OA
BRANCH  13  16
ATOM     16  N   UNL     1       5.640   3.875  -0.869  1.00  0.00    -0.263 N 
ATOM     17  C   UNL     1       5.063   4.201   0.359  1.00  0.00     0.269 C 
ATOM     18  O   UNL     1       5.591   5.043   1.082  1.00  0.00    -0.267 OA
ATOM     19  H   UNL     1       5.502   4.425  -1.674  1.00  0.00     0.191 HD
BRANCH  17  20
ATOM     20  C   UNL     1       3.760   3.567   0.761  1.00  0.00     0.041 A 
ATOM     21  C   UNL     1       1.113   2.772   1.473  1.00  0.00     0.041 A 
ATOM     22  C   UNL     1       1.562   2.686   0.164  1.00  0.00     0.027 A 
ATOM     23  C   UNL     1       2.000   3.244   2.436  1.00  0.00     0.027 A 
ATOM     24  C   UNL     1       2.862   3.096  -0.189  1.00  0.00     0.016 A 
ATOM     25  C   UNL     1       3.315   3.629   2.087  1.00  0.00     0.016 A 
BRANCH  21  26
ATOM     26  N   UNL     1      -0.230   2.491   1.811  1.00  0.00    -0.322 N 
ATOM     27  C   UNL     1      -1.145   1.685   1.149  1.00  0.00     0.255 C 
ATOM     28  O   UNL     1      -2.322   2.012   1.020  1.00  0.00    -0.269 OA
ATOM     29  H   UNL     1      -0.562   2.927   2.629  1.00  0.00     0.170 HD
BRANCH  27  30
ATOM     30  C   UNL     1      -0.736   0.332   0.673  1.00  0.00     0.040 A 
ATOM     31  C   UNL     1       2.384  -1.793   0.583  1.00  0.00     0.044 C 
ATOM     32  C   UNL     1       0.954  -1.397   0.408  1.00  0.00    -0.050 A 
ATOM     33  C   UNL     1       0.037  -2.194  -0.275  1.00  0.00     0.003 A 
ATOM     34  C   UNL     1       0.529  -0.185   0.947  1.00  0.00     0.017 A 
ATOM     35  C   UNL     1      -1.274  -1.750  -0.453  1.00  0.00     0.001 A 
ATOM     36  C   UNL     1      -1.654  -0.479  -0.007  1.00  0.00     0.014 A 
ENDBRANCH  27  30
ENDBRANCH  21  26
ENDBRANCH  17  20
ENDBRANCH  13  16
ENDBRANCH   7  12
ENDBRANCH   3   6
ENDBRANCH   1   2
BRANCH   1  37
ATOM     37  C   UNL     1       2.717   0.744  -3.412  1.00  0.00     0.042 C 
BRANCH  37  38
ATOM     38  C   UNL     1       1.527   1.738  -3.429  1.00  0.00     0.118 C 
BRANCH  38  39
ATOM     39  N   UNL     1       1.708   3.048  -4.057  1.00  0.00    -0.352 N 
ATOM     40  C   UNL     1       0.598   3.918  -4.168  1.00  0.00     0.251 C 
ATOM     41  H   UNL     1       2.591   3.319  -4.398  1.00  0.00     0.163 HD
ATOM     42  O   UNL     1      -0.021   4.004  -5.227  1.00  0.00    -0.269 OA
BRANCH  40  43
ATOM     43  C   UNL     1       0.282   4.758  -2.981  1.00  0.00     0.039 A 
ATOM     44  C   UNL     1      -0.977   5.181  -2.532  1.00  0.00     0.014 A 
ATOM     45  C   UNL     1       1.378   5.133  -2.254  1.00  0.00     0.014 A 
ATOM     46  C   UNL     1      -1.132   5.748  -1.230  1.00  0.00     0.010 A 
ATOM     47  C   UNL     1       1.193   5.607  -0.974  1.00  0.00     0.010 A 
ATOM     48  C   UNL     1      -0.044   5.843  -0.358  1.00  0.00    -0.014 A 
BRANCH  48  49
ATOM     49  C   UNL     1      -0.062   6.004   1.150  1.00  0.00     0.031 A 
ATOM     50  C   UNL     1      -1.225   5.609   2.044  1.00  0.00     0.074 A 
ATOM     51  C   UNL     1       1.101   6.351   1.789  1.00  0.00     0.049 A 
ATOM     52  N   UNL     1      -1.205   5.766   3.333  1.00  0.00    -0.248 NA
ATOM     53  C   UNL     1      -2.459   4.936   1.637  1.00  0.00     0.031 C 
ATOM     54  C   UNL     1       1.488   6.298   3.206  1.00  0.00     0.029 A 
ATOM     55  N   UNL     1       2.257   6.931   1.234  1.00  0.00    -0.354 N 
ATOM     56  C   UNL     1      -2.255   5.087   3.925  1.00  0.00     0.074 A 
ATOM     57  C   UNL     1      -3.027   4.611   2.812  1.00  0.00     0.031 C 
ATOM     58  C   UNL     1       2.559   7.092   3.413  1.00  0.00     0.029 A 
ATOM     59  C   UNL     1       2.760   7.822   2.176  1.00  0.00     0.049 A 
ATOM     60  H   UNL     1       2.638   6.742   0.346  1.00  0.00     0.167 HD
ATOM     61  C   UNL     1      -2.257   4.947   5.287  1.00  0.00     0.034 A 
ATOM     62  C   UNL     1       2.623   9.160   1.950  1.00  0.00     0.034 A 
ATOM     63  C   UNL     1      -1.270   5.868   5.879  1.00  0.00     0.049 A 
ATOM     64  C   UNL     1       1.850   9.778   3.080  1.00  0.00     0.074 A 
ATOM     65  C   UNL     1      -0.016   5.707   6.440  1.00  0.00     0.029 A 
ATOM     66  N   UNL     1      -1.457   7.239   5.712  1.00  0.00    -0.354 N 
ATOM     67  N   UNL     1       1.026   9.103   3.833  1.00  0.00    -0.248 NA
ATOM     68  C   UNL     1       2.042  11.143   3.545  1.00  0.00     0.031 C 
ATOM     69  C   UNL     1       0.603   6.992   6.479  1.00  0.00     0.029 A 
ATOM     70  C   UNL     1      -0.293   7.934   5.990  1.00  0.00     0.049 A 
ATOM     71  H   UNL     1      -2.304   7.658   5.434  1.00  0.00     0.167 HD
ATOM     72  C   UNL     1       0.616   9.868   4.879  1.00  0.00     0.074 A 
ATOM     73  C   UNL     1       1.278  11.145   4.653  1.00  0.00     0.031 C 
ATOM     74  C   UNL     1      -0.231   9.387   5.838  1.00  0.00     0.034 A 
BRANCH  61  75
ATOM     75  C   UNL     1      -3.010   3.928   6.160  1.00  0.00     0.023 A 
ATOM     76  C   UNL     1      -2.674   3.900   7.542  1.00  0.00     0.012 A 
ATOM     77  C   UNL     1      -3.936   2.936   5.749  1.00  0.00     0.148 A 
ATOM     78  C   UNL     1      -3.167   2.941   8.440  1.00  0.00     0.002 A 
ATOM     79  C   UNL     1      -4.453   1.988   6.654  1.00  0.00     0.091 A 
ATOM     80  F   UNL     1      -4.314   2.872   4.472  1.00  0.00    -0.205 F 
ATOM     81  C   UNL     1      -4.057   1.981   7.995  1.00  0.00     0.022 A 
BRANCH  79  82
ATOM     82  S   UNL     1      -5.635   0.701   6.190  1.00  0.00     0.127 S 
ATOM     83  O   UNL     1      -4.873  -0.522   6.449  1.00  0.00    -0.237 OA
ATOM     84  O   UNL     1      -6.736   0.932   7.125  1.00  0.00    -0.237 OA
ATOM     85  O   UNL     1      -5.967   0.932   4.791  1.00  0.00    -0.744 OA
ENDBRANCH  79  82
ENDBRANCH  61  75
BRANCH  62  86
ATOM     86  C   UNL     1       2.554   9.472   0.473  1.00  0.00     0.023 A 
ATOM     87  C   UNL     1       3.655   9.027  -0.315  1.00  0.00     0.012 A 
ATOM     88  C   UNL     1       1.333   9.722  -0.182  1.00  0.00     0.148 A 
ATOM     89  C   UNL     1       3.495   8.670  -1.658  1.00  0.00     0.002 A 
ATOM     90  C   UNL     1       1.190   9.388  -1.536  1.00  0.00     0.091 A 
ATOM     91  F   UNL     1       0.314  10.229   0.524  1.00  0.00    -0.205 F 
ATOM     92  C   UNL     1       2.253   8.821  -2.259  1.00  0.00     0.022 A 
BRANCH  90  93
ATOM     93  S   UNL     1      -0.386   9.575  -2.387  1.00  0.00     0.127 S 
ATOM     94  O   UNL     1      -0.305  10.960  -2.847  1.00  0.00    -0.237 OA
ATOM     95  O   UNL     1      -0.308   8.582  -3.462  1.00  0.00    -0.237 OA
ATOM     96  O   UNL     1      -1.397   9.289  -1.380  1.00  0.00    -0.744 OA
ENDBRANCH  90  93
ENDBRANCH  62  86
BRANCH  74  97
ATOM     97  C   UNL     1      -1.069  10.280   6.723  1.00  0.00     0.023 A 
ATOM     98  C   UNL     1      -1.286  11.635   6.402  1.00  0.00     0.012 A 
ATOM     99  C   UNL     1      -1.827   9.750   7.795  1.00  0.00     0.148 A 
ATOM    100  C   UNL     1      -2.139  12.450   7.146  1.00  0.00     0.002 A 
ATOM    101  C   UNL     1      -2.772  10.533   8.451  1.00  0.00     0.091 A 
ATOM    102  F   UNL     1      -1.638   8.484   8.192  1.00  0.00    -0.205 F 
ATOM    103  C   UNL     1      -2.902  11.892   8.157  1.00  0.00     0.022 A 
BRANCH 101 104
ATOM    104  S   UNL     1      -3.979   9.798   9.561  1.00  0.00     0.127 S 
ATOM    105  O   UNL     1      -3.382  10.059  10.869  1.00  0.00    -0.237 OA
ATOM    106  O   UNL     1      -5.183  10.581   9.273  1.00  0.00    -0.237 OA
ATOM    107  O   UNL     1      -4.067   8.401   9.161  1.00  0.00    -0.744 OA
ENDBRANCH 101 104
ENDBRANCH  74  97
ENDBRANCH  48  49
ENDBRANCH  40  43
ENDBRANCH  38  39
ENDBRANCH  37  38
ENDBRANCH   1  37
TORSDOF 18
