REMARK SMILES O=C(NCCCNC(=O)c1ccc(-n2cc(CSc3nc4ccccc4c(=O)n3-c3ccccc3)nn2)cc1)c1ccc(-c2c3nc(c(-c4cccc(S(=O)(=O)[O-])c4F)c4ccc([nH]4)c(-c4cccc(S(=O)(=O)[O-])c4F)c4nc(c(-c5cccc(S(=O)(=O)[O-])c5F)c5ccc2[nH]5)C=C4)C=C3)cc1
REMARK SMILES IDX 6 1 5 2 4 3 3 4 1 5 2 6 40 8 41 9 102 10 42 11 101 12 43 13
REMARK SMILES IDX 44 14 45 15 95 16 46 17 100 18 94 19 96 20 47 21 99 22 93 23
REMARK SMILES IDX 92 24 48 26 80 27 60 28 79 29 61 30 64 31 78 32 97 33 62 34
REMARK SMILES IDX 63 35 77 37 98 38 65 39 49 40 50 41 58 42 51 43 53 44 59 45
REMARK SMILES IDX 52 46 54 47 55 48 56 49 57 50 81 51 82 52 90 53 83 54 85 55
REMARK SMILES IDX 91 56 84 57 86 58 87 59 88 60 89 61 66 62 67 63 75 64 68 65
REMARK SMILES IDX 70 66 76 67 69 68 71 69 72 70 73 71 74 72 7 73 8 74 9 76
REMARK SMILES IDX 10 77 11 78 39 79 12 80 38 81 13 82 14 83 15 84 37 85 16 86
REMARK SMILES IDX 36 87 17 88 18 89 19 90 20 91 29 92 21 93 27 94 22 95 26 96
REMARK SMILES IDX 28 97 23 98 25 99 24 100 30 101 31 102 35 103 32 104 34 105
REMARK SMILES IDX 33 106
REMARK H PARENT 3 7 96 25 64 36 7 75
REMARK Flexibility Score: inf
ROOT
ATOM      1  C   UNL     1       4.327  -1.579  -3.335  1.00  0.00     0.118 C 
ENDROOT
BRANCH   1   2
ATOM      2  C   UNL     1       4.906  -1.276  -1.955  1.00  0.00     0.042 C 
BRANCH   2   3
ATOM      3  C   UNL     1       4.656   0.148  -1.465  1.00  0.00     0.118 C 
BRANCH   3   4
ATOM      4  N   UNL     1       3.265   0.547  -1.398  1.00  0.00    -0.352 N 
ATOM      5  O   UNL     1       1.238   1.036  -0.674  1.00  0.00    -0.269 OA
ATOM      6  C   UNL     1       2.266   0.385  -0.478  1.00  0.00     0.251 C 
ATOM      7  H   UNL     1       2.973   1.048  -2.194  1.00  0.00     0.163 HD
BRANCH   6   8
ATOM      8  C   UNL     1       2.311  -0.586   0.643  1.00  0.00     0.039 A 
ATOM      9  C   UNL     1       3.469  -1.171   1.162  1.00  0.00     0.014 A 
ATOM     10  C   UNL     1       1.061  -0.971   1.159  1.00  0.00     0.014 A 
ATOM     11  C   UNL     1       3.380  -2.227   2.060  1.00  0.00     0.010 A 
ATOM     12  C   UNL     1       0.967  -2.001   2.077  1.00  0.00     0.010 A 
ATOM     13  C   UNL     1       2.127  -2.665   2.474  1.00  0.00    -0.014 A 
BRANCH  13  14
ATOM     14  C   UNL     1       2.047  -3.766   3.426  1.00  0.00     0.031 A 
ATOM     15  C   UNL     1       2.510  -3.436   4.809  1.00  0.00     0.074 A 
ATOM     16  C   UNL     1       1.403  -4.904   3.092  1.00  0.00     0.049 A 
ATOM     17  N   UNL     1       3.347  -4.078   5.562  1.00  0.00    -0.248 NA
ATOM     18  C   UNL     1       2.053  -2.159   5.386  1.00  0.00     0.031 C 
ATOM     19  C   UNL     1       0.676  -5.177   1.846  1.00  0.00     0.029 A 
ATOM     20  N   UNL     1       1.096  -5.981   3.867  1.00  0.00    -0.354 N 
ATOM     21  C   UNL     1       3.350  -3.398   6.784  1.00  0.00     0.074 A 
ATOM     22  C   UNL     1       2.677  -2.147   6.563  1.00  0.00     0.031 C 
ATOM     23  C   UNL     1      -0.206  -6.176   2.060  1.00  0.00     0.029 A 
ATOM     24  C   UNL     1      -0.017  -6.683   3.407  1.00  0.00     0.049 A 
ATOM     25  H   UNL     1       1.607  -6.237   4.669  1.00  0.00     0.167 HD
ATOM     26  C   UNL     1       3.688  -4.003   7.955  1.00  0.00     0.034 A 
ATOM     27  C   UNL     1      -0.806  -7.516   4.130  1.00  0.00     0.034 A 
ATOM     28  C   UNL     1       4.445  -5.204   7.746  1.00  0.00     0.049 A 
ATOM     29  C   UNL     1      -0.045  -7.913   5.337  1.00  0.00     0.074 A 
ATOM     30  C   UNL     1       5.658  -5.508   7.162  1.00  0.00     0.029 A 
ATOM     31  N   UNL     1       3.780  -6.398   7.871  1.00  0.00    -0.354 N 
ATOM     32  N   UNL     1       1.047  -8.623   5.296  1.00  0.00    -0.248 NA
ATOM     33  C   UNL     1      -0.246  -7.136   6.549  1.00  0.00     0.031 C 
ATOM     34  C   UNL     1       5.444  -6.761   6.516  1.00  0.00     0.029 A 
ATOM     35  C   UNL     1       4.135  -7.162   6.792  1.00  0.00     0.049 A 
ATOM     36  H   UNL     1       3.166  -6.655   8.596  1.00  0.00     0.167 HD
ATOM     37  C   UNL     1       1.871  -8.043   6.250  1.00  0.00     0.074 A 
ATOM     38  C   UNL     1       0.988  -7.199   7.054  1.00  0.00     0.031 C 
ATOM     39  C   UNL     1       3.231  -8.066   6.120  1.00  0.00     0.034 A 
BRANCH  26  40
ATOM     40  C   UNL     1       3.029  -3.708   9.284  1.00  0.00     0.023 A 
ATOM     41  C   UNL     1       3.611  -4.263  10.445  1.00  0.00     0.012 A 
ATOM     42  C   UNL     1       1.727  -3.169   9.413  1.00  0.00     0.148 A 
ATOM     43  C   UNL     1       2.913  -4.324  11.657  1.00  0.00     0.002 A 
ATOM     44  C   UNL     1       1.068  -3.164  10.637  1.00  0.00     0.091 A 
ATOM     45  F   UNL     1       1.053  -2.781   8.326  1.00  0.00    -0.205 F 
ATOM     46  C   UNL     1       1.643  -3.768  11.756  1.00  0.00     0.022 A 
BRANCH  44  47
ATOM     47  S   UNL     1      -0.557  -2.422  10.824  1.00  0.00     0.127 S 
ATOM     48  O   UNL     1      -1.412  -3.603  10.877  1.00  0.00    -0.237 OA
ATOM     49  O   UNL     1      -0.414  -1.701  12.089  1.00  0.00    -0.237 OA
ATOM     50  O   UNL     1      -0.722  -1.556   9.663  1.00  0.00    -0.744 OA
ENDBRANCH  44  47
ENDBRANCH  26  40
BRANCH  27  51
ATOM     51  C   UNL     1      -2.275  -7.698   4.025  1.00  0.00     0.023 A 
ATOM     52  C   UNL     1      -2.882  -8.868   4.521  1.00  0.00     0.012 A 
ATOM     53  C   UNL     1      -3.112  -6.617   3.665  1.00  0.00     0.148 A 
ATOM     54  C   UNL     1      -4.274  -8.954   4.659  1.00  0.00     0.002 A 
ATOM     55  C   UNL     1      -4.494  -6.713   3.785  1.00  0.00     0.091 A 
ATOM     56  F   UNL     1      -2.548  -5.460   3.292  1.00  0.00    -0.205 F 
ATOM     57  C   UNL     1      -5.080  -7.878   4.293  1.00  0.00     0.022 A 
BRANCH  55  58
ATOM     58  S   UNL     1      -5.589  -5.360   3.332  1.00  0.00     0.127 S 
ATOM     59  O   UNL     1      -6.575  -6.040   2.491  1.00  0.00    -0.237 OA
ATOM     60  O   UNL     1      -6.089  -4.925   4.633  1.00  0.00    -0.237 OA
ATOM     61  O   UNL     1      -4.758  -4.399   2.618  1.00  0.00    -0.744 OA
ENDBRANCH  55  58
ENDBRANCH  27  51
BRANCH  39  62
ATOM     62  C   UNL     1       3.823  -8.887   5.000  1.00  0.00     0.023 A 
ATOM     63  C   UNL     1       3.608  -8.561   3.643  1.00  0.00     0.012 A 
ATOM     64  C   UNL     1       4.766  -9.876   5.317  1.00  0.00     0.148 A 
ATOM     65  C   UNL     1       4.300  -9.222   2.625  1.00  0.00     0.002 A 
ATOM     66  C   UNL     1       5.484 -10.502   4.305  1.00  0.00     0.091 A 
ATOM     67  F   UNL     1       4.973 -10.160   6.612  1.00  0.00    -0.205 F 
ATOM     68  C   UNL     1       5.248 -10.185   2.958  1.00  0.00     0.022 A 
BRANCH  66  69
ATOM     69  S   UNL     1       6.806 -11.659   4.664  1.00  0.00     0.127 S 
ATOM     70  O   UNL     1       6.220 -12.931   4.246  1.00  0.00    -0.237 OA
ATOM     71  O   UNL     1       7.888 -11.172   3.806  1.00  0.00    -0.237 OA
ATOM     72  O   UNL     1       7.075 -11.534   6.091  1.00  0.00    -0.744 OA
ENDBRANCH  66  69
ENDBRANCH  39  62
ENDBRANCH  13  14
ENDBRANCH   6   8
ENDBRANCH   3   4
ENDBRANCH   2   3
ENDBRANCH   1   2
BRANCH   1  73
ATOM     73  N   UNL     1       4.788  -0.653  -4.361  1.00  0.00    -0.352 N 
ATOM     74  C   UNL     1       5.698  -0.820  -5.371  1.00  0.00     0.251 C 
ATOM     75  H   UNL     1       4.377   0.241  -4.322  1.00  0.00     0.163 HD
ATOM     76  O   UNL     1       6.050   0.139  -6.052  1.00  0.00    -0.269 OA
BRANCH  74  77
ATOM     77  C   UNL     1       6.284  -2.148  -5.628  1.00  0.00     0.039 A 
ATOM     78  C   UNL     1       7.678  -2.267  -5.652  1.00  0.00     0.016 A 
ATOM     79  C   UNL     1       5.472  -3.257  -5.884  1.00  0.00     0.016 A 
ATOM     80  C   UNL     1       8.269  -3.517  -5.833  1.00  0.00     0.029 A 
ATOM     81  C   UNL     1       6.059  -4.502  -6.108  1.00  0.00     0.029 A 
ATOM     82  C   UNL     1       7.459  -4.631  -6.067  1.00  0.00     0.066 A 
BRANCH  82  83
ATOM     83  N   UNL     1       8.062  -5.876  -6.338  1.00  0.00    -0.220 N 
ATOM     84  C   UNL     1       7.582  -6.837  -7.183  1.00  0.00     0.141 A 
ATOM     85  N   UNL     1       9.238  -6.284  -5.814  1.00  0.00    -0.062 NA
ATOM     86  C   UNL     1       8.507  -7.854  -7.162  1.00  0.00     0.093 A 
ATOM     87  N   UNL     1       9.484  -7.515  -6.261  1.00  0.00    -0.134 NA
BRANCH  86  88
ATOM     88  C   UNL     1       8.414  -9.205  -7.758  1.00  0.00     0.138 C 
BRANCH  88  89
ATOM     89  S   UNL     1       9.041  -9.608  -9.393  1.00  0.00    -0.081 SA
BRANCH  89  90
ATOM     90  C   UNL     1       9.251  -8.214 -10.420  1.00  0.00     0.176 A 
ATOM     91  N   UNL     1      10.298  -8.323 -11.191  1.00  0.00    -0.223 NA
ATOM     92  N   UNL     1       8.431  -7.100 -10.473  1.00  0.00    -0.255 N 
ATOM     93  C   UNL     1      10.658  -7.226 -11.983  1.00  0.00     0.079 A 
ATOM     94  C   UNL     1       9.123  -5.891 -10.667  1.00  0.00     0.266 A 
ATOM     95  C   UNL     1      11.530  -7.362 -13.064  1.00  0.00     0.029 A 
ATOM     96  C   UNL     1      10.228  -5.955 -11.638  1.00  0.00     0.066 A 
ATOM     97  O   UNL     1       8.890  -4.828 -10.123  1.00  0.00    -0.268 OA
ATOM     98  C   UNL     1      12.007  -6.227 -13.733  1.00  0.00     0.002 A 
ATOM     99  C   UNL     1      10.739  -4.808 -12.252  1.00  0.00     0.016 A 
ATOM    100  C   UNL     1      11.642  -4.949 -13.302  1.00  0.00     0.001 A 
BRANCH  92 101
ATOM    101  C   UNL     1       6.991  -7.042 -10.334  1.00  0.00     0.051 A 
ATOM    102  C   UNL     1       6.309  -5.840 -10.622  1.00  0.00     0.027 A 
ATOM    103  C   UNL     1       6.185  -8.111  -9.927  1.00  0.00     0.027 A 
ATOM    104  C   UNL     1       4.967  -5.643 -10.286  1.00  0.00     0.002 A 
ATOM    105  C   UNL     1       4.857  -7.904  -9.520  1.00  0.00     0.002 A 
ATOM    106  C   UNL     1       4.261  -6.658  -9.664  1.00  0.00     0.000 A 
ENDBRANCH  92 101
ENDBRANCH  89  90
ENDBRANCH  88  89
ENDBRANCH  86  88
ENDBRANCH  82  83
ENDBRANCH  74  77
ENDBRANCH   1  73
TORSDOF 18
