REMARK SMILES COc1ccc(OCCNc2c(Cl)cccc2C(=O)NCCCNC(=O)c2ccc(-c3c4nc(c(-c5cccc(S(=O)(=O)[O-])c5F)c5ccc([nH]5)c(-c5cccc(S(=O)(=O)[O-])c5F)c5nc(c(-c6cccc(S(=O)(=O)[O-])c6F)c6ccc3[nH]6)C=C5)C=C4)cc2)cc1
REMARK SMILES IDX 18 1 19 2 20 3 17 5 11 6 12 7 13 8 14 9 16 10 15 11 10 12
REMARK SMILES IDX 9 14 8 15 7 16 6 17 3 18 4 19 91 20 5 21 90 22 2 23 1 24
REMARK SMILES IDX 21 25 22 26 23 27 24 28 25 29 26 31 27 32 28 33 89 34 29 35
REMARK SMILES IDX 88 36 30 37 31 38 32 39 82 40 33 41 87 42 81 43 83 44 34 45
REMARK SMILES IDX 86 46 80 47 79 48 35 50 67 51 47 52 66 53 48 54 51 55 65 56
REMARK SMILES IDX 84 57 49 58 50 59 64 61 85 62 52 63 36 64 37 65 45 66 38 67
REMARK SMILES IDX 40 68 46 69 39 70 41 71 42 72 43 73 44 74 68 75 69 76 77 77
REMARK SMILES IDX 70 78 72 79 78 80 71 81 73 82 74 83 75 84 76 85 53 86 54 87
REMARK SMILES IDX 62 88 55 89 57 90 63 91 56 92 58 93 59 94 60 95 61 96
REMARK H PARENT 20 4 10 13 24 30 83 49 51 60
REMARK Flexibility Score: inf
ROOT
ATOM      1  C   UNL     1       5.106   5.640   2.920  1.00  0.00     0.253 C 
ATOM      2  O   UNL     1       5.922   6.358   3.498  1.00  0.00    -0.269 OA
ATOM      3  N   UNL     1       3.773   5.939   3.024  1.00  0.00    -0.352 N 
ATOM      4  H   UNL     1       3.555   6.683   3.632  1.00  0.00     0.163 HD
ENDROOT
BRANCH   1   5
ATOM      5  C   UNL     1       5.600   4.424   2.234  1.00  0.00     0.064 A 
ATOM      6  C   UNL     1       5.409   4.102   0.877  1.00  0.00     0.066 A 
ATOM      7  C   UNL     1       5.971   2.875   0.434  1.00  0.00     0.065 A 
ATOM      8  Cl  UNL     1       5.769   2.342  -1.209  1.00  0.00    -0.082 Cl
ATOM      9  C   UNL     1       6.716   2.038   1.272  1.00  0.00     0.023 A 
ATOM     10  C   UNL     1       6.364   3.580   3.071  1.00  0.00     0.016 A 
ATOM     11  C   UNL     1       6.913   2.392   2.597  1.00  0.00     0.003 A 
BRANCH   6  12
ATOM     12  N   UNL     1       4.555   4.761   0.009  1.00  0.00    -0.380 N 
ATOM     13  H   UNL     1       3.843   4.212  -0.393  1.00  0.00     0.160 HD
BRANCH  12  14
ATOM     14  C   UNL     1       4.578   6.160  -0.382  1.00  0.00     0.154 C 
BRANCH  14  15
ATOM     15  C   UNL     1       3.592   6.409  -1.554  1.00  0.00     0.250 C 
BRANCH  15  16
ATOM     16  O   UNL     1       2.216   6.165  -1.216  1.00  0.00    -0.492 OA
BRANCH  16  17
ATOM     17  C   UNL     1       1.679   4.915  -1.374  1.00  0.00     0.119 A 
ATOM     18  C   UNL     1       0.499   2.380  -1.255  1.00  0.00     0.119 A 
ATOM     19  C   UNL     1      -0.211   3.490  -0.813  1.00  0.00     0.050 A 
ATOM     20  C   UNL     1       1.752   2.535  -1.838  1.00  0.00     0.050 A 
ATOM     21  C   UNL     1       0.386   4.755  -0.861  1.00  0.00     0.050 A 
ATOM     22  C   UNL     1       2.329   3.805  -1.919  1.00  0.00     0.050 A 
BRANCH  18  23
ATOM     23  O   UNL     1      -0.078   1.144  -1.176  1.00  0.00    -0.497 OA
ATOM     24  C   UNL     1       0.511   0.376  -0.125  1.00  0.00     0.278 C 
ENDBRANCH  18  23
ENDBRANCH  16  17
ENDBRANCH  15  16
ENDBRANCH  14  15
ENDBRANCH  12  14
ENDBRANCH   6  12
ENDBRANCH   1   5
BRANCH   3  25
ATOM     25  C   UNL     1       2.638   5.320   2.371  1.00  0.00     0.118 C 
BRANCH  25  26
ATOM     26  C   UNL     1       1.295   5.659   2.988  1.00  0.00     0.042 C 
BRANCH  26  27
ATOM     27  C   UNL     1       1.012   7.147   3.168  1.00  0.00     0.118 C 
BRANCH  27  28
ATOM     28  N   UNL     1       1.148   7.966   1.967  1.00  0.00    -0.352 N 
ATOM     29  C   UNL     1       0.253   8.797   1.325  1.00  0.00     0.251 C 
ATOM     30  H   UNL     1       2.034   7.917   1.540  1.00  0.00     0.163 HD
ATOM     31  O   UNL     1       0.602   9.406   0.320  1.00  0.00    -0.269 OA
BRANCH  29  32
ATOM     32  C   UNL     1      -1.145   8.910   1.805  1.00  0.00     0.039 A 
ATOM     33  C   UNL     1      -2.187   8.868   0.873  1.00  0.00     0.014 A 
ATOM     34  C   UNL     1      -1.438   8.992   3.163  1.00  0.00     0.014 A 
ATOM     35  C   UNL     1      -3.510   8.767   1.315  1.00  0.00     0.010 A 
ATOM     36  C   UNL     1      -2.736   8.752   3.599  1.00  0.00     0.010 A 
ATOM     37  C   UNL     1      -3.791   8.625   2.683  1.00  0.00    -0.014 A 
BRANCH  37  38
ATOM     38  C   UNL     1      -5.156   8.308   3.190  1.00  0.00     0.031 A 
ATOM     39  C   UNL     1      -5.789   9.168   4.256  1.00  0.00     0.074 A 
ATOM     40  C   UNL     1      -5.767   7.167   2.807  1.00  0.00     0.049 A 
ATOM     41  N   UNL     1      -6.878   8.958   4.950  1.00  0.00    -0.248 NA
ATOM     42  C   UNL     1      -5.072  10.399   4.630  1.00  0.00     0.031 C 
ATOM     43  C   UNL     1      -5.222   6.182   1.868  1.00  0.00     0.029 A 
ATOM     44  N   UNL     1      -6.969   6.622   3.190  1.00  0.00    -0.354 N 
ATOM     45  C   UNL     1      -6.940   9.989   5.880  1.00  0.00     0.074 A 
ATOM     46  C   UNL     1      -5.756  10.799   5.692  1.00  0.00     0.031 C 
ATOM     47  C   UNL     1      -6.087   5.164   1.742  1.00  0.00     0.029 A 
ATOM     48  C   UNL     1      -7.231   5.399   2.614  1.00  0.00     0.049 A 
ATOM     49  H   UNL     1      -7.585   7.064   3.818  1.00  0.00     0.167 HD
ATOM     50  C   UNL     1      -7.910  10.266   6.784  1.00  0.00     0.034 A 
ATOM     51  C   UNL     1      -8.271   4.556   2.773  1.00  0.00     0.034 A 
ATOM     52  C   UNL     1      -9.131   9.517   6.907  1.00  0.00     0.049 A 
ATOM     53  C   UNL     1      -9.394   4.945   3.696  1.00  0.00     0.074 A 
ATOM     54  C   UNL     1     -10.224   9.779   7.713  1.00  0.00     0.029 A 
ATOM     55  N   UNL     1      -9.427   8.368   6.190  1.00  0.00    -0.354 N 
ATOM     56  N   UNL     1      -9.503   6.006   4.457  1.00  0.00    -0.248 NA
ATOM     57  C   UNL     1     -10.553   4.043   3.753  1.00  0.00     0.031 C 
ATOM     58  C   UNL     1     -11.185   8.788   7.480  1.00  0.00     0.029 A 
ATOM     59  C   UNL     1     -10.691   7.915   6.524  1.00  0.00     0.049 A 
ATOM     60  H   UNL     1      -8.827   7.938   5.539  1.00  0.00     0.167 HD
ATOM     61  C   UNL     1     -10.751   5.916   5.061  1.00  0.00     0.074 A 
ATOM     62  C   UNL     1     -11.372   4.708   4.557  1.00  0.00     0.031 C 
ATOM     63  C   UNL     1     -11.323   6.747   5.967  1.00  0.00     0.034 A 
BRANCH  50  64
ATOM     64  C   UNL     1      -7.726  11.486   7.650  1.00  0.00     0.023 A 
ATOM     65  C   UNL     1      -7.825  12.767   7.067  1.00  0.00     0.012 A 
ATOM     66  C   UNL     1      -7.490  11.375   9.034  1.00  0.00     0.148 A 
ATOM     67  C   UNL     1      -7.646  13.915   7.835  1.00  0.00     0.002 A 
ATOM     68  C   UNL     1      -7.358  12.527   9.803  1.00  0.00     0.091 A 
ATOM     69  F   UNL     1      -7.376  10.152   9.570  1.00  0.00    -0.205 F 
ATOM     70  C   UNL     1      -7.422  13.796   9.203  1.00  0.00     0.022 A 
BRANCH  68  71
ATOM     71  S   UNL     1      -7.148  12.478  11.586  1.00  0.00     0.127 S 
ATOM     72  O   UNL     1      -5.726  12.788  11.725  1.00  0.00    -0.237 OA
ATOM     73  O   UNL     1      -8.049  13.541  12.035  1.00  0.00    -0.237 OA
ATOM     74  O   UNL     1      -7.544  11.138  11.996  1.00  0.00    -0.744 OA
ENDBRANCH  68  71
ENDBRANCH  50  64
BRANCH  51  75
ATOM     75  C   UNL     1      -8.336   3.302   1.970  1.00  0.00     0.023 A 
ATOM     76  C   UNL     1      -9.257   3.215   0.907  1.00  0.00     0.012 A 
ATOM     77  C   UNL     1      -7.468   2.221   2.217  1.00  0.00     0.148 A 
ATOM     78  C   UNL     1      -9.331   2.065   0.121  1.00  0.00     0.002 A 
ATOM     79  C   UNL     1      -7.513   1.097   1.398  1.00  0.00     0.091 A 
ATOM     80  F   UNL     1      -6.607   2.317   3.239  1.00  0.00    -0.205 F 
ATOM     81  C   UNL     1      -8.453   1.011   0.359  1.00  0.00     0.022 A 
BRANCH  79  82
ATOM     82  S   UNL     1      -6.331  -0.248   1.551  1.00  0.00     0.127 S 
ATOM     83  O   UNL     1      -7.144  -1.291   2.171  1.00  0.00    -0.237 OA
ATOM     84  O   UNL     1      -5.969  -0.498   0.155  1.00  0.00    -0.237 OA
ATOM     85  O   UNL     1      -5.244   0.279   2.364  1.00  0.00    -0.744 OA
ENDBRANCH  79  82
ENDBRANCH  51  75
BRANCH  63  86
ATOM     86  C   UNL     1     -12.704   6.403   6.458  1.00  0.00     0.023 A 
ATOM     87  C   UNL     1     -12.873   5.348   7.375  1.00  0.00     0.012 A 
ATOM     88  C   UNL     1     -13.817   7.178   6.078  1.00  0.00     0.148 A 
ATOM     89  C   UNL     1     -14.135   5.052   7.888  1.00  0.00     0.002 A 
ATOM     90  C   UNL     1     -15.065   6.905   6.627  1.00  0.00     0.091 A 
ATOM     91  F   UNL     1     -13.638   8.164   5.187  1.00  0.00    -0.205 F 
ATOM     92  C   UNL     1     -15.227   5.837   7.525  1.00  0.00     0.022 A 
BRANCH  90  93
ATOM     93  S   UNL     1     -16.505   7.922   6.284  1.00  0.00     0.127 S 
ATOM     94  O   UNL     1     -17.249   7.081   5.349  1.00  0.00    -0.237 OA
ATOM     95  O   UNL     1     -17.118   8.054   7.607  1.00  0.00    -0.237 OA
ATOM     96  O   UNL     1     -15.989   9.169   5.735  1.00  0.00    -0.744 OA
ENDBRANCH  90  93
ENDBRANCH  63  86
ENDBRANCH  37  38
ENDBRANCH  29  32
ENDBRANCH  27  28
ENDBRANCH  26  27
ENDBRANCH  25  26
ENDBRANCH   3  25
TORSDOF 19
