REMARK SMILES C[N@H+]1[C@H]2CC[C@@H]1[C@@H](C(=O)NCCCNC(=O)c1ccc(-c3c4nc(c(-c5cccc(S(=O)(=O)[O-])c5F)c5ccc([nH]5)c(-c5cccc(S(=O)(=O)[O-])c5F)c5nc(c(-c6cccc(S(=O)(=O)[O-])c6F)c6ccc3[nH]6)C=C5)C=C4)cc1)[C@@H](OC(=O)c1ccccc1)C2
REMARK SMILES IDX 12 1 11 2 10 3 8 4 9 5 7 7 1 8 2 9 3 10 6 11 4 13 90 14 5 15
REMARK SMILES IDX 80 16 81 17 82 18 83 19 84 20 85 21 89 22 86 23 88 24 87 25
REMARK SMILES IDX 13 26 14 27 15 28 16 30 17 31 18 32 79 33 19 34 78 35 20 36
REMARK SMILES IDX 21 37 22 38 72 39 23 40 77 41 71 42 73 43 24 44 76 45 70 46
REMARK SMILES IDX 69 47 25 49 57 50 37 51 56 52 38 53 41 54 55 55 74 56 39 57
REMARK SMILES IDX 40 58 54 60 75 61 42 62 26 63 27 64 35 65 28 66 30 67 36 68
REMARK SMILES IDX 29 69 31 70 32 71 33 72 34 73 58 74 59 75 67 76 60 77 62 78
REMARK SMILES IDX 68 79 61 80 63 81 64 82 65 83 66 84 43 85 44 86 52 87 45 88
REMARK SMILES IDX 47 89 53 90 46 91 48 92 49 93 50 94 51 95
REMARK H PARENT 10 6 2 12 14 29 73 48 41 59
REMARK Flexibility Score: inf
ROOT
ATOM      1  C   UNL     1      -2.565  -2.523  -1.918  1.00  0.00     0.042 C 
ENDROOT
BRANCH   1   2
ATOM      2  C   UNL     1      -2.384  -1.723  -0.643  1.00  0.00     0.117 C 
BRANCH   2   3
ATOM      3  N   UNL     1      -1.878  -2.406   0.544  1.00  0.00    -0.355 N 
ATOM      4  C   UNL     1      -0.937  -2.087   1.479  1.00  0.00     0.232 C 
ATOM      5  O   UNL     1      -1.083  -2.649   2.578  1.00  0.00    -0.274 OA
ATOM      6  H   UNL     1      -2.305  -3.279   0.703  1.00  0.00     0.163 HD
BRANCH   4   7
ATOM      7  C   UNL     1       0.280  -1.155   1.306  1.00  0.00     0.177 C 
ATOM      8  C   UNL     1      -1.829   1.500   0.064  1.00  0.00     0.333 C 
ATOM      9  N   UNL     1      -0.730   0.566   0.051  1.00  0.00    -0.332 N 
ATOM     10  C   UNL     1       0.304   0.614  -0.980  1.00  0.00     0.188 C 
ATOM     11  C   UNL     1      -0.049   0.348   1.303  1.00  0.00     0.200 C 
ATOM     12  H   UNL     1      -1.344  -0.209  -0.201  1.00  0.00     0.348 HD
ATOM     13  C   UNL     1       1.316   1.549  -0.347  1.00  0.00     0.071 C 
ATOM     14  C   UNL     1       0.882  -0.834  -1.176  1.00  0.00     0.111 C 
ATOM     15  C   UNL     1       1.177   1.277   1.157  1.00  0.00     0.072 C 
ATOM     16  C   UNL     1       1.217  -1.559   0.157  1.00  0.00     0.201 C 
BRANCH  16  17
ATOM     17  O   UNL     1       1.474  -3.000   0.233  1.00  0.00    -0.457 OA
BRANCH  17  18
ATOM     18  C   UNL     1       0.881  -3.884  -0.595  1.00  0.00     0.338 C 
ATOM     19  O   UNL     1       0.319  -3.603  -1.642  1.00  0.00    -0.246 OA
BRANCH  18  20
ATOM     20  C   UNL     1       0.882  -5.290  -0.101  1.00  0.00     0.060 A 
ATOM     21  C   UNL     1       0.035  -6.197  -0.765  1.00  0.00     0.015 A 
ATOM     22  C   UNL     1       1.677  -5.756   0.952  1.00  0.00     0.015 A 
ATOM     23  C   UNL     1      -0.003  -7.546  -0.409  1.00  0.00     0.001 A 
ATOM     24  C   UNL     1       1.642  -7.115   1.304  1.00  0.00     0.001 A 
ATOM     25  C   UNL     1       0.809  -8.007   0.622  1.00  0.00     0.000 A 
ENDBRANCH  18  20
ENDBRANCH  17  18
ENDBRANCH  16  17
ENDBRANCH   4   7
ENDBRANCH   2   3
ENDBRANCH   1   2
BRANCH   1  26
ATOM     26  C   UNL     1      -3.528  -3.670  -1.774  1.00  0.00     0.118 C 
BRANCH  26  27
ATOM     27  N   UNL     1      -4.894  -3.182  -1.924  1.00  0.00    -0.352 N 
ATOM     28  C   UNL     1      -5.611  -3.050  -3.093  1.00  0.00     0.251 C 
ATOM     29  H   UNL     1      -5.356  -2.917  -1.096  1.00  0.00     0.163 HD
ATOM     30  O   UNL     1      -6.536  -2.247  -3.161  1.00  0.00    -0.269 OA
BRANCH  28  31
ATOM     31  C   UNL     1      -5.243  -3.878  -4.264  1.00  0.00     0.039 A 
ATOM     32  C   UNL     1      -5.282  -3.335  -5.551  1.00  0.00     0.014 A 
ATOM     33  C   UNL     1      -4.848  -5.204  -4.077  1.00  0.00     0.014 A 
ATOM     34  C   UNL     1      -4.858  -4.107  -6.637  1.00  0.00     0.010 A 
ATOM     35  C   UNL     1      -4.312  -5.923  -5.135  1.00  0.00     0.010 A 
ATOM     36  C   UNL     1      -4.330  -5.392  -6.431  1.00  0.00    -0.014 A 
BRANCH  36  37
ATOM     37  C   UNL     1      -3.788  -6.218  -7.540  1.00  0.00     0.031 A 
ATOM     38  C   UNL     1      -4.370  -7.580  -7.811  1.00  0.00     0.074 A 
ATOM     39  C   UNL     1      -2.698  -5.798  -8.214  1.00  0.00     0.049 A 
ATOM     40  N   UNL     1      -3.958  -8.505  -8.638  1.00  0.00    -0.248 NA
ATOM     41  C   UNL     1      -5.552  -7.971  -7.021  1.00  0.00     0.031 C 
ATOM     42  C   UNL     1      -1.995  -4.534  -7.984  1.00  0.00     0.029 A 
ATOM     43  N   UNL     1      -1.966  -6.409  -9.201  1.00  0.00    -0.354 N 
ATOM     44  C   UNL     1      -4.793  -9.597  -8.433  1.00  0.00     0.074 A 
ATOM     45  C   UNL     1      -5.714  -9.236  -7.379  1.00  0.00     0.031 C 
ATOM     46  C   UNL     1      -0.936  -4.462  -8.806  1.00  0.00     0.029 A 
ATOM     47  C   UNL     1      -0.855  -5.692  -9.585  1.00  0.00     0.049 A 
ATOM     48  H   UNL     1      -2.211  -7.276  -9.597  1.00  0.00     0.167 HD
ATOM     49  C   UNL     1      -4.810 -10.784  -9.082  1.00  0.00     0.034 A 
ATOM     50  C   UNL     1       0.133  -6.003 -10.448  1.00  0.00     0.034 A 
ATOM     51  C   UNL     1      -3.918 -11.119 -10.158  1.00  0.00     0.049 A 
ATOM     52  C   UNL     1       0.080  -7.322 -11.170  1.00  0.00     0.074 A 
ATOM     53  C   UNL     1      -3.919 -12.249 -10.954  1.00  0.00     0.029 A 
ATOM     54  N   UNL     1      -2.854 -10.334 -10.575  1.00  0.00    -0.354 N 
ATOM     55  N   UNL     1      -0.820  -8.272 -11.087  1.00  0.00    -0.248 NA
ATOM     56  C   UNL     1       1.163  -7.603 -12.123  1.00  0.00     0.031 C 
ATOM     57  C   UNL     1      -2.828 -12.168 -11.825  1.00  0.00     0.029 A 
ATOM     58  C   UNL     1      -2.172 -10.969 -11.597  1.00  0.00     0.049 A 
ATOM     59  H   UNL     1      -2.619  -9.455 -10.199  1.00  0.00     0.167 HD
ATOM     60  C   UNL     1      -0.425  -9.252 -11.989  1.00  0.00     0.074 A 
ATOM     61  C   UNL     1       0.780  -8.767 -12.630  1.00  0.00     0.031 C 
ATOM     62  C   UNL     1      -0.996 -10.454 -12.251  1.00  0.00     0.034 A 
BRANCH  49  63
ATOM     63  C   UNL     1      -5.849 -11.796  -8.673  1.00  0.00     0.023 A 
ATOM     64  C   UNL     1      -7.210 -11.559  -8.959  1.00  0.00     0.012 A 
ATOM     65  C   UNL     1      -5.474 -13.006  -8.057  1.00  0.00     0.148 A 
ATOM     66  C   UNL     1      -8.184 -12.491  -8.603  1.00  0.00     0.002 A 
ATOM     67  C   UNL     1      -6.446 -13.951  -7.750  1.00  0.00     0.091 A 
ATOM     68  F   UNL     1      -4.179 -13.205  -7.774  1.00  0.00    -0.205 F 
ATOM     69  C   UNL     1      -7.801 -13.690  -8.010  1.00  0.00     0.022 A 
BRANCH  67  70
ATOM     70  S   UNL     1      -6.049 -15.561  -7.059  1.00  0.00     0.127 S 
ATOM     71  O   UNL     1      -6.618 -15.453  -5.716  1.00  0.00    -0.237 OA
ATOM     72  O   UNL     1      -6.771 -16.464  -7.956  1.00  0.00    -0.237 OA
ATOM     73  O   UNL     1      -4.599 -15.678  -7.113  1.00  0.00    -0.744 OA
ENDBRANCH  67  70
ENDBRANCH  49  63
BRANCH  50  74
ATOM     74  C   UNL     1       1.237  -5.033 -10.698  1.00  0.00     0.023 A 
ATOM     75  C   UNL     1       1.329  -4.394 -11.949  1.00  0.00     0.012 A 
ATOM     76  C   UNL     1       2.177  -4.719  -9.696  1.00  0.00     0.148 A 
ATOM     77  C   UNL     1       2.354  -3.484 -12.211  1.00  0.00     0.002 A 
ATOM     78  C   UNL     1       3.162  -3.769  -9.944  1.00  0.00     0.091 A 
ATOM     79  F   UNL     1       2.079  -5.344  -8.515  1.00  0.00    -0.205 F 
ATOM     80  C   UNL     1       3.263  -3.164 -11.206  1.00  0.00     0.022 A 
BRANCH  78  81
ATOM     81  S   UNL     1       4.295  -3.197  -8.673  1.00  0.00     0.127 S 
ATOM     82  O   UNL     1       5.573  -3.716  -9.156  1.00  0.00    -0.237 OA
ATOM     83  O   UNL     1       4.145  -1.744  -8.768  1.00  0.00    -0.237 OA
ATOM     84  O   UNL     1       3.814  -3.772  -7.425  1.00  0.00    -0.744 OA
ENDBRANCH  78  81
ENDBRANCH  50  74
BRANCH  62  85
ATOM     85  C   UNL     1      -0.339 -11.331 -13.284  1.00  0.00     0.023 A 
ATOM     86  C   UNL     1       0.876 -11.977 -12.982  1.00  0.00     0.012 A 
ATOM     87  C   UNL     1      -0.975 -11.589 -14.514  1.00  0.00     0.148 A 
ATOM     88  C   UNL     1       1.462 -12.847 -13.899  1.00  0.00     0.002 A 
ATOM     89  C   UNL     1      -0.412 -12.498 -15.402  1.00  0.00     0.091 A 
ATOM     90  F   UNL     1      -2.125 -10.955 -14.785  1.00  0.00    -0.205 F 
ATOM     91  C   UNL     1       0.813 -13.117 -15.102  1.00  0.00     0.022 A 
BRANCH  89  92
ATOM     92  S   UNL     1      -1.218 -12.985 -16.931  1.00  0.00     0.127 S 
ATOM     93  O   UNL     1      -0.298 -12.455 -17.935  1.00  0.00    -0.237 OA
ATOM     94  O   UNL     1      -1.228 -14.444 -16.821  1.00  0.00    -0.237 OA
ATOM     95  O   UNL     1      -2.536 -12.364 -16.910  1.00  0.00    -0.744 OA
ENDBRANCH  89  92
ENDBRANCH  62  85
ENDBRANCH  36  37
ENDBRANCH  28  31
ENDBRANCH  26  27
ENDBRANCH   1  26
TORSDOF 16
