REMARK SMILES Cc1cccc([C@@H](CC(=O)NCCCNC(=O)c2ccc(-c3c4nc(c(-c5cccc(S(=O)(=O)[O-])c5F)c5ccc([nH]5)c(-c5cccc(S(=O)(=O)[O-])c5F)c5nc(c(-c6cccc(S(=O)(=O)[O-])c6F)c6ccc3[nH]6)C=C5)C=C4)cc2)NC(=O)OC(C)(C)C)c1
REMARK SMILES IDX 12 1 11 2 9 3 10 4 8 6 7 7 6 8 1 9 2 10 3 11 89 12 4 13 5 14
REMARK SMILES IDX 81 15 82 16 83 18 84 19 85 20 86 21 87 22 88 23 13 24 14 25
REMARK SMILES IDX 15 26 16 27 17 29 18 30 19 31 80 32 20 33 79 34 21 35 22 36
REMARK SMILES IDX 23 37 73 38 24 39 78 40 72 41 74 42 25 43 77 44 71 45 70 46
REMARK SMILES IDX 26 48 58 49 38 50 57 51 39 52 42 53 56 54 75 55 40 56 41 57
REMARK SMILES IDX 55 59 76 60 43 61 27 62 28 63 36 64 29 65 31 66 37 67 30 68
REMARK SMILES IDX 32 69 33 70 34 71 35 72 59 73 60 74 68 75 61 76 63 77 69 78
REMARK SMILES IDX 62 79 64 80 65 81 66 82 67 83 44 84 45 85 53 86 46 87 48 88
REMARK SMILES IDX 54 89 47 90 49 91 50 92 51 93 52 94
REMARK H PARENT 11 5 81 17 15 28 74 47 42 58
REMARK Flexibility Score: inf
ROOT
ATOM      1  C   UNL     1      -2.510  -0.232  -2.430  1.00  0.00     0.117 C 
ENDROOT
BRANCH   1   2
ATOM      2  N   UNL     1      -3.635   0.593  -2.028  1.00  0.00    -0.356 N 
ATOM      3  C   UNL     1      -3.608   1.742  -1.293  1.00  0.00     0.222 C 
ATOM      4  O   UNL     1      -4.659   2.130  -0.779  1.00  0.00    -0.275 OA
ATOM      5  H   UNL     1      -4.523   0.286  -2.320  1.00  0.00     0.163 HD
BRANCH   3   6
ATOM      6  C   UNL     1      -2.334   2.561  -1.175  1.00  0.00     0.130 C 
BRANCH   6   7
ATOM      7  C   UNL     1      -1.692   2.643   0.224  1.00  0.00     0.125 C 
BRANCH   7   8
ATOM      8  C   UNL     1      -0.726   1.513   0.571  1.00  0.00    -0.025 A 
ATOM      9  C   UNL     1       2.825   0.405  -0.363  1.00  0.00     0.044 C 
ATOM     10  C   UNL     1       1.455   0.431   0.248  1.00  0.00    -0.051 A 
ATOM     11  C   UNL     1       1.049  -0.624   1.068  1.00  0.00     0.003 A 
ATOM     12  C   UNL     1       0.555   1.478  -0.018  1.00  0.00     0.009 A 
ATOM     13  C   UNL     1      -0.187  -0.577   1.703  1.00  0.00     0.001 A 
ATOM     14  C   UNL     1      -1.058   0.491   1.476  1.00  0.00     0.006 A 
ENDBRANCH   7   8
BRANCH   7  15
ATOM     15  N   UNL     1      -2.670   2.872   1.272  1.00  0.00    -0.314 N 
ATOM     16  C   UNL     1      -2.595   3.787   2.279  1.00  0.00     0.408 C 
ATOM     17  H   UNL     1      -3.474   2.304   1.254  1.00  0.00     0.167 HD
ATOM     18  O   UNL     1      -3.400   3.804   3.186  1.00  0.00    -0.225 OA
BRANCH  16  19
ATOM     19  O   UNL     1      -1.563   4.651   2.110  1.00  0.00    -0.444 OA
BRANCH  19  20
ATOM     20  C   UNL     1      -1.346   5.722   3.058  1.00  0.00     0.106 C 
ATOM     21  C   UNL     1      -2.564   6.649   3.154  1.00  0.00     0.056 C 
ATOM     22  C   UNL     1      -0.930   5.162   4.420  1.00  0.00     0.056 C 
ATOM     23  C   UNL     1      -0.174   6.525   2.473  1.00  0.00     0.056 C 
ENDBRANCH  19  20
ENDBRANCH  16  19
ENDBRANCH   7  15
ENDBRANCH   6   7
ENDBRANCH   3   6
ENDBRANCH   1   2
BRANCH   1  24
ATOM     24  C   UNL     1      -2.016  -1.036  -1.242  1.00  0.00     0.042 C 
BRANCH  24  25
ATOM     25  C   UNL     1      -2.440  -2.498  -1.226  1.00  0.00     0.118 C 
BRANCH  25  26
ATOM     26  N   UNL     1      -1.239  -3.326  -1.359  1.00  0.00    -0.352 N 
ATOM     27  C   UNL     1      -0.545  -4.096  -0.441  1.00  0.00     0.251 C 
ATOM     28  H   UNL     1      -0.855  -3.337  -2.266  1.00  0.00     0.163 HD
ATOM     29  O   UNL     1       0.649  -4.330  -0.594  1.00  0.00    -0.269 OA
BRANCH  27  30
ATOM     30  C   UNL     1      -1.317  -4.793   0.609  1.00  0.00     0.039 A 
ATOM     31  C   UNL     1      -1.663  -6.098   0.241  1.00  0.00     0.014 A 
ATOM     32  C   UNL     1      -2.143  -4.030   1.421  1.00  0.00     0.014 A 
ATOM     33  C   UNL     1      -2.996  -6.459   0.274  1.00  0.00     0.010 A 
ATOM     34  C   UNL     1      -3.474  -4.374   1.431  1.00  0.00     0.010 A 
ATOM     35  C   UNL     1      -3.897  -5.509   0.724  1.00  0.00    -0.014 A 
BRANCH  35  36
ATOM     36  C   UNL     1      -5.330  -5.629   0.606  1.00  0.00     0.031 A 
ATOM     37  C   UNL     1      -6.007  -6.259   1.748  1.00  0.00     0.074 A 
ATOM     38  C   UNL     1      -5.980  -4.937  -0.359  1.00  0.00     0.049 A 
ATOM     39  N   UNL     1      -7.257  -6.536   1.783  1.00  0.00    -0.248 NA
ATOM     40  C   UNL     1      -5.288  -6.657   2.957  1.00  0.00     0.031 C 
ATOM     41  C   UNL     1      -7.374  -4.513  -0.331  1.00  0.00     0.029 A 
ATOM     42  N   UNL     1      -5.560  -4.586  -1.651  1.00  0.00    -0.354 N 
ATOM     43  C   UNL     1      -7.566  -6.831   3.094  1.00  0.00     0.074 A 
ATOM     44  C   UNL     1      -6.298  -7.030   3.743  1.00  0.00     0.031 C 
ATOM     45  C   UNL     1      -7.773  -4.234  -1.581  1.00  0.00     0.029 A 
ATOM     46  C   UNL     1      -6.711  -4.674  -2.466  1.00  0.00     0.049 A 
ATOM     47  H   UNL     1      -4.652  -4.332  -1.933  1.00  0.00     0.167 HD
ATOM     48  C   UNL     1      -8.865  -6.701   3.478  1.00  0.00     0.034 A 
ATOM     49  C   UNL     1      -6.868  -5.603  -3.462  1.00  0.00     0.034 A 
ATOM     50  C   UNL     1      -9.717  -6.486   2.291  1.00  0.00     0.049 A 
ATOM     51  C   UNL     1      -8.004  -6.592  -3.190  1.00  0.00     0.074 A 
ATOM     52  C   UNL     1     -10.285  -5.381   1.681  1.00  0.00     0.029 A 
ATOM     53  N   UNL     1      -9.776  -7.501   1.354  1.00  0.00    -0.354 N 
ATOM     54  N   UNL     1      -8.787  -6.551  -2.145  1.00  0.00    -0.248 NA
ATOM     55  C   UNL     1      -8.296  -7.751  -4.037  1.00  0.00     0.031 C 
ATOM     56  C   UNL     1     -10.617  -5.745   0.335  1.00  0.00     0.029 A 
ATOM     57  C   UNL     1     -10.290  -7.078   0.143  1.00  0.00     0.049 A 
ATOM     58  H   UNL     1      -9.485  -8.425   1.531  1.00  0.00     0.167 HD
ATOM     59  C   UNL     1      -9.532  -7.701  -2.066  1.00  0.00     0.074 A 
ATOM     60  C   UNL     1      -9.213  -8.405  -3.300  1.00  0.00     0.031 C 
ATOM     61  C   UNL     1     -10.306  -8.020  -0.978  1.00  0.00     0.034 A 
BRANCH  48  62
ATOM     62  C   UNL     1      -9.374  -6.553   4.902  1.00  0.00     0.023 A 
ATOM     63  C   UNL     1     -10.722  -6.152   5.041  1.00  0.00     0.012 A 
ATOM     64  C   UNL     1      -8.649  -6.692   6.113  1.00  0.00     0.148 A 
ATOM     65  C   UNL     1     -11.299  -5.849   6.279  1.00  0.00     0.002 A 
ATOM     66  C   UNL     1      -9.222  -6.387   7.353  1.00  0.00     0.091 A 
ATOM     67  F   UNL     1      -7.394  -7.130   6.104  1.00  0.00    -0.205 F 
ATOM     68  C   UNL     1     -10.545  -5.955   7.436  1.00  0.00     0.022 A 
BRANCH  66  69
ATOM     69  S   UNL     1      -8.308  -6.486   8.908  1.00  0.00     0.127 S 
ATOM     70  O   UNL     1      -8.401  -5.112   9.403  1.00  0.00    -0.237 OA
ATOM     71  O   UNL     1      -9.092  -7.458   9.668  1.00  0.00    -0.237 OA
ATOM     72  O   UNL     1      -6.956  -6.915   8.572  1.00  0.00    -0.744 OA
ENDBRANCH  66  69
ENDBRANCH  48  62
BRANCH  49  73
ATOM     73  C   UNL     1      -5.584  -5.916  -4.160  1.00  0.00     0.023 A 
ATOM     74  C   UNL     1      -4.969  -4.842  -4.850  1.00  0.00     0.012 A 
ATOM     75  C   UNL     1      -4.798  -7.010  -3.765  1.00  0.00     0.148 A 
ATOM     76  C   UNL     1      -3.580  -4.762  -4.947  1.00  0.00     0.002 A 
ATOM     77  C   UNL     1      -3.412  -6.923  -3.867  1.00  0.00     0.091 A 
ATOM     78  F   UNL     1      -5.403  -8.071  -3.216  1.00  0.00    -0.205 F 
ATOM     79  C   UNL     1      -2.801  -5.777  -4.404  1.00  0.00     0.022 A 
BRANCH  77  80
ATOM     80  S   UNL     1      -2.336  -8.182  -3.174  1.00  0.00     0.127 S 
ATOM     81  O   UNL     1      -1.988  -8.956  -4.361  1.00  0.00    -0.237 OA
ATOM     82  O   UNL     1      -1.244  -7.382  -2.624  1.00  0.00    -0.237 OA
ATOM     83  O   UNL     1      -3.146  -8.862  -2.175  1.00  0.00    -0.744 OA
ENDBRANCH  77  80
ENDBRANCH  49  73
BRANCH  61  84
ATOM     84  C   UNL     1     -11.160  -9.279  -0.891  1.00  0.00     0.023 A 
ATOM     85  C   UNL     1     -11.835  -9.763  -2.028  1.00  0.00     0.012 A 
ATOM     86  C   UNL     1     -11.438  -9.941   0.336  1.00  0.00     0.148 A 
ATOM     87  C   UNL     1     -12.674 -10.883  -1.969  1.00  0.00     0.002 A 
ATOM     88  C   UNL     1     -12.363 -10.977   0.411  1.00  0.00     0.091 A 
ATOM     89  F   UNL     1     -10.766  -9.615   1.444  1.00  0.00    -0.205 F 
ATOM     90  C   UNL     1     -12.953 -11.479  -0.747  1.00  0.00     0.022 A 
BRANCH  88  91
ATOM     91  S   UNL     1     -12.937 -11.642   1.983  1.00  0.00     0.127 S 
ATOM     92  O   UNL     1     -14.389 -11.513   1.844  1.00  0.00    -0.237 OA
ATOM     93  O   UNL     1     -12.438 -13.014   1.928  1.00  0.00    -0.237 OA
ATOM     94  O   UNL     1     -12.355 -10.799   3.017  1.00  0.00    -0.744 OA
ENDBRANCH  88  91
ENDBRANCH  61  84
ENDBRANCH  35  36
ENDBRANCH  27  30
ENDBRANCH  25  26
ENDBRANCH  24  25
ENDBRANCH   1  24
TORSDOF 18
