REMARK SMILES CC(C)=CC(=O)N1[C@H](C(=O)NCCCNC(=O)c2ccc(-c3c4nc(c(-c5cccc(S(=O)(=O)[O-])c5F)c5ccc([nH]5)c(-c5cccc(S(=O)(=O)[O-])c5F)c5nc(c(-c6cccc(S(=O)(=O)[O-])c6F)c6ccc3[nH]6)C=C5)C=C4)cc2)COC12CCCCC2
REMARK SMILES IDX 13 1 12 2 11 3 9 4 10 5 8 7 7 8 83 9 81 10 82 11 84 12 88 13
REMARK SMILES IDX 85 14 87 15 86 16 5 17 6 18 4 19 1 20 2 21 3 22 14 23 15 24
REMARK SMILES IDX 16 25 17 27 18 28 19 29 80 30 20 31 79 32 21 33 22 34 23 35
REMARK SMILES IDX 73 36 24 37 78 38 72 39 74 40 25 41 77 42 71 43 70 44 26 46
REMARK SMILES IDX 58 47 38 48 57 49 39 50 42 51 56 52 75 53 40 54 41 55 55 57
REMARK SMILES IDX 76 58 43 59 27 60 28 61 36 62 29 63 31 64 37 65 30 66 32 67
REMARK SMILES IDX 33 68 34 69 35 70 59 71 60 72 68 73 61 74 63 75 69 76 62 77
REMARK SMILES IDX 64 78 65 79 66 80 67 81 44 82 45 83 53 84 46 85 48 86 54 87
REMARK SMILES IDX 47 88 49 89 50 90 51 91 52 92
REMARK H PARENT 11 6 15 26 74 45 42 56
REMARK Flexibility Score: inf
ROOT
ATOM      1  C   UNL     1       6.367  -2.371   3.438  1.00  0.00     0.042 C 
ENDROOT
BRANCH   1   2
ATOM      2  C   UNL     1       5.167  -3.310   3.393  1.00  0.00     0.117 C 
BRANCH   2   3
ATOM      3  N   UNL     1       3.982  -2.716   3.980  1.00  0.00    -0.354 N 
ATOM      4  C   UNL     1       2.862  -2.129   3.487  1.00  0.00     0.245 C 
ATOM      5  O   UNL     1       1.966  -2.028   4.337  1.00  0.00    -0.273 OA
ATOM      6  H   UNL     1       3.992  -2.746   4.964  1.00  0.00     0.163 HD
BRANCH   4   7
ATOM      7  C   UNL     1       2.616  -1.689   2.009  1.00  0.00     0.203 C 
ATOM      8  N   UNL     1       2.324  -0.293   1.636  1.00  0.00    -0.296 N 
ATOM      9  C   UNL     1       2.959   0.034   0.345  1.00  0.00     0.144 C 
ATOM     10  C   UNL     1       3.712  -2.037   1.030  1.00  0.00     0.198 C 
ATOM     11  O   UNL     1       3.481  -1.231  -0.121  1.00  0.00    -0.353 OA
ATOM     12  C   UNL     1       2.063   0.504  -0.817  1.00  0.00     0.059 C 
ATOM     13  C   UNL     1       4.128   1.019   0.557  1.00  0.00     0.059 C 
ATOM     14  C   UNL     1       2.849   0.774  -2.102  1.00  0.00     0.005 C 
ATOM     15  C   UNL     1       4.881   1.340  -0.737  1.00  0.00     0.005 C 
ATOM     16  C   UNL     1       3.941   1.805  -1.843  1.00  0.00     0.000 C 
BRANCH   8  17
ATOM     17  C   UNL     1       1.446   0.474   2.370  1.00  0.00     0.249 C 
ATOM     18  O   UNL     1       1.196   0.326   3.561  1.00  0.00    -0.270 OA
BRANCH  17  19
ATOM     19  C   UNL     1       0.695   1.529   1.666  1.00  0.00     0.070 C 
ATOM     20  C   UNL     1      -1.002  -0.150   0.830  1.00  0.00     0.039 C 
ATOM     21  C   UNL     1      -0.426   1.236   0.974  1.00  0.00    -0.071 C 
ATOM     22  C   UNL     1      -1.157   2.303   0.210  1.00  0.00     0.039 C 
ENDBRANCH  17  19
ENDBRANCH   8  17
ENDBRANCH   4   7
ENDBRANCH   2   3
ENDBRANCH   1   2
BRANCH   1  23
ATOM     23  C   UNL     1       7.014  -2.297   4.819  1.00  0.00     0.118 C 
BRANCH  23  24
ATOM     24  N   UNL     1       7.601  -3.575   5.214  1.00  0.00    -0.352 N 
ATOM     25  C   UNL     1       8.917  -3.935   5.365  1.00  0.00     0.251 C 
ATOM     26  H   UNL     1       6.951  -4.290   5.402  1.00  0.00     0.163 HD
ATOM     27  O   UNL     1       9.215  -5.124   5.439  1.00  0.00    -0.269 OA
BRANCH  25  28
ATOM     28  C   UNL     1       9.970  -2.901   5.437  1.00  0.00     0.039 A 
ATOM     29  C   UNL     1      11.168  -3.099   4.745  1.00  0.00     0.014 A 
ATOM     30  C   UNL     1       9.784  -1.749   6.204  1.00  0.00     0.014 A 
ATOM     31  C   UNL     1      12.146  -2.102   4.757  1.00  0.00     0.010 A 
ATOM     32  C   UNL     1      10.728  -0.728   6.160  1.00  0.00     0.010 A 
ATOM     33  C   UNL     1      11.913  -0.890   5.428  1.00  0.00    -0.014 A 
BRANCH  33  34
ATOM     34  C   UNL     1      12.858   0.249   5.322  1.00  0.00     0.031 A 
ATOM     35  C   UNL     1      13.552   0.783   6.544  1.00  0.00     0.074 A 
ATOM     36  C   UNL     1      12.990   0.878   4.137  1.00  0.00     0.049 A 
ATOM     37  N   UNL     1      14.328   1.830   6.657  1.00  0.00    -0.248 NA
ATOM     38  C   UNL     1      13.325   0.064   7.808  1.00  0.00     0.031 C 
ATOM     39  C   UNL     1      12.304   0.497   2.900  1.00  0.00     0.029 A 
ATOM     40  N   UNL     1      13.711   1.991   3.787  1.00  0.00    -0.354 N 
ATOM     41  C   UNL     1      14.655   1.917   8.004  1.00  0.00     0.074 A 
ATOM     42  C   UNL     1      13.974   0.830   8.675  1.00  0.00     0.031 C 
ATOM     43  C   UNL     1      12.630   1.366   1.930  1.00  0.00     0.029 A 
ATOM     44  C   UNL     1      13.515   2.385   2.483  1.00  0.00     0.049 A 
ATOM     45  H   UNL     1      14.312   2.463   4.408  1.00  0.00     0.167 HD
ATOM     46  C   UNL     1      15.467   2.807   8.622  1.00  0.00     0.034 A 
ATOM     47  C   UNL     1      13.975   3.459   1.813  1.00  0.00     0.034 A 
ATOM     48  C   UNL     1      16.165   3.866   7.943  1.00  0.00     0.049 A 
ATOM     49  C   UNL     1      14.885   4.425   2.521  1.00  0.00     0.074 A 
ATOM     50  C   UNL     1      17.089   4.757   8.460  1.00  0.00     0.029 A 
ATOM     51  N   UNL     1      16.001   4.192   6.605  1.00  0.00    -0.354 N 
ATOM     52  N   UNL     1      15.325   4.388   3.755  1.00  0.00    -0.248 NA
ATOM     53  C   UNL     1      15.385   5.563   1.737  1.00  0.00     0.031 C 
ATOM     54  C   UNL     1      17.460   5.642   7.442  1.00  0.00     0.029 A 
ATOM     55  C   UNL     1      16.787   5.286   6.284  1.00  0.00     0.049 A 
ATOM     56  H   UNL     1      15.413   3.716   5.976  1.00  0.00     0.167 HD
ATOM     57  C   UNL     1      16.169   5.484   3.891  1.00  0.00     0.074 A 
ATOM     58  C   UNL     1      16.203   6.147   2.603  1.00  0.00     0.031 C 
ATOM     59  C   UNL     1      16.841   5.913   4.988  1.00  0.00     0.034 A 
BRANCH  46  60
ATOM     60  C   UNL     1      15.686   2.649  10.104  1.00  0.00     0.023 A 
ATOM     61  C   UNL     1      16.463   1.573  10.581  1.00  0.00     0.012 A 
ATOM     62  C   UNL     1      15.185   3.597  11.018  1.00  0.00     0.148 A 
ATOM     63  C   UNL     1      16.710   1.424  11.945  1.00  0.00     0.002 A 
ATOM     64  C   UNL     1      15.472   3.466  12.372  1.00  0.00     0.091 A 
ATOM     65  F   UNL     1      14.432   4.602  10.549  1.00  0.00    -0.205 F 
ATOM     66  C   UNL     1      16.224   2.375  12.838  1.00  0.00     0.022 A 
BRANCH  64  67
ATOM     67  S   UNL     1      14.960   4.678  13.595  1.00  0.00     0.127 S 
ATOM     68  O   UNL     1      13.937   3.937  14.334  1.00  0.00    -0.237 OA
ATOM     69  O   UNL     1      16.199   4.909  14.337  1.00  0.00    -0.237 OA
ATOM     70  O   UNL     1      14.477   5.827  12.844  1.00  0.00    -0.744 OA
ENDBRANCH  64  67
ENDBRANCH  46  60
BRANCH  47  71
ATOM     71  C   UNL     1      13.614   3.650   0.380  1.00  0.00     0.023 A 
ATOM     72  C   UNL     1      14.604   3.490  -0.609  1.00  0.00     0.012 A 
ATOM     73  C   UNL     1      12.294   3.948  -0.012  1.00  0.00     0.148 A 
ATOM     74  C   UNL     1      14.293   3.652  -1.959  1.00  0.00     0.002 A 
ATOM     75  C   UNL     1      11.979   4.051  -1.362  1.00  0.00     0.091 A 
ATOM     76  F   UNL     1      11.368   4.108   0.944  1.00  0.00    -0.205 F 
ATOM     77  C   UNL     1      12.980   3.921  -2.336  1.00  0.00     0.022 A 
BRANCH  75  78
ATOM     78  S   UNL     1      10.291   4.256  -1.943  1.00  0.00     0.127 S 
ATOM     79  O   UNL     1      10.307   5.631  -2.433  1.00  0.00    -0.237 OA
ATOM     80  O   UNL     1      10.202   3.231  -2.984  1.00  0.00    -0.237 OA
ATOM     81  O   UNL     1       9.442   4.005  -0.785  1.00  0.00    -0.744 OA
ENDBRANCH  75  78
ENDBRANCH  47  71
BRANCH  59  82
ATOM     82  C   UNL     1      17.680   7.157   4.848  1.00  0.00     0.023 A 
ATOM     83  C   UNL     1      17.049   8.413   4.742  1.00  0.00     0.012 A 
ATOM     84  C   UNL     1      19.086   7.090   4.899  1.00  0.00     0.148 A 
ATOM     85  C   UNL     1      17.806   9.581   4.660  1.00  0.00     0.002 A 
ATOM     86  C   UNL     1      19.832   8.262   4.865  1.00  0.00     0.091 A 
ATOM     87  F   UNL     1      19.665   5.884   4.984  1.00  0.00    -0.205 F 
ATOM     88  C   UNL     1      19.195   9.506   4.734  1.00  0.00     0.022 A 
BRANCH  86  89
ATOM     89  S   UNL     1      21.619   8.276   5.046  1.00  0.00     0.127 S 
ATOM     90  O   UNL     1      22.051   8.683   3.710  1.00  0.00    -0.237 OA
ATOM     91  O   UNL     1      21.816   9.287   6.086  1.00  0.00    -0.237 OA
ATOM     92  O   UNL     1      21.996   6.924   5.436  1.00  0.00    -0.744 OA
ENDBRANCH  86  89
ENDBRANCH  59  82
ENDBRANCH  33  34
ENDBRANCH  25  28
ENDBRANCH  23  24
ENDBRANCH   1  23
TORSDOF 15
