REMARK SMILES N#Cc1ccc(C(=O)N2CCC(Oc3ccccc3)(C(=O)NCCCNC(=O)c3ccc(-c4c5nc(c(-c6cccc(S(=O)(=O)[O-])c6F)c6ccc([nH]6)c(-c6cccc(S(=O)(=O)[O-])c6F)c6nc(c(-c7cccc(S(=O)(=O)[O-])c7F)c7ccc4[nH]7)C=C6)C=C5)cc3)CC2)cc1
REMARK SMILES IDX 24 1 23 2 22 3 20 4 21 5 12 7 7 8 8 9 9 10 10 11 93 12 11 13
REMARK SMILES IDX 92 14 6 15 3 16 4 17 95 18 5 19 94 20 2 21 1 22 13 23 14 24
REMARK SMILES IDX 15 25 19 26 16 27 18 28 17 29 25 30 26 31 27 32 28 34 29 35
REMARK SMILES IDX 30 36 91 37 31 38 90 39 32 40 33 41 34 42 84 43 35 44 89 45
REMARK SMILES IDX 83 46 85 47 36 48 88 49 82 50 81 51 37 53 69 54 49 55 68 56
REMARK SMILES IDX 50 57 53 58 67 59 86 60 51 61 52 62 66 64 87 65 54 66 38 67
REMARK SMILES IDX 39 68 47 69 40 70 42 71 48 72 41 73 43 74 44 75 45 76 46 77
REMARK SMILES IDX 70 78 71 79 79 80 72 81 74 82 80 83 73 84 75 85 76 86 77 87
REMARK SMILES IDX 78 88 55 89 56 90 64 91 57 92 59 93 65 94 58 95 60 96 61 97
REMARK SMILES IDX 62 98 63 99
REMARK H PARENT 22 6 26 33 85 52 53 63
REMARK Flexibility Score: inf
ROOT
ATOM      1  C   UNL     1       7.307  -5.263   3.133  1.00  0.00     0.042 C 
ENDROOT
BRANCH   1   2
ATOM      2  C   UNL     1       7.607  -5.389   1.646  1.00  0.00     0.118 C 
BRANCH   2   3
ATOM      3  N   UNL     1       6.390  -5.493   0.861  1.00  0.00    -0.353 N 
ATOM      4  C   UNL     1       5.857  -4.643  -0.063  1.00  0.00     0.264 C 
ATOM      5  O   UNL     1       4.838  -5.043  -0.637  1.00  0.00    -0.270 OA
ATOM      6  H   UNL     1       5.864  -6.309   1.022  1.00  0.00     0.163 HD
BRANCH   4   7
ATOM      7  C   UNL     1       6.492  -3.252  -0.361  1.00  0.00     0.190 C 
ATOM      8  C   UNL     1       3.687  -0.200   0.300  1.00  0.00     0.253 C 
ATOM      9  O   UNL     1       4.278   0.772   0.761  1.00  0.00    -0.269 OA
ATOM     10  N   UNL     1       4.293  -1.433   0.136  1.00  0.00    -0.338 N 
ATOM     11  C   UNL     1       5.005  -2.007   1.260  1.00  0.00     0.124 C 
ATOM     12  C   UNL     1       4.297  -2.162  -1.127  1.00  0.00     0.124 C 
ATOM     13  C   UNL     1       6.430  -2.340   0.877  1.00  0.00     0.080 C 
ATOM     14  C   UNL     1       5.717  -2.586  -1.526  1.00  0.00     0.080 C 
BRANCH   8  15
ATOM     15  C   UNL     1       2.216  -0.125   0.061  1.00  0.00     0.040 A 
ATOM     16  C   UNL     1      -0.579   0.082  -0.076  1.00  0.00     0.052 A 
ATOM     17  C   UNL     1       0.213   1.236  -0.093  1.00  0.00     0.020 A 
ATOM     18  C   UNL     1       0.027  -1.174   0.009  1.00  0.00     0.020 A 
ATOM     19  C   UNL     1       1.607   1.133  -0.023  1.00  0.00     0.015 A 
ATOM     20  C   UNL     1       1.417  -1.276   0.088  1.00  0.00     0.015 A 
BRANCH  16  21
ATOM     21  C   UNL     1      -2.009   0.182  -0.123  1.00  0.00     0.099 C 
ATOM     22  N   UNL     1      -3.165   0.255  -0.172  1.00  0.00    -0.192 NA
ENDBRANCH  16  21
ENDBRANCH   8  15
BRANCH   7  23
ATOM     23  O   UNL     1       7.827  -3.640  -0.784  1.00  0.00    -0.477 OA
BRANCH  23  24
ATOM     24  C   UNL     1       8.735  -2.668  -1.078  1.00  0.00     0.120 A 
ATOM     25  C   UNL     1       9.196  -2.604  -2.391  1.00  0.00     0.046 A 
ATOM     26  C   UNL     1       9.314  -1.861  -0.102  1.00  0.00     0.046 A 
ATOM     27  C   UNL     1      10.163  -1.663  -2.745  1.00  0.00     0.004 A 
ATOM     28  C   UNL     1      10.257  -0.897  -0.459  1.00  0.00     0.004 A 
ATOM     29  C   UNL     1      10.676  -0.793  -1.783  1.00  0.00     0.000 A 
ENDBRANCH  23  24
ENDBRANCH   7  23
ENDBRANCH   4   7
ENDBRANCH   2   3
ENDBRANCH   1   2
BRANCH   1  30
ATOM     30  C   UNL     1       6.646  -6.496   3.733  1.00  0.00     0.118 C 
BRANCH  30  31
ATOM     31  N   UNL     1       7.493  -7.677   3.655  1.00  0.00    -0.352 N 
ATOM     32  C   UNL     1       8.013  -8.459   4.655  1.00  0.00     0.251 C 
ATOM     33  H   UNL     1       7.730  -7.959   2.741  1.00  0.00     0.163 HD
ATOM     34  O   UNL     1       8.878  -9.287   4.381  1.00  0.00    -0.269 OA
BRANCH  32  35
ATOM     35  C   UNL     1       7.552  -8.302   6.052  1.00  0.00     0.039 A 
ATOM     36  C   UNL     1       8.490  -8.395   7.082  1.00  0.00     0.014 A 
ATOM     37  C   UNL     1       6.204  -8.092   6.353  1.00  0.00     0.014 A 
ATOM     38  C   UNL     1       8.083  -8.226   8.406  1.00  0.00     0.010 A 
ATOM     39  C   UNL     1       5.817  -7.826   7.664  1.00  0.00     0.010 A 
ATOM     40  C   UNL     1       6.749  -7.905   8.708  1.00  0.00    -0.014 A 
BRANCH  40  41
ATOM     41  C   UNL     1       6.324  -7.645  10.108  1.00  0.00     0.031 A 
ATOM     42  C   UNL     1       5.278  -8.506  10.765  1.00  0.00     0.074 A 
ATOM     43  C   UNL     1       6.847  -6.596  10.775  1.00  0.00     0.049 A 
ATOM     44  N   UNL     1       4.781  -8.420  11.972  1.00  0.00    -0.248 NA
ATOM     45  C   UNL     1       4.698  -9.592   9.957  1.00  0.00     0.031 C 
ATOM     46  C   UNL     1       7.816  -5.645  10.227  1.00  0.00     0.029 A 
ATOM     47  N   UNL     1       6.625  -6.144  12.051  1.00  0.00    -0.354 N 
ATOM     48  C   UNL     1       3.815  -9.415  12.059  1.00  0.00     0.074 A 
ATOM     49  C   UNL     1       3.765 -10.068  10.769  1.00  0.00     0.031 C 
ATOM     50  C   UNL     1       8.121  -4.736  11.166  1.00  0.00     0.029 A 
ATOM     51  C   UNL     1       7.337  -5.009  12.365  1.00  0.00     0.049 A 
ATOM     52  H   UNL     1       6.015  -6.589  12.682  1.00  0.00     0.167 HD
ATOM     53  C   UNL     1       3.054  -9.771  13.121  1.00  0.00     0.034 A 
ATOM     54  C   UNL     1       7.346  -4.262  13.486  1.00  0.00     0.034 A 
ATOM     55  C   UNL     1       3.115  -9.129  14.407  1.00  0.00     0.049 A 
ATOM     56  C   UNL     1       6.492  -4.679  14.650  1.00  0.00     0.074 A 
ATOM     57  C   UNL     1       2.438  -9.463  15.566  1.00  0.00     0.029 A 
ATOM     58  N   UNL     1       3.879  -8.010  14.699  1.00  0.00    -0.354 N 
ATOM     59  N   UNL     1       5.688  -5.709  14.758  1.00  0.00    -0.248 NA
ATOM     60  C   UNL     1       6.571  -3.851  15.861  1.00  0.00     0.031 C 
ATOM     61  C   UNL     1       2.750  -8.513  16.544  1.00  0.00     0.029 A 
ATOM     62  C   UNL     1       3.673  -7.626  16.014  1.00  0.00     0.049 A 
ATOM     63  H   UNL     1       4.480  -7.555  14.066  1.00  0.00     0.167 HD
ATOM     64  C   UNL     1       5.199  -5.677  16.059  1.00  0.00     0.074 A 
ATOM     65  C   UNL     1       5.814  -4.536  16.706  1.00  0.00     0.031 C 
ATOM     66  C   UNL     1       4.316  -6.511  16.661  1.00  0.00     0.034 A 
BRANCH  53  67
ATOM     67  C   UNL     1       2.099 -10.925  12.946  1.00  0.00     0.023 A 
ATOM     68  C   UNL     1       2.597 -12.234  12.777  1.00  0.00     0.012 A 
ATOM     69  C   UNL     1       0.706 -10.721  13.005  1.00  0.00     0.148 A 
ATOM     70  C   UNL     1       1.726 -13.313  12.629  1.00  0.00     0.002 A 
ATOM     71  C   UNL     1      -0.154 -11.808  12.910  1.00  0.00     0.091 A 
ATOM     72  F   UNL     1       0.250  -9.469  13.150  1.00  0.00    -0.205 F 
ATOM     73  C   UNL     1       0.353 -13.101  12.707  1.00  0.00     0.022 A 
BRANCH  71  74
ATOM     74  S   UNL     1      -1.935 -11.653  13.081  1.00  0.00     0.127 S 
ATOM     75  O   UNL     1      -2.390 -11.993  11.734  1.00  0.00    -0.237 OA
ATOM     76  O   UNL     1      -2.232 -12.662  14.098  1.00  0.00    -0.237 OA
ATOM     77  O   UNL     1      -2.184 -10.279  13.492  1.00  0.00    -0.744 OA
ENDBRANCH  71  74
ENDBRANCH  53  67
BRANCH  54  78
ATOM     78  C   UNL     1       8.220  -3.058  13.574  1.00  0.00     0.023 A 
ATOM     79  C   UNL     1       9.313  -3.049  14.462  1.00  0.00     0.012 A 
ATOM     80  C   UNL     1       7.974  -1.924  12.777  1.00  0.00     0.148 A 
ATOM     81  C   UNL     1      10.120  -1.917  14.586  1.00  0.00     0.002 A 
ATOM     82  C   UNL     1       8.816  -0.823  12.860  1.00  0.00     0.091 A 
ATOM     83  F   UNL     1       6.926  -1.952  11.942  1.00  0.00    -0.205 F 
ATOM     84  C   UNL     1       9.877  -0.808  13.779  1.00  0.00     0.022 A 
BRANCH  82  85
ATOM     85  S   UNL     1       8.658   0.596  11.771  1.00  0.00     0.127 S 
ATOM     86  O   UNL     1       8.280   1.650  12.709  1.00  0.00    -0.237 OA
ATOM     87  O   UNL     1      10.012   0.707  11.228  1.00  0.00    -0.237 OA
ATOM     88  O   UNL     1       7.644   0.232  10.791  1.00  0.00    -0.744 OA
ENDBRANCH  82  85
ENDBRANCH  54  78
BRANCH  66  89
ATOM     89  C   UNL     1       4.000  -6.264  18.114  1.00  0.00     0.023 A 
ATOM     90  C   UNL     1       3.261  -5.128  18.501  1.00  0.00     0.012 A 
ATOM     91  C   UNL     1       4.398  -7.195  19.094  1.00  0.00     0.148 A 
ATOM     92  C   UNL     1       2.965  -4.900  19.845  1.00  0.00     0.002 A 
ATOM     93  C   UNL     1       4.048  -6.992  20.422  1.00  0.00     0.091 A 
ATOM     94  F   UNL     1       5.113  -8.262  18.709  1.00  0.00    -0.205 F 
ATOM     95  C   UNL     1       3.347  -5.837  20.803  1.00  0.00     0.022 A 
BRANCH  93  96
ATOM     96  S   UNL     1       4.409  -8.192  21.709  1.00  0.00     0.127 S 
ATOM     97  O   UNL     1       5.411  -7.482  22.504  1.00  0.00    -0.237 OA
ATOM     98  O   UNL     1       3.108  -8.344  22.361  1.00  0.00    -0.237 OA
ATOM     99  O   UNL     1       4.889  -9.386  21.027  1.00  0.00    -0.744 OA
ENDBRANCH  93  96
ENDBRANCH  66  89
ENDBRANCH  40  41
ENDBRANCH  32  35
ENDBRANCH  30  31
ENDBRANCH   1  30
TORSDOF 17
