REMARK SMILES COc1ccc([C@H](C)NC(=O)c2cnn(C)c2C(=O)NCCCNC(=O)c2ccc(-c3c4nc(c(-c5cccc(S(=O)(=O)[O-])c5F)c5ccc([nH]5)c(-c5cccc(S(=O)(=O)[O-])c5F)c5nc(c(-c6cccc(S(=O)(=O)[O-])c6F)c6ccc3[nH]6)C=C5)C=C4)cc2)cc1
REMARK SMILES IDX 21 1 20 2 18 3 19 4 17 6 12 7 13 8 14 9 15 10 16 11 10 12
REMARK SMILES IDX 9 13 11 15 7 16 8 17 6 18 3 19 4 20 91 21 5 22 90 23 2 24
REMARK SMILES IDX 1 25 22 26 23 27 24 28 25 29 26 31 27 32 28 33 89 34 29 35
REMARK SMILES IDX 88 36 30 37 31 38 32 39 82 40 33 41 87 42 81 43 83 44 34 45
REMARK SMILES IDX 86 46 80 47 79 48 35 50 67 51 47 52 66 53 48 54 51 55 65 56
REMARK SMILES IDX 84 57 49 58 50 59 64 61 85 62 52 63 36 64 37 65 45 66 38 67
REMARK SMILES IDX 40 68 46 69 39 70 41 71 42 72 43 73 44 74 68 75 69 76 77 77
REMARK SMILES IDX 70 78 72 79 78 80 71 81 73 82 74 83 75 84 76 85 53 86 54 87
REMARK SMILES IDX 62 88 55 89 57 90 63 91 56 92 58 93 59 94 60 95 61 96
REMARK H PARENT 20 5 9 14 24 30 83 49 51 60
REMARK Flexibility Score: inf
ROOT
ATOM      1  C   UNL     1       6.739  -7.361   5.338  1.00  0.00     0.118 C 
ENDROOT
BRANCH   1   2
ATOM      2  N   UNL     1       5.317  -7.169   5.124  1.00  0.00    -0.351 N 
ATOM      3  C   UNL     1       4.553  -7.952   4.292  1.00  0.00     0.270 C 
ATOM      4  O   UNL     1       3.817  -8.779   4.825  1.00  0.00    -0.268 OA
ATOM      5  H   UNL     1       4.872  -6.433   5.604  1.00  0.00     0.163 HD
BRANCH   3   6
ATOM      6  C   UNL     1       4.439  -7.601   2.893  1.00  0.00     0.138 A 
ATOM      7  C   UNL     1       3.236  -7.511   2.183  1.00  0.00     0.090 A 
ATOM      8  C   UNL     1       3.615  -7.453   0.831  1.00  0.00     0.149 A 
ATOM      9  N   UNL     1       4.931  -7.361   0.679  1.00  0.00    -0.180 NA
ATOM     10  N   UNL     1       5.410  -7.385   1.941  1.00  0.00    -0.262 N 
ATOM     11  C   UNL     1       6.839  -7.261   2.083  1.00  0.00     0.174 C 
BRANCH   7  12
ATOM     12  C   UNL     1       1.876  -7.599   2.670  1.00  0.00     0.255 C 
ATOM     13  N   UNL     1       1.410  -6.665   3.560  1.00  0.00    -0.345 N 
ATOM     14  H   UNL     1       0.526  -6.866   3.943  1.00  0.00     0.164 HD
ATOM     15  O   UNL     1       1.093  -8.444   2.238  1.00  0.00    -0.269 OA
BRANCH  13  16
ATOM     16  C   UNL     1       2.012  -5.421   4.030  1.00  0.00     0.109 C 
ATOM     17  C   UNL     1       1.612  -4.274   3.096  1.00  0.00     0.036 C 
BRANCH  16  18
ATOM     18  C   UNL     1       1.664  -5.218   5.502  1.00  0.00    -0.026 A 
ATOM     19  C   UNL     1       1.215  -4.924   8.279  1.00  0.00     0.118 A 
ATOM     20  C   UNL     1       1.873  -6.046   7.793  1.00  0.00     0.047 A 
ATOM     21  C   UNL     1       0.773  -3.947   7.389  1.00  0.00     0.047 A 
ATOM     22  C   UNL     1       2.068  -6.201   6.421  1.00  0.00     0.009 A 
ATOM     23  C   UNL     1       0.998  -4.092   6.010  1.00  0.00     0.009 A 
BRANCH  19  24
ATOM     24  O   UNL     1       1.115  -4.842   9.639  1.00  0.00    -0.497 OA
ATOM     25  C   UNL     1      -0.154  -4.400  10.106  1.00  0.00     0.278 C 
ENDBRANCH  19  24
ENDBRANCH  16  18
ENDBRANCH  13  16
ENDBRANCH   7  12
ENDBRANCH   3   6
ENDBRANCH   1   2
BRANCH   1  26
ATOM     26  C   UNL     1       7.464  -6.027   5.473  1.00  0.00     0.042 C 
BRANCH  26  27
ATOM     27  C   UNL     1       7.288  -5.378   6.843  1.00  0.00     0.118 C 
BRANCH  27  28
ATOM     28  N   UNL     1       8.002  -6.107   7.883  1.00  0.00    -0.352 N 
ATOM     29  C   UNL     1       9.168  -5.807   8.542  1.00  0.00     0.251 C 
ATOM     30  H   UNL     1       7.579  -6.953   8.158  1.00  0.00     0.163 HD
ATOM     31  O   UNL     1       9.733  -6.692   9.182  1.00  0.00    -0.269 OA
BRANCH  29  32
ATOM     32  C   UNL     1       9.752  -4.447   8.494  1.00  0.00     0.039 A 
ATOM     33  C   UNL     1      11.145  -4.311   8.449  1.00  0.00     0.014 A 
ATOM     34  C   UNL     1       8.950  -3.306   8.569  1.00  0.00     0.014 A 
ATOM     35  C   UNL     1      11.724  -3.038   8.428  1.00  0.00     0.010 A 
ATOM     36  C   UNL     1       9.523  -2.039   8.470  1.00  0.00     0.010 A 
ATOM     37  C   UNL     1      10.916  -1.890   8.413  1.00  0.00    -0.014 A 
BRANCH  37  38
ATOM     38  C   UNL     1      11.505  -0.527   8.341  1.00  0.00     0.031 A 
ATOM     39  C   UNL     1      11.301   0.453   9.466  1.00  0.00     0.074 A 
ATOM     40  C   UNL     1      12.148  -0.139   7.222  1.00  0.00     0.049 A 
ATOM     41  N   UNL     1      11.678   1.703   9.551  1.00  0.00    -0.248 NA
ATOM     42  C   UNL     1      10.549  -0.025  10.638  1.00  0.00     0.031 C 
ATOM     43  C   UNL     1      12.346  -0.968   6.031  1.00  0.00     0.029 A 
ATOM     44  N   UNL     1      12.728   1.060   6.891  1.00  0.00    -0.354 N 
ATOM     45  C   UNL     1      11.178   2.171  10.760  1.00  0.00     0.074 A 
ATOM     46  C   UNL     1      10.443   1.080  11.362  1.00  0.00     0.031 C 
ATOM     47  C   UNL     1      13.001  -0.254   5.102  1.00  0.00     0.029 A 
ATOM     48  C   UNL     1      13.246   1.089   5.617  1.00  0.00     0.049 A 
ATOM     49  H   UNL     1      12.768   1.827   7.507  1.00  0.00     0.167 HD
ATOM     50  C   UNL     1      11.340   3.388  11.334  1.00  0.00     0.034 A 
ATOM     51  C   UNL     1      13.847   2.086   4.938  1.00  0.00     0.034 A 
ATOM     52  C   UNL     1      12.116   4.453  10.758  1.00  0.00     0.049 A 
ATOM     53  C   UNL     1      14.057   3.412   5.615  1.00  0.00     0.074 A 
ATOM     54  C   UNL     1      12.423   5.687  11.304  1.00  0.00     0.029 A 
ATOM     55  N   UNL     1      12.705   4.415   9.504  1.00  0.00    -0.354 N 
ATOM     56  N   UNL     1      13.718   3.782   6.826  1.00  0.00    -0.248 NA
ATOM     57  C   UNL     1      14.764   4.447   4.847  1.00  0.00     0.031 C 
ATOM     58  C   UNL     1      13.184   6.401  10.372  1.00  0.00     0.029 A 
ATOM     59  C   UNL     1      13.366   5.605   9.253  1.00  0.00     0.049 A 
ATOM     60  H   UNL     1      12.660   3.652   8.882  1.00  0.00     0.167 HD
ATOM     61  C   UNL     1      14.197   5.078   6.978  1.00  0.00     0.074 A 
ATOM     62  C   UNL     1      14.870   5.421   5.741  1.00  0.00     0.031 C 
ATOM     63  C   UNL     1      14.076   5.915   8.038  1.00  0.00     0.034 A 
BRANCH  50  64
ATOM     64  C   UNL     1      10.712   3.611  12.686  1.00  0.00     0.023 A 
ATOM     65  C   UNL     1      11.259   2.973  13.818  1.00  0.00     0.012 A 
ATOM     66  C   UNL     1       9.619   4.485  12.848  1.00  0.00     0.148 A 
ATOM     67  C   UNL     1      10.705   3.168  15.082  1.00  0.00     0.002 A 
ATOM     68  C   UNL     1       9.099   4.708  14.118  1.00  0.00     0.091 A 
ATOM     69  F   UNL     1       9.097   5.067  11.759  1.00  0.00    -0.205 F 
ATOM     70  C   UNL     1       9.633   4.042  15.234  1.00  0.00     0.022 A 
BRANCH  68  71
ATOM     71  S   UNL     1       7.766   5.874  14.425  1.00  0.00     0.127 S 
ATOM     72  O   UNL     1       6.635   4.976  14.651  1.00  0.00    -0.237 OA
ATOM     73  O   UNL     1       8.236   6.576  15.620  1.00  0.00    -0.237 OA
ATOM     74  O   UNL     1       7.681   6.704  13.231  1.00  0.00    -0.744 OA
ENDBRANCH  68  71
ENDBRANCH  50  64
BRANCH  51  75
ATOM     75  C   UNL     1      14.361   1.836   3.562  1.00  0.00     0.023 A 
ATOM     76  C   UNL     1      15.751   1.754   3.352  1.00  0.00     0.012 A 
ATOM     77  C   UNL     1      13.489   1.630   2.476  1.00  0.00     0.148 A 
ATOM     78  C   UNL     1      16.265   1.497   2.080  1.00  0.00     0.002 A 
ATOM     79  C   UNL     1      14.005   1.320   1.223  1.00  0.00     0.091 A 
ATOM     80  F   UNL     1      12.169   1.723   2.695  1.00  0.00    -0.205 F 
ATOM     81  C   UNL     1      15.393   1.269   1.019  1.00  0.00     0.022 A 
BRANCH  79  82
ATOM     82  S   UNL     1      12.957   0.876  -0.167  1.00  0.00     0.127 S 
ATOM     83  O   UNL     1      13.095   2.045  -1.031  1.00  0.00    -0.237 OA
ATOM     84  O   UNL     1      13.608  -0.338  -0.661  1.00  0.00    -0.237 OA
ATOM     85  O   UNL     1      11.632   0.655   0.396  1.00  0.00    -0.744 OA
ENDBRANCH  79  82
ENDBRANCH  51  75
BRANCH  63  86
ATOM     86  C   UNL     1      14.703   7.280   7.925  1.00  0.00     0.023 A 
ATOM     87  C   UNL     1      14.103   8.257   7.105  1.00  0.00     0.012 A 
ATOM     88  C   UNL     1      15.839   7.618   8.687  1.00  0.00     0.148 A 
ATOM     89  C   UNL     1      14.642   9.540   7.023  1.00  0.00     0.002 A 
ATOM     90  C   UNL     1      16.343   8.912   8.635  1.00  0.00     0.091 A 
ATOM     91  F   UNL     1      16.407   6.668   9.445  1.00  0.00    -0.205 F 
ATOM     92  C   UNL     1      15.752   9.871   7.796  1.00  0.00     0.022 A 
BRANCH  90  93
ATOM     93  S   UNL     1      17.711   9.452   9.666  1.00  0.00     0.127 S 
ATOM     94  O   UNL     1      18.804   9.524   8.697  1.00  0.00    -0.237 OA
ATOM     95  O   UNL     1      17.242  10.750  10.153  1.00  0.00    -0.237 OA
ATOM     96  O   UNL     1      17.856   8.437  10.701  1.00  0.00    -0.744 OA
ENDBRANCH  90  93
ENDBRANCH  63  86
ENDBRANCH  37  38
ENDBRANCH  29  32
ENDBRANCH  27  28
ENDBRANCH  26  27
ENDBRANCH   1  26
TORSDOF 17
