REMARK SMILES CC[N@H+](CC(C)(C)C(=O)NCCCNC(=O)c1ccc(-c2c3nc(c(-c4cccc(S(=O)(=O)[O-])c4F)c4ccc([nH]4)c(-c4cccc(S(=O)(=O)[O-])c4F)c4nc(c(-c5cccc(S(=O)(=O)[O-])c5F)c5ccc2[nH]5)C=C4)C=C3)cc1)[C@H]1CCC[NH2+]C1
REMARK SMILES IDX 12 1 11 2 10 3 8 4 9 5 5 7 6 8 7 9 4 10 3 11 2 13 1 14 80 15
REMARK SMILES IDX 81 16 85 17 82 18 84 19 83 20 13 23 14 24 15 25 16 27 17 28
REMARK SMILES IDX 18 29 79 30 19 31 78 32 20 33 21 34 22 35 72 36 23 37 77 38
REMARK SMILES IDX 71 39 73 40 24 41 76 42 70 43 69 44 25 46 57 47 37 48 56 49
REMARK SMILES IDX 38 50 41 51 55 52 74 53 39 54 40 55 54 57 75 58 42 59 26 60
REMARK SMILES IDX 27 61 35 62 28 63 30 64 36 65 29 66 31 67 32 68 33 69 34 70
REMARK SMILES IDX 58 71 59 72 67 73 60 74 62 75 68 76 61 77 63 78 64 79 65 80
REMARK SMILES IDX 66 81 43 82 44 83 52 84 45 85 47 86 53 87 46 88 48 89 49 90
REMARK SMILES IDX 50 91 51 92
REMARK H PARENT 10 6 3 12 84 21 84 22 14 26 73 45 41 56
REMARK Flexibility Score: inf
ROOT
ATOM      1  C   UNL     1       5.013  -5.112  -2.877  1.00  0.00     0.042 C 
ENDROOT
BRANCH   1   2
ATOM      2  C   UNL     1       4.653  -3.642  -2.716  1.00  0.00     0.117 C 
BRANCH   2   3
ATOM      3  N   UNL     1       3.465  -3.498  -1.899  1.00  0.00    -0.355 N 
ATOM      4  C   UNL     1       3.341  -3.221  -0.577  1.00  0.00     0.231 C 
ATOM      5  O   UNL     1       2.374  -3.745  -0.015  1.00  0.00    -0.274 OA
ATOM      6  H   UNL     1       2.614  -3.619  -2.380  1.00  0.00     0.163 HD
BRANCH   4   7
ATOM      7  C   UNL     1       4.345  -2.337   0.175  1.00  0.00     0.092 C 
ATOM      8  C   UNL     1       4.844  -1.115  -0.617  1.00  0.00     0.027 C 
ATOM      9  C   UNL     1       5.530  -3.240   0.582  1.00  0.00     0.027 C 
BRANCH   7  10
ATOM     10  C   UNL     1       3.685  -1.813   1.500  1.00  0.00     0.279 C 
BRANCH  10  11
ATOM     11  N   UNL     1       2.717  -0.685   1.436  1.00  0.00    -0.327 N 
ATOM     12  H   UNL     1       3.201   0.046   0.914  1.00  0.00     0.348 HD
BRANCH  11  13
ATOM     13  C   UNL     1       1.494  -1.028   0.682  1.00  0.00     0.259 C 
ATOM     14  C   UNL     1       0.554   0.141   0.388  1.00  0.00     0.071 C 
ENDBRANCH  11  13
BRANCH  11  15
ATOM     15  C   UNL     1       2.390  -0.104   2.769  1.00  0.00     0.239 C 
ATOM     16  C   UNL     1       2.881  -0.852   4.028  1.00  0.00     0.077 C 
ATOM     17  C   UNL     1       2.919   1.353   2.801  1.00  0.00     0.326 C 
ATOM     18  C   UNL     1       2.518  -0.069   5.287  1.00  0.00     0.068 C 
ATOM     19  N   UNL     1       2.566   2.064   4.039  1.00  0.00    -0.341 N 
ATOM     20  C   UNL     1       3.061   1.356   5.218  1.00  0.00     0.260 C 
ATOM     21  H   UNL     1       2.976   2.997   4.015  1.00  0.00     0.346 HD
ATOM     22  H   UNL     1       1.549   2.118   4.100  1.00  0.00     0.346 HD
ENDBRANCH  11  15
ENDBRANCH  10  11
ENDBRANCH   7  10
ENDBRANCH   4   7
ENDBRANCH   2   3
ENDBRANCH   1   2
BRANCH   1  23
ATOM     23  C   UNL     1       3.931  -5.927  -3.571  1.00  0.00     0.118 C 
BRANCH  23  24
ATOM     24  N   UNL     1       3.654  -5.443  -4.918  1.00  0.00    -0.352 N 
ATOM     25  C   UNL     1       3.817  -6.082  -6.119  1.00  0.00     0.251 C 
ATOM     26  H   UNL     1       3.298  -4.526  -4.972  1.00  0.00     0.163 HD
ATOM     27  O   UNL     1       3.756  -5.442  -7.167  1.00  0.00    -0.269 OA
BRANCH  25  28
ATOM     28  C   UNL     1       4.075  -7.535  -6.144  1.00  0.00     0.039 A 
ATOM     29  C   UNL     1       5.028  -8.046  -7.027  1.00  0.00     0.014 A 
ATOM     30  C   UNL     1       3.371  -8.392  -5.293  1.00  0.00     0.014 A 
ATOM     31  C   UNL     1       5.306  -9.414  -7.021  1.00  0.00     0.010 A 
ATOM     32  C   UNL     1       3.724  -9.732  -5.215  1.00  0.00     0.010 A 
ATOM     33  C   UNL     1       4.674 -10.264  -6.098  1.00  0.00    -0.014 A 
BRANCH  33  34
ATOM     34  C   UNL     1       4.959 -11.720  -6.061  1.00  0.00     0.031 A 
ATOM     35  C   UNL     1       3.848 -12.705  -6.316  1.00  0.00     0.074 A 
ATOM     36  C   UNL     1       6.189 -12.154  -5.723  1.00  0.00     0.049 A 
ATOM     37  N   UNL     1       3.877 -14.011  -6.264  1.00  0.00    -0.248 NA
ATOM     38  C   UNL     1       2.522 -12.150  -6.640  1.00  0.00     0.031 C 
ATOM     39  C   UNL     1       7.326 -11.298  -5.377  1.00  0.00     0.029 A 
ATOM     40  N   UNL     1       6.681 -13.428  -5.588  1.00  0.00    -0.354 N 
ATOM     41  C   UNL     1       2.573 -14.429  -6.504  1.00  0.00     0.074 A 
ATOM     42  C   UNL     1       1.768 -13.239  -6.660  1.00  0.00     0.031 C 
ATOM     43  C   UNL     1       8.383 -12.070  -5.078  1.00  0.00     0.029 A 
ATOM     44  C   UNL     1       7.993 -13.473  -5.177  1.00  0.00     0.049 A 
ATOM     45  H   UNL     1       6.145 -14.234  -5.768  1.00  0.00     0.167 HD
ATOM     46  C   UNL     1       2.092 -15.689  -6.617  1.00  0.00     0.034 A 
ATOM     47  C   UNL     1       8.787 -14.526  -4.901  1.00  0.00     0.034 A 
ATOM     48  C   UNL     1       2.907 -16.868  -6.509  1.00  0.00     0.049 A 
ATOM     49  C   UNL     1       8.239 -15.916  -5.078  1.00  0.00     0.074 A 
ATOM     50  C   UNL     1       2.537 -18.188  -6.694  1.00  0.00     0.029 A 
ATOM     51  N   UNL     1       4.253 -16.870  -6.181  1.00  0.00    -0.354 N 
ATOM     52  N   UNL     1       7.039 -16.290  -5.453  1.00  0.00    -0.248 NA
ATOM     53  C   UNL     1       9.164 -17.032  -4.833  1.00  0.00     0.031 C 
ATOM     54  C   UNL     1       3.654 -18.991  -6.447  1.00  0.00     0.029 A 
ATOM     55  C   UNL     1       4.730 -18.168  -6.152  1.00  0.00     0.049 A 
ATOM     56  H   UNL     1       4.791 -16.066  -5.997  1.00  0.00     0.167 HD
ATOM     57  C   UNL     1       7.079 -17.677  -5.534  1.00  0.00     0.074 A 
ATOM     58  C   UNL     1       8.427 -18.076  -5.184  1.00  0.00     0.031 C 
ATOM     59  C   UNL     1       6.089 -18.544  -5.860  1.00  0.00     0.034 A 
BRANCH  46  60
ATOM     60  C   UNL     1       0.625 -15.859  -6.918  1.00  0.00     0.023 A 
ATOM     61  C   UNL     1       0.125 -15.499  -8.186  1.00  0.00     0.012 A 
ATOM     62  C   UNL     1      -0.245 -16.430  -5.969  1.00  0.00     0.148 A 
ATOM     63  C   UNL     1      -1.224 -15.671  -8.494  1.00  0.00     0.002 A 
ATOM     64  C   UNL     1      -1.577 -16.645  -6.300  1.00  0.00     0.091 A 
ATOM     65  F   UNL     1       0.244 -16.746  -4.762  1.00  0.00    -0.205 F 
ATOM     66  C   UNL     1      -2.071 -16.253  -7.556  1.00  0.00     0.022 A 
BRANCH  64  67
ATOM     67  S   UNL     1      -2.731 -17.467  -5.197  1.00  0.00     0.127 S 
ATOM     68  O   UNL     1      -3.642 -16.375  -4.856  1.00  0.00    -0.237 OA
ATOM     69  O   UNL     1      -3.308 -18.493  -6.066  1.00  0.00    -0.237 OA
ATOM     70  O   UNL     1      -1.936 -17.981  -4.091  1.00  0.00    -0.744 OA
ENDBRANCH  64  67
ENDBRANCH  46  60
BRANCH  47  71
ATOM     71  C   UNL     1      10.203 -14.309  -4.489  1.00  0.00     0.023 A 
ATOM     72  C   UNL     1      11.245 -14.675  -5.364  1.00  0.00     0.012 A 
ATOM     73  C   UNL     1      10.523 -13.736  -3.243  1.00  0.00     0.148 A 
ATOM     74  C   UNL     1      12.579 -14.514  -4.989  1.00  0.00     0.002 A 
ATOM     75  C   UNL     1      11.853 -13.524  -2.900  1.00  0.00     0.091 A 
ATOM     76  F   UNL     1       9.518 -13.400  -2.422  1.00  0.00    -0.205 F 
ATOM     77  C   UNL     1      12.883 -13.931  -3.761  1.00  0.00     0.022 A 
BRANCH  75  78
ATOM     78  S   UNL     1      12.335 -12.664  -1.399  1.00  0.00     0.127 S 
ATOM     79  O   UNL     1      12.923 -13.743  -0.611  1.00  0.00    -0.237 OA
ATOM     80  O   UNL     1      13.291 -11.681  -1.909  1.00  0.00    -0.237 OA
ATOM     81  O   UNL     1      11.109 -12.086  -0.865  1.00  0.00    -0.744 OA
ENDBRANCH  75  78
ENDBRANCH  47  71
BRANCH  59  82
ATOM     82  C   UNL     1       6.431 -20.009  -5.918  1.00  0.00     0.023 A 
ATOM     83  C   UNL     1       6.678 -20.728  -4.733  1.00  0.00     0.012 A 
ATOM     84  C   UNL     1       6.430 -20.688  -7.153  1.00  0.00     0.148 A 
ATOM     85  C   UNL     1       6.957 -22.093  -4.779  1.00  0.00     0.002 A 
ATOM     86  C   UNL     1       6.653 -22.058  -7.186  1.00  0.00     0.091 A 
ATOM     87  F   UNL     1       6.209 -19.982  -8.271  1.00  0.00    -0.205 F 
ATOM     88  C   UNL     1       6.932 -22.760  -6.002  1.00  0.00     0.022 A 
BRANCH  86  89
ATOM     89  S   UNL     1       6.537 -23.015  -8.701  1.00  0.00     0.127 S 
ATOM     90  O   UNL     1       7.939 -23.346  -8.952  1.00  0.00    -0.237 OA
ATOM     91  O   UNL     1       5.708 -24.148  -8.289  1.00  0.00    -0.237 OA
ATOM     92  O   UNL     1       5.917 -22.139  -9.685  1.00  0.00    -0.744 OA
ENDBRANCH  86  89
ENDBRANCH  59  82
ENDBRANCH  33  34
ENDBRANCH  25  28
ENDBRANCH  23  24
ENDBRANCH   1  23
TORSDOF 17
