REMARK SMILES COc1cccc(CSc2nc3ccccc3c(=O)n2CCC(=O)NCCCNC(=O)c2ccc(-c3c4nc(c(-c5cccc(S(=O)(=O)[O-])c5F)c5ccc([nH]5)c(-c5cccc(S(=O)(=O)[O-])c5F)c5nc(c(-c6cccc(S(=O)(=O)[O-])c6F)c6ccc3[nH]6)C=C5)C=C4)cc2)c1
REMARK SMILES IDX 23 1 24 2 25 3 22 5 21 6 20 7 10 8 11 9 12 10 18 11 13 12
REMARK SMILES IDX 17 13 19 14 14 15 16 16 15 17 9 18 8 19 7 20 3 21 4 22 95 23
REMARK SMILES IDX 5 24 6 25 2 26 1 27 26 28 27 29 28 30 29 31 30 32 31 34
REMARK SMILES IDX 32 35 33 36 94 37 34 38 93 39 35 40 36 41 37 42 87 43 38 44
REMARK SMILES IDX 92 45 86 46 88 47 39 48 91 49 85 50 84 51 40 53 72 54 52 55
REMARK SMILES IDX 71 56 53 57 56 58 70 59 89 60 54 61 55 62 69 64 90 65 57 66
REMARK SMILES IDX 41 67 42 68 50 69 43 70 45 71 51 72 44 73 46 74 47 75 48 76
REMARK SMILES IDX 49 77 73 78 74 79 82 80 75 81 77 82 83 83 76 84 78 85 79 86
REMARK SMILES IDX 80 87 81 88 58 89 59 90 67 91 60 92 62 93 68 94 61 95 63 96
REMARK SMILES IDX 64 97 65 98 66 99
REMARK H PARENT 25 4 29 33 88 52 56 63
REMARK Flexibility Score: inf
ROOT
ATOM      1  C   UNL     1       5.893  -1.383  -2.923  1.00  0.00     0.221 C 
ATOM      2  O   UNL     1       5.603  -0.206  -3.152  1.00  0.00    -0.275 OA
ATOM      3  N   UNL     1       6.816  -1.986  -3.725  1.00  0.00    -0.356 N 
ATOM      4  H   UNL     1       7.155  -1.425  -4.460  1.00  0.00     0.163 HD
ENDROOT
BRANCH   1   5
ATOM      5  C   UNL     1       5.253  -2.118  -1.760  1.00  0.00     0.122 C 
BRANCH   5   6
ATOM      6  C   UNL     1       3.725  -2.185  -1.887  1.00  0.00     0.138 C 
BRANCH   6   7
ATOM      7  N   UNL     1       3.245  -3.420  -2.501  1.00  0.00    -0.287 N 
ATOM      8  C   UNL     1       3.240  -3.717  -3.852  1.00  0.00     0.171 A 
ATOM      9  N   UNL     1       3.352  -4.945  -4.271  1.00  0.00    -0.224 NA
ATOM     10  C   UNL     1       3.522  -5.972  -3.332  1.00  0.00     0.079 A 
ATOM     11  C   UNL     1       2.887  -4.422  -1.576  1.00  0.00     0.262 A 
ATOM     12  C   UNL     1       4.169  -7.160  -3.688  1.00  0.00     0.029 A 
ATOM     13  C   UNL     1       3.142  -5.807  -2.012  1.00  0.00     0.066 A 
ATOM     14  O   UNL     1       2.530  -4.208  -0.433  1.00  0.00    -0.269 OA
ATOM     15  C   UNL     1       4.375  -8.176  -2.747  1.00  0.00     0.002 A 
ATOM     16  C   UNL     1       3.252  -6.847  -1.079  1.00  0.00     0.016 A 
ATOM     17  C   UNL     1       3.873  -8.038  -1.453  1.00  0.00     0.001 A 
BRANCH   8  18
ATOM     18  S   UNL     1       3.333  -2.559  -5.171  1.00  0.00    -0.083 SA
BRANCH  18  19
ATOM     19  C   UNL     1       2.688  -0.932  -4.780  1.00  0.00     0.113 C 
BRANCH  19  20
ATOM     20  C   UNL     1       1.298  -0.889  -4.216  1.00  0.00    -0.034 A 
ATOM     21  C   UNL     1      -0.170  -0.523  -2.312  1.00  0.00     0.119 A 
ATOM     22  C   UNL     1      -1.219  -1.085  -3.038  1.00  0.00     0.046 A 
ATOM     23  C   UNL     1       1.066  -0.365  -2.932  1.00  0.00     0.051 A 
ATOM     24  C   UNL     1      -1.037  -1.482  -4.364  1.00  0.00     0.004 A 
ATOM     25  C   UNL     1       0.221  -1.391  -4.950  1.00  0.00     0.005 A 
BRANCH  21  26
ATOM     26  O   UNL     1      -0.459  -0.191  -1.018  1.00  0.00    -0.497 OA
ATOM     27  C   UNL     1       0.634   0.169  -0.180  1.00  0.00     0.278 C 
ENDBRANCH  21  26
ENDBRANCH  19  20
ENDBRANCH  18  19
ENDBRANCH   8  18
ENDBRANCH   6   7
ENDBRANCH   5   6
ENDBRANCH   1   5
BRANCH   3  28
ATOM     28  C   UNL     1       7.381  -3.330  -3.668  1.00  0.00     0.117 C 
BRANCH  28  29
ATOM     29  C   UNL     1       6.551  -4.342  -4.446  1.00  0.00     0.042 C 
BRANCH  29  30
ATOM     30  C   UNL     1       6.847  -4.479  -5.937  1.00  0.00     0.118 C 
BRANCH  30  31
ATOM     31  N   UNL     1       7.817  -5.534  -6.177  1.00  0.00    -0.352 N 
ATOM     32  C   UNL     1       7.673  -6.873  -6.456  1.00  0.00     0.251 C 
ATOM     33  H   UNL     1       8.754  -5.234  -6.131  1.00  0.00     0.163 HD
ATOM     34  O   UNL     1       8.660  -7.586  -6.260  1.00  0.00    -0.269 OA
BRANCH  32  35
ATOM     35  C   UNL     1       6.425  -7.506  -6.979  1.00  0.00     0.039 A 
ATOM     36  C   UNL     1       6.244  -8.878  -6.729  1.00  0.00     0.014 A 
ATOM     37  C   UNL     1       5.506  -6.866  -7.813  1.00  0.00     0.014 A 
ATOM     38  C   UNL     1       5.181  -9.591  -7.304  1.00  0.00     0.010 A 
ATOM     39  C   UNL     1       4.403  -7.566  -8.338  1.00  0.00     0.010 A 
ATOM     40  C   UNL     1       4.243  -8.945  -8.121  1.00  0.00    -0.014 A 
BRANCH  40  41
ATOM     41  C   UNL     1       3.146  -9.708  -8.795  1.00  0.00     0.031 A 
ATOM     42  C   UNL     1       3.087  -9.794 -10.305  1.00  0.00     0.074 A 
ATOM     43  C   UNL     1       2.174 -10.303  -8.072  1.00  0.00     0.049 A 
ATOM     44  N   UNL     1       2.186 -10.360 -11.070  1.00  0.00    -0.248 NA
ATOM     45  C   UNL     1       4.177  -9.148 -11.053  1.00  0.00     0.031 C 
ATOM     46  C   UNL     1       2.072 -10.278  -6.612  1.00  0.00     0.029 A 
ATOM     47  N   UNL     1       1.070 -11.024  -8.467  1.00  0.00    -0.354 N 
ATOM     48  C   UNL     1       2.572 -10.099 -12.382  1.00  0.00     0.074 A 
ATOM     49  C   UNL     1       3.783  -9.309 -12.309  1.00  0.00     0.031 C 
ATOM     50  C   UNL     1       0.966 -10.942  -6.237  1.00  0.00     0.029 A 
ATOM     51  C   UNL     1       0.258 -11.413  -7.425  1.00  0.00     0.049 A 
ATOM     52  H   UNL     1       0.879 -11.242  -9.408  1.00  0.00     0.167 HD
ATOM     53  C   UNL     1       1.992 -10.494 -13.542  1.00  0.00     0.034 A 
ATOM     54  C   UNL     1      -0.929 -12.055  -7.420  1.00  0.00     0.034 A 
ATOM     55  C   UNL     1       0.819 -11.323 -13.626  1.00  0.00     0.049 A 
ATOM     56  C   UNL     1      -1.543 -12.498  -8.725  1.00  0.00     0.074 A 
ATOM     57  C   UNL     1       0.211 -11.838 -14.759  1.00  0.00     0.029 A 
ATOM     58  N   UNL     1       0.072 -11.755 -12.543  1.00  0.00    -0.354 N 
ATOM     59  N   UNL     1      -1.084 -12.357  -9.944  1.00  0.00    -0.248 NA
ATOM     60  C   UNL     1      -2.824 -13.220  -8.649  1.00  0.00     0.031 C 
ATOM     61  C   UNL     1      -0.920 -12.557 -14.363  1.00  0.00     0.029 A 
ATOM     62  C   UNL     1      -0.996 -12.521 -12.980  1.00  0.00     0.049 A 
ATOM     63  H   UNL     1       0.271 -11.548 -11.601  1.00  0.00     0.167 HD
ATOM     64  C   UNL     1      -1.993 -13.008 -10.772  1.00  0.00     0.074 A 
ATOM     65  C   UNL     1      -3.022 -13.557  -9.917  1.00  0.00     0.031 C 
ATOM     66  C   UNL     1      -1.980 -13.127 -12.123  1.00  0.00     0.034 A 
BRANCH  53  67
ATOM     67  C   UNL     1       2.640 -10.072 -14.838  1.00  0.00     0.023 A 
ATOM     68  C   UNL     1       3.854 -10.668 -15.238  1.00  0.00     0.012 A 
ATOM     69  C   UNL     1       2.005  -9.156 -15.701  1.00  0.00     0.148 A 
ATOM     70  C   UNL     1       4.442 -10.334 -16.457  1.00  0.00     0.002 A 
ATOM     71  C   UNL     1       2.574  -8.863 -16.936  1.00  0.00     0.091 A 
ATOM     72  F   UNL     1       0.857  -8.591 -15.301  1.00  0.00    -0.205 F 
ATOM     73  C   UNL     1       3.798  -9.441 -17.310  1.00  0.00     0.022 A 
BRANCH  71  74
ATOM     74  S   UNL     1       1.783  -7.791 -18.142  1.00  0.00     0.127 S 
ATOM     75  O   UNL     1       2.671  -6.629 -18.131  1.00  0.00    -0.237 OA
ATOM     76  O   UNL     1       1.851  -8.597 -19.361  1.00  0.00    -0.237 OA
ATOM     77  O   UNL     1       0.436  -7.550 -17.645  1.00  0.00    -0.744 OA
ENDBRANCH  71  74
ENDBRANCH  53  67
BRANCH  54  78
ATOM     78  C   UNL     1      -1.612 -12.359  -6.128  1.00  0.00     0.023 A 
ATOM     79  C   UNL     1      -1.725 -13.697  -5.700  1.00  0.00     0.012 A 
ATOM     80  C   UNL     1      -2.151 -11.336  -5.325  1.00  0.00     0.148 A 
ATOM     81  C   UNL     1      -2.394 -14.013  -4.517  1.00  0.00     0.002 A 
ATOM     82  C   UNL     1      -2.766 -11.652  -4.119  1.00  0.00     0.091 A 
ATOM     83  F   UNL     1      -2.051 -10.071  -5.757  1.00  0.00    -0.205 F 
ATOM     84  C   UNL     1      -2.906 -12.991  -3.723  1.00  0.00     0.022 A 
BRANCH  82  85
ATOM     85  S   UNL     1      -3.342 -10.397  -2.971  1.00  0.00     0.127 S 
ATOM     86  O   UNL     1      -4.792 -10.540  -3.074  1.00  0.00    -0.237 OA
ATOM     87  O   UNL     1      -2.765 -10.859  -1.707  1.00  0.00    -0.237 OA
ATOM     88  O   UNL     1      -2.793  -9.139  -3.458  1.00  0.00    -0.744 OA
ENDBRANCH  82  85
ENDBRANCH  54  78
BRANCH  66  89
ATOM     89  C   UNL     1      -3.074 -13.932 -12.777  1.00  0.00     0.023 A 
ATOM     90  C   UNL     1      -4.382 -13.414 -12.857  1.00  0.00     0.012 A 
ATOM     91  C   UNL     1      -2.780 -15.163 -13.397  1.00  0.00     0.148 A 
ATOM     92  C   UNL     1      -5.385 -14.122 -13.520  1.00  0.00     0.002 A 
ATOM     93  C   UNL     1      -3.772 -15.839 -14.098  1.00  0.00     0.091 A 
ATOM     94  F   UNL     1      -1.534 -15.648 -13.296  1.00  0.00    -0.205 F 
ATOM     95  C   UNL     1      -5.078 -15.326 -14.151  1.00  0.00     0.022 A 
BRANCH  93  96
ATOM     96  S   UNL     1      -3.446 -17.344 -15.025  1.00  0.00     0.127 S 
ATOM     97  O   UNL     1      -4.150 -18.345 -14.225  1.00  0.00    -0.237 OA
ATOM     98  O   UNL     1      -4.065 -17.051 -16.318  1.00  0.00    -0.237 OA
ATOM     99  O   UNL     1      -1.997 -17.487 -15.066  1.00  0.00    -0.744 OA
ENDBRANCH  93  96
ENDBRANCH  66  89
ENDBRANCH  40  41
ENDBRANCH  32  35
ENDBRANCH  30  31
ENDBRANCH  29  30
ENDBRANCH  28  29
ENDBRANCH   3  28
TORSDOF 19
