REMARK SMILES COc1c(Cl)cc(C(=O)NCCCNC(=O)c2ccc(-c3c4nc(c(-c5cccc(S(=O)(=O)[O-])c5F)c5ccc([nH]5)c(-c5cccc(S(=O)(=O)[O-])c5F)c5nc(c(-c6cccc(S(=O)(=O)[O-])c6F)c6ccc3[nH]6)C=C5)C=C4)cc2)cc1NC(=O)C(C)(C)Oc1ccc(Br)cc1
REMARK SMILES IDX 11 1 10 2 8 3 9 4 7 6 3 7 4 8 81 9 5 10 6 11 80 12 2 13 1 14
REMARK SMILES IDX 82 15 83 16 84 18 85 19 86 20 87 21 88 22 89 23 90 24 95 25
REMARK SMILES IDX 91 26 94 27 92 28 93 29 12 30 13 31 14 32 15 33 16 35 17 36
REMARK SMILES IDX 18 37 79 38 19 39 78 40 20 41 21 42 22 43 72 44 23 45 77 46
REMARK SMILES IDX 71 47 73 48 24 49 76 50 70 51 69 52 25 54 57 55 37 56 56 57
REMARK SMILES IDX 38 58 41 59 55 60 74 61 39 62 40 63 54 65 75 66 42 67 26 68
REMARK SMILES IDX 27 69 35 70 28 71 30 72 36 73 29 74 31 75 32 76 33 77 34 78
REMARK SMILES IDX 58 79 59 80 67 81 60 82 62 83 68 84 61 85 63 86 64 87 65 88
REMARK SMILES IDX 66 89 43 90 44 91 52 92 45 93 47 94 53 95 46 96 48 97 49 98
REMARK SMILES IDX 50 99 51 100
REMARK H PARENT 10 5 82 17 14 34 73 53 41 64
REMARK Flexibility Score: inf
ROOT
ATOM      1  C   UNL     1       0.539   1.963  -7.771  1.00  0.00     0.118 C 
ENDROOT
BRANCH   1   2
ATOM      2  N   UNL     1       1.756   2.460  -7.150  1.00  0.00    -0.352 N 
ATOM      3  C   UNL     1       2.404   2.257  -5.956  1.00  0.00     0.251 C 
ATOM      4  O   UNL     1       3.542   2.732  -5.882  1.00  0.00    -0.269 OA
ATOM      5  H   UNL     1       2.233   3.099  -7.727  1.00  0.00     0.163 HD
BRANCH   3   6
ATOM      6  C   UNL     1       1.889   1.510  -4.758  1.00  0.00     0.043 A 
ATOM      7  C   UNL     1       1.121   0.168  -2.385  1.00  0.00     0.160 A 
ATOM      8  C   UNL     1       2.470   0.459  -2.634  1.00  0.00     0.086 A 
ATOM      9  C   UNL     1       0.136   0.493  -3.342  1.00  0.00     0.086 A 
ATOM     10  Cl  UNL     1       3.741  -0.047  -1.578  1.00  0.00    -0.080 Cl
ATOM     11  C   UNL     1       2.843   1.121  -3.807  1.00  0.00     0.038 A 
ATOM     12  C   UNL     1       0.547   1.214  -4.489  1.00  0.00     0.044 A 
BRANCH   7  13
ATOM     13  O   UNL     1       0.718  -0.586  -1.303  1.00  0.00    -0.493 OA
ATOM     14  C   UNL     1       0.825   0.128  -0.070  1.00  0.00     0.278 C 
ENDBRANCH   7  13
BRANCH   9  15
ATOM     15  N   UNL     1      -1.185  -0.010  -3.075  1.00  0.00    -0.319 N 
ATOM     16  C   UNL     1      -2.301  -0.353  -3.836  1.00  0.00     0.268 C 
ATOM     17  H   UNL     1      -1.339  -0.147  -2.112  1.00  0.00     0.170 HD
ATOM     18  O   UNL     1      -3.265  -0.849  -3.245  1.00  0.00    -0.270 OA
BRANCH  16  19
ATOM     19  C   UNL     1      -2.303  -0.168  -5.385  1.00  0.00     0.181 C 
ATOM     20  C   UNL     1      -2.466   1.361  -5.481  1.00  0.00     0.067 C 
ATOM     21  C   UNL     1      -1.066  -1.001  -5.794  1.00  0.00     0.067 C 
BRANCH  19  22
ATOM     22  O   UNL     1      -3.403  -0.698  -6.178  1.00  0.00    -0.478 OA
BRANCH  22  23
ATOM     23  C   UNL     1      -3.374  -0.431  -7.543  1.00  0.00     0.120 A 
ATOM     24  C   UNL     1      -4.415   0.324  -8.089  1.00  0.00     0.047 A 
ATOM     25  C   UNL     1      -2.439  -0.995  -8.423  1.00  0.00     0.047 A 
ATOM     26  C   UNL     1      -4.525   0.491  -9.481  1.00  0.00     0.019 A 
ATOM     27  C   UNL     1      -2.522  -0.803  -9.806  1.00  0.00     0.019 A 
ATOM     28  C   UNL     1      -3.593  -0.097 -10.333  1.00  0.00     0.018 A 
ATOM     29  Br  UNL     1      -3.848  -0.070 -12.207  1.00  0.00    -0.051 Br
ENDBRANCH  22  23
ENDBRANCH  19  22
ENDBRANCH  16  19
ENDBRANCH   9  15
ENDBRANCH   3   6
ENDBRANCH   1   2
BRANCH   1  30
ATOM     30  C   UNL     1      -0.528   3.041  -7.949  1.00  0.00     0.042 C 
BRANCH  30  31
ATOM     31  C   UNL     1      -0.330   3.941  -9.160  1.00  0.00     0.118 C 
BRANCH  31  32
ATOM     32  N   UNL     1      -0.701   3.268 -10.400  1.00  0.00    -0.352 N 
ATOM     33  C   UNL     1      -1.812   3.378 -11.201  1.00  0.00     0.251 C 
ATOM     34  H   UNL     1      -0.034   2.619 -10.721  1.00  0.00     0.163 HD
ATOM     35  O   UNL     1      -1.935   2.596 -12.141  1.00  0.00    -0.269 OA
BRANCH  33  36
ATOM     36  C   UNL     1      -2.848   4.414 -10.982  1.00  0.00     0.039 A 
ATOM     37  C   UNL     1      -4.198   4.096 -11.203  1.00  0.00     0.014 A 
ATOM     38  C   UNL     1      -2.493   5.731 -10.694  1.00  0.00     0.014 A 
ATOM     39  C   UNL     1      -5.184   5.085 -11.111  1.00  0.00     0.010 A 
ATOM     40  C   UNL     1      -3.476   6.701 -10.536  1.00  0.00     0.010 A 
ATOM     41  C   UNL     1      -4.824   6.397 -10.779  1.00  0.00    -0.014 A 
BRANCH  41  42
ATOM     42  C   UNL     1      -5.790   7.522 -10.802  1.00  0.00     0.031 A 
ATOM     43  C   UNL     1      -5.616   8.586 -11.855  1.00  0.00     0.074 A 
ATOM     44  C   UNL     1      -6.702   7.658  -9.822  1.00  0.00     0.049 A 
ATOM     45  N   UNL     1      -6.149   9.775 -11.932  1.00  0.00    -0.248 NA
ATOM     46  C   UNL     1      -4.672   8.280 -12.946  1.00  0.00     0.031 C 
ATOM     47  C   UNL     1      -6.924   6.702  -8.736  1.00  0.00     0.029 A 
ATOM     48  N   UNL     1      -7.572   8.683  -9.548  1.00  0.00    -0.354 N 
ATOM     49  C   UNL     1      -5.554  10.384 -13.033  1.00  0.00     0.074 A 
ATOM     50  C   UNL     1      -4.616   9.436 -13.590  1.00  0.00     0.031 C 
ATOM     51  C   UNL     1      -7.844   7.201  -7.894  1.00  0.00     0.029 A 
ATOM     52  C   UNL     1      -8.248   8.524  -8.359  1.00  0.00     0.049 A 
ATOM     53  H   UNL     1      -7.700   9.456 -10.143  1.00  0.00     0.167 HD
ATOM     54  C   UNL     1      -5.781  11.620 -13.537  1.00  0.00     0.034 A 
ATOM     55  C   UNL     1      -9.074   9.368  -7.709  1.00  0.00     0.034 A 
ATOM     56  C   UNL     1      -6.765  12.520 -13.002  1.00  0.00     0.049 A 
ATOM     57  C   UNL     1      -9.372  10.705  -8.337  1.00  0.00     0.074 A 
ATOM     58  C   UNL     1      -7.142  13.765 -13.471  1.00  0.00     0.029 A 
ATOM     59  N   UNL     1      -7.538  12.260 -11.880  1.00  0.00    -0.354 N 
ATOM     60  N   UNL     1      -8.882  11.226  -9.438  1.00  0.00    -0.248 NA
ATOM     61  C   UNL     1     -10.358  11.557  -7.659  1.00  0.00     0.031 C 
ATOM     62  C   UNL     1      -8.139  14.262 -12.624  1.00  0.00     0.029 A 
ATOM     63  C   UNL     1      -8.396  13.317 -11.642  1.00  0.00     0.049 A 
ATOM     64  H   UNL     1      -7.483  11.443 -11.333  1.00  0.00     0.167 HD
ATOM     65  C   UNL     1      -9.524  12.447  -9.603  1.00  0.00     0.074 A 
ATOM     66  C   UNL     1     -10.453  12.579  -8.499  1.00  0.00     0.031 C 
ATOM     67  C   UNL     1      -9.353  13.385 -10.567  1.00  0.00     0.034 A 
BRANCH  54  68
ATOM     68  C   UNL     1      -4.983  12.051 -14.741  1.00  0.00     0.023 A 
ATOM     69  C   UNL     1      -5.238  11.464 -15.997  1.00  0.00     0.012 A 
ATOM     70  C   UNL     1      -4.013  13.070 -14.642  1.00  0.00     0.148 A 
ATOM     71  C   UNL     1      -4.518  11.854 -17.126  1.00  0.00     0.002 A 
ATOM     72  C   UNL     1      -3.330  13.485 -15.780  1.00  0.00     0.091 A 
ATOM     73  F   UNL     1      -3.771  13.606 -13.437  1.00  0.00    -0.205 F 
ATOM     74  C   UNL     1      -3.572  12.870 -17.019  1.00  0.00     0.022 A 
BRANCH  72  75
ATOM     75  S   UNL     1      -2.142  14.833 -15.768  1.00  0.00     0.127 S 
ATOM     76  O   UNL     1      -0.893  14.129 -16.058  1.00  0.00    -0.237 OA
ATOM     77  O   UNL     1      -2.630  15.681 -16.855  1.00  0.00    -0.237 OA
ATOM     78  O   UNL     1      -2.223  15.432 -14.443  1.00  0.00    -0.744 OA
ENDBRANCH  72  75
ENDBRANCH  54  68
BRANCH  55  79
ATOM     79  C   UNL     1      -9.714   8.953  -6.427  1.00  0.00     0.023 A 
ATOM     80  C   UNL     1     -11.097   8.689  -6.399  1.00  0.00     0.012 A 
ATOM     81  C   UNL     1      -8.962   8.777  -5.248  1.00  0.00     0.148 A 
ATOM     82  C   UNL     1     -11.725   8.288  -5.218  1.00  0.00     0.002 A 
ATOM     83  C   UNL     1      -9.583   8.323  -4.089  1.00  0.00     0.091 A 
ATOM     84  F   UNL     1      -7.650   9.049  -5.283  1.00  0.00    -0.205 F 
ATOM     85  C   UNL     1     -10.967   8.093  -4.066  1.00  0.00     0.022 A 
BRANCH  83  86
ATOM     86  S   UNL     1      -8.654   7.912  -2.605  1.00  0.00     0.127 S 
ATOM     87  O   UNL     1      -8.911   9.071  -1.758  1.00  0.00    -0.237 OA
ATOM     88  O   UNL     1      -9.298   6.673  -2.171  1.00  0.00    -0.237 OA
ATOM     89  O   UNL     1      -7.275   7.739  -3.052  1.00  0.00    -0.744 OA
ENDBRANCH  83  86
ENDBRANCH  55  79
BRANCH  67  90
ATOM     90  C   UNL     1     -10.216  14.614 -10.501  1.00  0.00     0.023 A 
ATOM     91  C   UNL     1      -9.940  15.613  -9.548  1.00  0.00     0.012 A 
ATOM     92  C   UNL     1     -11.241  14.817 -11.445  1.00  0.00     0.148 A 
ATOM     93  C   UNL     1     -10.690  16.787  -9.519  1.00  0.00     0.002 A 
ATOM     94  C   UNL     1     -11.953  16.009 -11.441  1.00  0.00     0.091 A 
ATOM     95  F   UNL     1     -11.498  13.843 -12.330  1.00  0.00    -0.205 F 
ATOM     96  C   UNL     1     -11.686  16.991 -10.472  1.00  0.00     0.022 A 
BRANCH  94  97
ATOM     97  S   UNL     1     -13.182  16.395 -12.692  1.00  0.00     0.127 S 
ATOM     98  O   UNL     1     -14.428  16.223 -11.947  1.00  0.00    -0.237 OA
ATOM     99  O   UNL     1     -12.859  17.782 -13.030  1.00  0.00    -0.237 OA
ATOM    100  O   UNL     1     -12.961  15.445 -13.774  1.00  0.00    -0.744 OA
ENDBRANCH  94  97
ENDBRANCH  67  90
ENDBRANCH  41  42
ENDBRANCH  33  36
ENDBRANCH  31  32
ENDBRANCH  30  31
ENDBRANCH   1  30
TORSDOF 18
