REMARK SMILES N#Cc1ccc(C(=O)N2CCC[C@H]2C(=O)NCCCNC(=O)c2ccc(-c3c4nc(c(-c5cccc(S(=O)(=O)[O-])c5F)c5ccc([nH]5)c(-c5cccc(S(=O)(=O)[O-])c5F)c5nc(c(-c6cccc(S(=O)(=O)[O-])c6F)c6ccc3[nH]6)C=C5)C=C4)cc2)cc1
REMARK SMILES IDX 18 1 17 2 16 3 14 4 15 5 13 7 9 8 10 9 11 10 12 11 7 12 8 13
REMARK SMILES IDX 6 14 3 15 4 16 87 17 5 18 86 19 2 20 1 21 19 22 20 23 21 24
REMARK SMILES IDX 22 26 23 27 24 28 85 29 25 30 84 31 26 32 27 33 28 34 78 35
REMARK SMILES IDX 29 36 83 37 77 38 79 39 30 40 82 41 76 42 75 43 31 45 63 46
REMARK SMILES IDX 43 47 62 48 44 49 47 50 61 51 80 52 45 53 46 54 60 56 81 57
REMARK SMILES IDX 48 58 32 59 33 60 41 61 34 62 36 63 42 64 35 65 37 66 38 67
REMARK SMILES IDX 39 68 40 69 64 70 65 71 73 72 66 73 68 74 74 75 67 76 69 77
REMARK SMILES IDX 70 78 71 79 72 80 49 81 50 82 58 83 51 84 53 85 59 86 52 87
REMARK SMILES IDX 54 88 55 89 56 90 57 91
REMARK H PARENT 16 6 20 25 79 44 47 55
REMARK Flexibility Score: inf
ROOT
ATOM      1  C   UNL     1       6.484   1.889   3.455  1.00  0.00     0.042 C 
ENDROOT
BRANCH   1   2
ATOM      2  C   UNL     1       6.114   1.353   2.086  1.00  0.00     0.117 C 
BRANCH   2   3
ATOM      3  N   UNL     1       7.076   0.409   1.542  1.00  0.00    -0.354 N 
ATOM      4  C   UNL     1       6.848  -0.824   0.998  1.00  0.00     0.242 C 
ATOM      5  O   UNL     1       7.747  -1.321   0.312  1.00  0.00    -0.273 OA
ATOM      6  H   UNL     1       8.018   0.697   1.570  1.00  0.00     0.163 HD
BRANCH   4   7
ATOM      7  C   UNL     1       5.491  -1.530   1.222  1.00  0.00     0.174 C 
ATOM      8  N   UNL     1       4.519  -1.328   0.142  1.00  0.00    -0.327 N 
ATOM      9  C   UNL     1       4.541  -2.442  -0.776  1.00  0.00     0.121 C 
ATOM     10  C   UNL     1       4.756  -3.619   0.151  1.00  0.00     0.024 C 
ATOM     11  C   UNL     1       5.694  -3.067   1.230  1.00  0.00     0.037 C 
BRANCH   8  12
ATOM     12  C   UNL     1       3.843  -0.147  -0.061  1.00  0.00     0.254 C 
ATOM     13  O   UNL     1       4.416   0.936  -0.120  1.00  0.00    -0.269 OA
BRANCH  12  14
ATOM     14  C   UNL     1       2.346  -0.164  -0.086  1.00  0.00     0.040 A 
ATOM     15  C   UNL     1      -0.470  -0.024  -0.037  1.00  0.00     0.052 A 
ATOM     16  C   UNL     1       0.286   1.146  -0.121  1.00  0.00     0.020 A 
ATOM     17  C   UNL     1       0.179  -1.259   0.050  1.00  0.00     0.020 A 
ATOM     18  C   UNL     1       1.683   1.074  -0.150  1.00  0.00     0.015 A 
ATOM     19  C   UNL     1       1.578  -1.326   0.047  1.00  0.00     0.015 A 
BRANCH  15  20
ATOM     20  C   UNL     1      -1.904   0.037  -0.040  1.00  0.00     0.099 C 
ATOM     21  N   UNL     1      -3.062   0.072  -0.060  1.00  0.00    -0.192 NA
ENDBRANCH  15  20
ENDBRANCH  12  14
ENDBRANCH   8  12
ENDBRANCH   4   7
ENDBRANCH   2   3
ENDBRANCH   1   2
BRANCH   1  22
ATOM     22  C   UNL     1       7.840   2.571   3.527  1.00  0.00     0.118 C 
BRANCH  22  23
ATOM     23  N   UNL     1       7.945   3.757   2.689  1.00  0.00    -0.352 N 
ATOM     24  C   UNL     1       8.309   5.041   3.021  1.00  0.00     0.251 C 
ATOM     25  H   UNL     1       7.721   3.619   1.740  1.00  0.00     0.163 HD
ATOM     26  O   UNL     1       8.221   5.933   2.180  1.00  0.00    -0.269 OA
BRANCH  24  27
ATOM     27  C   UNL     1       8.773   5.362   4.390  1.00  0.00     0.039 A 
ATOM     28  C   UNL     1       8.338   6.548   4.986  1.00  0.00     0.014 A 
ATOM     29  C   UNL     1       9.625   4.506   5.091  1.00  0.00     0.014 A 
ATOM     30  C   UNL     1       8.706   6.839   6.302  1.00  0.00     0.010 A 
ATOM     31  C   UNL     1       9.895   4.740   6.436  1.00  0.00     0.010 A 
ATOM     32  C   UNL     1       9.455   5.918   7.055  1.00  0.00    -0.014 A 
BRANCH  32  33
ATOM     33  C   UNL     1       9.776   6.179   8.483  1.00  0.00     0.031 A 
ATOM     34  C   UNL     1      11.206   6.267   8.946  1.00  0.00     0.074 A 
ATOM     35  C   UNL     1       8.776   6.282   9.381  1.00  0.00     0.049 A 
ATOM     36  N   UNL     1      11.670   6.515  10.144  1.00  0.00    -0.248 NA
ATOM     37  C   UNL     1      12.253   6.020   7.941  1.00  0.00     0.031 C 
ATOM     38  C   UNL     1       7.351   6.139   9.079  1.00  0.00     0.029 A 
ATOM     39  N   UNL     1       8.805   6.525  10.732  1.00  0.00    -0.354 N 
ATOM     40  C   UNL     1      13.053   6.419  10.045  1.00  0.00     0.074 A 
ATOM     41  C   UNL     1      13.351   6.044   8.680  1.00  0.00     0.031 C 
ATOM     42  C   UNL     1       6.641   6.334  10.200  1.00  0.00     0.029 A 
ATOM     43  C   UNL     1       7.558   6.572  11.310  1.00  0.00     0.049 A 
ATOM     44  H   UNL     1       9.639   6.653  11.239  1.00  0.00     0.167 HD
ATOM     45  C   UNL     1      13.994   6.646  10.992  1.00  0.00     0.034 A 
ATOM     46  C   UNL     1       7.190   6.781  12.589  1.00  0.00     0.034 A 
ATOM     47  C   UNL     1      13.695   7.029  12.346  1.00  0.00     0.049 A 
ATOM     48  C   UNL     1       8.250   7.036  13.625  1.00  0.00     0.074 A 
ATOM     49  C   UNL     1      14.574   7.368  13.358  1.00  0.00     0.029 A 
ATOM     50  N   UNL     1      12.419   7.095  12.887  1.00  0.00    -0.354 N 
ATOM     51  N   UNL     1       9.551   7.096  13.477  1.00  0.00    -0.248 NA
ATOM     52  C   UNL     1       7.789   7.286  14.998  1.00  0.00     0.031 C 
ATOM     53  C   UNL     1      13.835   7.574  14.528  1.00  0.00     0.029 A 
ATOM     54  C   UNL     1      12.489   7.436  14.227  1.00  0.00     0.049 A 
ATOM     55  H   UNL     1      11.586   6.925  12.390  1.00  0.00     0.167 HD
ATOM     56  C   UNL     1      10.062   7.430  14.726  1.00  0.00     0.074 A 
ATOM     57  C   UNL     1       8.927   7.572  15.615  1.00  0.00     0.031 C 
ATOM     58  C   UNL     1      11.354   7.603  15.100  1.00  0.00     0.034 A 
BRANCH  45  59
ATOM     59  C   UNL     1      15.441   6.486  10.590  1.00  0.00     0.023 A 
ATOM     60  C   UNL     1      16.018   7.368   9.652  1.00  0.00     0.012 A 
ATOM     61  C   UNL     1      16.235   5.470  11.156  1.00  0.00     0.148 A 
ATOM     62  C   UNL     1      17.339   7.202   9.237  1.00  0.00     0.002 A 
ATOM     63  C   UNL     1      17.568   5.348  10.782  1.00  0.00     0.091 A 
ATOM     64  F   UNL     1      15.671   4.630  12.035  1.00  0.00    -0.205 F 
ATOM     65  C   UNL     1      18.116   6.198   9.808  1.00  0.00     0.022 A 
BRANCH  63  66
ATOM     66  S   UNL     1      18.674   4.143  11.523  1.00  0.00     0.127 S 
ATOM     67  O   UNL     1      18.875   3.208  10.417  1.00  0.00    -0.237 OA
ATOM     68  O   UNL     1      19.842   4.961  11.851  1.00  0.00    -0.237 OA
ATOM     69  O   UNL     1      17.967   3.604  12.677  1.00  0.00    -0.744 OA
ENDBRANCH  63  66
ENDBRANCH  45  59
BRANCH  46  70
ATOM     70  C   UNL     1       5.744   6.825  12.946  1.00  0.00     0.023 A 
ATOM     71  C   UNL     1       5.156   8.052  13.310  1.00  0.00     0.012 A 
ATOM     72  C   UNL     1       4.943   5.669  12.886  1.00  0.00     0.148 A 
ATOM     73  C   UNL     1       3.801   8.122  13.636  1.00  0.00     0.002 A 
ATOM     74  C   UNL     1       3.583   5.755  13.157  1.00  0.00     0.091 A 
ATOM     75  F   UNL     1       5.524   4.513  12.537  1.00  0.00    -0.205 F 
ATOM     76  C   UNL     1       3.013   6.977  13.549  1.00  0.00     0.022 A 
BRANCH  74  77
ATOM     77  S   UNL     1       2.466   4.364  12.954  1.00  0.00     0.127 S 
ATOM     78  O   UNL     1       1.986   4.164  14.319  1.00  0.00    -0.237 OA
ATOM     79  O   UNL     1       1.476   4.911  12.025  1.00  0.00    -0.237 OA
ATOM     80  O   UNL     1       3.273   3.281  12.409  1.00  0.00    -0.744 OA
ENDBRANCH  74  77
ENDBRANCH  46  70
BRANCH  58  81
ATOM     81  C   UNL     1      11.622   8.018  16.525  1.00  0.00     0.023 A 
ATOM     82  C   UNL     1      11.400   7.117  17.585  1.00  0.00     0.012 A 
ATOM     83  C   UNL     1      12.163   9.290  16.801  1.00  0.00     0.148 A 
ATOM     84  C   UNL     1      11.674   7.491  18.901  1.00  0.00     0.002 A 
ATOM     85  C   UNL     1      12.489   9.633  18.107  1.00  0.00     0.091 A 
ATOM     86  F   UNL     1      12.353  10.139  15.781  1.00  0.00    -0.205 F 
ATOM     87  C   UNL     1      12.230   8.742  19.160  1.00  0.00     0.022 A 
BRANCH  85  88
ATOM     88  S   UNL     1      13.300  11.180  18.524  1.00  0.00     0.127 S 
ATOM     89  O   UNL     1      12.251  11.875  19.269  1.00  0.00    -0.237 OA
ATOM     90  O   UNL     1      14.428  10.726  19.338  1.00  0.00    -0.237 OA
ATOM     91  O   UNL     1      13.674  11.796  17.258  1.00  0.00    -0.744 OA
ENDBRANCH  85  88
ENDBRANCH  58  81
ENDBRANCH  32  33
ENDBRANCH  24  27
ENDBRANCH  22  23
ENDBRANCH   1  22
TORSDOF 16
