REMARK SMILES CC[C@@H](C)NC(=O)Cn1cccc1C(=O)NCCCNC(=O)c1ccc(-c2c3nc(c(-c4cccc(S(=O)(=O)[O-])c4F)c4ccc([nH]4)c(-c4cccc(S(=O)(=O)[O-])c4F)c4nc(c(-c5cccc(S(=O)(=O)[O-])c5F)c5ccc2[nH]5)C=C4)C=C3)cc1
REMARK SMILES IDX 17 1 16 2 14 3 15 4 13 6 9 7 10 8 11 9 12 10 8 11 6 12 5 13
REMARK SMILES IDX 7 15 3 16 4 17 2 18 1 19 18 20 19 21 20 22 21 23 22 25 23 26
REMARK SMILES IDX 24 27 85 28 25 29 84 30 26 31 27 32 28 33 78 34 29 35 83 36
REMARK SMILES IDX 77 37 79 38 30 39 82 40 76 41 75 42 31 44 63 45 43 46 62 47
REMARK SMILES IDX 44 48 47 49 61 50 80 51 45 52 46 53 60 55 81 56 48 57 32 58
REMARK SMILES IDX 33 59 41 60 34 61 36 62 42 63 35 64 37 65 38 66 39 67 40 68
REMARK SMILES IDX 64 69 65 70 73 71 66 72 68 73 74 74 67 75 69 76 70 77 71 78
REMARK SMILES IDX 72 79 49 80 50 81 58 82 51 83 53 84 59 85 52 86 54 87 55 88
REMARK SMILES IDX 56 89 57 90
REMARK H PARENT 16 5 5 14 20 24 79 43 47 54
REMARK Flexibility Score: inf
ROOT
ATOM      1  C   UNL     1       3.197  -3.899   5.716  1.00  0.00     0.118 C 
ENDROOT
BRANCH   1   2
ATOM      2  N   UNL     1       2.742  -4.747   4.634  1.00  0.00    -0.351 N 
ATOM      3  C   UNL     1       2.917  -4.755   3.274  1.00  0.00     0.267 C 
ATOM      4  O   UNL     1       2.629  -5.826   2.731  1.00  0.00    -0.268 OA
ATOM      5  H   UNL     1       2.176  -5.489   4.947  1.00  0.00     0.163 HD
BRANCH   3   6
ATOM      6  C   UNL     1       3.484  -3.664   2.484  1.00  0.00     0.107 A 
ATOM      7  N   UNL     1       3.406  -2.286   2.587  1.00  0.00    -0.334 N 
ATOM      8  C   UNL     1       4.112  -1.692   1.556  1.00  0.00     0.087 A 
ATOM      9  C   UNL     1       4.494  -2.668   0.676  1.00  0.00     0.020 A 
ATOM     10  C   UNL     1       4.098  -3.891   1.247  1.00  0.00     0.033 A 
BRANCH   7  11
ATOM     11  C   UNL     1       2.625  -1.475   3.501  1.00  0.00     0.222 C 
BRANCH  11  12
ATOM     12  C   UNL     1       1.131  -1.685   3.370  1.00  0.00     0.240 C 
ATOM     13  N   UNL     1       0.343  -0.600   3.105  1.00  0.00    -0.352 N 
ATOM     14  H   UNL     1      -0.457  -0.453   3.659  1.00  0.00     0.163 HD
ATOM     15  O   UNL     1       0.573  -2.765   3.543  1.00  0.00    -0.273 OA
BRANCH  13  16
ATOM     16  C   UNL     1       0.633   0.346   2.041  1.00  0.00     0.078 C 
ATOM     17  C   UNL     1      -0.054   1.674   2.331  1.00  0.00     0.031 C 
BRANCH  16  18
ATOM     18  C   UNL     1       0.184  -0.297   0.719  1.00  0.00     0.021 C 
ATOM     19  C   UNL     1       0.795   0.357  -0.504  1.00  0.00     0.006 C 
ENDBRANCH  16  18
ENDBRANCH  13  16
ENDBRANCH  11  12
ENDBRANCH   7  11
ENDBRANCH   3   6
ENDBRANCH   1   2
BRANCH   1  20
ATOM     20  C   UNL     1       2.054  -3.117   6.378  1.00  0.00     0.042 C 
BRANCH  20  21
ATOM     21  C   UNL     1       1.253  -3.914   7.394  1.00  0.00     0.118 C 
BRANCH  21  22
ATOM     22  N   UNL     1       1.895  -3.862   8.695  1.00  0.00    -0.352 N 
ATOM     23  C   UNL     1       1.445  -4.356   9.894  1.00  0.00     0.251 C 
ATOM     24  H   UNL     1       2.770  -3.412   8.721  1.00  0.00     0.163 HD
ATOM     25  O   UNL     1       1.920  -3.911  10.930  1.00  0.00    -0.269 OA
BRANCH  23  26
ATOM     26  C   UNL     1       0.382  -5.384   9.939  1.00  0.00     0.039 A 
ATOM     27  C   UNL     1      -0.548  -5.311  10.982  1.00  0.00     0.014 A 
ATOM     28  C   UNL     1       0.329  -6.433   9.015  1.00  0.00     0.014 A 
ATOM     29  C   UNL     1      -1.556  -6.263  11.071  1.00  0.00     0.010 A 
ATOM     30  C   UNL     1      -0.708  -7.354   9.069  1.00  0.00     0.010 A 
ATOM     31  C   UNL     1      -1.643  -7.271  10.103  1.00  0.00    -0.014 A 
BRANCH  31  32
ATOM     32  C   UNL     1      -2.791  -8.201  10.144  1.00  0.00     0.031 A 
ATOM     33  C   UNL     1      -4.097  -7.506   9.720  1.00  0.00     0.074 A 
ATOM     34  C   UNL     1      -2.521  -9.464  10.584  1.00  0.00     0.049 A 
ATOM     35  N   UNL     1      -5.280  -7.497  10.272  1.00  0.00    -0.248 NA
ATOM     36  C   UNL     1      -4.009  -6.527   8.607  1.00  0.00     0.031 C 
ATOM     37  C   UNL     1      -1.179  -9.983  10.941  1.00  0.00     0.029 A 
ATOM     38  N   UNL     1      -3.305 -10.563  10.830  1.00  0.00    -0.354 N 
ATOM     39  C   UNL     1      -6.101  -6.664   9.467  1.00  0.00     0.074 A 
ATOM     40  C   UNL     1      -5.219  -5.966   8.578  1.00  0.00     0.031 C 
ATOM     41  C   UNL     1      -1.260 -11.242  11.422  1.00  0.00     0.029 A 
ATOM     42  C   UNL     1      -2.649 -11.654  11.441  1.00  0.00     0.049 A 
ATOM     43  H   UNL     1      -4.261 -10.589  10.596  1.00  0.00     0.167 HD
ATOM     44  C   UNL     1      -7.467  -6.741   9.430  1.00  0.00     0.034 A 
ATOM     45  C   UNL     1      -3.198 -12.763  12.023  1.00  0.00     0.034 A 
ATOM     46  C   UNL     1      -7.923  -7.865  10.189  1.00  0.00     0.049 A 
ATOM     47  C   UNL     1      -4.650 -12.550  11.937  1.00  0.00     0.074 A 
ATOM     48  C   UNL     1      -8.484  -8.147  11.409  1.00  0.00     0.029 A 
ATOM     49  N   UNL     1      -7.804  -9.041   9.496  1.00  0.00    -0.354 N 
ATOM     50  N   UNL     1      -5.369 -12.690  10.867  1.00  0.00    -0.248 NA
ATOM     51  C   UNL     1      -5.271 -11.844  13.057  1.00  0.00     0.031 C 
ATOM     52  C   UNL     1      -8.576  -9.566  11.473  1.00  0.00     0.029 A 
ATOM     53  C   UNL     1      -7.863 -10.069  10.389  1.00  0.00     0.049 A 
ATOM     54  H   UNL     1      -7.696  -9.129   8.521  1.00  0.00     0.167 HD
ATOM     55  C   UNL     1      -6.435 -11.843  11.081  1.00  0.00     0.074 A 
ATOM     56  C   UNL     1      -6.398 -11.451  12.480  1.00  0.00     0.031 C 
ATOM     57  C   UNL     1      -7.085 -11.227  10.064  1.00  0.00     0.034 A 
BRANCH  44  58
ATOM     58  C   UNL     1      -8.530  -6.183   8.474  1.00  0.00     0.023 A 
ATOM     59  C   UNL     1      -9.876  -6.331   8.929  1.00  0.00     0.012 A 
ATOM     60  C   UNL     1      -8.365  -5.874   7.110  1.00  0.00     0.148 A 
ATOM     61  C   UNL     1     -10.972  -6.361   8.068  1.00  0.00     0.002 A 
ATOM     62  C   UNL     1      -9.481  -5.826   6.259  1.00  0.00     0.091 A 
ATOM     63  F   UNL     1      -7.139  -5.710   6.607  1.00  0.00    -0.205 F 
ATOM     64  C   UNL     1     -10.770  -6.124   6.724  1.00  0.00     0.022 A 
BRANCH  62  65
ATOM     65  S   UNL     1      -9.371  -5.379   4.520  1.00  0.00     0.127 S 
ATOM     66  O   UNL     1      -9.487  -6.674   3.859  1.00  0.00    -0.237 OA
ATOM     67  O   UNL     1     -10.539  -4.509   4.355  1.00  0.00    -0.237 OA
ATOM     68  O   UNL     1      -8.098  -4.682   4.378  1.00  0.00    -0.744 OA
ENDBRANCH  62  65
ENDBRANCH  44  58
BRANCH  45  69
ATOM     69  C   UNL     1      -2.670 -13.855  12.912  1.00  0.00     0.023 A 
ATOM     70  C   UNL     1      -1.348 -14.323  12.852  1.00  0.00     0.012 A 
ATOM     71  C   UNL     1      -3.504 -14.443  13.907  1.00  0.00     0.148 A 
ATOM     72  C   UNL     1      -0.854 -15.237  13.802  1.00  0.00     0.002 A 
ATOM     73  C   UNL     1      -2.995 -15.279  14.895  1.00  0.00     0.091 A 
ATOM     74  F   UNL     1      -4.820 -14.206  13.889  1.00  0.00    -0.205 F 
ATOM     75  C   UNL     1      -1.663 -15.683  14.845  1.00  0.00     0.022 A 
BRANCH  73  76
ATOM     76  S   UNL     1      -3.971 -15.765  16.331  1.00  0.00     0.127 S 
ATOM     77  O   UNL     1      -3.902 -17.224  16.274  1.00  0.00    -0.237 OA
ATOM     78  O   UNL     1      -3.209 -15.157  17.422  1.00  0.00    -0.237 OA
ATOM     79  O   UNL     1      -5.300 -15.201  16.136  1.00  0.00    -0.744 OA
ENDBRANCH  73  76
ENDBRANCH  45  69
BRANCH  57  80
ATOM     80  C   UNL     1      -6.560 -11.559   8.675  1.00  0.00     0.023 A 
ATOM     81  C   UNL     1      -6.995 -12.726   8.040  1.00  0.00     0.012 A 
ATOM     82  C   UNL     1      -5.564 -10.782   8.026  1.00  0.00     0.148 A 
ATOM     83  C   UNL     1      -6.470 -13.099   6.796  1.00  0.00     0.002 A 
ATOM     84  C   UNL     1      -5.034 -11.154   6.794  1.00  0.00     0.091 A 
ATOM     85  F   UNL     1      -5.156  -9.662   8.621  1.00  0.00    -0.205 F 
ATOM     86  C   UNL     1      -5.495 -12.317   6.173  1.00  0.00     0.022 A 
BRANCH  84  87
ATOM     87  S   UNL     1      -3.718 -10.240   5.961  1.00  0.00     0.127 S 
ATOM     88  O   UNL     1      -2.750 -11.295   5.657  1.00  0.00    -0.237 OA
ATOM     89  O   UNL     1      -4.411  -9.704   4.794  1.00  0.00    -0.237 OA
ATOM     90  O   UNL     1      -3.233  -9.245   6.913  1.00  0.00    -0.744 OA
ENDBRANCH  84  87
ENDBRANCH  57  80
ENDBRANCH  31  32
ENDBRANCH  23  26
ENDBRANCH  21  22
ENDBRANCH  20  21
ENDBRANCH   1  20
TORSDOF 17
