REMARK SMILES O=C(NCCCNC(=O)c1cn(-c2cc(Cl)ncn2)cn1)c1ccc(-c2c3nc(c(-c4cccc(S(=O)(=O)[O-])c4F)c4ccc([nH]4)c(-c4cccc(S(=O)(=O)[O-])c4F)c4nc(c(-c5cccc(S(=O)(=O)[O-])c5F)c5ccc2[nH]5)C=C4)C=C3)cc1
REMARK SMILES IDX 4 1 3 2 1 3 2 4 22 6 23 7 84 8 24 9 83 10 25 11 26 12 27 13
REMARK SMILES IDX 77 14 28 15 82 16 76 17 78 18 29 19 81 20 75 21 74 22 30 24
REMARK SMILES IDX 62 25 42 26 61 27 43 28 46 29 60 30 79 31 44 32 45 33 59 35
REMARK SMILES IDX 80 36 47 37 31 38 32 39 40 40 33 41 35 42 41 43 34 44 36 45
REMARK SMILES IDX 37 46 38 47 39 48 63 49 64 50 72 51 65 52 67 53 73 54 66 55
REMARK SMILES IDX 68 56 69 57 70 58 71 59 48 60 49 61 57 62 50 63 52 64 58 65
REMARK SMILES IDX 51 66 53 67 54 68 55 69 56 70 5 71 6 72 7 73 8 74 9 76 10 77
REMARK SMILES IDX 11 78 21 79 12 80 20 81 13 82 14 83 19 84 15 85 18 86 16 87
REMARK SMILES IDX 17 88
REMARK H PARENT 3 5 78 23 46 34 7 75
REMARK Flexibility Score: inf
ROOT
ATOM      1  C   UNL     1       4.718  -0.745  -0.935  1.00  0.00     0.118 C 
ENDROOT
BRANCH   1   2
ATOM      2  N   UNL     1       3.317  -0.449  -1.155  1.00  0.00    -0.352 N 
ATOM      3  O   UNL     1       1.294   0.394  -0.963  1.00  0.00    -0.269 OA
ATOM      4  C   UNL     1       2.289  -0.019  -0.361  1.00  0.00     0.251 C 
ATOM      5  H   UNL     1       3.042  -0.588  -2.090  1.00  0.00     0.163 HD
BRANCH   4   6
ATOM      6  C   UNL     1       2.252  -0.107   1.124  1.00  0.00     0.039 A 
ATOM      7  C   UNL     1       3.324  -0.450   1.950  1.00  0.00     0.014 A 
ATOM      8  C   UNL     1       0.989   0.105   1.711  1.00  0.00     0.014 A 
ATOM      9  C   UNL     1       3.115  -0.691   3.306  1.00  0.00     0.010 A 
ATOM     10  C   UNL     1       0.777  -0.125   3.063  1.00  0.00     0.010 A 
ATOM     11  C   UNL     1       1.834  -0.569   3.849  1.00  0.00    -0.014 A 
BRANCH  11  12
ATOM     12  C   UNL     1       1.662  -0.755   5.287  1.00  0.00     0.031 A 
ATOM     13  C   UNL     1       2.288   0.316   6.112  1.00  0.00     0.074 A 
ATOM     14  C   UNL     1       0.877  -1.715   5.819  1.00  0.00     0.049 A 
ATOM     15  N   UNL     1       3.249   0.205   6.971  1.00  0.00    -0.248 NA
ATOM     16  C   UNL     1       1.895   1.706   5.836  1.00  0.00     0.031 C 
ATOM     17  C   UNL     1      -0.021  -2.624   5.101  1.00  0.00     0.029 A 
ATOM     18  N   UNL     1       0.601  -1.984   7.129  1.00  0.00    -0.354 N 
ATOM     19  C   UNL     1       3.417   1.481   7.514  1.00  0.00     0.074 A 
ATOM     20  C   UNL     1       2.717   2.380   6.639  1.00  0.00     0.031 C 
ATOM     21  C   UNL     1      -0.911  -3.149   5.973  1.00  0.00     0.029 A 
ATOM     22  C   UNL     1      -0.571  -2.715   7.317  1.00  0.00     0.049 A 
ATOM     23  H   UNL     1       1.177  -1.689   7.872  1.00  0.00     0.167 HD
ATOM     24  C   UNL     1       3.893   1.656   8.780  1.00  0.00     0.034 A 
ATOM     25  C   UNL     1      -1.259  -2.873   8.477  1.00  0.00     0.034 A 
ATOM     26  C   UNL     1       4.554   0.464   9.251  1.00  0.00     0.049 A 
ATOM     27  C   UNL     1      -0.339  -2.552   9.589  1.00  0.00     0.074 A 
ATOM     28  C   UNL     1       5.626  -0.301   8.840  1.00  0.00     0.029 A 
ATOM     29  N   UNL     1       3.861  -0.310  10.149  1.00  0.00    -0.354 N 
ATOM     30  N   UNL     1       0.697  -3.278   9.900  1.00  0.00    -0.248 NA
ATOM     31  C   UNL     1      -0.331  -1.191  10.095  1.00  0.00     0.031 C 
ATOM     32  C   UNL     1       5.257  -1.645   9.147  1.00  0.00     0.029 A 
ATOM     33  C   UNL     1       4.014  -1.615   9.780  1.00  0.00     0.049 A 
ATOM     34  H   UNL     1       3.345   0.018  10.920  1.00  0.00     0.167 HD
ATOM     35  C   UNL     1       1.677  -2.349  10.216  1.00  0.00     0.074 A 
ATOM     36  C   UNL     1       0.958  -1.095  10.432  1.00  0.00     0.031 C 
ATOM     37  C   UNL     1       2.994  -2.618   9.981  1.00  0.00     0.034 A 
BRANCH  24  38
ATOM     38  C   UNL     1       3.395   2.707   9.767  1.00  0.00     0.023 A 
ATOM     39  C   UNL     1       3.974   2.680  11.060  1.00  0.00     0.012 A 
ATOM     40  C   UNL     1       2.214   3.470   9.623  1.00  0.00     0.148 A 
ATOM     41  C   UNL     1       3.341   3.255  12.168  1.00  0.00     0.002 A 
ATOM     42  C   UNL     1       1.618   4.091  10.716  1.00  0.00     0.091 A 
ATOM     43  F   UNL     1       1.582   3.527   8.452  1.00  0.00    -0.205 F 
ATOM     44  C   UNL     1       2.153   3.950  11.997  1.00  0.00     0.022 A 
BRANCH  42  45
ATOM     45  S   UNL     1       0.098   5.039  10.552  1.00  0.00     0.127 S 
ATOM     46  O   UNL     1      -0.865   4.152  11.198  1.00  0.00    -0.237 OA
ATOM     47  O   UNL     1       0.424   6.253  11.300  1.00  0.00    -0.237 OA
ATOM     48  O   UNL     1      -0.087   5.249   9.122  1.00  0.00    -0.744 OA
ENDBRANCH  42  45
ENDBRANCH  24  38
BRANCH  25  49
ATOM     49  C   UNL     1      -2.718  -3.013   8.706  1.00  0.00     0.023 A 
ATOM     50  C   UNL     1      -3.192  -3.537   9.927  1.00  0.00     0.012 A 
ATOM     51  C   UNL     1      -3.645  -2.367   7.858  1.00  0.00     0.148 A 
ATOM     52  C   UNL     1      -4.534  -3.396  10.303  1.00  0.00     0.002 A 
ATOM     53  C   UNL     1      -4.979  -2.237   8.232  1.00  0.00     0.091 A 
ATOM     54  F   UNL     1      -3.199  -1.798   6.731  1.00  0.00    -0.205 F 
ATOM     55  C   UNL     1      -5.426  -2.739   9.460  1.00  0.00     0.022 A 
BRANCH  53  56
ATOM     56  S   UNL     1      -6.180  -1.378   7.206  1.00  0.00     0.127 S 
ATOM     57  O   UNL     1      -7.282  -2.339   7.163  1.00  0.00    -0.237 OA
ATOM     58  O   UNL     1      -6.445  -0.176   7.992  1.00  0.00    -0.237 OA
ATOM     59  O   UNL     1      -5.524  -1.162   5.922  1.00  0.00    -0.744 OA
ENDBRANCH  53  56
ENDBRANCH  25  49
BRANCH  37  60
ATOM     60  C   UNL     1       3.386  -4.033   9.655  1.00  0.00     0.023 A 
ATOM     61  C   UNL     1       2.941  -4.697   8.492  1.00  0.00     0.012 A 
ATOM     62  C   UNL     1       4.370  -4.639  10.452  1.00  0.00     0.148 A 
ATOM     63  C   UNL     1       3.456  -5.949   8.146  1.00  0.00     0.002 A 
ATOM     64  C   UNL     1       4.916  -5.857  10.077  1.00  0.00     0.091 A 
ATOM     65  F   UNL     1       4.779  -3.990  11.553  1.00  0.00    -0.205 F 
ATOM     66  C   UNL     1       4.455  -6.522   8.930  1.00  0.00     0.022 A 
BRANCH  64  67
ATOM     67  S   UNL     1       6.296  -6.575  10.970  1.00  0.00     0.127 S 
ATOM     68  O   UNL     1       5.653  -7.666  11.700  1.00  0.00    -0.237 OA
ATOM     69  O   UNL     1       7.182  -7.001   9.886  1.00  0.00    -0.237 OA
ATOM     70  O   UNL     1       6.841  -5.503  11.794  1.00  0.00    -0.744 OA
ENDBRANCH  64  67
ENDBRANCH  37  60
ENDBRANCH  11  12
ENDBRANCH   4   6
ENDBRANCH   1   2
BRANCH   1  71
ATOM     71  C   UNL     1       5.029  -2.196  -0.565  1.00  0.00     0.042 C 
BRANCH  71  72
ATOM     72  C   UNL     1       4.500  -3.247  -1.541  1.00  0.00     0.118 C 
BRANCH  72  73
ATOM     73  N   UNL     1       5.022  -3.083  -2.888  1.00  0.00    -0.351 N 
ATOM     74  C   UNL     1       5.878  -3.881  -3.613  1.00  0.00     0.271 C 
ATOM     75  H   UNL     1       4.714  -2.274  -3.356  1.00  0.00     0.163 HD
ATOM     76  O   UNL     1       6.292  -3.467  -4.692  1.00  0.00    -0.267 OA
BRANCH  74  77
ATOM     77  C   UNL     1       6.244  -5.194  -3.084  1.00  0.00     0.146 A 
ATOM     78  C   UNL     1       5.385  -6.222  -2.734  1.00  0.00     0.128 A 
ATOM     79  N   UNL     1       7.551  -5.598  -2.904  1.00  0.00    -0.231 NA
ATOM     80  N   UNL     1       6.181  -7.234  -2.248  1.00  0.00    -0.290 N 
ATOM     81  C   UNL     1       7.477  -6.796  -2.368  1.00  0.00     0.206 A 
BRANCH  80  82
ATOM     82  C   UNL     1       5.782  -8.481  -1.706  1.00  0.00     0.142 A 
ATOM     83  C   UNL     1       4.552  -9.008  -2.031  1.00  0.00     0.088 A 
ATOM     84  N   UNL     1       6.652  -9.106  -0.881  1.00  0.00    -0.219 NA
ATOM     85  C   UNL     1       4.280 -10.226  -1.458  1.00  0.00     0.134 A 
ATOM     86  C   UNL     1       6.234 -10.254  -0.329  1.00  0.00     0.226 A 
ATOM     87  Cl  UNL     1       2.844 -11.076  -1.860  1.00  0.00    -0.062 Cl
ATOM     88  N   UNL     1       5.081 -10.870  -0.597  1.00  0.00    -0.224 NA
ENDBRANCH  80  82
ENDBRANCH  74  77
ENDBRANCH  72  73
ENDBRANCH  71  72
ENDBRANCH   1  71
TORSDOF 14
