REMARK SMILES CCCC[C@@H](NS(=O)(=O)c1cc2c3c(c1)c(C)cc(=O)n3CC2)C(=O)NCCCNC(=O)c1ccc(-c2c3nc(c(-c4cccc(S(=O)(=O)[O-])c4F)c4ccc([nH]4)c(-c4cccc(S(=O)(=O)[O-])c4F)c4nc(c(-c5cccc(S(=O)(=O)[O-])c5F)c5ccc2[nH]5)C=C4)C=C3)cc1
REMARK SMILES IDX 28 1 27 2 26 3 24 4 25 5 5 7 4 8 3 9 2 10 1 11 6 12 7 14
REMARK SMILES IDX 8 15 9 16 10 17 11 18 15 19 12 20 14 21 13 22 23 23 16 24
REMARK SMILES IDX 21 25 22 26 17 27 18 28 19 29 20 30 29 31 30 32 31 33 32 35
REMARK SMILES IDX 33 36 34 37 95 38 35 39 94 40 36 41 37 42 38 43 88 44 39 45
REMARK SMILES IDX 93 46 87 47 89 48 40 49 92 50 86 51 85 52 41 54 73 55 53 56
REMARK SMILES IDX 72 57 54 58 57 59 71 60 90 61 55 62 56 63 70 65 91 66 58 67
REMARK SMILES IDX 42 68 43 69 51 70 44 71 46 72 52 73 45 74 47 75 48 76 49 77
REMARK SMILES IDX 50 78 74 79 75 80 83 81 76 82 78 83 84 84 77 85 79 86 80 87
REMARK SMILES IDX 81 88 82 89 59 90 60 91 68 92 61 93 63 94 69 95 62 96 64 97
REMARK SMILES IDX 65 98 66 99 67 100
REMARK H PARENT 26 6 6 13 30 34 89 53 57 64
REMARK Flexibility Score: inf
ROOT
ATOM      1  C   UNL     1       1.301   4.679   4.414  1.00  0.00     0.042 C 
ENDROOT
BRANCH   1   2
ATOM      2  C   UNL     1       0.003   3.918   4.236  1.00  0.00     0.117 C 
BRANCH   2   3
ATOM      3  N   UNL     1      -0.574   4.100   2.911  1.00  0.00    -0.355 N 
ATOM      4  C   UNL     1      -1.117   3.185   2.051  1.00  0.00     0.238 C 
ATOM      5  O   UNL     1      -1.708   3.609   1.055  1.00  0.00    -0.273 OA
ATOM      6  H   UNL     1      -0.574   5.028   2.582  1.00  0.00     0.163 HD
BRANCH   4   7
ATOM      7  C   UNL     1      -1.001   1.683   2.324  1.00  0.00     0.159 C 
BRANCH   7   8
ATOM      8  C   UNL     1       0.492   1.291   2.337  1.00  0.00     0.030 C 
BRANCH   8   9
ATOM      9  C   UNL     1       0.803  -0.205   2.315  1.00  0.00     0.002 C 
BRANCH   9  10
ATOM     10  C   UNL     1       0.392  -0.950   1.047  1.00  0.00    -0.003 C 
ATOM     11  C   UNL     1       0.969  -0.351  -0.227  1.00  0.00     0.004 C 
ENDBRANCH   9  10
ENDBRANCH   8   9
ENDBRANCH   7   8
BRANCH   7  12
ATOM     12  N   UNL     1      -1.698   1.349   3.591  1.00  0.00    -0.199 NA
ATOM     13  H   UNL     1      -1.486   2.097   4.250  1.00  0.00     0.142 HD
BRANCH  12  14
ATOM     14  S   UNL     1      -3.379   1.148   3.604  1.00  0.00     0.241 S 
ATOM     15  O   UNL     1      -3.752   0.493   2.372  1.00  0.00    -0.207 OA
ATOM     16  O   UNL     1      -3.682   0.558   4.891  1.00  0.00    -0.207 OA
BRANCH  14  17
ATOM     17  C   UNL     1      -4.107   2.774   3.622  1.00  0.00     0.083 A 
ATOM     18  C   UNL     1      -3.431   3.823   4.255  1.00  0.00     0.027 A 
ATOM     19  C   UNL     1      -5.332   2.995   2.947  1.00  0.00     0.032 A 
ATOM     20  C   UNL     1      -3.871   5.113   4.041  1.00  0.00    -0.020 A 
ATOM     21  C   UNL     1      -5.853   4.290   2.853  1.00  0.00     0.003 A 
ATOM     22  C   UNL     1      -5.057   5.305   3.358  1.00  0.00     0.055 A 
ATOM     23  C   UNL     1      -3.263   6.436   4.404  1.00  0.00     0.060 C 
ATOM     24  C   UNL     1      -7.146   4.702   2.274  1.00  0.00    -0.036 A 
ATOM     25  N   UNL     1      -5.351   6.653   3.230  1.00  0.00    -0.308 N 
ATOM     26  C   UNL     1      -4.259   7.447   3.784  1.00  0.00     0.131 C 
ATOM     27  C   UNL     1      -8.140   3.650   1.893  1.00  0.00     0.045 C 
ATOM     28  C   UNL     1      -7.421   6.020   2.164  1.00  0.00     0.075 A 
ATOM     29  C   UNL     1      -6.485   7.101   2.614  1.00  0.00     0.251 A 
ATOM     30  O   UNL     1      -6.775   8.280   2.447  1.00  0.00    -0.269 OA
ENDBRANCH  14  17
ENDBRANCH  12  14
ENDBRANCH   7  12
ENDBRANCH   4   7
ENDBRANCH   2   3
ENDBRANCH   1   2
BRANCH   1  31
ATOM     31  C   UNL     1       1.075   6.183   4.477  1.00  0.00     0.118 C 
BRANCH  31  32
ATOM     32  N   UNL     1       0.256   6.583   5.622  1.00  0.00    -0.352 N 
ATOM     33  C   UNL     1       0.545   7.498   6.603  1.00  0.00     0.251 C 
ATOM     34  H   UNL     1      -0.619   6.137   5.698  1.00  0.00     0.163 HD
ATOM     35  O   UNL     1      -0.190   7.633   7.573  1.00  0.00    -0.269 OA
BRANCH  33  36
ATOM     36  C   UNL     1       1.776   8.287   6.461  1.00  0.00     0.039 A 
ATOM     37  C   UNL     1       2.748   8.215   7.459  1.00  0.00     0.014 A 
ATOM     38  C   UNL     1       1.997   8.995   5.276  1.00  0.00     0.014 A 
ATOM     39  C   UNL     1       3.987   8.808   7.236  1.00  0.00     0.010 A 
ATOM     40  C   UNL     1       3.255   9.520   5.028  1.00  0.00     0.010 A 
ATOM     41  C   UNL     1       4.255   9.436   6.009  1.00  0.00    -0.014 A 
BRANCH  41  42
ATOM     42  C   UNL     1       5.567  10.058   5.738  1.00  0.00     0.031 A 
ATOM     43  C   UNL     1       5.652  11.550   5.607  1.00  0.00     0.074 A 
ATOM     44  C   UNL     1       6.649   9.283   5.538  1.00  0.00     0.049 A 
ATOM     45  N   UNL     1       6.686  12.290   5.316  1.00  0.00    -0.248 NA
ATOM     46  C   UNL     1       4.404  12.310   5.806  1.00  0.00     0.031 C 
ATOM     47  C   UNL     1       6.665   7.819   5.578  1.00  0.00     0.029 A 
ATOM     48  N   UNL     1       7.945   9.622   5.244  1.00  0.00    -0.354 N 
ATOM     49  C   UNL     1       6.212  13.593   5.269  1.00  0.00     0.074 A 
ATOM     50  C   UNL     1       4.791  13.545   5.525  1.00  0.00     0.031 C 
ATOM     51  C   UNL     1       7.913   7.387   5.330  1.00  0.00     0.029 A 
ATOM     52  C   UNL     1       8.779   8.539   5.097  1.00  0.00     0.049 A 
ATOM     53  H   UNL     1       8.249  10.553   5.148  1.00  0.00     0.167 HD
ATOM     54  C   UNL     1       6.907  14.734   5.071  1.00  0.00     0.034 A 
ATOM     55  C   UNL     1      10.095   8.487   4.816  1.00  0.00     0.034 A 
ATOM     56  C   UNL     1       8.328  14.782   4.881  1.00  0.00     0.049 A 
ATOM     57  C   UNL     1      10.854   9.773   4.637  1.00  0.00     0.074 A 
ATOM     58  C   UNL     1       9.138  15.894   4.750  1.00  0.00     0.029 A 
ATOM     59  N   UNL     1       9.148  13.668   4.803  1.00  0.00    -0.354 N 
ATOM     60  N   UNL     1      10.411  11.005   4.719  1.00  0.00    -0.248 NA
ATOM     61  C   UNL     1      12.293   9.668   4.357  1.00  0.00     0.031 C 
ATOM     62  C   UNL     1      10.455  15.451   4.596  1.00  0.00     0.029 A 
ATOM     63  C   UNL     1      10.460  14.065   4.630  1.00  0.00     0.049 A 
ATOM     64  H   UNL     1       8.843  12.735   4.862  1.00  0.00     0.167 HD
ATOM     65  C   UNL     1      11.518  11.822   4.525  1.00  0.00     0.074 A 
ATOM     66  C   UNL     1      12.656  10.946   4.333  1.00  0.00     0.031 C 
ATOM     67  C   UNL     1      11.583  13.174   4.495  1.00  0.00     0.034 A 
BRANCH  54  68
ATOM     68  C   UNL     1       6.152  16.028   5.138  1.00  0.00     0.023 A 
ATOM     69  C   UNL     1       5.795  16.545   6.399  1.00  0.00     0.012 A 
ATOM     70  C   UNL     1       5.848  16.756   3.973  1.00  0.00     0.148 A 
ATOM     71  C   UNL     1       5.132  17.765   6.502  1.00  0.00     0.002 A 
ATOM     72  C   UNL     1       5.213  17.987   4.085  1.00  0.00     0.091 A 
ATOM     73  F   UNL     1       6.179  16.229   2.786  1.00  0.00    -0.205 F 
ATOM     74  C   UNL     1       4.850  18.490   5.347  1.00  0.00     0.022 A 
BRANCH  72  75
ATOM     75  S   UNL     1       4.844  19.024   2.667  1.00  0.00     0.127 S 
ATOM     76  O   UNL     1       3.382  19.036   2.683  1.00  0.00    -0.237 OA
ATOM     77  O   UNL     1       5.470  20.291   3.045  1.00  0.00    -0.237 OA
ATOM     78  O   UNL     1       5.444  18.363   1.516  1.00  0.00    -0.744 OA
ENDBRANCH  72  75
ENDBRANCH  54  68
BRANCH  55  79
ATOM     79  C   UNL     1      10.789   7.171   4.784  1.00  0.00     0.023 A 
ATOM     80  C   UNL     1      11.592   6.799   5.878  1.00  0.00     0.012 A 
ATOM     81  C   UNL     1      10.609   6.268   3.720  1.00  0.00     0.148 A 
ATOM     82  C   UNL     1      12.218   5.553   5.909  1.00  0.00     0.002 A 
ATOM     83  C   UNL     1      11.206   5.013   3.773  1.00  0.00     0.091 A 
ATOM     84  F   UNL     1       9.838   6.646   2.691  1.00  0.00    -0.205 F 
ATOM     85  C   UNL     1      12.019   4.657   4.861  1.00  0.00     0.022 A 
BRANCH  83  86
ATOM     86  S   UNL     1      10.930   3.751   2.524  1.00  0.00     0.127 S 
ATOM     87  O   UNL     1      12.271   3.580   1.970  1.00  0.00    -0.237 OA
ATOM     88  O   UNL     1      10.450   2.631   3.334  1.00  0.00    -0.237 OA
ATOM     89  O   UNL     1       9.941   4.306   1.611  1.00  0.00    -0.744 OA
ENDBRANCH  83  86
ENDBRANCH  55  79
BRANCH  67  90
ATOM     90  C   UNL     1      12.921  13.813   4.257  1.00  0.00     0.023 A 
ATOM     91  C   UNL     1      13.409  13.912   2.941  1.00  0.00     0.012 A 
ATOM     92  C   UNL     1      13.611  14.445   5.310  1.00  0.00     0.148 A 
ATOM     93  C   UNL     1      14.571  14.633   2.674  1.00  0.00     0.002 A 
ATOM     94  C   UNL     1      14.750  15.189   5.031  1.00  0.00     0.091 A 
ATOM     95  F   UNL     1      13.125  14.327   6.554  1.00  0.00    -0.205 F 
ATOM     96  C   UNL     1      15.233  15.281   3.715  1.00  0.00     0.022 A 
BRANCH  94  97
ATOM     97  S   UNL     1      15.624  16.128   6.289  1.00  0.00     0.127 S 
ATOM     98  O   UNL     1      16.892  15.403   6.372  1.00  0.00    -0.237 OA
ATOM     99  O   UNL     1      15.717  17.453   5.676  1.00  0.00    -0.237 OA
ATOM    100  O   UNL     1      14.796  16.068   7.486  1.00  0.00    -0.744 OA
ENDBRANCH  94  97
ENDBRANCH  67  90
ENDBRANCH  41  42
ENDBRANCH  33  36
ENDBRANCH  31  32
ENDBRANCH   1  31
TORSDOF 19
