REMARK SMILES CC(C)N(c1cc2c(cc1Cl)C=C(C(=O)NCCCNC(=O)c1ccc(-c3c4nc(c(-c5cccc(S(=O)(=O)[O-])c5F)c5ccc([nH]5)c(-c5cccc(S(=O)(=O)[O-])c5F)c5nc(c(-c6cccc(S(=O)(=O)[O-])c6F)c6ccc3[nH]6)C=C5)C=C4)cc1)[C@@H](C(F)(F)F)O2)C(C)C
REMARK SMILES IDX 18 1 17 2 16 3 14 4 15 5 13 7 5 8 6 9 10 10 7 11 9 12 11 13
REMARK SMILES IDX 8 14 91 15 12 16 86 17 4 18 2 19 1 20 3 21 92 22 93 23 94 24
REMARK SMILES IDX 87 25 88 26 89 27 90 28 19 29 20 30 21 31 22 33 23 34 24 35
REMARK SMILES IDX 85 36 25 37 84 38 26 39 27 40 28 41 78 42 29 43 83 44 77 45
REMARK SMILES IDX 79 46 30 47 82 48 76 49 75 50 31 52 63 53 43 54 62 55 44 56
REMARK SMILES IDX 47 57 61 58 80 59 45 60 46 61 60 63 81 64 48 65 32 66 33 67
REMARK SMILES IDX 41 68 34 69 36 70 42 71 35 72 37 73 38 74 39 75 40 76 64 77
REMARK SMILES IDX 65 78 73 79 66 80 68 81 74 82 67 83 69 84 70 85 71 86 72 87
REMARK SMILES IDX 49 88 50 89 58 90 51 91 53 92 59 93 52 94 54 95 55 96 56 97
REMARK SMILES IDX 57 98
REMARK H PARENT 16 6 20 32 79 51 47 62
REMARK Flexibility Score: inf
ROOT
ATOM      1  C   UNL     1      -8.076  -1.132  -6.685  1.00  0.00     0.042 C 
ENDROOT
BRANCH   1   2
ATOM      2  C   UNL     1      -8.112  -2.191  -5.592  1.00  0.00     0.118 C 
BRANCH   2   3
ATOM      3  N   UNL     1      -7.228  -3.311  -5.890  1.00  0.00    -0.352 N 
ATOM      4  C   UNL     1      -6.025  -3.771  -5.478  1.00  0.00     0.251 C 
ATOM      5  O   UNL     1      -5.640  -4.801  -6.043  1.00  0.00    -0.270 OA
ATOM      6  H   UNL     1      -7.613  -3.893  -6.584  1.00  0.00     0.163 HD
BRANCH   4   7
ATOM      7  C   UNL     1      -5.177  -3.152  -4.420  1.00  0.00     0.067 C 
ATOM      8  C   UNL     1      -1.594  -2.194  -0.970  1.00  0.00     0.060 A 
ATOM      9  C   UNL     1      -2.624  -1.449  -1.576  1.00  0.00     0.074 A 
ATOM     10  C   UNL     1      -1.362  -3.491  -1.490  1.00  0.00     0.065 A 
ATOM     11  C   UNL     1      -3.415  -1.984  -2.592  1.00  0.00     0.130 A 
ATOM     12  C   UNL     1      -2.120  -4.000  -2.560  1.00  0.00     0.034 A 
ATOM     13  Cl  UNL     1      -0.219  -4.597  -0.797  1.00  0.00    -0.082 Cl
ATOM     14  C   UNL     1      -3.162  -3.253  -3.101  1.00  0.00     0.019 A 
ATOM     15  O   UNL     1      -4.441  -1.208  -3.059  1.00  0.00    -0.475 OA
ATOM     16  C   UNL     1      -4.003  -3.767  -4.175  1.00  0.00     0.025 C 
ATOM     17  C   UNL     1      -5.571  -1.952  -3.603  1.00  0.00     0.314 C 
BRANCH   8  18
ATOM     18  N   UNL     1      -0.895  -1.634   0.121  1.00  0.00    -0.365 N 
BRANCH  18  19
ATOM     19  C   UNL     1       0.576  -1.530   0.001  1.00  0.00     0.076 C 
ATOM     20  C   UNL     1       1.059  -0.099  -0.233  1.00  0.00     0.030 C 
ATOM     21  C   UNL     1       1.321  -2.166   1.173  1.00  0.00     0.030 C 
ENDBRANCH  18  19
BRANCH  18  22
ATOM     22  C   UNL     1      -1.727  -1.054   1.202  1.00  0.00     0.076 C 
ATOM     23  C   UNL     1      -1.493  -1.726   2.553  1.00  0.00     0.030 C 
ATOM     24  C   UNL     1      -1.625   0.465   1.312  1.00  0.00     0.030 C 
ENDBRANCH  18  22
ENDBRANCH   8  18
BRANCH  17  25
ATOM     25  C   UNL     1      -6.555  -2.312  -2.471  1.00  0.00     0.429 C 
ATOM     26  F   UNL     1      -7.143  -1.196  -1.974  1.00  0.00    -0.167 F 
ATOM     27  F   UNL     1      -7.558  -3.119  -2.893  1.00  0.00    -0.167 F 
ATOM     28  F   UNL     1      -5.958  -2.948  -1.437  1.00  0.00    -0.167 F 
ENDBRANCH  17  25
ENDBRANCH   4   7
ENDBRANCH   2   3
ENDBRANCH   1   2
BRANCH   1  29
ATOM     29  C   UNL     1      -8.834  -1.562  -7.938  1.00  0.00     0.118 C 
BRANCH  29  30
ATOM     30  N   UNL     1     -10.276  -1.625  -7.717  1.00  0.00    -0.352 N 
ATOM     31  C   UNL     1     -11.273  -0.757  -8.099  1.00  0.00     0.251 C 
ATOM     32  H   UNL     1     -10.584  -2.414  -7.215  1.00  0.00     0.163 HD
ATOM     33  O   UNL     1     -12.395  -0.870  -7.614  1.00  0.00    -0.269 OA
BRANCH  31  34
ATOM     34  C   UNL     1     -10.979   0.323  -9.063  1.00  0.00     0.039 A 
ATOM     35  C   UNL     1     -10.233   0.056 -10.212  1.00  0.00     0.014 A 
ATOM     36  C   UNL     1     -11.434   1.619  -8.807  1.00  0.00     0.014 A 
ATOM     37  C   UNL     1      -9.770   1.109 -10.991  1.00  0.00     0.010 A 
ATOM     38  C   UNL     1     -11.042   2.666  -9.646  1.00  0.00     0.010 A 
ATOM     39  C   UNL     1     -10.154   2.429 -10.708  1.00  0.00    -0.014 A 
BRANCH  39  40
ATOM     40  C   UNL     1      -9.585   3.550 -11.500  1.00  0.00     0.031 A 
ATOM     41  C   UNL     1      -8.725   4.593 -10.832  1.00  0.00     0.074 A 
ATOM     42  C   UNL     1      -9.799   3.607 -12.829  1.00  0.00     0.049 A 
ATOM     43  N   UNL     1      -8.193   5.672 -11.345  1.00  0.00    -0.248 NA
ATOM     44  C   UNL     1      -8.421   4.403  -9.402  1.00  0.00     0.031 C 
ATOM     45  C   UNL     1     -10.597   2.649 -13.599  1.00  0.00     0.029 A 
ATOM     46  N   UNL     1      -9.355   4.500 -13.771  1.00  0.00    -0.354 N 
ATOM     47  C   UNL     1      -7.542   6.314 -10.299  1.00  0.00     0.074 A 
ATOM     48  C   UNL     1      -7.736   5.503  -9.117  1.00  0.00     0.031 C 
ATOM     49  C   UNL     1     -10.552   2.981 -14.898  1.00  0.00     0.029 A 
ATOM     50  C   UNL     1      -9.778   4.209 -15.047  1.00  0.00     0.049 A 
ATOM     51  H   UNL     1      -8.788   5.274 -13.554  1.00  0.00     0.167 HD
ATOM     52  C   UNL     1      -6.831   7.465 -10.323  1.00  0.00     0.034 A 
ATOM     53  C   UNL     1      -9.585   4.868 -16.205  1.00  0.00     0.034 A 
ATOM     54  C   UNL     1      -6.574   8.233 -11.510  1.00  0.00     0.049 A 
ATOM     55  C   UNL     1      -8.801   6.147 -16.199  1.00  0.00     0.074 A 
ATOM     56  C   UNL     1      -5.837   9.398 -11.634  1.00  0.00     0.029 A 
ATOM     57  N   UNL     1      -7.030   7.909 -12.776  1.00  0.00    -0.354 N 
ATOM     58  N   UNL     1      -8.171   6.720 -15.203  1.00  0.00    -0.248 NA
ATOM     59  C   UNL     1      -8.703   6.873 -17.474  1.00  0.00     0.031 C 
ATOM     60  C   UNL     1      -5.843   9.776 -12.980  1.00  0.00     0.029 A 
ATOM     61  C   UNL     1      -6.588   8.848 -13.690  1.00  0.00     0.049 A 
ATOM     62  H   UNL     1      -7.586   7.126 -12.994  1.00  0.00     0.167 HD
ATOM     63  C   UNL     1      -7.602   7.873 -15.729  1.00  0.00     0.074 A 
ATOM     64  C   UNL     1      -7.933   7.900 -17.139  1.00  0.00     0.031 C 
ATOM     65  C   UNL     1      -6.893   8.837 -15.095  1.00  0.00     0.034 A 
BRANCH  52  66
ATOM     66  C   UNL     1      -6.223   7.952  -9.038  1.00  0.00     0.023 A 
ATOM     67  C   UNL     1      -4.992   7.414  -8.614  1.00  0.00     0.012 A 
ATOM     68  C   UNL     1      -6.804   9.014  -8.319  1.00  0.00     0.148 A 
ATOM     69  C   UNL     1      -4.348   7.925  -7.488  1.00  0.00     0.002 A 
ATOM     70  C   UNL     1      -6.144   9.535  -7.212  1.00  0.00     0.091 A 
ATOM     71  F   UNL     1      -7.979   9.502  -8.741  1.00  0.00    -0.205 F 
ATOM     72  C   UNL     1      -4.918   8.989  -6.794  1.00  0.00     0.022 A 
BRANCH  70  73
ATOM     73  S   UNL     1      -6.764  10.934  -6.272  1.00  0.00     0.127 S 
ATOM     74  O   UNL     1      -6.938  10.344  -4.945  1.00  0.00    -0.237 OA
ATOM     75  O   UNL     1      -5.658  11.885  -6.377  1.00  0.00    -0.237 OA
ATOM     76  O   UNL     1      -7.997  11.347  -6.927  1.00  0.00    -0.744 OA
ENDBRANCH  70  73
ENDBRANCH  52  66
BRANCH  53  77
ATOM     77  C   UNL     1     -10.130   4.309 -17.472  1.00  0.00     0.023 A 
ATOM     78  C   UNL     1      -9.244   3.746 -18.410  1.00  0.00     0.012 A 
ATOM     79  C   UNL     1     -11.514   4.289 -17.729  1.00  0.00     0.148 A 
ATOM     80  C   UNL     1      -9.728   3.179 -19.589  1.00  0.00     0.002 A 
ATOM     81  C   UNL     1     -11.992   3.682 -18.883  1.00  0.00     0.091 A 
ATOM     82  F   UNL     1     -12.334   4.849 -16.829  1.00  0.00    -0.205 F 
ATOM     83  C   UNL     1     -11.101   3.136 -19.819  1.00  0.00     0.022 A 
BRANCH  81  84
ATOM     84  S   UNL     1     -13.748   3.479 -19.204  1.00  0.00     0.127 S 
ATOM     85  O   UNL     1     -13.964   4.433 -20.289  1.00  0.00    -0.237 OA
ATOM     86  O   UNL     1     -13.823   2.071 -19.596  1.00  0.00    -0.237 OA
ATOM     87  O   UNL     1     -14.414   3.787 -17.946  1.00  0.00    -0.744 OA
ENDBRANCH  81  84
ENDBRANCH  53  77
BRANCH  65  88
ATOM     88  C   UNL     1      -6.435  10.012 -15.910  1.00  0.00     0.023 A 
ATOM     89  C   UNL     1      -7.353  11.039 -16.202  1.00  0.00     0.012 A 
ATOM     90  C   UNL     1      -5.090  10.144 -16.304  1.00  0.00     0.148 A 
ATOM     91  C   UNL     1      -6.941  12.179 -16.887  1.00  0.00     0.002 A 
ATOM     92  C   UNL     1      -4.680  11.298 -16.960  1.00  0.00     0.091 A 
ATOM     93  F   UNL     1      -4.242   9.143 -16.027  1.00  0.00    -0.205 F 
ATOM     94  C   UNL     1      -5.604  12.314 -17.256  1.00  0.00     0.022 A 
BRANCH  92  95
ATOM     95  S   UNL     1      -2.966  11.590 -17.410  1.00  0.00     0.127 S 
ATOM     96  O   UNL     1      -3.003  11.401 -18.859  1.00  0.00    -0.237 OA
ATOM     97  O   UNL     1      -2.761  12.973 -16.979  1.00  0.00    -0.237 OA
ATOM     98  O   UNL     1      -2.186  10.606 -16.671  1.00  0.00    -0.744 OA
ENDBRANCH  92  95
ENDBRANCH  65  88
ENDBRANCH  39  40
ENDBRANCH  31  34
ENDBRANCH  29  30
ENDBRANCH   1  29
TORSDOF 17
