REMARK SMILES O=C(/C=C/c1ccc(S(=O)(=O)Nc2ccc3c(c2)OCCO3)cc1)NCCCNC(=O)c1ccc(-c2c3nc(c(-c4cccc(S(=O)(=O)[O-])c4F)c4ccc([nH]4)c(-c4cccc(S(=O)(=O)[O-])c4F)c4nc(c(-c5cccc(S(=O)(=O)[O-])c5F)c5ccc2[nH]5)C=C4)C=C3)cc1
REMARK SMILES IDX 26 1 25 2 1 3 2 4 3 6 4 7 5 8 6 9 24 10 7 11 23 12 8 13 9 14
REMARK SMILES IDX 10 15 11 16 12 17 13 19 14 20 18 21 15 22 17 23 16 24 19 25
REMARK SMILES IDX 22 26 20 27 21 28 27 29 28 30 29 31 30 32 31 34 32 35 33 36
REMARK SMILES IDX 94 37 34 38 93 39 35 40 36 41 37 42 87 43 38 44 92 45 86 46
REMARK SMILES IDX 88 47 39 48 91 49 85 50 84 51 40 53 72 54 52 55 71 56 53 57
REMARK SMILES IDX 56 58 70 59 89 60 54 61 55 62 69 64 90 65 57 66 41 67 42 68
REMARK SMILES IDX 50 69 43 70 45 71 51 72 44 73 46 74 47 75 48 76 49 77 73 78
REMARK SMILES IDX 74 79 82 80 75 81 77 82 83 83 76 84 78 85 79 86 80 87 81 88
REMARK SMILES IDX 58 89 59 90 67 91 60 92 62 93 68 94 61 95 63 96 64 97 65 98
REMARK SMILES IDX 66 99
REMARK H PARENT 25 5 12 18 29 33 88 52 56 63
REMARK Flexibility Score: inf
ROOT
ATOM      1  C   UNL     1       2.354  -1.697   1.661  1.00  0.00     0.118 C 
ENDROOT
BRANCH   1   2
ATOM      2  N   UNL     1       2.987  -0.808   0.700  1.00  0.00    -0.352 N 
ATOM      3  O   UNL     1       1.037  -0.219  -0.349  1.00  0.00    -0.270 OA
ATOM      4  C   UNL     1       2.257  -0.143  -0.246  1.00  0.00     0.244 C 
ATOM      5  H   UNL     1       3.963  -0.683   0.731  1.00  0.00     0.163 HD
BRANCH   4   6
ATOM      6  C   UNL     1       2.987   0.785  -1.152  1.00  0.00     0.072 C 
ATOM      7  C   UNL     1       4.311   0.917  -1.343  1.00  0.00     0.014 C 
BRANCH   7   8
ATOM      8  C   UNL     1       4.935   1.908  -2.254  1.00  0.00    -0.025 A 
ATOM      9  C   UNL     1       6.320   1.861  -2.474  1.00  0.00     0.009 A 
ATOM     10  C   UNL     1       4.211   2.929  -2.889  1.00  0.00     0.009 A 
ATOM     11  C   UNL     1       6.966   2.840  -3.248  1.00  0.00     0.023 A 
ATOM     12  C   UNL     1       4.843   3.873  -3.713  1.00  0.00     0.023 A 
ATOM     13  C   UNL     1       6.226   3.865  -3.850  1.00  0.00     0.087 A 
BRANCH  13  14
ATOM     14  S   UNL     1       7.092   5.146  -4.742  1.00  0.00     0.261 S 
ATOM     15  O   UNL     1       8.352   5.370  -4.043  1.00  0.00    -0.201 OA
ATOM     16  O   UNL     1       7.086   4.795  -6.137  1.00  0.00    -0.201 OA
BRANCH  14  17
ATOM     17  N   UNL     1       6.241   6.646  -4.593  1.00  0.00    -0.279 N 
ATOM     18  H   UNL     1       6.191   7.288  -5.338  1.00  0.00     0.180 HD
BRANCH  17  19
ATOM     19  C   UNL     1       5.612   6.911  -3.331  1.00  0.00     0.053 A 
ATOM     20  C   UNL     1       4.226   7.106  -3.338  1.00  0.00     0.031 A 
ATOM     21  C   UNL     1       6.315   6.827  -2.134  1.00  0.00     0.077 A 
ATOM     22  C   UNL     1       3.508   6.983  -2.151  1.00  0.00     0.052 A 
ATOM     23  C   UNL     1       5.596   6.633  -0.964  1.00  0.00     0.163 A 
ATOM     24  C   UNL     1       4.196   6.649  -0.990  1.00  0.00     0.161 A 
ATOM     25  O   UNL     1       6.327   6.289   0.141  1.00  0.00    -0.486 OA
ATOM     26  O   UNL     1       3.454   6.212   0.079  1.00  0.00    -0.486 OA
ATOM     27  C   UNL     1       5.532   5.755   1.209  1.00  0.00     0.271 C 
ATOM     28  C   UNL     1       4.210   5.177   0.727  1.00  0.00     0.271 C 
ENDBRANCH  17  19
ENDBRANCH  14  17
ENDBRANCH  13  14
ENDBRANCH   7   8
ENDBRANCH   4   6
ENDBRANCH   1   2
BRANCH   1  29
ATOM     29  C   UNL     1       2.568  -3.171   1.334  1.00  0.00     0.042 C 
BRANCH  29  30
ATOM     30  C   UNL     1       4.026  -3.621   1.374  1.00  0.00     0.118 C 
BRANCH  30  31
ATOM     31  N   UNL     1       4.635  -3.475   2.691  1.00  0.00    -0.352 N 
ATOM     32  C   UNL     1       5.292  -4.398   3.470  1.00  0.00     0.251 C 
ATOM     33  H   UNL     1       4.565  -2.575   3.084  1.00  0.00     0.163 HD
ATOM     34  O   UNL     1       5.613  -4.099   4.617  1.00  0.00    -0.269 OA
BRANCH  32  35
ATOM     35  C   UNL     1       5.589  -5.750   2.948  1.00  0.00     0.039 A 
ATOM     36  C   UNL     1       5.338  -6.857   3.765  1.00  0.00     0.014 A 
ATOM     37  C   UNL     1       6.116  -5.933   1.667  1.00  0.00     0.014 A 
ATOM     38  C   UNL     1       5.538  -8.148   3.269  1.00  0.00     0.010 A 
ATOM     39  C   UNL     1       6.254  -7.221   1.152  1.00  0.00     0.010 A 
ATOM     40  C   UNL     1       5.956  -8.341   1.943  1.00  0.00    -0.014 A 
BRANCH  40  41
ATOM     41  C   UNL     1       6.034  -9.700   1.346  1.00  0.00     0.031 A 
ATOM     42  C   UNL     1       7.349 -10.255   0.872  1.00  0.00     0.074 A 
ATOM     43  C   UNL     1       4.897 -10.391   1.130  1.00  0.00     0.049 A 
ATOM     44  N   UNL     1       7.591 -11.379   0.249  1.00  0.00    -0.248 NA
ATOM     45  C   UNL     1       8.545  -9.430   1.109  1.00  0.00     0.031 C 
ATOM     46  C   UNL     1       3.550  -9.929   1.474  1.00  0.00     0.029 A 
ATOM     47  N   UNL     1       4.687 -11.611   0.537  1.00  0.00    -0.354 N 
ATOM     48  C   UNL     1       8.956 -11.384  -0.013  1.00  0.00     0.074 A 
ATOM     49  C   UNL     1       9.486 -10.138   0.499  1.00  0.00     0.031 C 
ATOM     50  C   UNL     1       2.655 -10.849   1.081  1.00  0.00     0.029 A 
ATOM     51  C   UNL     1       3.358 -11.950   0.429  1.00  0.00     0.049 A 
ATOM     52  H   UNL     1       5.418 -12.189   0.220  1.00  0.00     0.167 HD
ATOM     53  C   UNL     1       9.704 -12.348  -0.601  1.00  0.00     0.034 A 
ATOM     54  C   UNL     1       2.768 -13.018  -0.143  1.00  0.00     0.034 A 
ATOM     55  C   UNL     1       9.183 -13.603  -1.072  1.00  0.00     0.049 A 
ATOM     56  C   UNL     1       3.625 -14.084  -0.768  1.00  0.00     0.074 A 
ATOM     57  C   UNL     1       9.877 -14.681  -1.593  1.00  0.00     0.029 A 
ATOM     58  N   UNL     1       7.840 -13.947  -1.091  1.00  0.00    -0.354 N 
ATOM     59  N   UNL     1       4.931 -14.146  -0.854  1.00  0.00    -0.248 NA
ATOM     60  C   UNL     1       2.929 -15.243  -1.346  1.00  0.00     0.031 C 
ATOM     61  C   UNL     1       8.952 -15.669  -1.947  1.00  0.00     0.029 A 
ATOM     62  C   UNL     1       7.683 -15.214  -1.628  1.00  0.00     0.049 A 
ATOM     63  H   UNL     1       7.107 -13.376  -0.769  1.00  0.00     0.167 HD
ATOM     64  C   UNL     1       5.215 -15.359  -1.470  1.00  0.00     0.074 A 
ATOM     65  C   UNL     1       3.946 -16.013  -1.711  1.00  0.00     0.031 C 
ATOM     66  C   UNL     1       6.418 -15.877  -1.821  1.00  0.00     0.034 A 
BRANCH  53  67
ATOM     67  C   UNL     1      11.187 -12.108  -0.720  1.00  0.00     0.023 A 
ATOM     68  C   UNL     1      11.993 -12.175   0.435  1.00  0.00     0.012 A 
ATOM     69  C   UNL     1      11.791 -11.883  -1.972  1.00  0.00     0.148 A 
ATOM     70  C   UNL     1      13.372 -11.992   0.351  1.00  0.00     0.002 A 
ATOM     71  C   UNL     1      13.172 -11.741  -2.054  1.00  0.00     0.091 A 
ATOM     72  F   UNL     1      11.006 -11.800  -3.056  1.00  0.00    -0.205 F 
ATOM     73  C   UNL     1      13.962 -11.786  -0.893  1.00  0.00     0.022 A 
BRANCH  71  74
ATOM     74  S   UNL     1      14.034 -11.545  -3.617  1.00  0.00     0.127 S 
ATOM     75  O   UNL     1      14.428 -10.138  -3.562  1.00  0.00    -0.237 OA
ATOM     76  O   UNL     1      15.141 -12.493  -3.481  1.00  0.00    -0.237 OA
ATOM     77  O   UNL     1      13.069 -11.886  -4.652  1.00  0.00    -0.744 OA
ENDBRANCH  71  74
ENDBRANCH  53  67
BRANCH  54  78
ATOM     78  C   UNL     1       1.284 -13.157  -0.101  1.00  0.00     0.023 A 
ATOM     79  C   UNL     1       0.709 -14.146   0.719  1.00  0.00     0.012 A 
ATOM     80  C   UNL     1       0.444 -12.300  -0.838  1.00  0.00     0.148 A 
ATOM     81  C   UNL     1      -0.677 -14.299   0.783  1.00  0.00     0.002 A 
ATOM     82  C   UNL     1      -0.936 -12.422  -0.728  1.00  0.00     0.091 A 
ATOM     83  F   UNL     1       1.012 -11.375  -1.625  1.00  0.00    -0.205 F 
ATOM     84  C   UNL     1      -1.499 -13.431   0.069  1.00  0.00     0.022 A 
BRANCH  82  85
ATOM     85  S   UNL     1      -2.068 -11.264  -1.505  1.00  0.00     0.127 S 
ATOM     86  O   UNL     1      -2.630 -12.073  -2.583  1.00  0.00    -0.237 OA
ATOM     87  O   UNL     1      -2.994 -10.964  -0.411  1.00  0.00    -0.237 OA
ATOM     88  O   UNL     1      -1.247 -10.134  -1.919  1.00  0.00    -0.744 OA
ENDBRANCH  82  85
ENDBRANCH  54  78
BRANCH  66  89
ATOM     89  C   UNL     1       6.428 -17.226  -2.492  1.00  0.00     0.023 A 
ATOM     90  C   UNL     1       5.996 -17.342  -3.828  1.00  0.00     0.012 A 
ATOM     91  C   UNL     1       6.930 -18.361  -1.827  1.00  0.00     0.148 A 
ATOM     92  C   UNL     1       6.034 -18.573  -4.481  1.00  0.00     0.002 A 
ATOM     93  C   UNL     1       7.009 -19.576  -2.499  1.00  0.00     0.091 A 
ATOM     94  F   UNL     1       7.319 -18.235  -0.549  1.00  0.00    -0.205 F 
ATOM     95  C   UNL     1       6.551 -19.686  -3.822  1.00  0.00     0.022 A 
BRANCH  93  96
ATOM     96  S   UNL     1       7.744 -21.040  -1.761  1.00  0.00     0.127 S 
ATOM     97  O   UNL     1       6.566 -21.863  -1.496  1.00  0.00    -0.237 OA
ATOM     98  O   UNL     1       8.603 -21.533  -2.838  1.00  0.00    -0.237 OA
ATOM     99  O   UNL     1       8.462 -20.576  -0.582  1.00  0.00    -0.744 OA
ENDBRANCH  93  96
ENDBRANCH  66  89
ENDBRANCH  40  41
ENDBRANCH  32  35
ENDBRANCH  30  31
ENDBRANCH  29  30
ENDBRANCH   1  29
TORSDOF 17
