REMARK SMILES O=C(C[C@H]1CN(C(=O)NCc2ccc(Br)cc2)CCO1)NCCCNC(=O)c1ccc(-c2c3nc(c(-c4cccc(S(=O)(=O)[O-])c4F)c4ccc([nH]4)c(-c4cccc(S(=O)(=O)[O-])c4F)c4nc(c(-c5cccc(S(=O)(=O)[O-])c5F)c5ccc2[nH]5)C=C4)C=C3)cc1
REMARK SMILES IDX 22 1 21 2 1 3 2 4 3 6 4 7 5 8 20 9 6 10 19 11 18 12 7 13
REMARK SMILES IDX 8 14 9 15 10 17 11 18 12 19 17 20 13 21 16 22 14 23 15 24
REMARK SMILES IDX 23 25 24 26 25 27 26 28 27 30 28 31 29 32 90 33 30 34 89 35
REMARK SMILES IDX 31 36 32 37 33 38 83 39 34 40 88 41 82 42 84 43 35 44 87 45
REMARK SMILES IDX 81 46 80 47 36 49 68 50 48 51 67 52 49 53 52 54 66 55 85 56
REMARK SMILES IDX 50 57 51 58 65 60 86 61 53 62 37 63 38 64 46 65 39 66 41 67
REMARK SMILES IDX 47 68 40 69 42 70 43 71 44 72 45 73 69 74 70 75 78 76 71 77
REMARK SMILES IDX 73 78 79 79 72 80 74 81 75 82 76 83 77 84 54 85 55 86 63 87
REMARK SMILES IDX 56 88 58 89 64 90 57 91 59 92 60 93 61 94 62 95
REMARK H PARENT 21 5 9 16 25 29 84 48 52 59
REMARK Flexibility Score: inf
ROOT
ATOM      1  C   UNL     1       7.293   0.812  -4.505  1.00  0.00     0.117 C 
ENDROOT
BRANCH   1   2
ATOM      2  N   UNL     1       6.223   1.689  -4.054  1.00  0.00    -0.356 N 
ATOM      3  O   UNL     1       4.534   0.125  -4.269  1.00  0.00    -0.275 OA
ATOM      4  C   UNL     1       4.925   1.236  -3.925  1.00  0.00     0.222 C 
ATOM      5  H   UNL     1       6.429   2.627  -3.836  1.00  0.00     0.163 HD
BRANCH   4   6
ATOM      6  C   UNL     1       3.947   2.189  -3.293  1.00  0.00     0.133 C 
BRANCH   6   7
ATOM      7  C   UNL     1       3.516   1.785  -1.867  1.00  0.00     0.147 C 
ATOM      8  C   UNL     1       4.339   0.697  -1.146  1.00  0.00     0.154 C 
ATOM      9  O   UNL     1       3.434   2.945  -1.014  1.00  0.00    -0.374 OA
ATOM     10  N   UNL     1       5.692   1.143  -0.854  1.00  0.00    -0.320 N 
ATOM     11  C   UNL     1       4.726   3.493  -0.728  1.00  0.00     0.182 C 
ATOM     12  C   UNL     1       5.728   2.462  -0.183  1.00  0.00     0.150 C 
BRANCH  10  13
ATOM     13  C   UNL     1       6.871   0.475  -0.994  1.00  0.00     0.317 C 
ATOM     14  O   UNL     1       7.935   1.046  -0.730  1.00  0.00    -0.249 OA
ATOM     15  N   UNL     1       7.030  -0.783  -1.437  1.00  0.00    -0.334 N 
ATOM     16  H   UNL     1       7.972  -0.944  -1.673  1.00  0.00     0.165 HD
BRANCH  15  17
ATOM     17  C   UNL     1       6.241  -1.982  -1.675  1.00  0.00     0.153 C 
BRANCH  17  18
ATOM     18  C   UNL     1       6.710  -2.821  -2.855  1.00  0.00    -0.029 A 
ATOM     19  C   UNL     1       7.400  -4.028  -2.685  1.00  0.00     0.007 A 
ATOM     20  C   UNL     1       6.368  -2.462  -4.166  1.00  0.00     0.007 A 
ATOM     21  C   UNL     1       7.681  -4.857  -3.785  1.00  0.00     0.016 A 
ATOM     22  C   UNL     1       6.662  -3.265  -5.270  1.00  0.00     0.016 A 
ATOM     23  C   UNL     1       7.300  -4.478  -5.071  1.00  0.00     0.017 A 
ATOM     24  Br  UNL     1       7.601  -5.627  -6.540  1.00  0.00    -0.051 Br
ENDBRANCH  17  18
ENDBRANCH  15  17
ENDBRANCH  10  13
ENDBRANCH   6   7
ENDBRANCH   4   6
ENDBRANCH   1   2
BRANCH   1  25
ATOM     25  C   UNL     1       8.619   1.475  -4.844  1.00  0.00     0.042 C 
BRANCH  25  26
ATOM     26  C   UNL     1       9.365   2.156  -3.702  1.00  0.00     0.118 C 
BRANCH  26  27
ATOM     27  N   UNL     1       9.903   1.290  -2.661  1.00  0.00    -0.352 N 
ATOM     28  C   UNL     1      11.091   1.372  -1.956  1.00  0.00     0.251 C 
ATOM     29  H   UNL     1       9.332   0.525  -2.423  1.00  0.00     0.163 HD
ATOM     30  O   UNL     1      11.365   0.530  -1.101  1.00  0.00    -0.269 OA
BRANCH  28  31
ATOM     31  C   UNL     1      12.065   2.448  -2.259  1.00  0.00     0.039 A 
ATOM     32  C   UNL     1      13.428   2.147  -2.310  1.00  0.00     0.014 A 
ATOM     33  C   UNL     1      11.633   3.736  -2.569  1.00  0.00     0.014 A 
ATOM     34  C   UNL     1      14.325   3.090  -2.823  1.00  0.00     0.010 A 
ATOM     35  C   UNL     1      12.496   4.616  -3.208  1.00  0.00     0.010 A 
ATOM     36  C   UNL     1      13.851   4.299  -3.360  1.00  0.00    -0.014 A 
BRANCH  36  37
ATOM     37  C   UNL     1      14.738   5.203  -4.142  1.00  0.00     0.031 A 
ATOM     38  C   UNL     1      14.899   6.651  -3.760  1.00  0.00     0.074 A 
ATOM     39  C   UNL     1      15.309   4.741  -5.275  1.00  0.00     0.049 A 
ATOM     40  N   UNL     1      15.613   7.581  -4.341  1.00  0.00    -0.248 NA
ATOM     41  C   UNL     1      14.124   7.134  -2.604  1.00  0.00     0.031 C 
ATOM     42  C   UNL     1      15.112   3.402  -5.841  1.00  0.00     0.029 A 
ATOM     43  N   UNL     1      16.159   5.348  -6.166  1.00  0.00    -0.354 N 
ATOM     44  C   UNL     1      15.340   8.758  -3.654  1.00  0.00     0.074 A 
ATOM     45  C   UNL     1      14.352   8.438  -2.648  1.00  0.00     0.031 C 
ATOM     46  C   UNL     1      15.850   3.278  -6.955  1.00  0.00     0.029 A 
ATOM     47  C   UNL     1      16.556   4.529  -7.199  1.00  0.00     0.049 A 
ATOM     48  H   UNL     1      16.456   6.282  -6.075  1.00  0.00     0.167 HD
ATOM     49  C   UNL     1      15.894   9.984  -3.810  1.00  0.00     0.034 A 
ATOM     50  C   UNL     1      17.413   4.753  -8.214  1.00  0.00     0.034 A 
ATOM     51  C   UNL     1      16.928  10.277  -4.764  1.00  0.00     0.049 A 
ATOM     52  C   UNL     1      18.117   6.081  -8.284  1.00  0.00     0.074 A 
ATOM     53  C   UNL     1      17.635  11.453  -4.937  1.00  0.00     0.029 A 
ATOM     54  N   UNL     1      17.412   9.378  -5.702  1.00  0.00    -0.354 N 
ATOM     55  N   UNL     1      17.984   7.126  -7.504  1.00  0.00    -0.248 NA
ATOM     56  C   UNL     1      19.125   6.243  -9.341  1.00  0.00     0.031 C 
ATOM     57  C   UNL     1      18.546  11.265  -5.983  1.00  0.00     0.029 A 
ATOM     58  C   UNL     1      18.414   9.968  -6.452  1.00  0.00     0.049 A 
ATOM     59  H   UNL     1      17.090   8.455  -5.817  1.00  0.00     0.167 HD
ATOM     60  C   UNL     1      18.913   8.057  -7.952  1.00  0.00     0.074 A 
ATOM     61  C   UNL     1      19.623   7.439  -9.054  1.00  0.00     0.031 C 
ATOM     62  C   UNL     1      19.146   9.317  -7.508  1.00  0.00     0.034 A 
BRANCH  49  63
ATOM     63  C   UNL     1      15.448  11.073  -2.868  1.00  0.00     0.023 A 
ATOM     64  C   UNL     1      15.822  11.007  -1.509  1.00  0.00     0.012 A 
ATOM     65  C   UNL     1      14.696  12.174  -3.322  1.00  0.00     0.148 A 
ATOM     66  C   UNL     1      15.418  11.991  -0.609  1.00  0.00     0.002 A 
ATOM     67  C   UNL     1      14.335  13.176  -2.426  1.00  0.00     0.091 A 
ATOM     68  F   UNL     1      14.330  12.213  -4.611  1.00  0.00    -0.205 F 
ATOM     69  C   UNL     1      14.683  13.079  -1.069  1.00  0.00     0.022 A 
BRANCH  67  70
ATOM     70  S   UNL     1      13.453  14.657  -2.932  1.00  0.00     0.127 S 
ATOM     71  O   UNL     1      12.126  14.418  -2.366  1.00  0.00    -0.237 OA
ATOM     72  O   UNL     1      14.217  15.714  -2.268  1.00  0.00    -0.237 OA
ATOM     73  O   UNL     1      13.519  14.685  -4.386  1.00  0.00    -0.744 OA
ENDBRANCH  67  70
ENDBRANCH  49  63
BRANCH  50  74
ATOM     74  C   UNL     1      17.746   3.654  -9.166  1.00  0.00     0.023 A 
ATOM     75  C   UNL     1      19.017   3.049  -9.097  1.00  0.00     0.012 A 
ATOM     76  C   UNL     1      16.814   3.180 -10.108  1.00  0.00     0.148 A 
ATOM     77  C   UNL     1      19.366   2.017  -9.969  1.00  0.00     0.002 A 
ATOM     78  C   UNL     1      17.149   2.115 -10.939  1.00  0.00     0.091 A 
ATOM     79  F   UNL     1      15.613   3.773 -10.168  1.00  0.00    -0.205 F 
ATOM     80  C   UNL     1      18.429   1.544 -10.883  1.00  0.00     0.022 A 
BRANCH  78  81
ATOM     81  S   UNL     1      15.960   1.356 -12.052  1.00  0.00     0.127 S 
ATOM     82  O   UNL     1      16.400   1.861 -13.350  1.00  0.00    -0.237 OA
ATOM     83  O   UNL     1      16.201  -0.070 -11.832  1.00  0.00    -0.237 OA
ATOM     84  O   UNL     1      14.654   1.817 -11.598  1.00  0.00    -0.744 OA
ENDBRANCH  78  81
ENDBRANCH  50  74
BRANCH  62  85
ATOM     85  C   UNL     1      20.230  10.103  -8.196  1.00  0.00     0.023 A 
ATOM     86  C   UNL     1      20.017  10.591  -9.500  1.00  0.00     0.012 A 
ATOM     87  C   UNL     1      21.434  10.403  -7.532  1.00  0.00     0.148 A 
ATOM     88  C   UNL     1      21.003  11.332 -10.148  1.00  0.00     0.002 A 
ATOM     89  C   UNL     1      22.393  11.184  -8.166  1.00  0.00     0.091 A 
ATOM     90  F   UNL     1      21.630   9.911  -6.300  1.00  0.00    -0.205 F 
ATOM     91  C   UNL     1      22.186  11.638  -9.479  1.00  0.00     0.022 A 
BRANCH  89  92
ATOM     92  S   UNL     1      23.898  11.699  -7.331  1.00  0.00     0.127 S 
ATOM     93  O   UNL     1      24.867  10.725  -7.830  1.00  0.00    -0.237 OA
ATOM     94  O   UNL     1      24.089  13.061  -7.833  1.00  0.00    -0.237 OA
ATOM     95  O   UNL     1      23.599  11.624  -5.907  1.00  0.00    -0.744 OA
ENDBRANCH  89  92
ENDBRANCH  62  85
ENDBRANCH  36  37
ENDBRANCH  28  31
ENDBRANCH  26  27
ENDBRANCH  25  26
ENDBRANCH   1  25
TORSDOF 17
