REMARK SMILES CC(C)[C@@H](C)[N@@H+]1[C@@H](C(=O)NCCCNC(=O)c2ccc(-c3c4nc(c(-c5cccc(S(=O)(=O)[O-])c5F)c5ccc([nH]5)c(-c5cccc(S(=O)(=O)[O-])c5F)c5nc(c(-c6cccc(S(=O)(=O)[O-])c6F)c6ccc3[nH]6)C=C5)C=C4)cc2)C[C@H]2CCCC[C@H]21
REMARK SMILES IDX 12 1 11 2 10 3 8 4 9 5 7 7 6 8 86 9 80 11 81 12 85 13 82 14
REMARK SMILES IDX 84 15 83 16 4 17 5 18 2 19 1 20 3 21 13 22 14 23 15 24 16 26
REMARK SMILES IDX 17 27 18 28 79 29 19 30 78 31 20 32 21 33 22 34 72 35 23 36
REMARK SMILES IDX 77 37 71 38 73 39 24 40 76 41 70 42 69 43 25 45 57 46 37 47
REMARK SMILES IDX 56 48 38 49 41 50 55 51 74 52 39 53 40 54 54 56 75 57 42 58
REMARK SMILES IDX 26 59 27 60 35 61 28 62 30 63 36 64 29 65 31 66 32 67 33 68
REMARK SMILES IDX 34 69 58 70 59 71 67 72 60 73 62 74 68 75 61 76 63 77 64 78
REMARK SMILES IDX 65 79 66 80 43 81 44 82 52 83 45 84 47 85 53 86 46 87 48 88
REMARK SMILES IDX 49 89 50 90 51 91
REMARK H PARENT 10 6 6 10 14 25 73 44 41 55
REMARK Flexibility Score: inf
ROOT
ATOM      1  C   UNL     1      -6.316   3.640   3.270  1.00  0.00     0.042 C 
ENDROOT
BRANCH   1   2
ATOM      2  C   UNL     1      -5.021   3.233   3.937  1.00  0.00     0.118 C 
BRANCH   2   3
ATOM      3  N   UNL     1      -4.738   1.806   3.872  1.00  0.00    -0.351 N 
ATOM      4  C   UNL     1      -3.688   1.079   3.380  1.00  0.00     0.278 C 
ATOM      5  O   UNL     1      -3.754  -0.141   3.583  1.00  0.00    -0.268 OA
ATOM      6  H   UNL     1      -5.449   1.249   4.264  1.00  0.00     0.163 HD
BRANCH   4   7
ATOM      7  C   UNL     1      -2.547   1.712   2.528  1.00  0.00     0.275 C 
ATOM      8  N   UNL     1      -1.253   0.921   2.673  1.00  0.00    -0.320 N 
ATOM      9  C   UNL     1      -0.373   1.746   3.513  1.00  0.00     0.188 C 
ATOM     10  H   UNL     1      -1.356   0.023   3.146  1.00  0.00     0.349 HD
ATOM     11  C   UNL     1      -2.155   3.137   2.905  1.00  0.00     0.085 C 
ATOM     12  C   UNL     1      -0.649   3.156   3.011  1.00  0.00     0.054 C 
ATOM     13  C   UNL     1      -0.699   1.575   5.015  1.00  0.00     0.065 C 
ATOM     14  C   UNL     1      -0.130   4.275   3.909  1.00  0.00     0.010 C 
ATOM     15  C   UNL     1      -0.040   2.668   5.856  1.00  0.00     0.006 C 
ATOM     16  C   UNL     1      -0.443   4.064   5.389  1.00  0.00     0.001 C 
BRANCH   8  17
ATOM     17  C   UNL     1      -0.743   0.498   1.332  1.00  0.00     0.184 C 
ATOM     18  C   UNL     1      -1.463  -0.839   1.047  1.00  0.00     0.075 C 
BRANCH  17  19
ATOM     19  C   UNL     1       0.815   0.346   1.099  1.00  0.00     0.041 C 
ATOM     20  C   UNL     1       1.141  -0.437  -0.190  1.00  0.00     0.013 C 
ATOM     21  C   UNL     1       1.565   1.685   0.954  1.00  0.00     0.013 C 
ENDBRANCH  17  19
ENDBRANCH   8  17
ENDBRANCH   4   7
ENDBRANCH   2   3
ENDBRANCH   1   2
BRANCH   1  22
ATOM     22  C   UNL     1      -7.552   3.184   4.016  1.00  0.00     0.118 C 
BRANCH  22  23
ATOM     23  N   UNL     1      -7.642   3.758   5.356  1.00  0.00    -0.352 N 
ATOM     24  C   UNL     1      -8.406   4.794   5.843  1.00  0.00     0.251 C 
ATOM     25  H   UNL     1      -7.057   3.333   6.024  1.00  0.00     0.163 HD
ATOM     26  O   UNL     1      -8.152   5.265   6.946  1.00  0.00    -0.269 OA
BRANCH  24  27
ATOM     27  C   UNL     1      -9.512   5.350   5.034  1.00  0.00     0.039 A 
ATOM     28  C   UNL     1      -9.744   6.728   5.041  1.00  0.00     0.014 A 
ATOM     29  C   UNL     1     -10.325   4.513   4.269  1.00  0.00     0.014 A 
ATOM     30  C   UNL     1     -10.728   7.267   4.209  1.00  0.00     0.010 A 
ATOM     31  C   UNL     1     -11.213   5.059   3.353  1.00  0.00     0.010 A 
ATOM     32  C   UNL     1     -11.433   6.441   3.318  1.00  0.00    -0.014 A 
BRANCH  32  33
ATOM     33  C   UNL     1     -12.391   6.995   2.329  1.00  0.00     0.031 A 
ATOM     34  C   UNL     1     -13.828   6.545   2.329  1.00  0.00     0.074 A 
ATOM     35  C   UNL     1     -11.939   7.819   1.362  1.00  0.00     0.049 A 
ATOM     36  N   UNL     1     -14.788   6.855   1.498  1.00  0.00    -0.248 NA
ATOM     37  C   UNL     1     -14.233   5.595   3.381  1.00  0.00     0.031 C 
ATOM     38  C   UNL     1     -10.549   8.254   1.201  1.00  0.00     0.029 A 
ATOM     39  N   UNL     1     -12.594   8.416   0.314  1.00  0.00    -0.354 N 
ATOM     40  C   UNL     1     -15.893   6.114   1.900  1.00  0.00     0.074 A 
ATOM     41  C   UNL     1     -15.475   5.306   3.024  1.00  0.00     0.031 C 
ATOM     42  C   UNL     1     -10.459   9.056   0.129  1.00  0.00     0.029 A 
ATOM     43  C   UNL     1     -11.771   9.159  -0.499  1.00  0.00     0.049 A 
ATOM     44  H   UNL     1     -13.562   8.321   0.159  1.00  0.00     0.167 HD
ATOM     45  C   UNL     1     -17.150   6.126   1.399  1.00  0.00     0.034 A 
ATOM     46  C   UNL     1     -12.039   9.837  -1.633  1.00  0.00     0.034 A 
ATOM     47  C   UNL     1     -17.569   6.960   0.306  1.00  0.00     0.049 A 
ATOM     48  C   UNL     1     -13.451   9.860  -2.148  1.00  0.00     0.074 A 
ATOM     49  C   UNL     1     -18.840   7.121  -0.214  1.00  0.00     0.029 A 
ATOM     50  N   UNL     1     -16.724   7.763  -0.444  1.00  0.00    -0.354 N 
ATOM     51  N   UNL     1     -14.520   9.283  -1.653  1.00  0.00    -0.248 NA
ATOM     52  C   UNL     1     -13.702  10.652  -3.361  1.00  0.00     0.031 C 
ATOM     53  C   UNL     1     -18.757   7.994  -1.304  1.00  0.00     0.029 A 
ATOM     54  C   UNL     1     -17.441   8.407  -1.437  1.00  0.00     0.049 A 
ATOM     55  H   UNL     1     -15.756   7.861  -0.293  1.00  0.00     0.167 HD
ATOM     56  C   UNL     1     -15.574   9.667  -2.473  1.00  0.00     0.074 A 
ATOM     57  C   UNL     1     -15.019  10.547  -3.481  1.00  0.00     0.031 C 
ATOM     58  C   UNL     1     -16.881   9.312  -2.408  1.00  0.00     0.034 A 
BRANCH  45  59
ATOM     59  C   UNL     1     -18.177   5.242   2.059  1.00  0.00     0.023 A 
ATOM     60  C   UNL     1     -18.633   5.549   3.358  1.00  0.00     0.012 A 
ATOM     61  C   UNL     1     -18.734   4.144   1.375  1.00  0.00     0.148 A 
ATOM     62  C   UNL     1     -19.596   4.756   3.981  1.00  0.00     0.002 A 
ATOM     63  C   UNL     1     -19.730   3.388   1.982  1.00  0.00     0.091 A 
ATOM     64  F   UNL     1     -18.275   3.855   0.149  1.00  0.00    -0.205 F 
ATOM     65  C   UNL     1     -20.153   3.684   3.288  1.00  0.00     0.022 A 
BRANCH  63  66
ATOM     66  S   UNL     1     -20.570   2.038   1.146  1.00  0.00     0.127 S 
ATOM     67  O   UNL     1     -20.082   0.880   1.894  1.00  0.00    -0.237 OA
ATOM     68  O   UNL     1     -21.977   2.364   1.377  1.00  0.00    -0.237 OA
ATOM     69  O   UNL     1     -20.150   2.103  -0.246  1.00  0.00    -0.744 OA
ENDBRANCH  63  66
ENDBRANCH  45  59
BRANCH  46  70
ATOM     70  C   UNL     1     -10.956  10.591  -2.325  1.00  0.00     0.023 A 
ATOM     71  C   UNL     1     -10.983  11.999  -2.326  1.00  0.00     0.012 A 
ATOM     72  C   UNL     1      -9.887   9.925  -2.955  1.00  0.00     0.148 A 
ATOM     73  C   UNL     1      -9.986  12.730  -2.973  1.00  0.00     0.002 A 
ATOM     74  C   UNL     1      -8.866  10.659  -3.547  1.00  0.00     0.091 A 
ATOM     75  F   UNL     1      -9.883   8.585  -2.950  1.00  0.00    -0.205 F 
ATOM     76  C   UNL     1      -8.923  12.061  -3.574  1.00  0.00     0.022 A 
BRANCH  74  77
ATOM     77  S   UNL     1      -7.392   9.887  -4.225  1.00  0.00     0.127 S 
ATOM     78  O   UNL     1      -7.561  10.125  -5.656  1.00  0.00    -0.237 OA
ATOM     79  O   UNL     1      -6.327  10.665  -3.591  1.00  0.00    -0.237 OA
ATOM     80  O   UNL     1      -7.448   8.494  -3.804  1.00  0.00    -0.744 OA
ENDBRANCH  74  77
ENDBRANCH  46  70
BRANCH  58  81
ATOM     81  C   UNL     1     -17.814   9.896  -3.437  1.00  0.00     0.023 A 
ATOM     82  C   UNL     1     -17.745   9.462  -4.775  1.00  0.00     0.012 A 
ATOM     83  C   UNL     1     -18.805  10.824  -3.060  1.00  0.00     0.148 A 
ATOM     84  C   UNL     1     -18.625   9.969  -5.730  1.00  0.00     0.002 A 
ATOM     85  C   UNL     1     -19.712  11.284  -4.006  1.00  0.00     0.091 A 
ATOM     86  F   UNL     1     -18.843  11.236  -1.784  1.00  0.00    -0.205 F 
ATOM     87  C   UNL     1     -19.615  10.869  -5.344  1.00  0.00     0.022 A 
BRANCH  85  88
ATOM     88  S   UNL     1     -21.081  12.368  -3.583  1.00  0.00     0.127 S 
ATOM     89  O   UNL     1     -20.682  13.617  -4.231  1.00  0.00    -0.237 OA
ATOM     90  O   UNL     1     -22.216  11.690  -4.210  1.00  0.00    -0.237 OA
ATOM     91  O   UNL     1     -21.128  12.409  -2.128  1.00  0.00    -0.744 OA
ENDBRANCH  85  88
ENDBRANCH  58  81
ENDBRANCH  32  33
ENDBRANCH  24  27
ENDBRANCH  22  23
ENDBRANCH   1  22
TORSDOF 15
