REMARK SMILES C[N@@H+](Cc1ccc2nsnc2c1)Cc1ccccc1C(=O)NCCCNC(=O)c1ccc(-c2c3nc(c(-c4cccc(S(=O)(=O)[O-])c4F)c4ccc([nH]4)c(-c4cccc(S(=O)(=O)[O-])c4F)c4nc(c(-c5cccc(S(=O)(=O)[O-])c5F)c5ccc2[nH]5)C=C4)C=C3)cc1
REMARK SMILES IDX 23 1 22 2 20 3 21 4 19 6 14 7 15 8 16 9 18 10 17 11 13 12
REMARK SMILES IDX 2 13 1 14 3 16 4 17 5 18 12 19 6 20 11 21 7 22 10 23 8 24
REMARK SMILES IDX 9 25 24 26 25 27 26 28 27 29 28 31 29 32 30 33 91 34 31 35
REMARK SMILES IDX 90 36 32 37 33 38 34 39 84 40 35 41 89 42 83 43 85 44 36 45
REMARK SMILES IDX 88 46 82 47 81 48 37 50 69 51 49 52 68 53 50 54 53 55 67 56
REMARK SMILES IDX 86 57 51 58 52 59 66 61 87 62 54 63 38 64 39 65 47 66 40 67
REMARK SMILES IDX 42 68 48 69 41 70 43 71 44 72 45 73 46 74 70 75 71 76 79 77
REMARK SMILES IDX 72 78 74 79 80 80 73 81 75 82 76 83 77 84 78 85 55 86 56 87
REMARK SMILES IDX 64 88 57 89 59 90 65 91 58 92 60 93 61 94 62 95 63 96
REMARK H PARENT 22 5 2 15 26 30 85 49 53 60
REMARK Flexibility Score: inf
ROOT
ATOM      1  C   UNL     1       3.036   0.868   1.918  1.00  0.00     0.118 C 
ENDROOT
BRANCH   1   2
ATOM      2  N   UNL     1       3.033  -0.308   1.085  1.00  0.00    -0.352 N 
ATOM      3  C   UNL     1       2.148  -1.355   1.101  1.00  0.00     0.251 C 
ATOM      4  O   UNL     1       2.228  -2.204   0.211  1.00  0.00    -0.269 OA
ATOM      5  H   UNL     1       3.757  -0.367   0.421  1.00  0.00     0.163 HD
BRANCH   3   6
ATOM      6  C   UNL     1       1.184  -1.567   2.215  1.00  0.00     0.048 A 
ATOM      7  C   UNL     1       0.197  -0.686   2.708  1.00  0.00     0.019 A 
ATOM      8  C   UNL     1      -0.536  -1.121   3.843  1.00  0.00     0.010 A 
ATOM      9  C   UNL     1      -0.382  -2.391   4.400  1.00  0.00     0.001 A 
ATOM     10  C   UNL     1       1.310  -2.862   2.776  1.00  0.00     0.014 A 
ATOM     11  C   UNL     1       0.527  -3.276   3.850  1.00  0.00     0.001 A 
BRANCH   7  12
ATOM     12  C   UNL     1      -0.187   0.690   2.183  1.00  0.00     0.299 C 
BRANCH  12  13
ATOM     13  N   UNL     1      -0.759   0.839   0.850  1.00  0.00    -0.330 N 
ATOM     14  C   UNL     1       0.073   0.661  -0.316  1.00  0.00     0.333 C 
ATOM     15  H   UNL     1      -0.757   1.858   0.862  1.00  0.00     0.348 HD
BRANCH  13  16
ATOM     16  C   UNL     1      -2.168   0.518   0.687  1.00  0.00     0.299 C 
BRANCH  16  17
ATOM     17  C   UNL     1      -2.572  -0.893   1.060  1.00  0.00     0.009 A 
ATOM     18  C   UNL     1      -1.960  -2.008   0.417  1.00  0.00     0.012 A 
ATOM     19  C   UNL     1      -3.537  -1.059   2.081  1.00  0.00     0.041 A 
ATOM     20  C   UNL     1      -2.200  -3.347   0.772  1.00  0.00     0.032 A 
ATOM     21  C   UNL     1      -3.817  -2.386   2.474  1.00  0.00     0.105 A 
ATOM     22  C   UNL     1      -3.130  -3.551   1.813  1.00  0.00     0.104 A 
ATOM     23  N   UNL     1      -4.676  -2.753   3.439  1.00  0.00    -0.173 NA
ATOM     24  N   UNL     1      -3.503  -4.738   2.318  1.00  0.00    -0.173 NA
ATOM     25  S   UNL     1      -4.604  -4.410   3.517  1.00  0.00     0.069 S 
ENDBRANCH  16  17
ENDBRANCH  13  16
ENDBRANCH  12  13
ENDBRANCH   7  12
ENDBRANCH   3   6
ENDBRANCH   1   2
BRANCH   1  26
ATOM     26  C   UNL     1       4.288   1.709   1.860  1.00  0.00     0.042 C 
BRANCH  26  27
ATOM     27  C   UNL     1       4.591   2.272   0.475  1.00  0.00     0.118 C 
BRANCH  27  28
ATOM     28  N   UNL     1       3.511   3.045  -0.147  1.00  0.00    -0.352 N 
ATOM     29  C   UNL     1       3.416   4.372  -0.521  1.00  0.00     0.251 C 
ATOM     30  H   UNL     1       2.700   2.519  -0.333  1.00  0.00     0.163 HD
ATOM     31  O   UNL     1       2.381   4.801  -1.003  1.00  0.00    -0.269 OA
BRANCH  29  32
ATOM     32  C   UNL     1       4.558   5.280  -0.282  1.00  0.00     0.039 A 
ATOM     33  C   UNL     1       4.333   6.542   0.272  1.00  0.00     0.014 A 
ATOM     34  C   UNL     1       5.855   4.840  -0.512  1.00  0.00     0.014 A 
ATOM     35  C   UNL     1       5.419   7.288   0.740  1.00  0.00     0.010 A 
ATOM     36  C   UNL     1       6.905   5.495   0.106  1.00  0.00     0.010 A 
ATOM     37  C   UNL     1       6.707   6.730   0.740  1.00  0.00    -0.014 A 
BRANCH  37  38
ATOM     38  C   UNL     1       7.870   7.384   1.398  1.00  0.00     0.031 A 
ATOM     39  C   UNL     1       9.151   7.577   0.624  1.00  0.00     0.074 A 
ATOM     40  C   UNL     1       7.835   7.656   2.720  1.00  0.00     0.049 A 
ATOM     41  N   UNL     1      10.332   7.933   1.056  1.00  0.00    -0.248 NA
ATOM     42  C   UNL     1       9.117   7.257  -0.815  1.00  0.00     0.031 C 
ATOM     43  C   UNL     1       6.701   7.407   3.615  1.00  0.00     0.029 A 
ATOM     44  N   UNL     1       8.797   8.175   3.551  1.00  0.00    -0.354 N 
ATOM     45  C   UNL     1      11.187   7.800  -0.032  1.00  0.00     0.074 A 
ATOM     46  C   UNL     1      10.403   7.279  -1.128  1.00  0.00     0.031 C 
ATOM     47  C   UNL     1       7.023   7.798   4.859  1.00  0.00     0.029 A 
ATOM     48  C   UNL     1       8.395   8.289   4.863  1.00  0.00     0.049 A 
ATOM     49  H   UNL     1       9.691   8.442   3.238  1.00  0.00     0.167 HD
ATOM     50  C   UNL     1      12.497   8.128  -0.131  1.00  0.00     0.034 A 
ATOM     51  C   UNL     1       9.058   8.741   5.946  1.00  0.00     0.034 A 
ATOM     52  C   UNL     1      13.237   8.763   0.922  1.00  0.00     0.049 A 
ATOM     53  C   UNL     1      10.470   9.234   5.775  1.00  0.00     0.074 A 
ATOM     54  C   UNL     1      14.527   9.260   0.889  1.00  0.00     0.029 A 
ATOM     55  N   UNL     1      12.740   9.013   2.191  1.00  0.00    -0.354 N 
ATOM     56  N   UNL     1      11.214   9.247   4.696  1.00  0.00    -0.248 NA
ATOM     57  C   UNL     1      11.122   9.813   6.959  1.00  0.00     0.031 C 
ATOM     58  C   UNL     1      14.808   9.819   2.140  1.00  0.00     0.029 A 
ATOM     59  C   UNL     1      13.691   9.673   2.948  1.00  0.00     0.049 A 
ATOM     60  H   UNL     1      11.843   8.759   2.507  1.00  0.00     0.167 HD
ATOM     61  C   UNL     1      12.403   9.868   5.059  1.00  0.00     0.074 A 
ATOM     62  C   UNL     1      12.273  10.236   6.454  1.00  0.00     0.031 C 
ATOM     63  C   UNL     1      13.511  10.097   4.312  1.00  0.00     0.034 A 
BRANCH  50  64
ATOM     64  C   UNL     1      13.178   7.894  -1.455  1.00  0.00     0.023 A 
ATOM     65  C   UNL     1      12.827   8.690  -2.565  1.00  0.00     0.012 A 
ATOM     66  C   UNL     1      14.181   6.916  -1.597  1.00  0.00     0.148 A 
ATOM     67  C   UNL     1      13.427   8.486  -3.806  1.00  0.00     0.002 A 
ATOM     68  C   UNL     1      14.810   6.752  -2.826  1.00  0.00     0.091 A 
ATOM     69  F   UNL     1      14.487   6.152  -0.538  1.00  0.00    -0.205 F 
ATOM     70  C   UNL     1      14.425   7.525  -3.934  1.00  0.00     0.022 A 
BRANCH  68  71
ATOM     71  S   UNL     1      16.165   5.598  -3.073  1.00  0.00     0.127 S 
ATOM     72  O   UNL     1      15.518   4.547  -3.857  1.00  0.00    -0.237 OA
ATOM     73  O   UNL     1      17.129   6.409  -3.818  1.00  0.00    -0.237 OA
ATOM     74  O   UNL     1      16.605   5.207  -1.741  1.00  0.00    -0.744 OA
ENDBRANCH  68  71
ENDBRANCH  50  64
BRANCH  51  75
ATOM     75  C   UNL     1       8.361   8.853   7.259  1.00  0.00     0.023 A 
ATOM     76  C   UNL     1       8.022  10.133   7.744  1.00  0.00     0.012 A 
ATOM     77  C   UNL     1       8.003   7.719   8.013  1.00  0.00     0.148 A 
ATOM     78  C   UNL     1       7.375  10.284   8.970  1.00  0.00     0.002 A 
ATOM     79  C   UNL     1       7.311   7.874   9.210  1.00  0.00     0.091 A 
ATOM     80  F   UNL     1       8.340   6.510   7.542  1.00  0.00    -0.205 F 
ATOM     81  C   UNL     1       7.011   9.155   9.699  1.00  0.00     0.022 A 
BRANCH  79  82
ATOM     82  S   UNL     1       6.690   6.473  10.149  1.00  0.00     0.127 S 
ATOM     83  O   UNL     1       7.624   6.425  11.270  1.00  0.00    -0.237 OA
ATOM     84  O   UNL     1       5.336   6.912  10.492  1.00  0.00    -0.237 OA
ATOM     85  O   UNL     1       6.735   5.342   9.232  1.00  0.00    -0.744 OA
ENDBRANCH  79  82
ENDBRANCH  51  75
BRANCH  63  86
ATOM     86  C   UNL     1      14.658  10.818   4.964  1.00  0.00     0.023 A 
ATOM     87  C   UNL     1      15.474  10.137   5.887  1.00  0.00     0.012 A 
ATOM     88  C   UNL     1      14.982  12.136   4.590  1.00  0.00     0.148 A 
ATOM     89  C   UNL     1      16.584  10.767   6.448  1.00  0.00     0.002 A 
ATOM     90  C   UNL     1      16.115  12.742   5.118  1.00  0.00     0.091 A 
ATOM     91  F   UNL     1      14.178  12.773   3.725  1.00  0.00    -0.205 F 
ATOM     92  C   UNL     1      16.911  12.063   6.054  1.00  0.00     0.022 A 
BRANCH  90  93
ATOM     93  S   UNL     1      16.662  14.369   4.590  1.00  0.00     0.127 S 
ATOM     94  O   UNL     1      16.247  15.204   5.716  1.00  0.00    -0.237 OA
ATOM     95  O   UNL     1      18.109  14.188   4.465  1.00  0.00    -0.237 OA
ATOM     96  O   UNL     1      15.978  14.628   3.329  1.00  0.00    -0.744 OA
ENDBRANCH  90  93
ENDBRANCH  63  86
ENDBRANCH  37  38
ENDBRANCH  29  32
ENDBRANCH  27  28
ENDBRANCH  26  27
ENDBRANCH   1  26
TORSDOF 17
