REMARK SMILES CC1(C(=O)N2CC[C@H](C(=O)NCCCNC(=O)c3ccc(-c4c5nc(c(-c6cccc(S(=O)(=O)[O-])c6F)c6ccc([nH]6)c(-c6cccc(S(=O)(=O)[O-])c6F)c6nc(c(-c7cccc(S(=O)(=O)[O-])c7F)c7ccc4[nH]7)C=C6)C=C5)cc3)C2)CCCC1
REMARK SMILES IDX 13 1 12 2 11 3 9 4 10 5 8 7 5 8 6 9 81 10 7 11 3 12 4 13
REMARK SMILES IDX 2 14 1 15 82 16 85 17 83 18 84 19 14 20 15 21 16 22 17 24
REMARK SMILES IDX 18 25 19 26 80 27 20 28 79 29 21 30 22 31 23 32 73 33 24 34
REMARK SMILES IDX 78 35 72 36 74 37 25 38 77 39 71 40 70 41 26 43 58 44 38 45
REMARK SMILES IDX 57 46 39 47 42 48 56 49 75 50 40 51 41 52 55 54 76 55 43 56
REMARK SMILES IDX 27 57 28 58 36 59 29 60 31 61 37 62 30 63 32 64 33 65 34 66
REMARK SMILES IDX 35 67 59 68 60 69 68 70 61 71 63 72 69 73 62 74 64 75 65 76
REMARK SMILES IDX 66 77 67 78 44 79 45 80 53 81 46 82 48 83 54 84 47 85 49 86
REMARK SMILES IDX 50 87 51 88 52 89
REMARK H PARENT 11 6 15 23 74 42 42 53
REMARK Flexibility Score: inf
ROOT
ATOM      1  C   UNL     1       0.931  -4.840   0.409  1.00  0.00     0.042 C 
ENDROOT
BRANCH   1   2
ATOM      2  C   UNL     1       1.245  -4.136   1.720  1.00  0.00     0.117 C 
BRANCH   2   3
ATOM      3  N   UNL     1       2.286  -4.791   2.488  1.00  0.00    -0.356 N 
ATOM      4  C   UNL     1       3.513  -4.349   2.874  1.00  0.00     0.224 C 
ATOM      5  O   UNL     1       4.186  -5.102   3.585  1.00  0.00    -0.275 OA
ATOM      6  H   UNL     1       2.069  -5.707   2.777  1.00  0.00     0.163 HD
BRANCH   4   7
ATOM      7  C   UNL     1       4.079  -3.000   2.454  1.00  0.00     0.099 C 
ATOM      8  N   UNL     1       2.900  -1.111   1.633  1.00  0.00    -0.341 N 
ATOM      9  C   UNL     1       3.905  -1.428   0.638  1.00  0.00     0.120 C 
ATOM     10  C   UNL     1       3.230  -1.800   2.875  1.00  0.00     0.133 C 
ATOM     11  C   UNL     1       4.285  -2.865   0.942  1.00  0.00     0.037 C 
BRANCH   8  12
ATOM     12  C   UNL     1       1.937  -0.123   1.627  1.00  0.00     0.228 C 
ATOM     13  O   UNL     1       1.670   0.452   2.689  1.00  0.00    -0.274 OA
BRANCH  12  14
ATOM     14  C   UNL     1       1.022   0.065   0.383  1.00  0.00     0.047 C 
ATOM     15  C   UNL     1       1.732   0.233  -0.963  1.00  0.00     0.022 C 
ATOM     16  C   UNL     1       0.046   1.249   0.592  1.00  0.00     0.016 C 
ATOM     17  C   UNL     1       0.026  -1.110   0.338  1.00  0.00     0.016 C 
ATOM     18  C   UNL     1      -1.191   0.919  -0.242  1.00  0.00     0.001 C 
ATOM     19  C   UNL     1      -1.233  -0.599  -0.351  1.00  0.00     0.001 C 
ENDBRANCH  12  14
ENDBRANCH   8  12
ENDBRANCH   4   7
ENDBRANCH   2   3
ENDBRANCH   1   2
BRANCH   1  20
ATOM     20  C   UNL     1       0.231  -6.176   0.581  1.00  0.00     0.118 C 
BRANCH  20  21
ATOM     21  N   UNL     1      -1.087  -6.043   1.193  1.00  0.00    -0.352 N 
ATOM     22  C   UNL     1      -2.334  -6.316   0.686  1.00  0.00     0.251 C 
ATOM     23  H   UNL     1      -1.081  -5.705   2.117  1.00  0.00     0.163 HD
ATOM     24  O   UNL     1      -3.331  -5.949   1.308  1.00  0.00    -0.269 OA
BRANCH  22  25
ATOM     25  C   UNL     1      -2.485  -7.024  -0.603  1.00  0.00     0.039 A 
ATOM     26  C   UNL     1      -3.484  -6.617  -1.491  1.00  0.00     0.014 A 
ATOM     27  C   UNL     1      -1.650  -8.092  -0.937  1.00  0.00     0.014 A 
ATOM     28  C   UNL     1      -3.595  -7.233  -2.740  1.00  0.00     0.010 A 
ATOM     29  C   UNL     1      -1.691  -8.629  -2.218  1.00  0.00     0.010 A 
ATOM     30  C   UNL     1      -2.671  -8.216  -3.131  1.00  0.00    -0.014 A 
BRANCH  30  31
ATOM     31  C   UNL     1      -2.705  -8.821  -4.487  1.00  0.00     0.031 A 
ATOM     32  C   UNL     1      -2.882 -10.306  -4.653  1.00  0.00     0.074 A 
ATOM     33  C   UNL     1      -2.469  -8.048  -5.566  1.00  0.00     0.049 A 
ATOM     34  N   UNL     1      -2.858 -11.023  -5.746  1.00  0.00    -0.248 NA
ATOM     35  C   UNL     1      -3.075 -11.095  -3.425  1.00  0.00     0.031 C 
ATOM     36  C   UNL     1      -2.186  -6.612  -5.531  1.00  0.00     0.029 A 
ATOM     37  N   UNL     1      -2.394  -8.369  -6.898  1.00  0.00    -0.354 N 
ATOM     38  C   UNL     1      -2.992 -12.345  -5.338  1.00  0.00     0.074 A 
ATOM     39  C   UNL     1      -3.050 -12.334  -3.892  1.00  0.00     0.031 C 
ATOM     40  C   UNL     1      -1.964  -6.177  -6.780  1.00  0.00     0.029 A 
ATOM     41  C   UNL     1      -2.053  -7.306  -7.701  1.00  0.00     0.049 A 
ATOM     42  H   UNL     1      -2.567  -9.273  -7.246  1.00  0.00     0.167 HD
ATOM     43  C   UNL     1      -3.088 -13.464  -6.094  1.00  0.00     0.034 A 
ATOM     44  C   UNL     1      -1.817  -7.246  -9.026  1.00  0.00     0.034 A 
ATOM     45  C   UNL     1      -3.061 -13.466  -7.531  1.00  0.00     0.049 A 
ATOM     46  C   UNL     1      -1.974  -8.491  -9.854  1.00  0.00     0.074 A 
ATOM     47  C   UNL     1      -3.249 -14.530  -8.395  1.00  0.00     0.029 A 
ATOM     48  N   UNL     1      -2.814 -12.352  -8.319  1.00  0.00    -0.354 N 
ATOM     49  N   UNL     1      -2.269  -9.707  -9.464  1.00  0.00    -0.248 NA
ATOM     50  C   UNL     1      -1.804  -8.350 -11.307  1.00  0.00     0.031 C 
ATOM     51  C   UNL     1      -3.077 -14.067  -9.703  1.00  0.00     0.029 A 
ATOM     52  C   UNL     1      -2.826 -12.705  -9.658  1.00  0.00     0.049 A 
ATOM     53  H   UNL     1      -2.653 -11.443  -7.976  1.00  0.00     0.167 HD
ATOM     54  C   UNL     1      -2.351 -10.471 -10.623  1.00  0.00     0.074 A 
ATOM     55  C   UNL     1      -2.095  -9.573 -11.731  1.00  0.00     0.031 C 
ATOM     56  C   UNL     1      -2.606 -11.796 -10.755  1.00  0.00     0.034 A 
BRANCH  43  57
ATOM     57  C   UNL     1      -3.270 -14.776  -5.372  1.00  0.00     0.023 A 
ATOM     58  C   UNL     1      -4.469 -15.034  -4.675  1.00  0.00     0.012 A 
ATOM     59  C   UNL     1      -2.267 -15.765  -5.401  1.00  0.00     0.148 A 
ATOM     60  C   UNL     1      -4.646 -16.226  -3.974  1.00  0.00     0.002 A 
ATOM     61  C   UNL     1      -2.471 -16.973  -4.745  1.00  0.00     0.091 A 
ATOM     62  F   UNL     1      -1.124 -15.499  -6.051  1.00  0.00    -0.205 F 
ATOM     63  C   UNL     1      -3.651 -17.199  -4.017  1.00  0.00     0.022 A 
BRANCH  61  64
ATOM     64  S   UNL     1      -1.287 -18.322  -4.813  1.00  0.00     0.127 S 
ATOM     65  O   UNL     1      -0.729 -18.292  -3.462  1.00  0.00    -0.237 OA
ATOM     66  O   UNL     1      -2.147 -19.473  -5.091  1.00  0.00    -0.237 OA
ATOM     67  O   UNL     1      -0.359 -17.986  -5.884  1.00  0.00    -0.744 OA
ENDBRANCH  61  64
ENDBRANCH  43  57
BRANCH  44  68
ATOM     68  C   UNL     1      -1.450  -5.943  -9.648  1.00  0.00     0.023 A 
ATOM     69  C   UNL     1      -2.377  -5.274 -10.470  1.00  0.00     0.012 A 
ATOM     70  C   UNL     1      -0.208  -5.336  -9.375  1.00  0.00     0.148 A 
ATOM     71  C   UNL     1      -2.063  -4.036 -11.031  1.00  0.00     0.002 A 
ATOM     72  C   UNL     1       0.074  -4.077  -9.888  1.00  0.00     0.091 A 
ATOM     73  F   UNL     1       0.660  -5.994  -8.594  1.00  0.00    -0.205 F 
ATOM     74  C   UNL     1      -0.844  -3.432 -10.731  1.00  0.00     0.022 A 
BRANCH  72  75
ATOM     75  S   UNL     1       1.553  -3.162  -9.439  1.00  0.00     0.127 S 
ATOM     76  O   UNL     1       2.273  -3.113 -10.709  1.00  0.00    -0.237 OA
ATOM     77  O   UNL     1       0.992  -1.884  -8.997  1.00  0.00    -0.237 OA
ATOM     78  O   UNL     1       2.192  -3.934  -8.382  1.00  0.00    -0.744 OA
ENDBRANCH  72  75
ENDBRANCH  44  68
BRANCH  56  79
ATOM     79  C   UNL     1      -2.658 -12.362 -12.151  1.00  0.00     0.023 A 
ATOM     80  C   UNL     1      -1.474 -12.503 -12.902  1.00  0.00     0.012 A 
ATOM     81  C   UNL     1      -3.877 -12.822 -12.689  1.00  0.00     0.148 A 
ATOM     82  C   UNL     1      -1.508 -13.062 -14.179  1.00  0.00     0.002 A 
ATOM     83  C   UNL     1      -3.894 -13.427 -13.940  1.00  0.00     0.091 A 
ATOM     84  F   UNL     1      -4.995 -12.663 -11.967  1.00  0.00    -0.205 F 
ATOM     85  C   UNL     1      -2.713 -13.535 -14.692  1.00  0.00     0.022 A 
BRANCH  83  86
ATOM     86  S   UNL     1      -5.380 -14.154 -14.639  1.00  0.00     0.127 S 
ATOM     87  O   UNL     1      -5.681 -13.226 -15.728  1.00  0.00    -0.237 OA
ATOM     88  O   UNL     1      -4.907 -15.469 -15.071  1.00  0.00    -0.237 OA
ATOM     89  O   UNL     1      -6.359 -14.187 -13.560  1.00  0.00    -0.744 OA
ENDBRANCH  83  86
ENDBRANCH  56  79
ENDBRANCH  30  31
ENDBRANCH  22  25
ENDBRANCH  20  21
ENDBRANCH   1  20
TORSDOF 15
