REMARK SMILES CCn1ncc(NC(=O)[C@@H]2CCCC[C@@H]2C(=O)NCCCNC(=O)c2ccc(-c3c4nc(c(-c5cccc(S(=O)(=O)[O-])c5F)c5ccc([nH]5)c(-c5cccc(S(=O)(=O)[O-])c5F)c5nc(c(-c6cccc(S(=O)(=O)[O-])c6F)c6ccc3[nH]6)C=C5)C=C4)cc2)c1C(=O)Nc1cnn(C)c1C
REMARK SMILES IDX 19 1 18 2 16 3 17 4 15 6 10 7 11 8 12 9 14 10 13 11 8 12
REMARK SMILES IDX 7 13 9 15 6 16 3 17 4 18 88 19 5 20 2 21 1 22 89 23 90 24
REMARK SMILES IDX 91 25 92 27 93 28 97 29 94 30 95 31 98 32 96 33 20 34 21 35
REMARK SMILES IDX 22 36 23 37 24 39 25 40 26 41 87 42 27 43 86 44 28 45 29 46
REMARK SMILES IDX 30 47 80 48 31 49 85 50 79 51 81 52 32 53 84 54 78 55 77 56
REMARK SMILES IDX 33 58 65 59 45 60 64 61 46 62 49 63 63 64 82 65 47 66 48 67
REMARK SMILES IDX 62 69 83 70 50 71 34 72 35 73 43 74 36 75 38 76 44 77 37 78
REMARK SMILES IDX 39 79 40 80 41 81 42 82 66 83 67 84 75 85 68 86 70 87 76 88
REMARK SMILES IDX 69 89 71 90 72 91 73 92 74 93 51 94 52 95 60 96 53 97 55 98
REMARK SMILES IDX 61 99 54 100 56 101 57 102 58 103 59 104
REMARK H PARENT 18 5 7 14 91 26 22 38 81 57 49 68
REMARK Flexibility Score: inf
ROOT
ATOM      1  C   UNL     1       6.622  -2.349   7.263  1.00  0.00     0.117 C 
ENDROOT
BRANCH   1   2
ATOM      2  N   UNL     1       5.601  -1.698   8.063  1.00  0.00    -0.356 N 
ATOM      3  C   UNL     1       4.383  -1.214   7.676  1.00  0.00     0.223 C 
ATOM      4  O   UNL     1       3.584  -0.888   8.549  1.00  0.00    -0.275 OA
ATOM      5  H   UNL     1       5.815  -1.591   9.018  1.00  0.00     0.163 HD
BRANCH   3   6
ATOM      6  C   UNL     1       4.044  -1.223   6.187  1.00  0.00     0.091 C 
ATOM      7  C   UNL     1       2.852  -0.356   5.766  1.00  0.00     0.091 C 
ATOM      8  C   UNL     1       1.524  -0.769   6.404  1.00  0.00     0.014 C 
ATOM      9  C   UNL     1       1.238  -2.262   6.207  1.00  0.00     0.001 C 
ATOM     10  C   UNL     1       3.726  -2.660   5.739  1.00  0.00     0.014 C 
ATOM     11  C   UNL     1       2.445  -3.183   6.388  1.00  0.00     0.001 C 
BRANCH   7  12
ATOM     12  C   UNL     1       3.146   1.125   5.831  1.00  0.00     0.228 C 
ATOM     13  N   UNL     1       2.537   1.996   4.976  1.00  0.00    -0.322 N 
ATOM     14  H   UNL     1       2.688   2.938   5.220  1.00  0.00     0.170 HD
ATOM     15  O   UNL     1       3.900   1.596   6.683  1.00  0.00    -0.274 OA
BRANCH  13  16
ATOM     16  C   UNL     1       1.753   1.855   3.842  1.00  0.00     0.092 A 
ATOM     17  N   UNL     1       0.552   1.331   2.074  1.00  0.00    -0.258 N 
ATOM     18  N   UNL     1       0.169   2.587   2.353  1.00  0.00    -0.178 NA
ATOM     19  C   UNL     1       1.596   0.872   2.867  1.00  0.00     0.150 A 
ATOM     20  C   UNL     1       0.915   2.912   3.401  1.00  0.00     0.162 A 
BRANCH  17  21
ATOM     21  C   UNL     1      -0.149   0.665   0.991  1.00  0.00     0.142 C 
ATOM     22  C   UNL     1       0.485   0.887  -0.369  1.00  0.00     0.029 C 
ENDBRANCH  17  21
BRANCH  19  23
ATOM     23  C   UNL     1       2.398  -0.275   2.478  1.00  0.00     0.276 C 
ATOM     24  O   UNL     1       3.543  -0.182   2.048  1.00  0.00    -0.267 OA
ATOM     25  N   UNL     1       1.730  -1.482   2.570  1.00  0.00    -0.318 N 
ATOM     26  H   UNL     1       1.417  -1.796   3.450  1.00  0.00     0.170 HD
BRANCH  25  27
ATOM     27  C   UNL     1       1.493  -2.258   1.448  1.00  0.00     0.082 A 
ATOM     28  C   UNL     1       1.977  -2.124   0.130  1.00  0.00     0.161 A 
ATOM     29  C   UNL     1       0.508  -3.223   1.373  1.00  0.00     0.059 A 
ATOM     30  N   UNL     1       1.208  -2.779  -0.745  1.00  0.00    -0.179 NA
ATOM     31  N   UNL     1       0.266  -3.356   0.025  1.00  0.00    -0.271 N 
ATOM     32  C   UNL     1      -0.305  -3.901   2.412  1.00  0.00     0.068 C 
ATOM     33  C   UNL     1      -0.973  -3.777  -0.591  1.00  0.00     0.174 C 
ENDBRANCH  25  27
ENDBRANCH  19  23
ENDBRANCH  13  16
ENDBRANCH   7  12
ENDBRANCH   3   6
ENDBRANCH   1   2
BRANCH   1  34
ATOM     34  C   UNL     1       8.028  -1.807   7.481  1.00  0.00     0.042 C 
BRANCH  34  35
ATOM     35  C   UNL     1       8.522  -1.965   8.907  1.00  0.00     0.118 C 
BRANCH  35  36
ATOM     36  N   UNL     1       8.617  -3.359   9.338  1.00  0.00    -0.352 N 
ATOM     37  C   UNL     1       9.078  -3.831  10.558  1.00  0.00     0.251 C 
ATOM     38  H   UNL     1       8.322  -4.039   8.690  1.00  0.00     0.163 HD
ATOM     39  O   UNL     1       9.366  -4.996  10.720  1.00  0.00    -0.269 OA
BRANCH  37  40
ATOM     40  C   UNL     1       9.223  -2.848  11.650  1.00  0.00     0.039 A 
ATOM     41  C   UNL     1      10.432  -2.732  12.339  1.00  0.00     0.014 A 
ATOM     42  C   UNL     1       8.168  -1.971  11.884  1.00  0.00     0.014 A 
ATOM     43  C   UNL     1      10.608  -1.655  13.203  1.00  0.00     0.010 A 
ATOM     44  C   UNL     1       8.393  -0.838  12.629  1.00  0.00     0.010 A 
ATOM     45  C   UNL     1       9.595  -0.690  13.321  1.00  0.00    -0.014 A 
BRANCH  45  46
ATOM     46  C   UNL     1       9.845   0.556  14.046  1.00  0.00     0.031 A 
ATOM     47  C   UNL     1      11.030   1.332  13.576  1.00  0.00     0.074 A 
ATOM     48  C   UNL     1       8.940   1.091  14.894  1.00  0.00     0.049 A 
ATOM     49  N   UNL     1      12.106   1.622  14.234  1.00  0.00    -0.248 NA
ATOM     50  C   UNL     1      11.086   1.718  12.156  1.00  0.00     0.031 C 
ATOM     51  C   UNL     1       7.589   0.588  15.183  1.00  0.00     0.029 A 
ATOM     52  N   UNL     1       8.959   2.289  15.545  1.00  0.00    -0.354 N 
ATOM     53  C   UNL     1      12.862   2.437  13.386  1.00  0.00     0.074 A 
ATOM     54  C   UNL     1      12.295   2.276  12.076  1.00  0.00     0.031 C 
ATOM     55  C   UNL     1       6.838   1.586  15.692  1.00  0.00     0.029 A 
ATOM     56  C   UNL     1       7.697   2.724  15.943  1.00  0.00     0.049 A 
ATOM     57  H   UNL     1       9.785   2.798  15.716  1.00  0.00     0.167 HD
ATOM     58  C   UNL     1      13.706   3.384  13.886  1.00  0.00     0.034 A 
ATOM     59  C   UNL     1       7.364   3.950  16.408  1.00  0.00     0.034 A 
ATOM     60  C   UNL     1      13.928   3.174  15.297  1.00  0.00     0.049 A 
ATOM     61  C   UNL     1       8.605   4.587  16.890  1.00  0.00     0.074 A 
ATOM     62  C   UNL     1      14.496   2.203  16.091  1.00  0.00     0.029 A 
ATOM     63  N   UNL     1      13.170   3.968  16.119  1.00  0.00    -0.354 N 
ATOM     64  N   UNL     1       9.284   4.155  17.916  1.00  0.00    -0.248 NA
ATOM     65  C   UNL     1       9.306   5.516  16.020  1.00  0.00     0.031 C 
ATOM     66  C   UNL     1      13.764   2.243  17.316  1.00  0.00     0.029 A 
ATOM     67  C   UNL     1      12.813   3.263  17.230  1.00  0.00     0.049 A 
ATOM     68  H   UNL     1      12.921   4.903  15.935  1.00  0.00     0.167 HD
ATOM     69  C   UNL     1      10.605   4.380  17.565  1.00  0.00     0.074 A 
ATOM     70  C   UNL     1      10.545   5.371  16.496  1.00  0.00     0.031 C 
ATOM     71  C   UNL     1      11.586   3.514  17.958  1.00  0.00     0.034 A 
BRANCH  58  72
ATOM     72  C   UNL     1      13.969   4.763  13.282  1.00  0.00     0.023 A 
ATOM     73  C   UNL     1      14.847   5.611  14.007  1.00  0.00     0.012 A 
ATOM     74  C   UNL     1      13.192   5.381  12.277  1.00  0.00     0.148 A 
ATOM     75  C   UNL     1      14.858   7.000  13.829  1.00  0.00     0.002 A 
ATOM     76  C   UNL     1      13.251   6.756  12.060  1.00  0.00     0.091 A 
ATOM     77  F   UNL     1      12.297   4.676  11.586  1.00  0.00    -0.205 F 
ATOM     78  C   UNL     1      14.051   7.575  12.859  1.00  0.00     0.022 A 
BRANCH  76  79
ATOM     79  S   UNL     1      12.256   7.555  10.792  1.00  0.00     0.127 S 
ATOM     80  O   UNL     1      11.242   8.226  11.601  1.00  0.00    -0.237 OA
ATOM     81  O   UNL     1      13.234   8.442  10.161  1.00  0.00    -0.237 OA
ATOM     82  O   UNL     1      11.782   6.481   9.930  1.00  0.00    -0.744 OA
ENDBRANCH  76  79
ENDBRANCH  58  72
BRANCH  59  83
ATOM     83  C   UNL     1       6.085   4.685  16.316  1.00  0.00     0.023 A 
ATOM     84  C   UNL     1       5.780   5.679  17.265  1.00  0.00     0.012 A 
ATOM     85  C   UNL     1       5.288   4.602  15.152  1.00  0.00     0.148 A 
ATOM     86  C   UNL     1       4.737   6.586  17.047  1.00  0.00     0.002 A 
ATOM     87  C   UNL     1       4.250   5.504  14.941  1.00  0.00     0.091 A 
ATOM     88  F   UNL     1       5.607   3.695  14.218  1.00  0.00    -0.205 F 
ATOM     89  C   UNL     1       3.980   6.507  15.882  1.00  0.00     0.022 A 
BRANCH  87  90
ATOM     90  S   UNL     1       3.240   5.486  13.454  1.00  0.00     0.127 S 
ATOM     91  O   UNL     1       1.885   5.502  14.009  1.00  0.00    -0.237 OA
ATOM     92  O   UNL     1       3.646   6.726  12.798  1.00  0.00    -0.237 OA
ATOM     93  O   UNL     1       3.587   4.256  12.755  1.00  0.00    -0.744 OA
ENDBRANCH  87  90
ENDBRANCH  59  83
BRANCH  71  94
ATOM     94  C   UNL     1      11.277   2.570  19.089  1.00  0.00     0.023 A 
ATOM     95  C   UNL     1      10.312   1.547  18.986  1.00  0.00     0.012 A 
ATOM     96  C   UNL     1      12.095   2.623  20.229  1.00  0.00     0.148 A 
ATOM     97  C   UNL     1      10.153   0.611  20.011  1.00  0.00     0.002 A 
ATOM     98  C   UNL     1      11.969   1.662  21.223  1.00  0.00     0.091 A 
ATOM     99  F   UNL     1      13.008   3.603  20.309  1.00  0.00    -0.205 F 
ATOM    100  C   UNL     1      10.992   0.659  21.123  1.00  0.00     0.022 A 
BRANCH  98 101
ATOM    101  S   UNL     1      13.106   1.597  22.608  1.00  0.00     0.127 S 
ATOM    102  O   UNL     1      12.296   2.140  23.695  1.00  0.00    -0.237 OA
ATOM    103  O   UNL     1      13.393   0.165  22.714  1.00  0.00    -0.237 OA
ATOM    104  O   UNL     1      14.257   2.403  22.218  1.00  0.00    -0.744 OA
ENDBRANCH  98 101
ENDBRANCH  71  94
ENDBRANCH  45  46
ENDBRANCH  37  40
ENDBRANCH  35  36
ENDBRANCH  34  35
ENDBRANCH   1  34
TORSDOF 18
