REMARK SMILES O=C(NCCCNC(=O)c1ccc(-c2c3nc(c(-c4cccc(S(=O)(=O)[O-])c4F)c4ccc([nH]4)c(-c4cccc(S(=O)(=O)[O-])c4F)c4nc(c(-c5cccc(S(=O)(=O)[O-])c5F)c5ccc2[nH]5)C=C4)C=C3)cc1)C1=Cc2c(ccc(Cl)c2Sc2ccccc2)O[C@H]1C(F)(F)F
REMARK SMILES IDX 5 1 4 2 3 3 1 4 2 5 73 7 74 8 90 9 75 10 89 11 76 12 81 13
REMARK SMILES IDX 77 14 79 15 78 16 80 17 91 18 92 19 93 20 94 21 82 22 83 23
REMARK SMILES IDX 84 24 88 25 85 26 87 27 86 28 6 29 7 30 8 31 9 33 10 34
REMARK SMILES IDX 11 35 72 36 12 37 71 38 13 39 14 40 15 41 65 42 16 43 70 44
REMARK SMILES IDX 64 45 66 46 17 47 69 48 63 49 62 50 18 52 50 53 30 54 49 55
REMARK SMILES IDX 31 56 34 57 48 58 67 59 32 60 33 61 47 63 68 64 35 65 19 66
REMARK SMILES IDX 20 67 28 68 21 69 23 70 29 71 22 72 24 73 25 74 26 75 27 76
REMARK SMILES IDX 51 77 52 78 60 79 53 80 55 81 61 82 54 83 56 84 57 85 58 86
REMARK SMILES IDX 59 87 36 88 37 89 45 90 38 91 40 92 46 93 39 94 41 95 42 96
REMARK SMILES IDX 43 97 44 98
REMARK H PARENT 3 6 7 32 66 51 34 62
REMARK Flexibility Score: inf
ROOT
ATOM      1  C   UNL     1       3.991  -2.884   0.185  1.00  0.00     0.042 C 
ENDROOT
BRANCH   1   2
ATOM      2  C   UNL     1       3.335  -1.677  -0.457  1.00  0.00     0.118 C 
BRANCH   2   3
ATOM      3  N   UNL     1       2.213  -1.147   0.290  1.00  0.00    -0.352 N 
ATOM      4  O   UNL     1       1.018   0.268   1.556  1.00  0.00    -0.270 OA
ATOM      5  C   UNL     1       2.062   0.032   0.955  1.00  0.00     0.251 C 
ATOM      6  H   UNL     1       1.426  -1.738   0.322  1.00  0.00     0.163 HD
BRANCH   5   7
ATOM      7  C   UNL     1       3.150   1.025   0.996  1.00  0.00     0.067 C 
ATOM      8  C   UNL     1       3.544   1.710  -0.084  1.00  0.00     0.026 C 
ATOM      9  C   UNL     1       4.006   1.111   2.213  1.00  0.00     0.314 C 
ATOM     10  C   UNL     1       4.874   1.232  -0.527  1.00  0.00     0.033 A 
ATOM     11  O   UNL     1       5.423   0.954   1.865  1.00  0.00    -0.475 OA
ATOM     12  C   UNL     1       5.737   0.818   0.524  1.00  0.00     0.129 A 
ATOM     13  C   UNL     1       5.164   0.958  -1.892  1.00  0.00     0.042 A 
ATOM     14  C   UNL     1       6.897   0.116   0.234  1.00  0.00     0.049 A 
ATOM     15  C   UNL     1       6.327   0.188  -2.138  1.00  0.00     0.055 A 
ATOM     16  C   UNL     1       7.172  -0.225  -1.089  1.00  0.00     0.025 A 
ATOM     17  Cl  UNL     1       6.750  -0.398  -3.716  1.00  0.00    -0.083 Cl
BRANCH   9  18
ATOM     18  C   UNL     1       3.763   2.440   2.952  1.00  0.00     0.429 C 
ATOM     19  F   UNL     1       2.468   2.837   2.894  1.00  0.00    -0.167 F 
ATOM     20  F   UNL     1       4.087   2.350   4.262  1.00  0.00    -0.167 F 
ATOM     21  F   UNL     1       4.498   3.452   2.423  1.00  0.00    -0.167 F 
ENDBRANCH   9  18
BRANCH  13  22
ATOM     22  S   UNL     1       4.063   1.338  -3.300  1.00  0.00    -0.088 SA
BRANCH  22  23
ATOM     23  C   UNL     1       2.815   2.455  -2.697  1.00  0.00     0.012 A 
ATOM     24  C   UNL     1       1.546   1.967  -2.354  1.00  0.00     0.015 A 
ATOM     25  C   UNL     1       3.134   3.792  -2.429  1.00  0.00     0.015 A 
ATOM     26  C   UNL     1       0.654   2.772  -1.639  1.00  0.00     0.001 A 
ATOM     27  C   UNL     1       2.238   4.596  -1.718  1.00  0.00     0.001 A 
ATOM     28  C   UNL     1       1.011   4.077  -1.302  1.00  0.00     0.000 A 
ENDBRANCH  22  23
ENDBRANCH  13  22
ENDBRANCH   5   7
ENDBRANCH   2   3
ENDBRANCH   1   2
BRANCH   1  29
ATOM     29  C   UNL     1       3.947  -4.108  -0.710  1.00  0.00     0.118 C 
BRANCH  29  30
ATOM     30  N   UNL     1       4.620  -3.944  -1.996  1.00  0.00    -0.352 N 
ATOM     31  C   UNL     1       5.471  -4.791  -2.679  1.00  0.00     0.251 C 
ATOM     32  H   UNL     1       4.438  -3.090  -2.450  1.00  0.00     0.163 HD
ATOM     33  O   UNL     1       5.941  -4.438  -3.745  1.00  0.00    -0.269 OA
BRANCH  31  34
ATOM     34  C   UNL     1       5.851  -6.101  -2.095  1.00  0.00     0.039 A 
ATOM     35  C   UNL     1       7.157  -6.565  -2.271  1.00  0.00     0.014 A 
ATOM     36  C   UNL     1       4.949  -6.853  -1.346  1.00  0.00     0.014 A 
ATOM     37  C   UNL     1       7.569  -7.734  -1.625  1.00  0.00     0.010 A 
ATOM     38  C   UNL     1       5.403  -7.914  -0.578  1.00  0.00     0.010 A 
ATOM     39  C   UNL     1       6.708  -8.391  -0.731  1.00  0.00    -0.014 A 
BRANCH  39  40
ATOM     40  C   UNL     1       7.139  -9.591   0.032  1.00  0.00     0.031 A 
ATOM     41  C   UNL     1       6.354 -10.876  -0.074  1.00  0.00     0.074 A 
ATOM     42  C   UNL     1       8.179  -9.500   0.886  1.00  0.00     0.049 A 
ATOM     43  N   UNL     1       6.546 -12.012   0.544  1.00  0.00    -0.248 NA
ATOM     44  C   UNL     1       5.166 -10.874  -0.948  1.00  0.00     0.031 C 
ATOM     45  C   UNL     1       8.939  -8.280   1.172  1.00  0.00     0.029 A 
ATOM     46  N   UNL     1       8.767 -10.447   1.685  1.00  0.00    -0.354 N 
ATOM     47  C   UNL     1       5.482 -12.829   0.177  1.00  0.00     0.074 A 
ATOM     48  C   UNL     1       4.615 -12.044  -0.669  1.00  0.00     0.031 C 
ATOM     49  C   UNL     1       9.910  -8.560   2.056  1.00  0.00     0.029 A 
ATOM     50  C   UNL     1       9.826  -9.969   2.422  1.00  0.00     0.049 A 
ATOM     51  H   UNL     1       8.460 -11.382   1.727  1.00  0.00     0.167 HD
ATOM     52  C   UNL     1       5.266 -14.131   0.477  1.00  0.00     0.034 A 
ATOM     53  C   UNL     1      10.642 -10.600   3.288  1.00  0.00     0.034 A 
ATOM     54  C   UNL     1       6.177 -14.928   1.252  1.00  0.00     0.049 A 
ATOM     55  C   UNL     1      10.450 -12.075   3.512  1.00  0.00     0.074 A 
ATOM     56  C   UNL     1       6.124 -16.283   1.518  1.00  0.00     0.029 A 
ATOM     57  N   UNL     1       7.311 -14.438   1.881  1.00  0.00    -0.354 N 
ATOM     58  N   UNL     1       9.538 -12.874   3.012  1.00  0.00    -0.248 NA
ATOM     59  C   UNL     1      11.426 -12.746   4.381  1.00  0.00     0.031 C 
ATOM     60  C   UNL     1       7.217 -16.610   2.327  1.00  0.00     0.029 A 
ATOM     61  C   UNL     1       7.966 -15.462   2.539  1.00  0.00     0.049 A 
ATOM     62  H   UNL     1       7.606 -13.499   1.861  1.00  0.00     0.167 HD
ATOM     63  C   UNL     1       9.846 -14.145   3.481  1.00  0.00     0.074 A 
ATOM     64  C   UNL     1      11.050 -14.013   4.276  1.00  0.00     0.031 C 
ATOM     65  C   UNL     1       9.186 -15.314   3.289  1.00  0.00     0.034 A 
BRANCH  52  66
ATOM     66  C   UNL     1       4.034 -14.790  -0.089  1.00  0.00     0.023 A 
ATOM     67  C   UNL     1       3.941 -15.027  -1.477  1.00  0.00     0.012 A 
ATOM     68  C   UNL     1       2.989 -15.218   0.753  1.00  0.00     0.148 A 
ATOM     69  C   UNL     1       2.814 -15.640  -2.023  1.00  0.00     0.002 A 
ATOM     70  C   UNL     1       1.891 -15.875   0.208  1.00  0.00     0.091 A 
ATOM     71  F   UNL     1       3.082 -14.965   2.066  1.00  0.00    -0.205 F 
ATOM     72  C   UNL     1       1.796 -16.073  -1.179  1.00  0.00     0.022 A 
BRANCH  70  73
ATOM     73  S   UNL     1       0.565 -16.548   1.214  1.00  0.00     0.127 S 
ATOM     74  O   UNL     1      -0.553 -15.680   0.847  1.00  0.00    -0.237 OA
ATOM     75  O   UNL     1       0.464 -17.918   0.710  1.00  0.00    -0.237 OA
ATOM     76  O   UNL     1       1.011 -16.439   2.596  1.00  0.00    -0.744 OA
ENDBRANCH  70  73
ENDBRANCH  52  66
BRANCH  53  77
ATOM     77  C   UNL     1      11.764  -9.860   3.934  1.00  0.00     0.023 A 
ATOM     78  C   UNL     1      13.092 -10.145   3.560  1.00  0.00     0.012 A 
ATOM     79  C   UNL     1      11.524  -8.855   4.891  1.00  0.00     0.148 A 
ATOM     80  C   UNL     1      14.161  -9.473   4.154  1.00  0.00     0.002 A 
ATOM     81  C   UNL     1      12.590  -8.148   5.436  1.00  0.00     0.091 A 
ATOM     82  F   UNL     1      10.255  -8.603   5.243  1.00  0.00    -0.205 F 
ATOM     83  C   UNL     1      13.910  -8.467   5.083  1.00  0.00     0.022 A 
BRANCH  81  84
ATOM     84  S   UNL     1      12.350  -6.743   6.530  1.00  0.00     0.127 S 
ATOM     85  O   UNL     1      12.764  -7.293   7.818  1.00  0.00    -0.237 OA
ATOM     86  O   UNL     1      13.264  -5.754   5.958  1.00  0.00    -0.237 OA
ATOM     87  O   UNL     1      10.941  -6.392   6.411  1.00  0.00    -0.744 OA
ENDBRANCH  81  84
ENDBRANCH  53  77
BRANCH  65  88
ATOM     88  C   UNL     1       9.767 -16.546   3.928  1.00  0.00     0.023 A 
ATOM     89  C   UNL     1       9.711 -16.703   5.328  1.00  0.00     0.012 A 
ATOM     90  C   UNL     1      10.324 -17.570   3.138  1.00  0.00     0.148 A 
ATOM     91  C   UNL     1      10.246 -17.838   5.934  1.00  0.00     0.002 A 
ATOM     92  C   UNL     1      10.805 -18.722   3.745  1.00  0.00     0.091 A 
ATOM     93  F   UNL     1      10.384 -17.394   1.810  1.00  0.00    -0.205 F 
ATOM     94  C   UNL     1      10.782 -18.851   5.143  1.00  0.00     0.022 A 
BRANCH  92  95
ATOM     95  S   UNL     1      11.418 -20.117   2.794  1.00  0.00     0.127 S 
ATOM     96  O   UNL     1      12.864 -19.974   2.953  1.00  0.00    -0.237 OA
ATOM     97  O   UNL     1      10.836 -21.258   3.503  1.00  0.00    -0.237 OA
ATOM     98  O   UNL     1      10.911 -19.928   1.442  1.00  0.00    -0.744 OA
ENDBRANCH  92  95
ENDBRANCH  65  88
ENDBRANCH  39  40
ENDBRANCH  31  34
ENDBRANCH  29  30
ENDBRANCH   1  29
TORSDOF 16
