REMARK SMILES O=C(Cc1cn2ccsc2n1)N[C@@H]1C=C[C@H](C(=O)NCCCNC(=O)c2ccc(-c3c4nc(c(-c5cccc(S(=O)(=O)[O-])c5F)c5ccc([nH]5)c(-c5cccc(S(=O)(=O)[O-])c5F)c5nc(c(-c6cccc(S(=O)(=O)[O-])c6F)c6ccc3[nH]6)C=C5)C=C4)cc2)C1
REMARK SMILES IDX 21 1 20 2 19 3 17 4 18 5 16 7 13 8 14 9 89 10 15 11 12 12
REMARK SMILES IDX 1 13 2 14 3 16 4 17 5 18 11 19 6 20 10 21 7 22 9 23 8 24
REMARK SMILES IDX 22 25 23 26 24 27 25 29 26 30 27 31 88 32 28 33 87 34 29 35
REMARK SMILES IDX 30 36 31 37 81 38 32 39 86 40 80 41 82 42 33 43 85 44 79 45
REMARK SMILES IDX 78 46 34 48 66 49 46 50 65 51 47 52 50 53 64 54 83 55 48 56
REMARK SMILES IDX 49 57 63 59 84 60 51 61 35 62 36 63 44 64 37 65 39 66 45 67
REMARK SMILES IDX 38 68 40 69 41 70 42 71 43 72 67 73 68 74 76 75 69 76 71 77
REMARK SMILES IDX 77 78 70 79 72 80 73 81 74 82 75 83 52 84 53 85 61 86 54 87
REMARK SMILES IDX 56 88 62 89 55 90 57 91 58 92 59 93 60 94
REMARK H PARENT 19 6 12 15 23 28 82 47 50 58
REMARK Flexibility Score: inf
ROOT
ATOM      1  C   UNL     1      -2.240   5.729   0.196  1.00  0.00     0.042 C 
ENDROOT
BRANCH   1   2
ATOM      2  C   UNL     1      -1.405   4.699  -0.544  1.00  0.00     0.117 C 
BRANCH   2   3
ATOM      3  N   UNL     1      -0.318   5.284  -1.302  1.00  0.00    -0.356 N 
ATOM      4  C   UNL     1       1.018   5.028  -1.318  1.00  0.00     0.227 C 
ATOM      5  O   UNL     1       1.669   5.645  -2.169  1.00  0.00    -0.274 OA
ATOM      6  H   UNL     1      -0.597   5.998  -1.920  1.00  0.00     0.163 HD
BRANCH   4   7
ATOM      7  C   UNL     1       1.718   4.134  -0.271  1.00  0.00     0.103 C 
ATOM      8  C   UNL     1       2.899   2.161  -1.193  1.00  0.00     0.106 C 
ATOM      9  C   UNL     1       1.673   1.775  -0.450  1.00  0.00    -0.006 C 
ATOM     10  C   UNL     1       3.083   3.639  -0.810  1.00  0.00     0.047 C 
ATOM     11  C   UNL     1       1.074   2.832   0.102  1.00  0.00    -0.016 C 
BRANCH   8  12
ATOM     12  N   UNL     1       2.691   1.953  -2.602  1.00  0.00    -0.350 N 
ATOM     13  O   UNL     1       4.242   0.269  -2.796  1.00  0.00    -0.275 OA
ATOM     14  C   UNL     1       3.435   1.039  -3.315  1.00  0.00     0.226 C 
ATOM     15  H   UNL     1       1.999   2.478  -3.067  1.00  0.00     0.164 HD
BRANCH  14  16
ATOM     16  C   UNL     1       3.270   1.112  -4.817  1.00  0.00     0.157 C 
BRANCH  16  17
ATOM     17  C   UNL     1       1.959   0.597  -5.288  1.00  0.00     0.070 A 
ATOM     18  C   UNL     1       1.707  -0.510  -6.094  1.00  0.00     0.118 A 
ATOM     19  N   UNL     1       0.786   1.285  -5.003  1.00  0.00    -0.223 NA
ATOM     20  N   UNL     1       0.361  -0.488  -6.291  1.00  0.00    -0.297 N 
ATOM     21  C   UNL     1      -0.130   0.587  -5.615  1.00  0.00     0.193 A 
ATOM     22  C   UNL     1      -0.566  -1.235  -6.981  1.00  0.00     0.104 A 
ATOM     23  S   UNL     1      -1.849   0.716  -5.813  1.00  0.00    -0.105 S 
ATOM     24  C   UNL     1      -1.805  -0.734  -6.836  1.00  0.00     0.087 A 
ENDBRANCH  16  17
ENDBRANCH  14  16
ENDBRANCH   8  12
ENDBRANCH   4   7
ENDBRANCH   2   3
ENDBRANCH   1   2
BRANCH   1  25
ATOM     25  C   UNL     1      -3.038   6.647  -0.715  1.00  0.00     0.118 C 
BRANCH  25  26
ATOM     26  N   UNL     1      -4.021   5.928  -1.518  1.00  0.00    -0.352 N 
ATOM     27  C   UNL     1      -5.395   5.928  -1.458  1.00  0.00     0.251 C 
ATOM     28  H   UNL     1      -3.639   5.348  -2.216  1.00  0.00     0.163 HD
ATOM     29  O   UNL     1      -6.028   5.091  -2.093  1.00  0.00    -0.269 OA
BRANCH  27  30
ATOM     30  C   UNL     1      -6.108   6.919  -0.623  1.00  0.00     0.039 A 
ATOM     31  C   UNL     1      -7.232   6.515   0.102  1.00  0.00     0.014 A 
ATOM     32  C   UNL     1      -5.680   8.246  -0.561  1.00  0.00     0.014 A 
ATOM     33  C   UNL     1      -7.879   7.426   0.942  1.00  0.00     0.010 A 
ATOM     34  C   UNL     1      -6.253   9.117   0.357  1.00  0.00     0.010 A 
ATOM     35  C   UNL     1      -7.368   8.723   1.109  1.00  0.00    -0.014 A 
BRANCH  35  36
ATOM     36  C   UNL     1      -7.983   9.686   2.059  1.00  0.00     0.031 A 
ATOM     37  C   UNL     1      -8.514  11.005   1.563  1.00  0.00     0.074 A 
ATOM     38  C   UNL     1      -7.976   9.415   3.379  1.00  0.00     0.049 A 
ATOM     39  N   UNL     1      -9.013  12.002   2.246  1.00  0.00    -0.248 NA
ATOM     40  C   UNL     1      -8.445  11.249   0.113  1.00  0.00     0.031 C 
ATOM     41  C   UNL     1      -7.408   8.213   3.993  1.00  0.00     0.029 A 
ATOM     42  N   UNL     1      -8.434  10.148   4.446  1.00  0.00    -0.354 N 
ATOM     43  C   UNL     1      -9.283  13.001   1.318  1.00  0.00     0.074 A 
ATOM     44  C   UNL     1      -8.845  12.509   0.030  1.00  0.00     0.031 C 
ATOM     45  C   UNL     1      -7.551   8.290   5.325  1.00  0.00     0.029 A 
ATOM     46  C   UNL     1      -8.187   9.559   5.664  1.00  0.00     0.049 A 
ATOM     47  H   UNL     1      -8.894  11.012   4.348  1.00  0.00     0.167 HD
ATOM     48  C   UNL     1      -9.874  14.204   1.510  1.00  0.00     0.034 A 
ATOM     49  C   UNL     1      -8.430   9.997   6.915  1.00  0.00     0.034 A 
ATOM     50  C   UNL     1     -10.335  14.676   2.787  1.00  0.00     0.049 A 
ATOM     51  C   UNL     1      -9.119  11.320   7.103  1.00  0.00     0.074 A 
ATOM     52  C   UNL     1     -11.017  15.844   3.078  1.00  0.00     0.029 A 
ATOM     53  N   UNL     1     -10.152  14.010   3.989  1.00  0.00    -0.354 N 
ATOM     54  N   UNL     1      -9.505  12.185   6.197  1.00  0.00    -0.248 NA
ATOM     55  C   UNL     1      -9.440  11.712   8.483  1.00  0.00     0.031 C 
ATOM     56  C   UNL     1     -11.220  15.898   4.461  1.00  0.00     0.029 A 
ATOM     57  C   UNL     1     -10.699  14.745   5.027  1.00  0.00     0.049 A 
ATOM     58  H   UNL     1      -9.700  13.141   4.090  1.00  0.00     0.167 HD
ATOM     59  C   UNL     1     -10.143  13.207   6.891  1.00  0.00     0.074 A 
ATOM     60  C   UNL     1     -10.110  12.841   8.293  1.00  0.00     0.031 C 
ATOM     61  C   UNL     1     -10.696  14.349   6.413  1.00  0.00     0.034 A 
BRANCH  48  62
ATOM     62  C   UNL     1     -10.097  15.070   0.295  1.00  0.00     0.023 A 
ATOM     63  C   UNL     1     -11.031  14.670  -0.684  1.00  0.00     0.012 A 
ATOM     64  C   UNL     1      -9.412  16.291   0.134  1.00  0.00     0.148 A 
ATOM     65  C   UNL     1     -11.243  15.442  -1.826  1.00  0.00     0.002 A 
ATOM     66  C   UNL     1      -9.667  17.081  -0.982  1.00  0.00     0.091 A 
ATOM     67  F   UNL     1      -8.514  16.649   1.062  1.00  0.00    -0.205 F 
ATOM     68  C   UNL     1     -10.569  16.651  -1.969  1.00  0.00     0.022 A 
BRANCH  66  69
ATOM     69  S   UNL     1      -8.914  18.694  -1.220  1.00  0.00     0.127 S 
ATOM     70  O   UNL     1      -7.992  18.429  -2.324  1.00  0.00    -0.237 OA
ATOM     71  O   UNL     1     -10.067  19.522  -1.574  1.00  0.00    -0.237 OA
ATOM     72  O   UNL     1      -8.288  19.036   0.050  1.00  0.00    -0.744 OA
ENDBRANCH  66  69
ENDBRANCH  48  62
BRANCH  49  73
ATOM     73  C   UNL     1      -8.059   9.146   8.080  1.00  0.00     0.023 A 
ATOM     74  C   UNL     1      -9.070   8.528   8.842  1.00  0.00     0.012 A 
ATOM     75  C   UNL     1      -6.710   8.908   8.406  1.00  0.00     0.148 A 
ATOM     76  C   UNL     1      -8.743   7.713   9.927  1.00  0.00     0.002 A 
ATOM     77  C   UNL     1      -6.391   8.049   9.450  1.00  0.00     0.091 A 
ATOM     78  F   UNL     1      -5.765   9.511   7.670  1.00  0.00    -0.205 F 
ATOM     79  C   UNL     1      -7.405   7.465  10.224  1.00  0.00     0.022 A 
BRANCH  77  80
ATOM     80  S   UNL     1      -4.701   7.563   9.817  1.00  0.00     0.127 S 
ATOM     81  O   UNL     1      -4.485   8.190  11.118  1.00  0.00    -0.237 OA
ATOM     82  O   UNL     1      -4.809   6.104   9.845  1.00  0.00    -0.237 OA
ATOM     83  O   UNL     1      -3.893   8.085   8.724  1.00  0.00    -0.744 OA
ENDBRANCH  77  80
ENDBRANCH  49  73
BRANCH  61  84
ATOM     84  C   UNL     1     -11.348  15.277   7.404  1.00  0.00     0.023 A 
ATOM     85  C   UNL     1     -10.556  16.023   8.299  1.00  0.00     0.012 A 
ATOM     86  C   UNL     1     -12.745  15.464   7.396  1.00  0.00     0.148 A 
ATOM     87  C   UNL     1     -11.146  16.913   9.195  1.00  0.00     0.002 A 
ATOM     88  C   UNL     1     -13.321  16.391   8.255  1.00  0.00     0.091 A 
ATOM     89  F   UNL     1     -13.482  14.732   6.549  1.00  0.00    -0.205 F 
ATOM     90  C   UNL     1     -12.525  17.107   9.165  1.00  0.00     0.022 A 
BRANCH  88  91
ATOM     91  S   UNL     1     -15.074  16.779   8.219  1.00  0.00     0.127 S 
ATOM     92  O   UNL     1     -15.534  16.197   9.479  1.00  0.00    -0.237 OA
ATOM     93  O   UNL     1     -15.067  18.242   8.190  1.00  0.00    -0.237 OA
ATOM     94  O   UNL     1     -15.601  16.153   7.014  1.00  0.00    -0.744 OA
ENDBRANCH  88  91
ENDBRANCH  61  84
ENDBRANCH  35  36
ENDBRANCH  27  30
ENDBRANCH  25  26
ENDBRANCH   1  25
TORSDOF 16
