REMARK SMILES CN1C(=O)/C(=C\c2ccc(-c3ccccc3C(=O)NCCCNC(=O)c3ccc(-c4c5nc(c(-c6cccc(S(=O)(=O)[O-])c6F)c6ccc([nH]6)c(-c6cccc(S(=O)(=O)[O-])c6F)c6nc(c(-c7cccc(S(=O)(=O)[O-])c7F)c7ccc4[nH]7)C=C6)C=C5)cc3)o2)C(=O)[NH+]=C1S
REMARK SMILES IDX 21 1 20 2 19 3 17 4 18 5 16 7 11 8 12 9 13 10 15 11 14 12
REMARK SMILES IDX 10 13 7 14 8 15 89 16 9 17 6 18 1 19 2 20 3 21 93 22 4 23
REMARK SMILES IDX 5 24 92 25 90 26 91 28 94 29 22 31 23 32 24 33 25 35 26 36
REMARK SMILES IDX 27 37 88 38 28 39 87 40 29 41 30 42 31 43 81 44 32 45 86 46
REMARK SMILES IDX 80 47 82 48 33 49 85 50 79 51 78 52 34 54 66 55 46 56 65 57
REMARK SMILES IDX 47 58 50 59 64 60 83 61 48 62 49 63 63 65 84 66 51 67 35 68
REMARK SMILES IDX 36 69 44 70 37 71 39 72 45 73 38 74 40 75 41 76 42 77 43 78
REMARK SMILES IDX 67 79 68 80 76 81 69 82 71 83 77 84 70 85 72 86 73 87 74 88
REMARK SMILES IDX 75 89 52 90 53 91 61 92 54 93 56 94 62 95 55 96 57 97 58 98
REMARK SMILES IDX 59 99 60 100
REMARK H PARENT 19 6 92 27 94 30 23 34 82 53 50 64
REMARK Flexibility Score: inf
ROOT
ATOM      1  C   UNL     1      -1.917   1.065   6.353  1.00  0.00     0.042 C 
ENDROOT
BRANCH   1   2
ATOM      2  C   UNL     1      -2.251  -0.411   6.407  1.00  0.00     0.118 C 
BRANCH   2   3
ATOM      3  N   UNL     1      -3.397  -0.711   7.211  1.00  0.00    -0.352 N 
ATOM      4  C   UNL     1      -4.655  -1.178   7.009  1.00  0.00     0.252 C 
ATOM      5  O   UNL     1      -5.135  -1.650   8.053  1.00  0.00    -0.269 OA
ATOM      6  H   UNL     1      -3.227  -0.529   8.164  1.00  0.00     0.163 HD
BRANCH   4   7
ATOM      7  C   UNL     1      -5.529  -1.157   5.778  1.00  0.00     0.050 A 
ATOM      8  C   UNL     1      -5.285  -0.893   4.413  1.00  0.00     0.030 A 
ATOM      9  C   UNL     1      -6.370  -0.938   3.494  1.00  0.00     0.013 A 
ATOM     10  C   UNL     1      -7.669  -1.256   3.879  1.00  0.00     0.001 A 
ATOM     11  C   UNL     1      -6.878  -1.468   6.126  1.00  0.00     0.014 A 
ATOM     12  C   UNL     1      -7.924  -1.528   5.206  1.00  0.00     0.001 A 
BRANCH   8  13
ATOM     13  C   UNL     1      -4.010  -0.657   3.764  1.00  0.00     0.135 A 
ATOM     14  C   UNL     1      -2.521   0.669   2.746  1.00  0.00     0.128 A 
ATOM     15  C   UNL     1      -2.035  -0.637   2.744  1.00  0.00     0.051 A 
ATOM     16  O   UNL     1      -3.741   0.630   3.404  1.00  0.00    -0.457 OA
ATOM     17  C   UNL     1      -3.025  -1.488   3.286  1.00  0.00     0.051 A 
BRANCH  14  18
ATOM     18  C   UNL     1      -1.937   1.899   2.317  1.00  0.00     0.071 C 
ATOM     19  C   UNL     1       1.533   0.000  -0.426  1.00  0.00     0.301 C 
ATOM     20  N   UNL     1       0.844   1.178   0.081  1.00  0.00    -0.189 N 
ATOM     21  C   UNL     1      -0.443   0.981   0.524  1.00  0.00     0.349 C 
ATOM     22  C   UNL     1       1.296   2.463  -0.052  1.00  0.00     0.318 C 
ATOM     23  O   UNL     1      -1.117   0.017   0.168  1.00  0.00    -0.240 OA
ATOM     24  C   UNL     1      -0.972   2.053   1.386  1.00  0.00     0.157 C 
ATOM     25  N   UNL     1       0.735   3.503   0.448  1.00  0.00    -0.200 N 
ATOM     26  C   UNL     1      -0.359   3.399   1.260  1.00  0.00     0.347 C 
ATOM     27  H   UNL     1       1.100   4.394   0.243  1.00  0.00     0.316 HD
ATOM     28  O   UNL     1      -0.785   4.354   1.897  1.00  0.00    -0.241 OA
BRANCH  22  29
ATOM     29  S   UNL     1       2.724   2.746  -1.018  1.00  0.00    -0.055 SA
ATOM     30  H   UNL     1       3.204   1.559  -1.477  1.00  0.00     0.116 HD
ENDBRANCH  22  29
ENDBRANCH  14  18
ENDBRANCH   8  13
ENDBRANCH   4   7
ENDBRANCH   2   3
ENDBRANCH   1   2
BRANCH   1  31
ATOM     31  C   UNL     1      -0.449   1.318   6.661  1.00  0.00     0.118 C 
BRANCH  31  32
ATOM     32  N   UNL     1       0.474   0.545   5.827  1.00  0.00    -0.352 N 
ATOM     33  C   UNL     1       1.567   0.923   5.088  1.00  0.00     0.251 C 
ATOM     34  H   UNL     1       0.274  -0.418   5.789  1.00  0.00     0.163 HD
ATOM     35  O   UNL     1       2.108   0.092   4.360  1.00  0.00    -0.269 OA
BRANCH  33  36
ATOM     36  C   UNL     1       2.062   2.317   5.113  1.00  0.00     0.039 A 
ATOM     37  C   UNL     1       2.638   2.850   3.955  1.00  0.00     0.014 A 
ATOM     38  C   UNL     1       1.941   3.113   6.249  1.00  0.00     0.014 A 
ATOM     39  C   UNL     1       2.991   4.200   3.913  1.00  0.00     0.010 A 
ATOM     40  C   UNL     1       2.146   4.480   6.156  1.00  0.00     0.010 A 
ATOM     41  C   UNL     1       2.693   5.041   4.995  1.00  0.00    -0.014 A 
BRANCH  41  42
ATOM     42  C   UNL     1       2.947   6.504   4.967  1.00  0.00     0.031 A 
ATOM     43  C   UNL     1       3.781   7.136   6.051  1.00  0.00     0.074 A 
ATOM     44  C   UNL     1       2.321   7.275   4.054  1.00  0.00     0.049 A 
ATOM     45  N   UNL     1       3.987   8.401   6.304  1.00  0.00    -0.248 NA
ATOM     46  C   UNL     1       4.433   6.225   7.011  1.00  0.00     0.031 C 
ATOM     47  C   UNL     1       1.419   6.788   3.010  1.00  0.00     0.029 A 
ATOM     48  N   UNL     1       2.315   8.637   3.884  1.00  0.00    -0.354 N 
ATOM     49  C   UNL     1       4.736   8.437   7.474  1.00  0.00     0.074 A 
ATOM     50  C   UNL     1       4.907   7.071   7.912  1.00  0.00     0.031 C 
ATOM     51  C   UNL     1       0.948   7.829   2.307  1.00  0.00     0.029 A 
ATOM     52  C   UNL     1       1.478   9.061   2.875  1.00  0.00     0.049 A 
ATOM     53  H   UNL     1       2.856   9.252   4.430  1.00  0.00     0.167 HD
ATOM     54  C   UNL     1       5.266   9.508   8.109  1.00  0.00     0.034 A 
ATOM     55  C   UNL     1       1.161  10.304   2.467  1.00  0.00     0.034 A 
ATOM     56  C   UNL     1       5.140  10.856   7.631  1.00  0.00     0.049 A 
ATOM     57  C   UNL     1       1.805  11.475   3.157  1.00  0.00     0.074 A 
ATOM     58  C   UNL     1       5.722  12.005   8.134  1.00  0.00     0.029 A 
ATOM     59  N   UNL     1       4.375  11.238   6.539  1.00  0.00    -0.354 N 
ATOM     60  N   UNL     1       2.635  11.479   4.173  1.00  0.00    -0.248 NA
ATOM     61  C   UNL     1       1.502  12.809   2.622  1.00  0.00     0.031 C 
ATOM     62  C   UNL     1       5.284  13.086   7.364  1.00  0.00     0.029 A 
ATOM     63  C   UNL     1       4.463  12.605   6.356  1.00  0.00     0.049 A 
ATOM     64  H   UNL     1       3.848  10.625   5.977  1.00  0.00     0.167 HD
ATOM     65  C   UNL     1       2.988  12.808   4.370  1.00  0.00     0.074 A 
ATOM     66  C   UNL     1       2.293  13.578   3.358  1.00  0.00     0.031 C 
ATOM     67  C   UNL     1       3.806  13.345   5.309  1.00  0.00     0.034 A 
BRANCH  54  68
ATOM     68  C   UNL     1       6.073   9.256   9.357  1.00  0.00     0.023 A 
ATOM     69  C   UNL     1       7.316   8.595   9.266  1.00  0.00     0.012 A 
ATOM     70  C   UNL     1       5.625   9.710  10.612  1.00  0.00     0.148 A 
ATOM     71  C   UNL     1       8.078   8.351  10.408  1.00  0.00     0.002 A 
ATOM     72  C   UNL     1       6.415   9.510  11.738  1.00  0.00     0.091 A 
ATOM     73  F   UNL     1       4.432  10.317  10.685  1.00  0.00    -0.205 F 
ATOM     74  C   UNL     1       7.633   8.818  11.640  1.00  0.00     0.022 A 
BRANCH  72  75
ATOM     75  S   UNL     1       5.974  10.145  13.359  1.00  0.00     0.127 S 
ATOM     76  O   UNL     1       5.700   8.911  14.095  1.00  0.00    -0.237 OA
ATOM     77  O   UNL     1       7.200  10.835  13.761  1.00  0.00    -0.237 OA
ATOM     78  O   UNL     1       4.825  11.015  13.153  1.00  0.00    -0.744 OA
ENDBRANCH  72  75
ENDBRANCH  54  68
BRANCH  55  79
ATOM     79  C   UNL     1       0.247  10.501   1.305  1.00  0.00     0.023 A 
ATOM     80  C   UNL     1       0.774  10.983   0.090  1.00  0.00     0.012 A 
ATOM     81  C   UNL     1      -1.126  10.195   1.384  1.00  0.00     0.148 A 
ATOM     82  C   UNL     1      -0.054  11.194  -1.013  1.00  0.00     0.002 A 
ATOM     83  C   UNL     1      -1.936  10.358   0.265  1.00  0.00     0.091 A 
ATOM     84  F   UNL     1      -1.610   9.744   2.549  1.00  0.00    -0.205 F 
ATOM     85  C   UNL     1      -1.406  10.874  -0.928  1.00  0.00     0.022 A 
BRANCH  83  86
ATOM     86  S   UNL     1      -3.666   9.874   0.238  1.00  0.00     0.127 S 
ATOM     87  O   UNL     1      -4.336  11.167   0.123  1.00  0.00    -0.237 OA
ATOM     88  O   UNL     1      -3.727   9.041  -0.964  1.00  0.00    -0.237 OA
ATOM     89  O   UNL     1      -3.898   9.156   1.484  1.00  0.00    -0.744 OA
ENDBRANCH  83  86
ENDBRANCH  55  79
BRANCH  67  90
ATOM     90  C   UNL     1       4.047  14.830   5.257  1.00  0.00     0.023 A 
ATOM     91  C   UNL     1       3.027  15.726   5.630  1.00  0.00     0.012 A 
ATOM     92  C   UNL     1       5.319  15.329   4.913  1.00  0.00     0.148 A 
ATOM     93  C   UNL     1       3.260  17.101   5.628  1.00  0.00     0.002 A 
ATOM     94  C   UNL     1       5.559  16.696   4.967  1.00  0.00     0.091 A 
ATOM     95  F   UNL     1       6.270  14.459   4.545  1.00  0.00    -0.205 F 
ATOM     96  C   UNL     1       4.527  17.584   5.310  1.00  0.00     0.022 A 
BRANCH  94  97
ATOM     97  S   UNL     1       7.186  17.399   4.677  1.00  0.00     0.127 S 
ATOM     98  O   UNL     1       6.992  18.078   3.397  1.00  0.00    -0.237 OA
ATOM     99  O   UNL     1       7.345  18.293   5.824  1.00  0.00    -0.237 OA
ATOM    100  O   UNL     1       8.113  16.276   4.652  1.00  0.00    -0.744 OA
ENDBRANCH  94  97
ENDBRANCH  67  90
ENDBRANCH  41  42
ENDBRANCH  33  36
ENDBRANCH  31  32
ENDBRANCH   1  31
TORSDOF 16
