REMARK SMILES C[C@H](C(=O)NCCCNC(=O)c1ccc(-c2c3nc(c(-c4cccc(S(=O)(=O)[O-])c4F)c4ccc([nH]4)c(-c4cccc(S(=O)(=O)[O-])c4F)c4nc(c(-c5cccc(S(=O)(=O)[O-])c5F)c5ccc2[nH]5)C=C4)C=C3)cc1)c1ccc(-c2ccccc2)c(F)c1
REMARK SMILES IDX 7 1 6 2 5 3 3 4 4 5 2 7 1 8 75 9 76 10 87 11 77 12 85 13
REMARK SMILES IDX 78 14 86 15 79 16 80 17 84 18 81 19 83 20 82 21 8 22 9 23
REMARK SMILES IDX 10 24 11 26 12 27 13 28 74 29 14 30 73 31 15 32 16 33 17 34
REMARK SMILES IDX 67 35 18 36 72 37 66 38 68 39 19 40 71 41 65 42 64 43 20 45
REMARK SMILES IDX 52 46 32 47 51 48 33 49 36 50 50 51 69 52 34 53 35 54 49 56
REMARK SMILES IDX 70 57 37 58 21 59 22 60 30 61 23 62 25 63 31 64 24 65 26 66
REMARK SMILES IDX 27 67 28 68 29 69 53 70 54 71 62 72 55 73 57 74 63 75 56 76
REMARK SMILES IDX 58 77 59 78 60 79 61 80 38 81 39 82 47 83 40 84 42 85 48 86
REMARK SMILES IDX 41 87 43 88 44 89 45 90 46 91
REMARK H PARENT 5 6 9 25 68 44 36 55
REMARK Flexibility Score: inf
ROOT
ATOM      1  C   UNL     1       1.397   1.511   3.313  1.00  0.00     0.042 C 
ENDROOT
BRANCH   1   2
ATOM      2  C   UNL     1       0.444   1.410   2.136  1.00  0.00     0.117 C 
BRANCH   2   3
ATOM      3  N   UNL     1       1.130   1.154   0.880  1.00  0.00    -0.356 N 
ATOM      4  C   UNL     1       1.156   0.039   0.096  1.00  0.00     0.227 C 
ATOM      5  O   UNL     1       1.734   0.129  -0.991  1.00  0.00    -0.274 OA
ATOM      6  H   UNL     1       1.663   1.908   0.541  1.00  0.00     0.163 HD
BRANCH   4   7
ATOM      7  C   UNL     1       0.485  -1.270   0.520  1.00  0.00     0.105 C 
ATOM      8  C   UNL     1       1.059  -1.788   1.845  1.00  0.00     0.023 C 
BRANCH   7   9
ATOM      9  C   UNL     1      -1.040  -1.279   0.483  1.00  0.00    -0.033 A 
ATOM     10  C   UNL     1      -1.805  -0.123   0.277  1.00  0.00     0.005 A 
ATOM     11  C   UNL     1      -1.729  -2.485   0.678  1.00  0.00     0.044 A 
ATOM     12  C   UNL     1      -3.198  -0.151   0.365  1.00  0.00     0.012 A 
ATOM     13  C   UNL     1      -3.126  -2.512   0.728  1.00  0.00     0.131 A 
ATOM     14  C   UNL     1      -3.892  -1.347   0.597  1.00  0.00     0.017 A 
ATOM     15  F   UNL     1      -3.724  -3.700   0.909  1.00  0.00    -0.206 F 
BRANCH  14  16
ATOM     16  C   UNL     1      -5.360  -1.337   0.706  1.00  0.00    -0.015 A 
ATOM     17  C   UNL     1      -6.145  -0.637  -0.229  1.00  0.00     0.009 A 
ATOM     18  C   UNL     1      -6.020  -1.974   1.769  1.00  0.00     0.009 A 
ATOM     19  C   UNL     1      -7.533  -0.564  -0.099  1.00  0.00     0.001 A 
ATOM     20  C   UNL     1      -7.409  -1.904   1.900  1.00  0.00     0.001 A 
ATOM     21  C   UNL     1      -8.164  -1.196   0.968  1.00  0.00     0.000 A 
ENDBRANCH  14  16
ENDBRANCH   7   9
ENDBRANCH   4   7
ENDBRANCH   2   3
ENDBRANCH   1   2
BRANCH   1  22
ATOM     22  C   UNL     1       2.403   2.644   3.187  1.00  0.00     0.118 C 
BRANCH  22  23
ATOM     23  N   UNL     1       1.776   3.960   3.176  1.00  0.00    -0.352 N 
ATOM     24  C   UNL     1       1.937   5.015   4.041  1.00  0.00     0.251 C 
ATOM     25  H   UNL     1       1.143   4.117   2.438  1.00  0.00     0.163 HD
ATOM     26  O   UNL     1       1.184   5.984   3.962  1.00  0.00    -0.269 OA
BRANCH  24  27
ATOM     27  C   UNL     1       2.996   4.976   5.072  1.00  0.00     0.039 A 
ATOM     28  C   UNL     1       2.707   5.430   6.361  1.00  0.00     0.014 A 
ATOM     29  C   UNL     1       4.271   4.491   4.770  1.00  0.00     0.014 A 
ATOM     30  C   UNL     1       3.679   5.338   7.360  1.00  0.00     0.010 A 
ATOM     31  C   UNL     1       5.198   4.303   5.787  1.00  0.00     0.010 A 
ATOM     32  C   UNL     1       4.921   4.742   7.090  1.00  0.00    -0.014 A 
BRANCH  32  33
ATOM     33  C   UNL     1       5.953   4.582   8.146  1.00  0.00     0.031 A 
ATOM     34  C   UNL     1       7.298   5.243   7.993  1.00  0.00     0.074 A 
ATOM     35  C   UNL     1       5.715   3.775   9.199  1.00  0.00     0.049 A 
ATOM     36  N   UNL     1       8.344   5.176   8.774  1.00  0.00    -0.248 NA
ATOM     37  C   UNL     1       7.506   6.061   6.785  1.00  0.00     0.031 C 
ATOM     38  C   UNL     1       4.482   3.018   9.424  1.00  0.00     0.029 A 
ATOM     39  N   UNL     1       6.510   3.438  10.265  1.00  0.00    -0.354 N 
ATOM     40  C   UNL     1       9.342   5.901   8.135  1.00  0.00     0.074 A 
ATOM     41  C   UNL     1       8.791   6.366   6.882  1.00  0.00     0.031 C 
ATOM     42  C   UNL     1       4.597   2.318  10.563  1.00  0.00     0.029 A 
ATOM     43  C   UNL     1       5.922   2.545  11.131  1.00  0.00     0.049 A 
ATOM     44  H   UNL     1       7.415   3.801  10.399  1.00  0.00     0.167 HD
ATOM     45  C   UNL     1      10.597   6.181   8.562  1.00  0.00     0.034 A 
ATOM     46  C   UNL     1       6.399   1.968  12.252  1.00  0.00     0.034 A 
ATOM     47  C   UNL     1      11.127   5.751   9.827  1.00  0.00     0.049 A 
ATOM     48  C   UNL     1       7.784   2.321  12.723  1.00  0.00     0.074 A 
ATOM     49  C   UNL     1      12.350   6.059  10.396  1.00  0.00     0.029 A 
ATOM     50  N   UNL     1      10.475   4.908  10.713  1.00  0.00    -0.354 N 
ATOM     51  N   UNL     1       8.658   3.135  12.182  1.00  0.00    -0.248 NA
ATOM     52  C   UNL     1       8.234   1.705  13.979  1.00  0.00     0.031 C 
ATOM     53  C   UNL     1      12.452   5.370  11.609  1.00  0.00     0.029 A 
ATOM     54  C   UNL     1      11.274   4.670  11.817  1.00  0.00     0.049 A 
ATOM     55  H   UNL     1       9.575   4.533  10.576  1.00  0.00     0.167 HD
ATOM     56  C   UNL     1       9.742   3.163  13.052  1.00  0.00     0.074 A 
ATOM     57  C   UNL     1       9.408   2.295  14.162  1.00  0.00     0.031 C 
ATOM     58  C   UNL     1      10.910   3.842  12.939  1.00  0.00     0.034 A 
BRANCH  45  59
ATOM     59  C   UNL     1      11.469   7.021   7.664  1.00  0.00     0.023 A 
ATOM     60  C   UNL     1      11.159   8.381   7.454  1.00  0.00     0.012 A 
ATOM     61  C   UNL     1      12.616   6.475   7.056  1.00  0.00     0.148 A 
ATOM     62  C   UNL     1      11.947   9.170   6.616  1.00  0.00     0.002 A 
ATOM     63  C   UNL     1      13.426   7.281   6.265  1.00  0.00     0.091 A 
ATOM     64  F   UNL     1      12.886   5.176   7.249  1.00  0.00    -0.205 F 
ATOM     65  C   UNL     1      13.085   8.623   6.030  1.00  0.00     0.022 A 
BRANCH  63  66
ATOM     66  S   UNL     1      14.959   6.693   5.537  1.00  0.00     0.127 S 
ATOM     67  O   UNL     1      14.605   6.621   4.120  1.00  0.00    -0.237 OA
ATOM     68  O   UNL     1      15.893   7.767   5.878  1.00  0.00    -0.237 OA
ATOM     69  O   UNL     1      15.244   5.416   6.176  1.00  0.00    -0.744 OA
ENDBRANCH  63  66
ENDBRANCH  45  59
BRANCH  46  70
ATOM     70  C   UNL     1       5.531   1.052  13.043  1.00  0.00     0.023 A 
ATOM     71  C   UNL     1       5.047   1.471  14.298  1.00  0.00     0.012 A 
ATOM     72  C   UNL     1       5.157  -0.213  12.550  1.00  0.00     0.148 A 
ATOM     73  C   UNL     1       4.234   0.634  15.063  1.00  0.00     0.002 A 
ATOM     74  C   UNL     1       4.301  -1.019  13.292  1.00  0.00     0.091 A 
ATOM     75  F   UNL     1       5.632  -0.594  11.356  1.00  0.00    -0.205 F 
ATOM     76  C   UNL     1       3.853  -0.606  14.556  1.00  0.00     0.022 A 
BRANCH  74  77
ATOM     77  S   UNL     1       3.654  -2.574  12.668  1.00  0.00     0.127 S 
ATOM     78  O   UNL     1       4.273  -3.540  13.572  1.00  0.00    -0.237 OA
ATOM     79  O   UNL     1       2.214  -2.393  12.850  1.00  0.00    -0.237 OA
ATOM     80  O   UNL     1       4.080  -2.651  11.277  1.00  0.00    -0.744 OA
ENDBRANCH  74  77
ENDBRANCH  46  70
BRANCH  58  81
ATOM     81  C   UNL     1      11.902   3.723  14.067  1.00  0.00     0.023 A 
ATOM     82  C   UNL     1      12.607   2.520  14.268  1.00  0.00     0.012 A 
ATOM     83  C   UNL     1      12.188   4.837  14.883  1.00  0.00     0.148 A 
ATOM     84  C   UNL     1      13.554   2.417  15.288  1.00  0.00     0.002 A 
ATOM     85  C   UNL     1      13.171   4.743  15.860  1.00  0.00     0.091 A 
ATOM     86  F   UNL     1      11.493   5.967  14.688  1.00  0.00    -0.205 F 
ATOM     87  C   UNL     1      13.845   3.530  16.074  1.00  0.00     0.022 A 
BRANCH  85  88
ATOM     88  S   UNL     1      13.683   6.152  16.849  1.00  0.00     0.127 S 
ATOM     89  O   UNL     1      13.143   5.806  18.162  1.00  0.00    -0.237 OA
ATOM     90  O   UNL     1      15.141   6.084  16.751  1.00  0.00    -0.237 OA
ATOM     91  O   UNL     1      13.089   7.323  16.219  1.00  0.00    -0.744 OA
ENDBRANCH  85  88
ENDBRANCH  58  81
ENDBRANCH  32  33
ENDBRANCH  24  27
ENDBRANCH  22  23
ENDBRANCH   1  22
TORSDOF 15
