REMARK SMILES CCc1ccc(C(=O)NCCCNC(=O)c2ccc(-c3c4nc(c(-c5cccc(S(=O)(=O)[O-])c5F)c5ccc([nH]5)c(-c5cccc(S(=O)(=O)[O-])c5F)c5nc(c(-c6cccc(S(=O)(=O)[O-])c6F)c6ccc3[nH]6)C=C5)C=C4)cc2)cc1S(=O)(=O)C(CC)CC
REMARK SMILES IDX 11 1 10 2 9 3 7 4 8 5 6 7 3 8 4 9 80 10 5 11 79 12 2 13 1 14
REMARK SMILES IDX 81 15 82 16 83 17 84 18 85 19 86 20 87 21 88 22 12 23 13 24
REMARK SMILES IDX 14 25 15 27 16 28 17 29 78 30 18 31 77 32 19 33 20 34 21 35
REMARK SMILES IDX 71 36 22 37 76 38 70 39 72 40 23 41 75 42 69 43 68 44 24 46
REMARK SMILES IDX 56 47 36 48 55 49 37 50 40 51 54 52 73 53 38 54 39 55 53 57
REMARK SMILES IDX 74 58 41 59 25 60 26 61 34 62 27 63 29 64 35 65 28 66 30 67
REMARK SMILES IDX 31 68 32 69 33 70 57 71 58 72 66 73 59 74 61 75 67 76 60 77
REMARK SMILES IDX 62 78 63 79 64 80 65 81 42 82 43 83 51 84 44 85 46 86 52 87
REMARK SMILES IDX 45 88 47 89 48 90 49 91 50 92
REMARK H PARENT 9 6 13 26 72 45 40 56
REMARK Flexibility Score: inf
ROOT
ATOM      1  C   UNL     1       0.576   7.758  -2.770  1.00  0.00     0.042 C 
ENDROOT
BRANCH   1   2
ATOM      2  C   UNL     1       0.238   6.689  -3.813  1.00  0.00     0.118 C 
BRANCH   2   3
ATOM      3  N   UNL     1       1.431   6.135  -4.431  1.00  0.00    -0.352 N 
ATOM      4  C   UNL     1       2.163   4.997  -4.215  1.00  0.00     0.251 C 
ATOM      5  O   UNL     1       3.087   4.770  -4.999  1.00  0.00    -0.269 OA
ATOM      6  H   UNL     1       1.788   6.695  -5.158  1.00  0.00     0.163 HD
BRANCH   4   7
ATOM      7  C   UNL     1       1.896   4.011  -3.127  1.00  0.00     0.041 A 
ATOM      8  C   UNL     1       1.519   2.017  -1.087  1.00  0.00    -0.030 A 
ATOM      9  C   UNL     1       2.307   1.790  -2.241  1.00  0.00     0.006 A 
ATOM     10  C   UNL     1       0.911   3.280  -0.975  1.00  0.00     0.071 A 
ATOM     11  C   UNL     1       2.472   2.750  -3.245  1.00  0.00     0.014 A 
ATOM     12  C   UNL     1       1.161   4.262  -1.976  1.00  0.00     0.034 A 
BRANCH   8  13
ATOM     13  C   UNL     1       1.524   0.938  -0.037  1.00  0.00     0.033 C 
ATOM     14  C   UNL     1       1.614  -0.509  -0.521  1.00  0.00     0.009 C 
ENDBRANCH   8  13
BRANCH  10  15
ATOM     15  S   UNL     1      -0.215   3.953   0.254  1.00  0.00     0.181 S 
ATOM     16  O   UNL     1       0.564   4.986   0.909  1.00  0.00    -0.223 OA
ATOM     17  O   UNL     1      -1.376   4.357  -0.535  1.00  0.00    -0.223 OA
BRANCH  15  18
ATOM     18  C   UNL     1      -0.868   2.919   1.524  1.00  0.00     0.113 C 
BRANCH  18  19
ATOM     19  C   UNL     1      -2.011   1.956   1.117  1.00  0.00     0.017 C 
ATOM     20  C   UNL     1      -1.871   1.067  -0.106  1.00  0.00     0.005 C 
ENDBRANCH  18  19
BRANCH  18  21
ATOM     21  C   UNL     1       0.132   2.414   2.580  1.00  0.00     0.017 C 
ATOM     22  C   UNL     1       0.444   3.448   3.664  1.00  0.00     0.005 C 
ENDBRANCH  18  21
ENDBRANCH  15  18
ENDBRANCH  10  15
ENDBRANCH   4   7
ENDBRANCH   2   3
ENDBRANCH   1   2
BRANCH   1  23
ATOM     23  C   UNL     1       1.051   9.080  -3.374  1.00  0.00     0.118 C 
BRANCH  23  24
ATOM     24  N   UNL     1      -0.017   9.778  -4.074  1.00  0.00    -0.352 N 
ATOM     25  C   UNL     1      -0.357  11.106  -4.062  1.00  0.00     0.251 C 
ATOM     26  H   UNL     1      -0.582   9.208  -4.644  1.00  0.00     0.163 HD
ATOM     27  O   UNL     1      -1.410  11.452  -4.595  1.00  0.00    -0.269 OA
BRANCH  25  28
ATOM     28  C   UNL     1       0.510  12.121  -3.421  1.00  0.00     0.039 A 
ATOM     29  C   UNL     1      -0.101  13.174  -2.728  1.00  0.00     0.014 A 
ATOM     30  C   UNL     1       1.900  12.100  -3.562  1.00  0.00     0.014 A 
ATOM     31  C   UNL     1       0.676  14.190  -2.165  1.00  0.00     0.010 A 
ATOM     32  C   UNL     1       2.679  13.089  -2.959  1.00  0.00     0.010 A 
ATOM     33  C   UNL     1       2.074  14.154  -2.273  1.00  0.00    -0.014 A 
BRANCH  33  34
ATOM     34  C   UNL     1       2.915  15.239  -1.708  1.00  0.00     0.031 A 
ATOM     35  C   UNL     1       3.671  16.162  -2.626  1.00  0.00     0.074 A 
ATOM     36  C   UNL     1       3.058  15.349  -0.372  1.00  0.00     0.049 A 
ATOM     37  N   UNL     1       4.499  17.129  -2.324  1.00  0.00    -0.248 NA
ATOM     38  C   UNL     1       3.492  15.958  -4.073  1.00  0.00     0.031 C 
ATOM     39  C   UNL     1       2.434  14.471   0.619  1.00  0.00     0.029 A 
ATOM     40  N   UNL     1       3.796  16.229   0.379  1.00  0.00    -0.354 N 
ATOM     41  C   UNL     1       4.973  17.616  -3.536  1.00  0.00     0.074 A 
ATOM     42  C   UNL     1       4.352  16.831  -4.580  1.00  0.00     0.031 C 
ATOM     43  C   UNL     1       2.822  14.852   1.848  1.00  0.00     0.029 A 
ATOM     44  C   UNL     1       3.729  15.990   1.732  1.00  0.00     0.049 A 
ATOM     45  H   UNL     1       4.323  16.962  -0.013  1.00  0.00     0.167 HD
ATOM     46  C   UNL     1       5.827  18.643  -3.762  1.00  0.00     0.034 A 
ATOM     47  C   UNL     1       4.328  16.621   2.761  1.00  0.00     0.034 A 
ATOM     48  C   UNL     1       6.386  19.470  -2.728  1.00  0.00     0.049 A 
ATOM     49  C   UNL     1       5.197  17.819   2.481  1.00  0.00     0.074 A 
ATOM     50  C   UNL     1       7.193  20.587  -2.860  1.00  0.00     0.029 A 
ATOM     51  N   UNL     1       6.186  19.279  -1.370  1.00  0.00    -0.354 N 
ATOM     52  N   UNL     1       5.505  18.362   1.329  1.00  0.00    -0.248 NA
ATOM     53  C   UNL     1       5.763  18.518   3.644  1.00  0.00     0.031 C 
ATOM     54  C   UNL     1       7.475  21.076  -1.580  1.00  0.00     0.029 A 
ATOM     55  C   UNL     1       6.844  20.262  -0.653  1.00  0.00     0.049 A 
ATOM     56  H   UNL     1       5.654  18.551  -0.974  1.00  0.00     0.167 HD
ATOM     57  C   UNL     1       6.268  19.485   1.628  1.00  0.00     0.074 A 
ATOM     58  C   UNL     1       6.359  19.556   3.072  1.00  0.00     0.031 C 
ATOM     59  C   UNL     1       6.857  20.366   0.783  1.00  0.00     0.034 A 
BRANCH  46  60
ATOM     60  C   UNL     1       6.154  18.983  -5.191  1.00  0.00     0.023 A 
ATOM     61  C   UNL     1       5.200  19.668  -5.969  1.00  0.00     0.012 A 
ATOM     62  C   UNL     1       7.418  18.694  -5.741  1.00  0.00     0.148 A 
ATOM     63  C   UNL     1       5.489  20.041  -7.281  1.00  0.00     0.002 A 
ATOM     64  C   UNL     1       7.712  19.100  -7.039  1.00  0.00     0.091 A 
ATOM     65  F   UNL     1       8.304  18.022  -4.993  1.00  0.00    -0.205 F 
ATOM     66  C   UNL     1       6.746  19.767  -7.811  1.00  0.00     0.022 A 
BRANCH  64  67
ATOM     67  S   UNL     1       9.326  18.853  -7.788  1.00  0.00     0.127 S 
ATOM     68  O   UNL     1       9.053  17.766  -8.726  1.00  0.00    -0.237 OA
ATOM     69  O   UNL     1       9.580  20.150  -8.415  1.00  0.00    -0.237 OA
ATOM     70  O   UNL     1      10.228  18.525  -6.692  1.00  0.00    -0.744 OA
ENDBRANCH  64  67
ENDBRANCH  46  60
BRANCH  47  71
ATOM     71  C   UNL     1       4.046  16.193   4.160  1.00  0.00     0.023 A 
ATOM     72  C   UNL     1       3.234  17.007   4.974  1.00  0.00     0.012 A 
ATOM     73  C   UNL     1       4.542  14.983   4.679  1.00  0.00     0.148 A 
ATOM     74  C   UNL     1       2.945  16.638   6.288  1.00  0.00     0.002 A 
ATOM     75  C   UNL     1       4.211  14.598   5.974  1.00  0.00     0.091 A 
ATOM     76  F   UNL     1       5.330  14.227   3.900  1.00  0.00    -0.205 F 
ATOM     77  C   UNL     1       3.424  15.429   6.785  1.00  0.00     0.022 A 
BRANCH  75  78
ATOM     78  S   UNL     1       4.692  12.994   6.628  1.00  0.00     0.127 S 
ATOM     79  O   UNL     1       5.934  13.312   7.326  1.00  0.00    -0.237 OA
ATOM     80  O   UNL     1       3.566  12.656   7.500  1.00  0.00    -0.237 OA
ATOM     81  O   UNL     1       4.811  12.135   5.456  1.00  0.00    -0.744 OA
ENDBRANCH  75  78
ENDBRANCH  47  71
BRANCH  59  82
ATOM     82  C   UNL     1       7.625  21.509   1.387  1.00  0.00     0.023 A 
ATOM     83  C   UNL     1       8.907  21.276   1.921  1.00  0.00     0.012 A 
ATOM     84  C   UNL     1       7.119  22.822   1.346  1.00  0.00     0.148 A 
ATOM     85  C   UNL     1       9.666  22.331   2.424  1.00  0.00     0.002 A 
ATOM     86  C   UNL     1       7.897  23.875   1.815  1.00  0.00     0.091 A 
ATOM     87  F   UNL     1       5.886  23.022   0.857  1.00  0.00    -0.205 F 
ATOM     88  C   UNL     1       9.167  23.631   2.360  1.00  0.00     0.022 A 
BRANCH  86  89
ATOM     89  S   UNL     1       7.352  25.582   1.685  1.00  0.00     0.127 S 
ATOM     90  O   UNL     1       6.781  25.818   3.009  1.00  0.00    -0.237 OA
ATOM     91  O   UNL     1       8.602  26.298   1.425  1.00  0.00    -0.237 OA
ATOM     92  O   UNL     1       6.410  25.605   0.573  1.00  0.00    -0.744 OA
ENDBRANCH  86  89
ENDBRANCH  59  82
ENDBRANCH  33  34
ENDBRANCH  25  28
ENDBRANCH  23  24
ENDBRANCH   1  23
TORSDOF 18
