REMARK SMILES [NH3+][C@@H](CSCc1nccs1)C(=O)NCCCNC(=O)c1ccc(-c2c3nc(c(-c4cccc(S(=O)(=O)[O-])c4F)c4ccc([nH]4)c(-c4cccc(S(=O)(=O)[O-])c4F)c4nc(c(-c5cccc(S(=O)(=O)[O-])c5F)c5ccc2[nH]5)C=C4)C=C3)cc1
REMARK SMILES IDX 14 1 13 2 11 3 12 4 2 6 1 7 3 11 4 12 5 13 6 14 7 15 10 16
REMARK SMILES IDX 8 17 9 18 15 19 16 20 17 21 18 22 19 24 20 25 21 26 82 27
REMARK SMILES IDX 22 28 81 29 23 30 24 31 25 32 75 33 26 34 80 35 74 36 76 37
REMARK SMILES IDX 27 38 79 39 73 40 72 41 28 43 60 44 40 45 59 46 41 47 44 48
REMARK SMILES IDX 58 49 77 50 42 51 43 52 57 54 78 55 45 56 29 57 30 58 38 59
REMARK SMILES IDX 31 60 33 61 39 62 32 63 34 64 35 65 36 66 37 67 61 68 62 69
REMARK SMILES IDX 70 70 63 71 65 72 71 73 64 74 66 75 67 76 68 77 69 78 46 79
REMARK SMILES IDX 47 80 55 81 48 82 50 83 56 84 49 85 51 86 52 87 53 88 54 89
REMARK H PARENT 13 5 1 8 1 9 1 10 17 23 76 42 44 53
REMARK Flexibility Score: inf
ROOT
ATOM      1  C   UNL     1      -1.489   0.555   1.960  1.00  0.00     0.118 C 
ENDROOT
BRANCH   1   2
ATOM      2  N   UNL     1      -1.764  -0.558   1.092  1.00  0.00    -0.351 N 
ATOM      3  C   UNL     1      -0.893  -1.522   0.663  1.00  0.00     0.279 C 
ATOM      4  O   UNL     1      -1.388  -2.546   0.178  1.00  0.00    -0.268 OA
ATOM      5  H   UNL     1      -2.690  -0.636   0.767  1.00  0.00     0.163 HD
BRANCH   3   6
ATOM      6  C   UNL     1       0.650  -1.350   0.748  1.00  0.00     0.280 C 
BRANCH   6   7
ATOM      7  N   UNL     1       1.110  -0.179  -0.016  1.00  0.00    -0.347 N 
ATOM      8  H   UNL     1       2.124  -0.098   0.063  1.00  0.00     0.345 HD
ATOM      9  H   UNL     1       0.672   0.664   0.357  1.00  0.00     0.345 HD
ATOM     10  H   UNL     1       0.854  -0.290  -0.997  1.00  0.00     0.345 HD
ENDBRANCH   6   7
BRANCH   6  11
ATOM     11  C   UNL     1       1.325  -1.630   2.114  1.00  0.00     0.145 C 
BRANCH  11  12
ATOM     12  S   UNL     1       1.275  -0.533   3.594  1.00  0.00    -0.148 SA
BRANCH  12  13
ATOM     13  C   UNL     1       1.912   1.066   2.974  1.00  0.00     0.137 C 
BRANCH  13  14
ATOM     14  C   UNL     1       3.381   1.128   2.721  1.00  0.00     0.102 A 
ATOM     15  N   UNL     1       4.153   0.130   2.342  1.00  0.00    -0.249 NA
ATOM     16  S   UNL     1       4.159   2.667   2.815  1.00  0.00    -0.126 S 
ATOM     17  C   UNL     1       5.441   0.589   2.153  1.00  0.00     0.123 A 
ATOM     18  C   UNL     1       5.632   1.938   2.347  1.00  0.00     0.087 A 
ENDBRANCH  13  14
ENDBRANCH  12  13
ENDBRANCH  11  12
ENDBRANCH   6  11
ENDBRANCH   3   6
ENDBRANCH   1   2
BRANCH   1  19
ATOM     19  C   UNL     1      -1.881   1.915   1.423  1.00  0.00     0.042 C 
BRANCH  19  20
ATOM     20  C   UNL     1      -3.351   2.235   1.615  1.00  0.00     0.118 C 
BRANCH  20  21
ATOM     21  N   UNL     1      -3.740   2.276   3.025  1.00  0.00    -0.352 N 
ATOM     22  C   UNL     1      -4.119   3.325   3.827  1.00  0.00     0.251 C 
ATOM     23  H   UNL     1      -3.728   1.401   3.476  1.00  0.00     0.163 HD
ATOM     24  O   UNL     1      -4.222   3.149   5.040  1.00  0.00    -0.269 OA
BRANCH  22  25
ATOM     25  C   UNL     1      -4.377   4.660   3.250  1.00  0.00     0.039 A 
ATOM     26  C   UNL     1      -3.966   5.800   3.949  1.00  0.00     0.014 A 
ATOM     27  C   UNL     1      -5.019   4.795   2.019  1.00  0.00     0.014 A 
ATOM     28  C   UNL     1      -4.113   7.060   3.365  1.00  0.00     0.010 A 
ATOM     29  C   UNL     1      -5.056   6.032   1.391  1.00  0.00     0.010 A 
ATOM     30  C   UNL     1      -4.608   7.180   2.057  1.00  0.00    -0.014 A 
BRANCH  30  31
ATOM     31  C   UNL     1      -4.657   8.486   1.351  1.00  0.00     0.031 A 
ATOM     32  C   UNL     1      -5.968   9.018   0.839  1.00  0.00     0.074 A 
ATOM     33  C   UNL     1      -3.507   9.131   1.069  1.00  0.00     0.049 A 
ATOM     34  N   UNL     1      -6.199  10.076   0.107  1.00  0.00    -0.248 NA
ATOM     35  C   UNL     1      -7.177   8.240   1.161  1.00  0.00     0.031 C 
ATOM     36  C   UNL     1      -2.165   8.672   1.436  1.00  0.00     0.029 A 
ATOM     37  N   UNL     1      -3.279  10.293   0.376  1.00  0.00    -0.354 N 
ATOM     38  C   UNL     1      -7.564  10.067  -0.155  1.00  0.00     0.074 A 
ATOM     39  C   UNL     1      -8.105   8.878   0.464  1.00  0.00     0.031 C 
ATOM     40  C   UNL     1      -1.257   9.545   0.972  1.00  0.00     0.029 A 
ATOM     41  C   UNL     1      -1.945  10.601   0.238  1.00  0.00     0.049 A 
ATOM     42  H   UNL     1      -4.002  10.854   0.011  1.00  0.00     0.167 HD
ATOM     43  C   UNL     1      -8.306  10.981  -0.823  1.00  0.00     0.034 A 
ATOM     44  C   UNL     1      -1.342  11.611  -0.419  1.00  0.00     0.034 A 
ATOM     45  C   UNL     1      -7.769  12.185  -1.395  1.00  0.00     0.049 A 
ATOM     46  C   UNL     1      -2.193  12.631  -1.125  1.00  0.00     0.074 A 
ATOM     47  C   UNL     1      -8.449  13.224  -2.005  1.00  0.00     0.029 A 
ATOM     48  N   UNL     1      -6.422  12.508  -1.440  1.00  0.00    -0.354 N 
ATOM     49  N   UNL     1      -3.499  12.692  -1.220  1.00  0.00    -0.248 NA
ATOM     50  C   UNL     1      -1.490  13.738  -1.788  1.00  0.00     0.031 C 
ATOM     51  C   UNL     1      -7.509  14.161  -2.446  1.00  0.00     0.029 A 
ATOM     52  C   UNL     1      -6.247  13.721  -2.083  1.00  0.00     0.049 A 
ATOM     53  H   UNL     1      -5.696  11.955  -1.070  1.00  0.00     0.167 HD
ATOM     54  C   UNL     1      -3.776  13.857  -1.927  1.00  0.00     0.074 A 
ATOM     55  C   UNL     1      -2.502  14.484  -2.211  1.00  0.00     0.031 C 
ATOM     56  C   UNL     1      -4.975  14.355  -2.319  1.00  0.00     0.034 A 
BRANCH  43  57
ATOM     57  C   UNL     1      -9.789  10.738  -0.927  1.00  0.00     0.023 A 
ATOM     58  C   UNL     1     -10.598  10.850   0.223  1.00  0.00     0.012 A 
ATOM     59  C   UNL     1     -10.391  10.453  -2.168  1.00  0.00     0.148 A 
ATOM     60  C   UNL     1     -11.974  10.645   0.148  1.00  0.00     0.002 A 
ATOM     61  C   UNL     1     -11.771  10.298  -2.244  1.00  0.00     0.091 A 
ATOM     62  F   UNL     1      -9.605  10.329  -3.247  1.00  0.00    -0.205 F 
ATOM     63  C   UNL     1     -12.561  10.380  -1.085  1.00  0.00     0.022 A 
BRANCH  61  64
ATOM     64  S   UNL     1     -12.633  10.034  -3.797  1.00  0.00     0.127 S 
ATOM     65  O   UNL     1     -13.082   8.650  -3.653  1.00  0.00    -0.237 OA
ATOM     66  O   UNL     1     -13.701  11.031  -3.727  1.00  0.00    -0.237 OA
ATOM     67  O   UNL     1     -11.652  10.265  -4.847  1.00  0.00    -0.744 OA
ENDBRANCH  61  64
ENDBRANCH  43  57
BRANCH  44  68
ATOM     68  C   UNL     1       0.143  11.736  -0.394  1.00  0.00     0.023 A 
ATOM     69  C   UNL     1       0.736  12.795   0.321  1.00  0.00     0.012 A 
ATOM     70  C   UNL     1       0.970  10.802  -1.047  1.00  0.00     0.148 A 
ATOM     71  C   UNL     1       2.123  12.942   0.356  1.00  0.00     0.002 A 
ATOM     72  C   UNL     1       2.353  10.921  -0.960  1.00  0.00     0.091 A 
ATOM     73  F   UNL     1       0.388   9.806  -1.730  1.00  0.00    -0.205 F 
ATOM     74  C   UNL     1       2.931  12.001  -0.275  1.00  0.00     0.022 A 
BRANCH  72  75
ATOM     75  S   UNL     1       3.470   9.680  -1.623  1.00  0.00     0.127 S 
ATOM     76  O   UNL     1       4.081  10.393  -2.741  1.00  0.00    -0.237 OA
ATOM     77  O   UNL     1       4.359   9.436  -0.486  1.00  0.00    -0.237 OA
ATOM     78  O   UNL     1       2.630   8.544  -1.979  1.00  0.00    -0.744 OA
ENDBRANCH  72  75
ENDBRANCH  44  68
BRANCH  56  79
ATOM     79  C   UNL     1      -4.974  15.656  -3.078  1.00  0.00     0.023 A 
ATOM     80  C   UNL     1      -4.512  15.691  -4.409  1.00  0.00     0.012 A 
ATOM     81  C   UNL     1      -5.499  16.827  -2.497  1.00  0.00     0.148 A 
ATOM     82  C   UNL     1      -4.540  16.879  -5.137  1.00  0.00     0.002 A 
ATOM     83  C   UNL     1      -5.573  17.994  -3.246  1.00  0.00     0.091 A 
ATOM     84  F   UNL     1      -5.919  16.776  -1.224  1.00  0.00    -0.205 F 
ATOM     85  C   UNL     1      -5.082  18.026  -4.561  1.00  0.00     0.022 A 
BRANCH  83  86
ATOM     86  S   UNL     1      -6.341  19.494  -2.623  1.00  0.00     0.127 S 
ATOM     87  O   UNL     1      -5.184  20.369  -2.444  1.00  0.00    -0.237 OA
ATOM     88  O   UNL     1      -7.226  19.869  -3.726  1.00  0.00    -0.237 OA
ATOM     89  O   UNL     1      -7.030  19.113  -1.397  1.00  0.00    -0.744 OA
ENDBRANCH  83  86
ENDBRANCH  56  79
ENDBRANCH  30  31
ENDBRANCH  22  25
ENDBRANCH  20  21
ENDBRANCH  19  20
ENDBRANCH   1  19
TORSDOF 18
