REMARK SMILES C[C@H]1CCCN(C(=O)NC[C@H]2CC[C@H](C(=O)NCCCNC(=O)c3ccc(-c4c5nc(c(-c6cccc(S(=O)(=O)[O-])c6F)c6ccc([nH]6)c(-c6cccc(S(=O)(=O)[O-])c6F)c6nc(c(-c7cccc(S(=O)(=O)[O-])c7F)c7ccc4[nH]7)C=C6)C=C5)cc3)O2)CC1
REMARK SMILES IDX 15 1 16 2 17 3 14 5 11 6 12 7 87 8 13 9 10 10 9 11 7 12 8 13
REMARK SMILES IDX 6 15 88 16 89 17 2 18 1 19 3 20 5 22 4 23 18 25 19 26 20 27
REMARK SMILES IDX 21 28 22 29 23 31 24 32 25 33 86 34 26 35 85 36 27 37 28 38
REMARK SMILES IDX 29 39 79 40 30 41 84 42 78 43 80 44 31 45 83 46 77 47 76 48
REMARK SMILES IDX 32 50 64 51 44 52 63 53 45 54 48 55 62 56 81 57 46 58 47 59
REMARK SMILES IDX 61 61 82 62 49 63 33 64 34 65 42 66 35 67 37 68 43 69 36 70
REMARK SMILES IDX 38 71 39 72 40 73 41 74 65 75 66 76 74 77 67 78 69 79 75 80
REMARK SMILES IDX 68 81 70 82 71 83 72 84 73 85 50 86 51 87 59 88 52 89 54 90
REMARK SMILES IDX 60 91 53 92 55 93 56 94 57 95 58 96
REMARK H PARENT 17 4 9 14 21 30 80 49 48 60
REMARK Flexibility Score: 80.00
ROOT
ATOM      1  C   UNL     1       2.510   8.395  -4.110  1.00  0.00     0.249 C 
ATOM      2  O   UNL     1       1.949   9.494  -4.176  1.00  0.00    -0.272 OA
ATOM      3  N   UNL     1       2.928   7.982  -2.880  1.00  0.00    -0.354 N 
ATOM      4  H   UNL     1       2.753   8.616  -2.147  1.00  0.00     0.163 HD
ENDROOT
BRANCH   1   5
ATOM      5  C   UNL     1       2.746   7.556  -5.385  1.00  0.00     0.207 C 
ATOM      6  C   UNL     1       3.471   5.342  -5.695  1.00  0.00     0.138 C 
ATOM      7  C   UNL     1       4.703   6.224  -5.787  1.00  0.00     0.037 C 
ATOM      8  O   UNL     1       2.380   6.182  -5.269  1.00  0.00    -0.363 OA
ATOM      9  C   UNL     1       4.165   7.627  -5.919  1.00  0.00     0.045 C 
BRANCH   6  10
ATOM     10  C   UNL     1       3.022   4.564  -6.938  1.00  0.00     0.149 C 
BRANCH  10  11
ATOM     11  N   UNL     1       3.545   5.032  -8.205  1.00  0.00    -0.335 N 
ATOM     12  C   UNL     1       4.668   4.869  -8.928  1.00  0.00     0.317 C 
ATOM     13  O   UNL     1       4.742   5.598  -9.923  1.00  0.00    -0.249 OA
ATOM     14  H   UNL     1       2.908   5.630  -8.659  1.00  0.00     0.165 HD
BRANCH  12  15
ATOM     15  N   UNL     1       5.666   3.989  -8.594  1.00  0.00    -0.325 N 
BRANCH  15  16
ATOM     16  C   UNL     1       6.897   4.075  -9.390  1.00  0.00     0.121 C 
BRANCH  16  17
ATOM     17  C   UNL     1       6.812   3.199 -10.644  1.00  0.00     0.025 C 
BRANCH  17  18
ATOM     18  C   UNL     1       6.975   1.685 -10.421  1.00  0.00    -0.012 C 
ATOM     19  C   UNL     1       8.448   1.300 -10.259  1.00  0.00     0.008 C 
BRANCH  18  20
ATOM     20  C   UNL     1       6.112   1.108  -9.287  1.00  0.00     0.005 CG0
ATOM     21  G   UNL     1       6.421   1.666  -7.896  1.00  0.00     0.000 G0
ENDBRANCH  18  20
ENDBRANCH  17  18
ENDBRANCH  16  17
ENDBRANCH  15  16
BRANCH  15  22
ATOM     22  C   UNL     1       5.611   2.928  -7.596  1.00  0.00     0.121 C 
BRANCH  22  23
ATOM     23  C   UNL     1       6.421   1.666  -7.896  1.00  0.00     0.022 CG0
ATOM     24  G   UNL     1       6.112   1.108  -9.287  1.00  0.00     0.000 G0
ENDBRANCH  22  23
ENDBRANCH  15  22
ENDBRANCH  12  15
ENDBRANCH  10  11
ENDBRANCH   6  10
ENDBRANCH   1   5
BRANCH   3  25
ATOM     25  C   UNL     1       3.587   6.758  -2.481  1.00  0.00     0.117 C 
BRANCH  25  26
ATOM     26  C   UNL     1       5.089   6.946  -2.314  1.00  0.00     0.042 C 
BRANCH  26  27
ATOM     27  C   UNL     1       5.461   7.553  -0.972  1.00  0.00     0.118 C 
BRANCH  27  28
ATOM     28  N   UNL     1       5.172   6.645   0.131  1.00  0.00    -0.352 N 
ATOM     29  C   UNL     1       6.003   6.148   1.104  1.00  0.00     0.251 C 
ATOM     30  H   UNL     1       4.237   6.341   0.187  1.00  0.00     0.163 HD
ATOM     31  O   UNL     1       5.618   5.219   1.807  1.00  0.00    -0.269 OA
BRANCH  29  32
ATOM     32  C   UNL     1       7.351   6.721   1.295  1.00  0.00     0.039 A 
ATOM     33  C   UNL     1       8.411   5.868   1.615  1.00  0.00     0.014 A 
ATOM     34  C   UNL     1       7.569   8.097   1.184  1.00  0.00     0.014 A 
ATOM     35  C   UNL     1       9.695   6.391   1.776  1.00  0.00     0.010 A 
ATOM     36  C   UNL     1       8.861   8.601   1.245  1.00  0.00     0.010 A 
ATOM     37  C   UNL     1       9.934   7.758   1.565  1.00  0.00    -0.014 A 
BRANCH  37  38
ATOM     38  C   UNL     1      11.294   8.334   1.684  1.00  0.00     0.031 A 
ATOM     39  C   UNL     1      11.578   9.389   2.719  1.00  0.00     0.074 A 
ATOM     40  C   UNL     1      12.247   7.973   0.803  1.00  0.00     0.049 A 
ATOM     41  N   UNL     1      12.686  10.045   2.946  1.00  0.00    -0.248 NA
ATOM     42  C   UNL     1      10.460   9.782   3.592  1.00  0.00     0.031 C 
ATOM     43  C   UNL     1      12.067   7.017  -0.291  1.00  0.00     0.029 A 
ATOM     44  N   UNL     1      13.549   8.383   0.676  1.00  0.00    -0.354 N 
ATOM     45  C   UNL     1      12.388  10.954   3.954  1.00  0.00     0.074 A 
ATOM     46  C   UNL     1      10.984  10.796   4.263  1.00  0.00     0.031 C 
ATOM     47  C   UNL     1      13.222   6.897  -0.963  1.00  0.00     0.029 A 
ATOM     48  C   UNL     1      14.212   7.791  -0.372  1.00  0.00     0.049 A 
ATOM     49  H   UNL     1      13.969   9.039   1.278  1.00  0.00     0.167 HD
ATOM     50  C   UNL     1      13.213  11.820   4.589  1.00  0.00     0.034 A 
ATOM     51  C   UNL     1      15.477   7.951  -0.806  1.00  0.00     0.034 A 
ATOM     52  C   UNL     1      14.616  11.943   4.299  1.00  0.00     0.049 A 
ATOM     53  C   UNL     1      16.384   8.898  -0.071  1.00  0.00     0.074 A 
ATOM     54  C   UNL     1      15.564  12.717   4.942  1.00  0.00     0.029 A 
ATOM     55  N   UNL     1      15.270  11.282   3.270  1.00  0.00    -0.354 N 
ATOM     56  N   UNL     1      16.128   9.634   0.984  1.00  0.00    -0.248 NA
ATOM     57  C   UNL     1      17.763   9.012  -0.564  1.00  0.00     0.031 C 
ATOM     58  C   UNL     1      16.785  12.549   4.279  1.00  0.00     0.029 A 
ATOM     59  C   UNL     1      16.605  11.643   3.246  1.00  0.00     0.049 A 
ATOM     60  H   UNL     1      14.845  10.648   2.647  1.00  0.00     0.167 HD
ATOM     61  C   UNL     1      17.322  10.270   1.305  1.00  0.00     0.074 A 
ATOM     62  C   UNL     1      18.304   9.819   0.339  1.00  0.00     0.031 C 
ATOM     63  C   UNL     1      17.580  11.153   2.302  1.00  0.00     0.034 A 
BRANCH  50  64
ATOM     64  C   UNL     1      12.616  12.669   5.683  1.00  0.00     0.023 A 
ATOM     65  C   UNL     1      12.179  12.064   6.881  1.00  0.00     0.012 A 
ATOM     66  C   UNL     1      12.494  14.065   5.535  1.00  0.00     0.148 A 
ATOM     67  C   UNL     1      11.578  12.822   7.886  1.00  0.00     0.002 A 
ATOM     68  C   UNL     1      11.941  14.821   6.563  1.00  0.00     0.091 A 
ATOM     69  F   UNL     1      12.892  14.625   4.384  1.00  0.00    -0.205 F 
ATOM     70  C   UNL     1      11.467  14.200   7.730  1.00  0.00     0.022 A 
BRANCH  68  71
ATOM     71  S   UNL     1      11.833  16.612   6.490  1.00  0.00     0.127 S 
ATOM     72  O   UNL     1      10.409  16.811   6.225  1.00  0.00    -0.237 OA
ATOM     73  O   UNL     1      12.264  17.004   7.833  1.00  0.00    -0.237 OA
ATOM     74  O   UNL     1      12.736  17.022   5.423  1.00  0.00    -0.744 OA
ENDBRANCH  68  71
ENDBRANCH  50  64
BRANCH  51  75
ATOM     75  C   UNL     1      15.978   7.122  -1.938  1.00  0.00     0.023 A 
ATOM     76  C   UNL     1      16.898   6.089  -1.672  1.00  0.00     0.012 A 
ATOM     77  C   UNL     1      15.509   7.304  -3.253  1.00  0.00     0.148 A 
ATOM     78  C   UNL     1      17.361   5.267  -2.700  1.00  0.00     0.002 A 
ATOM     79  C   UNL     1      15.932   6.447  -4.262  1.00  0.00     0.091 A 
ATOM     80  F   UNL     1      14.633   8.293  -3.482  1.00  0.00    -0.205 F 
ATOM     81  C   UNL     1      16.871   5.439  -3.991  1.00  0.00     0.022 A 
BRANCH  79  82
ATOM     82  S   UNL     1      15.261   6.504  -5.928  1.00  0.00     0.127 S 
ATOM     83  O   UNL     1      16.436   6.875  -6.712  1.00  0.00    -0.237 OA
ATOM     84  O   UNL     1      14.806   5.125  -6.112  1.00  0.00    -0.237 OA
ATOM     85  O   UNL     1      14.193   7.493  -5.891  1.00  0.00    -0.744 OA
ENDBRANCH  79  82
ENDBRANCH  51  75
BRANCH  63  86
ATOM     86  C   UNL     1      18.990  11.669   2.428  1.00  0.00     0.023 A 
ATOM     87  C   UNL     1      19.492  12.582   1.480  1.00  0.00     0.012 A 
ATOM     88  C   UNL     1      19.790  11.303   3.528  1.00  0.00     0.148 A 
ATOM     89  C   UNL     1      20.782  13.097   1.607  1.00  0.00     0.002 A 
ATOM     90  C   UNL     1      21.054  11.861   3.677  1.00  0.00     0.091 A 
ATOM     91  F   UNL     1      19.301  10.418   4.409  1.00  0.00    -0.205 F 
ATOM     92  C   UNL     1      21.557  12.747   2.711  1.00  0.00     0.022 A 
BRANCH  90  93
ATOM     93  S   UNL     1      22.081  11.547   5.117  1.00  0.00     0.127 S 
ATOM     94  O   UNL     1      23.136  10.706   4.552  1.00  0.00    -0.237 OA
ATOM     95  O   UNL     1      22.510  12.895   5.490  1.00  0.00    -0.237 OA
ATOM     96  O   UNL     1      21.218  10.895   6.093  1.00  0.00    -0.744 OA
ENDBRANCH  90  93
ENDBRANCH  63  86
ENDBRANCH  37  38
ENDBRANCH  29  32
ENDBRANCH  27  28
ENDBRANCH  26  27
ENDBRANCH  25  26
ENDBRANCH   3  25
TORSDOF 16
