REMARK SMILES O=C(NCCCNC(=O)[C@H]1C=C[C@H](Nc2ccc([N+](=O)[O-])cc2C(F)F)C1)c1ccc(-c2c3nc(c(-c4cccc(S(=O)(=O)[O-])c4F)c4ccc([nH]4)c(-c4cccc(S(=O)(=O)[O-])c4F)c4nc(c(-c5cccc(S(=O)(=O)[O-])c5F)c5ccc2[nH]5)C=C4)C=C3)cc1
REMARK SMILES IDX 5 1 4 2 3 3 1 4 2 5 28 7 29 8 90 9 30 10 89 11 31 12 32 13
REMARK SMILES IDX 33 14 83 15 34 16 88 17 82 18 84 19 35 20 87 21 81 22 80 23
REMARK SMILES IDX 36 25 68 26 48 27 67 28 49 29 52 30 66 31 85 32 50 33 51 34
REMARK SMILES IDX 65 36 86 37 53 38 37 39 38 40 46 41 39 42 41 43 47 44 40 45
REMARK SMILES IDX 42 46 43 47 44 48 45 49 69 50 70 51 78 52 71 53 73 54 79 55
REMARK SMILES IDX 72 56 74 57 75 58 76 59 77 60 54 61 55 62 63 63 56 64 58 65
REMARK SMILES IDX 64 66 57 67 59 68 60 69 61 70 62 71 6 72 7 73 8 74 9 76
REMARK SMILES IDX 10 77 11 78 27 79 12 80 13 81 14 82 15 84 16 85 23 86 17 87
REMARK SMILES IDX 22 88 18 89 24 90 25 91 26 92 19 93 20 94 21 95
REMARK H PARENT 3 6 84 24 52 35 7 75 14 83
REMARK Flexibility Score: inf
ROOT
ATOM      1  C   UNL     1       4.388   0.400  -2.673  1.00  0.00     0.042 C 
ENDROOT
BRANCH   1   2
ATOM      2  C   UNL     1       4.247   0.813  -1.220  1.00  0.00     0.118 C 
BRANCH   2   3
ATOM      3  N   UNL     1       2.863   0.782  -0.777  1.00  0.00    -0.352 N 
ATOM      4  O   UNL     1       1.044  -0.065   0.234  1.00  0.00    -0.269 OA
ATOM      5  C   UNL     1       2.271  -0.011   0.176  1.00  0.00     0.251 C 
ATOM      6  H   UNL     1       2.263   1.421  -1.225  1.00  0.00     0.163 HD
BRANCH   5   7
ATOM      7  C   UNL     1       3.106  -0.802   1.109  1.00  0.00     0.039 A 
ATOM      8  C   UNL     1       4.296  -0.275   1.611  1.00  0.00     0.014 A 
ATOM      9  C   UNL     1       2.686  -2.074   1.511  1.00  0.00     0.014 A 
ATOM     10  C   UNL     1       5.144  -1.072   2.365  1.00  0.00     0.010 A 
ATOM     11  C   UNL     1       3.482  -2.828   2.381  1.00  0.00     0.010 A 
ATOM     12  C   UNL     1       4.731  -2.343   2.796  1.00  0.00    -0.014 A 
BRANCH  12  13
ATOM     13  C   UNL     1       5.590  -3.063   3.771  1.00  0.00     0.031 A 
ATOM     14  C   UNL     1       6.203  -4.397   3.457  1.00  0.00     0.074 A 
ATOM     15  C   UNL     1       5.847  -2.456   4.948  1.00  0.00     0.049 A 
ATOM     16  N   UNL     1       7.040  -5.100   4.177  1.00  0.00    -0.248 NA
ATOM     17  C   UNL     1       5.830  -5.033   2.184  1.00  0.00     0.031 C 
ATOM     18  C   UNL     1       5.255  -1.186   5.384  1.00  0.00     0.029 A 
ATOM     19  N   UNL     1       6.677  -2.802   5.982  1.00  0.00    -0.354 N 
ATOM     20  C   UNL     1       7.275  -6.269   3.463  1.00  0.00     0.074 A 
ATOM     21  C   UNL     1       6.476  -6.190   2.258  1.00  0.00     0.031 C 
ATOM     22  C   UNL     1       5.775  -0.837   6.567  1.00  0.00     0.029 A 
ATOM     23  C   UNL     1       6.682  -1.887   7.009  1.00  0.00     0.049 A 
ATOM     24  H   UNL     1       7.216  -3.625   5.989  1.00  0.00     0.167 HD
ATOM     25  C   UNL     1       8.096  -7.301   3.776  1.00  0.00     0.034 A 
ATOM     26  C   UNL     1       7.329  -1.897   8.189  1.00  0.00     0.034 A 
ATOM     27  C   UNL     1       8.899  -7.360   4.971  1.00  0.00     0.049 A 
ATOM     28  C   UNL     1       8.251  -3.040   8.491  1.00  0.00     0.074 A 
ATOM     29  C   UNL     1       9.786  -8.347   5.364  1.00  0.00     0.029 A 
ATOM     30  N   UNL     1       8.910  -6.397   5.970  1.00  0.00    -0.354 N 
ATOM     31  N   UNL     1       8.544  -4.079   7.748  1.00  0.00    -0.248 NA
ATOM     32  C   UNL     1       8.955  -2.998   9.779  1.00  0.00     0.031 C 
ATOM     33  C   UNL     1      10.317  -7.991   6.609  1.00  0.00     0.029 A 
ATOM     34  C   UNL     1       9.785  -6.766   6.978  1.00  0.00     0.049 A 
ATOM     35  H   UNL     1       8.373  -5.572   5.963  1.00  0.00     0.167 HD
ATOM     36  C   UNL     1       9.478  -4.809   8.470  1.00  0.00     0.074 A 
ATOM     37  C   UNL     1       9.734  -4.067   9.689  1.00  0.00     0.031 C 
ATOM     38  C   UNL     1      10.055  -5.998   8.166  1.00  0.00     0.034 A 
BRANCH  25  39
ATOM     39  C   UNL     1       8.205  -8.439   2.791  1.00  0.00     0.023 A 
ATOM     40  C   UNL     1       8.897  -8.243   1.579  1.00  0.00     0.012 A 
ATOM     41  C   UNL     1       7.696  -9.717   3.095  1.00  0.00     0.148 A 
ATOM     42  C   UNL     1       9.059  -9.291   0.673  1.00  0.00     0.002 A 
ATOM     43  C   UNL     1       7.898 -10.769   2.207  1.00  0.00     0.091 A 
ATOM     44  F   UNL     1       7.027  -9.882   4.245  1.00  0.00    -0.205 F 
ATOM     45  C   UNL     1       8.569 -10.555   0.992  1.00  0.00     0.022 A 
BRANCH  43  46
ATOM     46  S   UNL     1       7.376 -12.453   2.555  1.00  0.00     0.127 S 
ATOM     47  O   UNL     1       6.318 -12.644   1.564  1.00  0.00    -0.237 OA
ATOM     48  O   UNL     1       8.599 -13.213   2.296  1.00  0.00    -0.237 OA
ATOM     49  O   UNL     1       6.936 -12.460   3.943  1.00  0.00    -0.744 OA
ENDBRANCH  43  46
ENDBRANCH  25  39
BRANCH  26  50
ATOM     50  C   UNL     1       7.129  -0.780   9.154  1.00  0.00     0.023 A 
ATOM     51  C   UNL     1       8.191   0.097   9.447  1.00  0.00     0.012 A 
ATOM     52  C   UNL     1       5.873  -0.562   9.755  1.00  0.00     0.148 A 
ATOM     53  C   UNL     1       8.015   1.147  10.349  1.00  0.00     0.002 A 
ATOM     54  C   UNL     1       5.686   0.525  10.597  1.00  0.00     0.091 A 
ATOM     55  F   UNL     1       4.878  -1.416   9.476  1.00  0.00    -0.205 F 
ATOM     56  C   UNL     1       6.761   1.370  10.913  1.00  0.00     0.022 A 
BRANCH  54  57
ATOM     57  S   UNL     1       4.066   0.967  11.234  1.00  0.00     0.127 S 
ATOM     58  O   UNL     1       4.161   0.527  12.623  1.00  0.00    -0.237 OA
ATOM     59  O   UNL     1       4.050   2.418  11.046  1.00  0.00    -0.237 OA
ATOM     60  O   UNL     1       3.113   0.248  10.400  1.00  0.00    -0.744 OA
ENDBRANCH  54  57
ENDBRANCH  26  50
BRANCH  38  61
ATOM     61  C   UNL     1      11.035  -6.554   9.164  1.00  0.00     0.023 A 
ATOM     62  C   UNL     1      10.573  -7.046  10.402  1.00  0.00     0.012 A 
ATOM     63  C   UNL     1      12.410  -6.615   8.866  1.00  0.00     0.148 A 
ATOM     64  C   UNL     1      11.469  -7.545  11.345  1.00  0.00     0.002 A 
ATOM     65  C   UNL     1      13.291  -7.162   9.790  1.00  0.00     0.091 A 
ATOM     66  F   UNL     1      12.833  -6.123   7.692  1.00  0.00    -0.205 F 
ATOM     67  C   UNL     1      12.825  -7.613  11.036  1.00  0.00     0.022 A 
BRANCH  65  68
ATOM     68  S   UNL     1      15.039  -7.373   9.441  1.00  0.00     0.127 S 
ATOM     69  O   UNL     1      15.636  -6.320  10.260  1.00  0.00    -0.237 OA
ATOM     70  O   UNL     1      15.290  -8.733   9.919  1.00  0.00    -0.237 OA
ATOM     71  O   UNL     1      15.183  -7.205   8.001  1.00  0.00    -0.744 OA
ENDBRANCH  65  68
ENDBRANCH  38  61
ENDBRANCH  12  13
ENDBRANCH   5   7
ENDBRANCH   2   3
ENDBRANCH   1   2
BRANCH   1  72
ATOM     72  C   UNL     1       3.892   1.461  -3.652  1.00  0.00     0.117 C 
BRANCH  72  73
ATOM     73  N   UNL     1       4.847   2.545  -3.772  1.00  0.00    -0.356 N 
ATOM     74  C   UNL     1       5.909   2.736  -4.597  1.00  0.00     0.227 C 
ATOM     75  H   UNL     1       4.697   3.281  -3.136  1.00  0.00     0.163 HD
ATOM     76  O   UNL     1       6.571   3.760  -4.387  1.00  0.00    -0.274 OA
BRANCH  74  77
ATOM     77  C   UNL     1       6.218   1.837  -5.811  1.00  0.00     0.103 C 
ATOM     78  C   UNL     1       7.703   1.811  -6.066  1.00  0.00    -0.016 C 
ATOM     79  C   UNL     1       5.879   0.344  -5.764  1.00  0.00     0.046 C 
ATOM     80  C   UNL     1       8.166   0.581  -6.306  1.00  0.00    -0.006 C 
ATOM     81  C   UNL     1       7.098  -0.448  -6.237  1.00  0.00     0.103 C 
BRANCH  81  82
ATOM     82  N   UNL     1       6.840  -0.994  -7.558  1.00  0.00    -0.378 N 
ATOM     83  H   UNL     1       6.115  -0.624  -8.111  1.00  0.00     0.161 HD
BRANCH  82  84
ATOM     84  C   UNL     1       7.619  -2.042  -8.038  1.00  0.00     0.044 A 
ATOM     85  C   UNL     1       8.391  -1.791  -9.186  1.00  0.00     0.033 A 
ATOM     86  C   UNL     1       7.738  -3.291  -7.399  1.00  0.00     0.048 A 
ATOM     87  C   UNL     1       9.297  -2.730  -9.677  1.00  0.00     0.088 A 
ATOM     88  C   UNL     1       8.675  -4.231  -7.880  1.00  0.00     0.097 A 
ATOM     89  C   UNL     1       9.450  -3.944  -9.008  1.00  0.00     0.270 A 
BRANCH  86  90
ATOM     90  C   UNL     1       6.884  -3.695  -6.223  1.00  0.00     0.375 C 
ATOM     91  F   UNL     1       6.519  -5.009  -6.273  1.00  0.00    -0.205 F 
ATOM     92  F   UNL     1       7.536  -3.541  -5.037  1.00  0.00    -0.205 F 
ENDBRANCH  86  90
BRANCH  89  93
ATOM     93  N   UNL     1      10.430  -4.922  -9.496  1.00  0.00     0.062 N 
ATOM     94  O   UNL     1      11.060  -4.637 -10.525  1.00  0.00    -0.258 OA
ATOM     95  O   UNL     1      10.568  -5.972  -8.856  1.00  0.00    -0.258 OA
ENDBRANCH  89  93
ENDBRANCH  82  84
ENDBRANCH  81  82
ENDBRANCH  74  77
ENDBRANCH  72  73
ENDBRANCH   1  72
TORSDOF 17
