REMARK SMILES Cc1c(C)c2cc(Cl)c(O[C@@H](C)C(=O)NCCCNC(=O)c3ccc(-c4c5nc(c(-c6cccc(S(=O)(=O)[O-])c6F)c6ccc([nH]6)c(-c6cccc(S(=O)(=O)[O-])c6F)c6nc(c(-c7cccc(S(=O)(=O)[O-])c7F)c7ccc4[nH]7)C=C6)C=C5)cc3)cc2oc1=O
REMARK SMILES IDX 17 1 16 2 15 3 13 4 14 5 11 7 12 8 10 9 9 10 1 11 2 12 3 13
REMARK SMILES IDX 88 14 4 15 5 16 87 17 89 18 6 19 86 20 7 21 85 22 8 23 18 24
REMARK SMILES IDX 19 25 20 26 21 28 22 29 23 30 84 31 24 32 83 33 25 34 26 35
REMARK SMILES IDX 27 36 77 37 28 38 82 39 76 40 78 41 29 42 81 43 75 44 74 45
REMARK SMILES IDX 30 47 62 48 42 49 61 50 43 51 46 52 60 53 79 54 44 55 45 56
REMARK SMILES IDX 59 58 80 59 47 60 31 61 32 62 40 63 33 64 35 65 41 66 34 67
REMARK SMILES IDX 36 68 37 69 38 70 39 71 63 72 64 73 72 74 65 75 67 76 73 77
REMARK SMILES IDX 66 78 68 79 69 80 70 81 71 82 48 83 49 84 57 85 50 86 52 87
REMARK SMILES IDX 58 88 51 89 53 90 54 91 55 92 56 93
REMARK H PARENT 15 6 19 27 78 46 46 57
REMARK Flexibility Score: inf
ROOT
ATOM      1  C   UNL     1       1.083  -1.701   4.684  1.00  0.00     0.042 C 
ENDROOT
BRANCH   1   2
ATOM      2  C   UNL     1       0.486  -2.751   5.615  1.00  0.00     0.118 C 
BRANCH   2   3
ATOM      3  N   UNL     1       0.876  -2.517   6.993  1.00  0.00    -0.353 N 
ATOM      4  C   UNL     1       0.243  -1.949   8.053  1.00  0.00     0.260 C 
ATOM      5  O   UNL     1       0.937  -1.813   9.071  1.00  0.00    -0.271 OA
ATOM      6  H   UNL     1       1.784  -2.834   7.203  1.00  0.00     0.163 HD
BRANCH   4   7
ATOM      7  C   UNL     1      -1.266  -1.548   8.092  1.00  0.00     0.258 C 
ATOM      8  C   UNL     1      -2.221  -2.718   7.857  1.00  0.00     0.064 C 
BRANCH   7   9
ATOM      9  O   UNL     1      -1.766  -0.292   7.639  1.00  0.00    -0.479 OA
BRANCH   9  10
ATOM     10  C   UNL     1      -1.650   0.067   6.334  1.00  0.00     0.142 A 
ATOM     11  C   UNL     1      -0.711   0.146  -0.086  1.00  0.00     0.052 C 
ATOM     12  C   UNL     1      -1.149   0.076   1.349  1.00  0.00     0.038 A 
ATOM     13  C   UNL     1      -1.052   1.111   2.213  1.00  0.00    -0.030 A 
ATOM     14  C   UNL     1      -1.683  -1.244   1.784  1.00  0.00     0.339 A 
ATOM     15  C   UNL     1      -0.624   2.497   1.815  1.00  0.00     0.046 C 
ATOM     16  C   UNL     1      -1.332   0.862   3.636  1.00  0.00     0.023 A 
ATOM     17  O   UNL     1      -2.306  -1.283   3.021  1.00  0.00    -0.422 OA
ATOM     18  O   UNL     1      -1.639  -2.245   1.079  1.00  0.00    -0.246 OA
ATOM     19  C   UNL     1      -0.928   1.707   4.677  1.00  0.00     0.036 A 
ATOM     20  C   UNL     1      -1.967  -0.324   3.985  1.00  0.00     0.142 A 
ATOM     21  C   UNL     1      -1.076   1.306   6.014  1.00  0.00     0.083 A 
ATOM     22  C   UNL     1      -2.185  -0.701   5.310  1.00  0.00     0.096 A 
ATOM     23  Cl  UNL     1      -0.491   2.362   7.250  1.00  0.00    -0.080 Cl
ENDBRANCH   9  10
ENDBRANCH   7   9
ENDBRANCH   4   7
ENDBRANCH   2   3
ENDBRANCH   1   2
BRANCH   1  24
ATOM     24  C   UNL     1       2.492  -2.021   4.207  1.00  0.00     0.118 C 
BRANCH  24  25
ATOM     25  N   UNL     1       2.501  -2.968   3.096  1.00  0.00    -0.352 N 
ATOM     26  C   UNL     1       2.793  -2.813   1.758  1.00  0.00     0.251 C 
ATOM     27  H   UNL     1       2.253  -3.886   3.349  1.00  0.00     0.163 HD
ATOM     28  O   UNL     1       2.585  -3.761   1.001  1.00  0.00    -0.269 OA
BRANCH  26  29
ATOM     29  C   UNL     1       3.312  -1.536   1.207  1.00  0.00     0.039 A 
ATOM     30  C   UNL     1       4.214  -0.744   1.913  1.00  0.00     0.014 A 
ATOM     31  C   UNL     1       2.918  -1.137  -0.078  1.00  0.00     0.014 A 
ATOM     32  C   UNL     1       4.552   0.521   1.440  1.00  0.00     0.010 A 
ATOM     33  C   UNL     1       3.339   0.095  -0.600  1.00  0.00     0.010 A 
ATOM     34  C   UNL     1       4.112   0.962   0.181  1.00  0.00    -0.014 A 
BRANCH  34  35
ATOM     35  C   UNL     1       4.542   2.305  -0.291  1.00  0.00     0.031 A 
ATOM     36  C   UNL     1       3.570   3.441  -0.441  1.00  0.00     0.074 A 
ATOM     37  C   UNL     1       5.853   2.524  -0.500  1.00  0.00     0.049 A 
ATOM     38  N   UNL     1       3.812   4.717  -0.596  1.00  0.00    -0.248 NA
ATOM     39  C   UNL     1       2.140   3.111  -0.397  1.00  0.00     0.031 C 
ATOM     40  C   UNL     1       6.896   1.499  -0.427  1.00  0.00     0.029 A 
ATOM     41  N   UNL     1       6.534   3.677  -0.790  1.00  0.00    -0.354 N 
ATOM     42  C   UNL     1       2.570   5.341  -0.641  1.00  0.00     0.074 A 
ATOM     43  C   UNL     1       1.573   4.303  -0.536  1.00  0.00     0.031 C 
ATOM     44  C   UNL     1       8.089   2.076  -0.628  1.00  0.00     0.029 A 
ATOM     45  C   UNL     1       7.893   3.502  -0.873  1.00  0.00     0.049 A 
ATOM     46  H   UNL     1       6.092   4.546  -0.926  1.00  0.00     0.167 HD
ATOM     47  C   UNL     1       2.287   6.660  -0.732  1.00  0.00     0.034 A 
ATOM     48  C   UNL     1       8.878   4.388  -1.115  1.00  0.00     0.034 A 
ATOM     49  C   UNL     1       3.276   7.691  -0.875  1.00  0.00     0.049 A 
ATOM     50  C   UNL     1       8.537   5.835  -1.298  1.00  0.00     0.074 A 
ATOM     51  C   UNL     1       3.088   9.060  -0.941  1.00  0.00     0.029 A 
ATOM     52  N   UNL     1       4.635   7.463  -1.014  1.00  0.00    -0.354 N 
ATOM     53  N   UNL     1       7.372   6.424  -1.172  1.00  0.00    -0.248 NA
ATOM     54  C   UNL     1       9.640   6.743  -1.640  1.00  0.00     0.031 C 
ATOM     55  C   UNL     1       4.335   9.659  -1.147  1.00  0.00     0.029 A 
ATOM     56  C   UNL     1       5.296   8.662  -1.202  1.00  0.00     0.049 A 
ATOM     57  H   UNL     1       5.066   6.578  -0.984  1.00  0.00     0.167 HD
ATOM     58  C   UNL     1       7.600   7.772  -1.417  1.00  0.00     0.074 A 
ATOM     59  C   UNL     1       9.019   7.916  -1.677  1.00  0.00     0.031 C 
ATOM     60  C   UNL     1       6.710   8.793  -1.440  1.00  0.00     0.034 A 
BRANCH  47  61
ATOM     61  C   UNL     1       0.849   7.086  -0.616  1.00  0.00     0.023 A 
ATOM     62  C   UNL     1       0.297   7.252   0.670  1.00  0.00     0.012 A 
ATOM     63  C   UNL     1       0.086   7.420  -1.750  1.00  0.00     0.148 A 
ATOM     64  C   UNL     1      -0.996   7.749   0.828  1.00  0.00     0.002 A 
ATOM     65  C   UNL     1      -1.197   7.930  -1.585  1.00  0.00     0.091 A 
ATOM     66  F   UNL     1       0.631   7.236  -2.961  1.00  0.00    -0.205 F 
ATOM     67  C   UNL     1      -1.738   8.095  -0.298  1.00  0.00     0.022 A 
BRANCH  65  68
ATOM     68  S   UNL     1      -2.232   8.435  -2.963  1.00  0.00     0.127 S 
ATOM     69  O   UNL     1      -3.340   7.486  -2.858  1.00  0.00    -0.237 OA
ATOM     70  O   UNL     1      -2.569   9.811  -2.603  1.00  0.00    -0.237 OA
ATOM     71  O   UNL     1      -1.410   8.293  -4.157  1.00  0.00    -0.744 OA
ENDBRANCH  65  68
ENDBRANCH  47  61
BRANCH  48  72
ATOM     72  C   UNL     1      10.281   3.899  -1.148  1.00  0.00     0.023 A 
ATOM     73  C   UNL     1      11.129   4.150  -0.054  1.00  0.00     0.012 A 
ATOM     74  C   UNL     1      10.728   3.076  -2.200  1.00  0.00     0.148 A 
ATOM     75  C   UNL     1      12.400   3.578  -0.003  1.00  0.00     0.002 A 
ATOM     76  C   UNL     1      11.975   2.470  -2.119  1.00  0.00     0.091 A 
ATOM     77  F   UNL     1       9.902   2.868  -3.235  1.00  0.00    -0.205 F 
ATOM     78  C   UNL     1      12.816   2.726  -1.025  1.00  0.00     0.022 A 
BRANCH  76  79
ATOM     79  S   UNL     1      12.528   1.251  -3.316  1.00  0.00     0.127 S 
ATOM     80  O   UNL     1      13.596   1.972  -4.003  1.00  0.00    -0.237 OA
ATOM     81  O   UNL     1      12.978   0.161  -2.449  1.00  0.00    -0.237 OA
ATOM     82  O   UNL     1      11.359   0.932  -4.123  1.00  0.00    -0.744 OA
ENDBRANCH  76  79
ENDBRANCH  48  72
BRANCH  60  83
ATOM     83  C   UNL     1       7.221  10.161  -1.790  1.00  0.00     0.023 A 
ATOM     84  C   UNL     1       7.441  10.480  -3.144  1.00  0.00     0.012 A 
ATOM     85  C   UNL     1       7.369  11.154  -0.805  1.00  0.00     0.148 A 
ATOM     86  C   UNL     1       7.811  11.771  -3.513  1.00  0.00     0.002 A 
ATOM     87  C   UNL     1       7.707  12.448  -1.183  1.00  0.00     0.091 A 
ATOM     88  F   UNL     1       7.164  10.819   0.477  1.00  0.00    -0.205 F 
ATOM     89  C   UNL     1       7.932  12.757  -2.535  1.00  0.00     0.022 A 
BRANCH  87  90
ATOM     90  S   UNL     1       7.810  13.801  -0.006  1.00  0.00     0.127 S 
ATOM     91  O   UNL     1       9.250  14.050   0.034  1.00  0.00    -0.237 OA
ATOM     92  O   UNL     1       7.026  14.846  -0.665  1.00  0.00    -0.237 OA
ATOM     93  O   UNL     1       7.229  13.300   1.233  1.00  0.00    -0.744 OA
ENDBRANCH  87  90
ENDBRANCH  60  83
ENDBRANCH  34  35
ENDBRANCH  26  29
ENDBRANCH  24  25
ENDBRANCH   1  24
TORSDOF 15
