REMARK SMILES C[C@@H](CC(=O)NCCCNC(=O)c1ccc(-c2c3nc(c(-c4cccc(S(=O)(=O)[O-])c4F)c4ccc([nH]4)c(-c4cccc(S(=O)(=O)[O-])c4F)c4nc(c(-c5cccc(S(=O)(=O)[O-])c5F)c5ccc2[nH]5)C=C4)C=C3)cc1)CC(=O)NC[C@@]1(C)CCCO1
REMARK SMILES IDX 7 1 6 2 4 3 5 4 3 6 2 7 1 8 76 9 77 10 78 11 79 12 80 14
REMARK SMILES IDX 81 15 82 16 83 17 86 18 84 19 85 20 8 21 9 22 10 23 11 24
REMARK SMILES IDX 12 26 13 27 14 28 75 29 15 30 74 31 16 32 17 33 18 34 68 35
REMARK SMILES IDX 19 36 73 37 67 38 69 39 20 40 72 41 66 42 65 43 21 45 53 46
REMARK SMILES IDX 33 47 52 48 34 49 37 50 51 51 70 52 35 53 36 54 50 56 71 57
REMARK SMILES IDX 38 58 22 59 23 60 31 61 24 62 26 63 32 64 25 65 27 66 28 67
REMARK SMILES IDX 29 68 30 69 54 70 55 71 63 72 56 73 58 74 64 75 57 76 59 77
REMARK SMILES IDX 60 78 61 79 62 80 39 81 40 82 48 83 41 84 43 85 49 86 42 87
REMARK SMILES IDX 44 88 45 89 46 90 47 91
REMARK H PARENT 6 5 79 13 10 25 69 44 37 55
REMARK Flexibility Score: inf
ROOT
ATOM      1  C   UNL     1       1.805  -2.679  -0.574  1.00  0.00     0.117 C 
ENDROOT
BRANCH   1   2
ATOM      2  N   UNL     1       0.650  -2.917  -1.427  1.00  0.00    -0.356 N 
ATOM      3  C   UNL     1       0.021  -2.141  -2.350  1.00  0.00     0.220 C 
ATOM      4  O   UNL     1      -1.019  -2.577  -2.848  1.00  0.00    -0.275 OA
ATOM      5  H   UNL     1       0.249  -3.809  -1.315  1.00  0.00     0.163 HD
BRANCH   3   6
ATOM      6  C   UNL     1       0.586  -0.810  -2.805  1.00  0.00     0.103 C 
BRANCH   6   7
ATOM      7  C   UNL     1       0.170   0.468  -2.046  1.00  0.00     0.004 C 
ATOM      8  C   UNL     1       1.359   0.973  -1.246  1.00  0.00     0.009 C 
BRANCH   7   9
ATOM      9  C   UNL     1      -1.107   0.352  -1.187  1.00  0.00     0.103 C 
BRANCH   9  10
ATOM     10  C   UNL     1      -1.415   1.640  -0.428  1.00  0.00     0.220 C 
ATOM     11  O   UNL     1      -1.969   2.582  -1.001  1.00  0.00    -0.275 OA
ATOM     12  N   UNL     1      -1.012   1.811   0.868  1.00  0.00    -0.353 N 
ATOM     13  H   UNL     1      -1.053   2.739   1.194  1.00  0.00     0.163 HD
BRANCH  12  14
ATOM     14  C   UNL     1      -0.532   0.840   1.845  1.00  0.00     0.151 C 
BRANCH  14  15
ATOM     15  C   UNL     1       0.703   1.247   2.692  1.00  0.00     0.083 C 
ATOM     16  C   UNL     1       2.030   1.209   1.925  1.00  0.00     0.044 C 
ATOM     17  C   UNL     1       0.520   2.580   3.404  1.00  0.00     0.039 C 
ATOM     18  O   UNL     1       0.859   0.281   3.760  1.00  0.00    -0.373 OA
ATOM     19  C   UNL     1       1.451   2.448   4.585  1.00  0.00     0.031 C 
ATOM     20  C   UNL     1       1.363   0.971   4.922  1.00  0.00     0.161 C 
ENDBRANCH  14  15
ENDBRANCH  12  14
ENDBRANCH   9  10
ENDBRANCH   7   9
ENDBRANCH   6   7
ENDBRANCH   3   6
ENDBRANCH   1   2
BRANCH   1  21
ATOM     21  C   UNL     1       1.384  -2.444   0.875  1.00  0.00     0.042 C 
BRANCH  21  22
ATOM     22  C   UNL     1       0.777  -3.640   1.605  1.00  0.00     0.118 C 
BRANCH  22  23
ATOM     23  N   UNL     1       1.792  -4.481   2.216  1.00  0.00    -0.352 N 
ATOM     24  C   UNL     1       2.057  -4.755   3.538  1.00  0.00     0.251 C 
ATOM     25  H   UNL     1       2.391  -4.930   1.576  1.00  0.00     0.163 HD
ATOM     26  O   UNL     1       3.120  -5.316   3.806  1.00  0.00    -0.269 OA
BRANCH  24  27
ATOM     27  C   UNL     1       1.120  -4.404   4.642  1.00  0.00     0.039 A 
ATOM     28  C   UNL     1       1.664  -4.101   5.898  1.00  0.00     0.014 A 
ATOM     29  C   UNL     1      -0.270  -4.465   4.508  1.00  0.00     0.014 A 
ATOM     30  C   UNL     1       0.830  -3.838   6.993  1.00  0.00     0.010 A 
ATOM     31  C   UNL     1      -1.102  -4.126   5.583  1.00  0.00     0.010 A 
ATOM     32  C   UNL     1      -0.566  -3.829   6.845  1.00  0.00    -0.014 A 
BRANCH  32  33
ATOM     33  C   UNL     1      -1.463  -3.531   8.000  1.00  0.00     0.031 A 
ATOM     34  C   UNL     1      -2.443  -4.563   8.505  1.00  0.00     0.074 A 
ATOM     35  C   UNL     1      -1.439  -2.310   8.573  1.00  0.00     0.049 A 
ATOM     36  N   UNL     1      -3.315  -4.468   9.478  1.00  0.00    -0.248 NA
ATOM     37  C   UNL     1      -2.460  -5.863   7.816  1.00  0.00     0.031 C 
ATOM     38  C   UNL     1      -0.591  -1.196   8.147  1.00  0.00     0.029 A 
ATOM     39  N   UNL     1      -2.162  -1.793   9.622  1.00  0.00    -0.354 N 
ATOM     40  C   UNL     1      -4.006  -5.675   9.494  1.00  0.00     0.074 A 
ATOM     41  C   UNL     1      -3.473  -6.475   8.412  1.00  0.00     0.031 C 
ATOM     42  C   UNL     1      -0.836  -0.132   8.928  1.00  0.00     0.029 A 
ATOM     43  C   UNL     1      -1.879  -0.473   9.891  1.00  0.00     0.049 A 
ATOM     44  H   UNL     1      -2.820  -2.318  10.132  1.00  0.00     0.167 HD
ATOM     45  C   UNL     1      -4.976  -6.096  10.344  1.00  0.00     0.034 A 
ATOM     46  C   UNL     1      -2.403   0.372  10.802  1.00  0.00     0.034 A 
ATOM     47  C   UNL     1      -5.479  -5.321  11.447  1.00  0.00     0.049 A 
ATOM     48  C   UNL     1      -3.455  -0.129  11.755  1.00  0.00     0.074 A 
ATOM     49  C   UNL     1      -6.399  -5.694  12.412  1.00  0.00     0.029 A 
ATOM     50  N   UNL     1      -5.112  -4.015  11.732  1.00  0.00    -0.354 N 
ATOM     51  N   UNL     1      -3.984  -1.325  11.847  1.00  0.00    -0.248 NA
ATOM     52  C   UNL     1      -3.957   0.826  12.756  1.00  0.00     0.031 C 
ATOM     53  C   UNL     1      -6.609  -4.605  13.264  1.00  0.00     0.029 A 
ATOM     54  C   UNL     1      -5.795  -3.563  12.850  1.00  0.00     0.049 A 
ATOM     55  H   UNL     1      -4.462  -3.486  11.216  1.00  0.00     0.167 HD
ATOM     56  C   UNL     1      -4.851  -1.277  12.934  1.00  0.00     0.074 A 
ATOM     57  C   UNL     1      -4.758   0.060  13.483  1.00  0.00     0.031 C 
ATOM     58  C   UNL     1      -5.660  -2.249  13.424  1.00  0.00     0.034 A 
BRANCH  45  59
ATOM     59  C   UNL     1      -5.527  -7.487  10.148  1.00  0.00     0.023 A 
ATOM     60  C   UNL     1      -4.723  -8.603  10.458  1.00  0.00     0.012 A 
ATOM     61  C   UNL     1      -6.856  -7.691   9.725  1.00  0.00     0.148 A 
ATOM     62  C   UNL     1      -5.217  -9.899  10.313  1.00  0.00     0.002 A 
ATOM     63  C   UNL     1      -7.356  -8.985   9.627  1.00  0.00     0.091 A 
ATOM     64  F   UNL     1      -7.602  -6.620   9.420  1.00  0.00    -0.205 F 
ATOM     65  C   UNL     1      -6.535 -10.089   9.907  1.00  0.00     0.022 A 
BRANCH  63  66
ATOM     66  S   UNL     1      -9.064  -9.335   9.193  1.00  0.00     0.127 S 
ATOM     67  O   UNL     1      -8.918  -9.900   7.852  1.00  0.00    -0.237 OA
ATOM     68  O   UNL     1      -9.451 -10.302  10.222  1.00  0.00    -0.237 OA
ATOM     69  O   UNL     1      -9.766  -8.062   9.262  1.00  0.00    -0.744 OA
ENDBRANCH  63  66
ENDBRANCH  45  59
BRANCH  46  70
ATOM     70  C   UNL     1      -1.893   1.770  10.899  1.00  0.00     0.023 A 
ATOM     71  C   UNL     1      -1.142   2.158  12.026  1.00  0.00     0.012 A 
ATOM     72  C   UNL     1      -2.121   2.706   9.872  1.00  0.00     0.148 A 
ATOM     73  C   UNL     1      -0.658   3.461  12.144  1.00  0.00     0.002 A 
ATOM     74  C   UNL     1      -1.583   3.983   9.966  1.00  0.00     0.091 A 
ATOM     75  F   UNL     1      -2.849   2.323   8.813  1.00  0.00    -0.205 F 
ATOM     76  C   UNL     1      -0.868   4.370  11.111  1.00  0.00     0.022 A 
BRANCH  74  77
ATOM     77  S   UNL     1      -1.673   5.167   8.618  1.00  0.00     0.127 S 
ATOM     78  O   UNL     1      -2.610   6.153   9.145  1.00  0.00    -0.237 OA
ATOM     79  O   UNL     1      -0.285   5.620   8.521  1.00  0.00    -0.237 OA
ATOM     80  O   UNL     1      -2.131   4.408   7.460  1.00  0.00    -0.744 OA
ENDBRANCH  74  77
ENDBRANCH  46  70
BRANCH  58  81
ATOM     81  C   UNL     1      -6.488  -1.925  14.641  1.00  0.00     0.023 A 
ATOM     82  C   UNL     1      -7.589  -1.053  14.531  1.00  0.00     0.012 A 
ATOM     83  C   UNL     1      -6.215  -2.539  15.880  1.00  0.00     0.148 A 
ATOM     84  C   UNL     1      -8.383  -0.769  15.642  1.00  0.00     0.002 A 
ATOM     85  C   UNL     1      -7.040  -2.290  16.971  1.00  0.00     0.091 A 
ATOM     86  F   UNL     1      -5.152  -3.351  15.972  1.00  0.00    -0.205 F 
ATOM     87  C   UNL     1      -8.117  -1.395  16.857  1.00  0.00     0.022 A 
BRANCH  85  88
ATOM     88  S   UNL     1      -6.830  -3.124  18.548  1.00  0.00     0.127 S 
ATOM     89  O   UNL     1      -6.299  -2.050  19.385  1.00  0.00    -0.237 OA
ATOM     90  O   UNL     1      -8.199  -3.528  18.871  1.00  0.00    -0.237 OA
ATOM     91  O   UNL     1      -5.918  -4.231  18.298  1.00  0.00    -0.744 OA
ENDBRANCH  85  88
ENDBRANCH  58  81
ENDBRANCH  32  33
ENDBRANCH  24  27
ENDBRANCH  22  23
ENDBRANCH  21  22
ENDBRANCH   1  21
TORSDOF 18
