REMARK SMILES Cc1nonc1C[C@@H](C(=O)NCCCNC(=O)c1ccc(-c2c3nc(c(-c4cccc(S(=O)(=O)[O-])c4F)c4ccc([nH]4)c(-c4cccc(S(=O)(=O)[O-])c4F)c4nc(c(-c5cccc(S(=O)(=O)[O-])c5F)c5ccc2[nH]5)C=C4)C=C3)cc1)c1ccccc1Br
REMARK SMILES IDX 13 1 12 2 11 3 9 4 10 5 8 7 7 8 6 9 1 10 2 11 3 12 4 13 5 14
REMARK SMILES IDX 81 15 82 16 86 17 83 18 85 19 87 20 84 21 14 22 15 23 16 24
REMARK SMILES IDX 17 26 18 27 19 28 80 29 20 30 79 31 21 32 22 33 23 34 73 35
REMARK SMILES IDX 24 36 78 37 72 38 74 39 25 40 77 41 71 42 70 43 26 45 58 46
REMARK SMILES IDX 38 47 57 48 39 49 42 50 56 51 75 52 40 53 41 54 55 56 76 57
REMARK SMILES IDX 43 58 27 59 28 60 36 61 29 62 31 63 37 64 30 65 32 66 33 67
REMARK SMILES IDX 34 68 35 69 59 70 60 71 68 72 61 73 63 74 69 75 62 76 64 77
REMARK SMILES IDX 65 78 66 79 67 80 44 81 45 82 53 83 46 84 48 85 54 86 47 87
REMARK SMILES IDX 49 88 50 89 51 90 52 91
REMARK H PARENT 11 6 15 25 74 44 42 55
REMARK Flexibility Score: inf
ROOT
ATOM      1  C   UNL     1      -2.384  -0.296  -0.610  1.00  0.00     0.042 C 
ENDROOT
BRANCH   1   2
ATOM      2  C   UNL     1      -1.968   0.769  -1.625  1.00  0.00     0.117 C 
BRANCH   2   3
ATOM      3  N   UNL     1      -2.368   2.085  -1.148  1.00  0.00    -0.355 N 
ATOM      4  C   UNL     1      -1.635   3.059  -0.531  1.00  0.00     0.227 C 
ATOM      5  O   UNL     1      -2.246   3.839   0.206  1.00  0.00    -0.274 OA
ATOM      6  H   UNL     1      -3.315   2.308  -1.293  1.00  0.00     0.163 HD
BRANCH   4   7
ATOM      7  C   UNL     1      -0.139   3.251  -0.849  1.00  0.00     0.116 C 
BRANCH   7   8
ATOM      8  C   UNL     1       0.669   2.762   0.383  1.00  0.00     0.080 C 
BRANCH   8   9
ATOM      9  C   UNL     1       0.645   1.313   0.711  1.00  0.00     0.109 A 
ATOM     10  C   UNL     1       2.794   0.330  -0.431  1.00  0.00     0.073 C 
ATOM     11  C   UNL     1       1.550   0.288   0.363  1.00  0.00     0.105 A 
ATOM     12  N   UNL     1       1.162  -0.854   0.931  1.00  0.00    -0.055 NA
ATOM     13  O   UNL     1       0.072  -0.514   1.723  1.00  0.00    -0.244 OA
ATOM     14  N   UNL     1      -0.232   0.837   1.594  1.00  0.00    -0.055 NA
ENDBRANCH   8   9
ENDBRANCH   7   8
BRANCH   7  15
ATOM     15  C   UNL     1       0.153   4.757  -1.169  1.00  0.00    -0.021 A 
ATOM     16  C   UNL     1       1.290   5.399  -0.623  1.00  0.00     0.006 A 
ATOM     17  C   UNL     1      -0.693   5.571  -1.955  1.00  0.00     0.021 A 
ATOM     18  C   UNL     1       1.494   6.779  -0.721  1.00  0.00     0.000 A 
ATOM     19  C   UNL     1      -0.508   6.965  -2.015  1.00  0.00     0.016 A 
ATOM     20  Br  UNL     1      -2.082   4.904  -3.075  1.00  0.00    -0.051 Br
ATOM     21  C   UNL     1       0.570   7.570  -1.379  1.00  0.00     0.001 A 
ENDBRANCH   7  15
ENDBRANCH   4   7
ENDBRANCH   2   3
ENDBRANCH   1   2
BRANCH   1  22
ATOM     22  C   UNL     1      -3.885  -0.550  -0.542  1.00  0.00     0.118 C 
BRANCH  22  23
ATOM     23  N   UNL     1      -4.307  -1.601  -1.448  1.00  0.00    -0.352 N 
ATOM     24  C   UNL     1      -4.583  -2.929  -1.228  1.00  0.00     0.251 C 
ATOM     25  H   UNL     1      -4.415  -1.312  -2.383  1.00  0.00     0.163 HD
ATOM     26  O   UNL     1      -4.703  -3.658  -2.213  1.00  0.00    -0.269 OA
BRANCH  24  27
ATOM     27  C   UNL     1      -4.733  -3.513   0.134  1.00  0.00     0.039 A 
ATOM     28  C   UNL     1      -4.388  -4.859   0.311  1.00  0.00     0.014 A 
ATOM     29  C   UNL     1      -5.300  -2.822   1.207  1.00  0.00     0.014 A 
ATOM     30  C   UNL     1      -4.601  -5.494   1.541  1.00  0.00     0.010 A 
ATOM     31  C   UNL     1      -5.412  -3.425   2.465  1.00  0.00     0.010 A 
ATOM     32  C   UNL     1      -5.109  -4.782   2.639  1.00  0.00    -0.014 A 
BRANCH  32  33
ATOM     33  C   UNL     1      -5.382  -5.462   3.938  1.00  0.00     0.031 A 
ATOM     34  C   UNL     1      -6.784  -5.508   4.503  1.00  0.00     0.074 A 
ATOM     35  C   UNL     1      -4.370  -6.015   4.638  1.00  0.00     0.049 A 
ATOM     36  N   UNL     1      -7.213  -6.067   5.608  1.00  0.00    -0.248 NA
ATOM     37  C   UNL     1      -7.838  -4.815   3.745  1.00  0.00     0.031 C 
ATOM     38  C   UNL     1      -2.957  -5.971   4.259  1.00  0.00     0.029 A 
ATOM     39  N   UNL     1      -4.373  -6.712   5.822  1.00  0.00    -0.354 N 
ATOM     40  C   UNL     1      -8.567  -5.757   5.696  1.00  0.00     0.074 A 
ATOM     41  C   UNL     1      -8.881  -4.927   4.554  1.00  0.00     0.031 C 
ATOM     42  C   UNL     1      -2.233  -6.628   5.179  1.00  0.00     0.029 A 
ATOM     43  C   UNL     1      -3.123  -7.123   6.225  1.00  0.00     0.049 A 
ATOM     44  H   UNL     1      -5.193  -6.900   6.333  1.00  0.00     0.167 HD
ATOM     45  C   UNL     1      -9.479  -6.154   6.616  1.00  0.00     0.034 A 
ATOM     46  C   UNL     1      -2.737  -7.825   7.309  1.00  0.00     0.034 A 
ATOM     47  C   UNL     1      -9.185  -7.030   7.718  1.00  0.00     0.049 A 
ATOM     48  C   UNL     1      -3.781  -8.322   8.273  1.00  0.00     0.074 A 
ATOM     49  C   UNL     1     -10.057  -7.562   8.653  1.00  0.00     0.029 A 
ATOM     50  N   UNL     1      -7.923  -7.508   8.034  1.00  0.00    -0.354 N 
ATOM     51  N   UNL     1      -5.080  -8.152   8.246  1.00  0.00    -0.248 NA
ATOM     52  C   UNL     1      -3.309  -9.150   9.393  1.00  0.00     0.031 C 
ATOM     53  C   UNL     1      -9.318  -8.350   9.543  1.00  0.00     0.029 A 
ATOM     54  C   UNL     1      -7.991  -8.328   9.147  1.00  0.00     0.049 A 
ATOM     55  H   UNL     1      -7.099  -7.295   7.539  1.00  0.00     0.167 HD
ATOM     56  C   UNL     1      -5.584  -8.881   9.318  1.00  0.00     0.074 A 
ATOM     57  C   UNL     1      -4.451  -9.516   9.959  1.00  0.00     0.031 C 
ATOM     58  C   UNL     1      -6.866  -9.001   9.744  1.00  0.00     0.034 A 
BRANCH  45  59
ATOM     59  C   UNL     1     -10.906  -5.694   6.433  1.00  0.00     0.023 A 
ATOM     60  C   UNL     1     -11.675  -6.221   5.375  1.00  0.00     0.012 A 
ATOM     61  C   UNL     1     -11.503  -4.789   7.333  1.00  0.00     0.148 A 
ATOM     62  C   UNL     1     -12.999  -5.825   5.189  1.00  0.00     0.002 A 
ATOM     63  C   UNL     1     -12.838  -4.435   7.170  1.00  0.00     0.091 A 
ATOM     64  F   UNL     1     -10.754  -4.284   8.324  1.00  0.00    -0.205 F 
ATOM     65  C   UNL     1     -13.583  -4.941   6.092  1.00  0.00     0.022 A 
BRANCH  63  66
ATOM     66  S   UNL     1     -13.708  -3.369   8.325  1.00  0.00     0.127 S 
ATOM     67  O   UNL     1     -13.867  -2.147   7.537  1.00  0.00    -0.237 OA
ATOM     68  O   UNL     1     -14.949  -4.110   8.554  1.00  0.00    -0.237 OA
ATOM     69  O   UNL     1     -12.846  -3.254   9.493  1.00  0.00    -0.744 OA
ENDBRANCH  63  66
ENDBRANCH  45  59
BRANCH  46  70
ATOM     70  C   UNL     1      -1.300  -8.181   7.492  1.00  0.00     0.023 A 
ATOM     71  C   UNL     1      -0.895  -9.521   7.333  1.00  0.00     0.012 A 
ATOM     72  C   UNL     1      -0.334  -7.204   7.798  1.00  0.00     0.148 A 
ATOM     73  C   UNL     1       0.440  -9.888   7.510  1.00  0.00     0.002 A 
ATOM     74  C   UNL     1       1.003  -7.567   7.919  1.00  0.00     0.091 A 
ATOM     75  F   UNL     1      -0.740  -5.936   7.958  1.00  0.00    -0.205 F 
ATOM     76  C   UNL     1       1.389  -8.911   7.793  1.00  0.00     0.022 A 
BRANCH  74  77
ATOM     77  S   UNL     1       2.313  -6.361   8.155  1.00  0.00     0.127 S 
ATOM     78  O   UNL     1       2.704  -6.609   9.540  1.00  0.00    -0.237 OA
ATOM     79  O   UNL     1       3.294  -6.777   7.153  1.00  0.00    -0.237 OA
ATOM     80  O   UNL     1       1.702  -5.063   7.892  1.00  0.00    -0.744 OA
ENDBRANCH  74  77
ENDBRANCH  46  70
BRANCH  58  81
ATOM     81  C   UNL     1      -7.124  -9.883  10.938  1.00  0.00     0.023 A 
ATOM     82  C   UNL     1      -6.712  -9.470  12.220  1.00  0.00     0.012 A 
ATOM     83  C   UNL     1      -7.819 -11.101  10.797  1.00  0.00     0.148 A 
ATOM     84  C   UNL     1      -6.946 -10.273  13.335  1.00  0.00     0.002 A 
ATOM     85  C   UNL     1      -8.094 -11.873  11.920  1.00  0.00     0.091 A 
ATOM     86  F   UNL     1      -8.188 -11.491   9.568  1.00  0.00    -0.205 F 
ATOM     87  C   UNL     1      -7.646 -11.469  13.187  1.00  0.00     0.022 A 
BRANCH  85  88
ATOM     88  S   UNL     1      -9.074 -13.376  11.827  1.00  0.00     0.127 S 
ATOM     89  O   UNL     1      -8.042 -14.410  11.878  1.00  0.00    -0.237 OA
ATOM     90  O   UNL     1      -9.905 -13.285  13.029  1.00  0.00    -0.237 OA
ATOM     91  O   UNL     1      -9.817 -13.287  10.578  1.00  0.00    -0.744 OA
ENDBRANCH  85  88
ENDBRANCH  58  81
ENDBRANCH  32  33
ENDBRANCH  24  27
ENDBRANCH  22  23
ENDBRANCH   1  22
TORSDOF 16
