REMARK SMILES Cc1cc2c(c(C)c1Cl)C=C(C(=O)NCCCNC(=O)c1ccc(-c3c4nc(c(-c5cccc(S(=O)(=O)[O-])c5F)c5ccc([nH]5)c(-c5cccc(S(=O)(=O)[O-])c5F)c5nc(c(-c6cccc(S(=O)(=O)[O-])c6F)c6ccc3[nH]6)C=C5)C=C4)cc1)[C@@H](C(F)(F)F)O2
REMARK SMILES IDX 17 1 16 2 15 3 14 4 12 5 13 6 11 8 1 9 2 10 3 11 8 12 4 13
REMARK SMILES IDX 6 14 9 15 5 16 89 17 7 18 10 19 84 20 85 21 86 22 87 23
REMARK SMILES IDX 88 24 18 25 19 26 20 28 21 29 22 30 83 31 23 32 82 33 24 34
REMARK SMILES IDX 25 35 26 36 76 37 27 38 81 39 75 40 77 41 28 42 80 43 74 44
REMARK SMILES IDX 73 45 29 47 61 48 41 49 60 50 42 51 45 52 59 53 78 54 43 55
REMARK SMILES IDX 44 56 58 58 79 59 46 60 30 61 31 62 39 63 32 64 34 65 40 66
REMARK SMILES IDX 33 67 35 68 36 69 37 70 38 71 62 72 63 73 71 74 64 75 66 76
REMARK SMILES IDX 72 77 65 78 67 79 68 80 69 81 70 82 47 83 48 84 56 85 49 86
REMARK SMILES IDX 51 87 57 88 50 89 52 90 53 91 54 92 55 93
REMARK H PARENT 14 7 18 27 77 46 45 57
REMARK Flexibility Score: inf
ROOT
ATOM      1  C   UNL     1      -6.711   7.926  -0.821  1.00  0.00     0.118 C 
ENDROOT
BRANCH   1   2
ATOM      2  C   UNL     1      -6.021   6.569  -0.839  1.00  0.00     0.042 C 
BRANCH   2   3
ATOM      3  C   UNL     1      -4.901   6.509  -1.865  1.00  0.00     0.118 C 
BRANCH   3   4
ATOM      4  N   UNL     1      -3.702   7.197  -1.407  1.00  0.00    -0.352 N 
ATOM      5  C   UNL     1      -2.454   6.859  -1.009  1.00  0.00     0.251 C 
ATOM      6  O   UNL     1      -1.718   7.808  -0.719  1.00  0.00    -0.270 OA
ATOM      7  H   UNL     1      -3.836   8.172  -1.381  1.00  0.00     0.163 HD
BRANCH   5   8
ATOM      8  C   UNL     1      -1.932   5.464  -0.917  1.00  0.00     0.067 C 
ATOM      9  C   UNL     1       1.296  -0.091   0.067  1.00  0.00     0.046 C 
ATOM     10  C   UNL     1       0.879   1.348  -0.071  1.00  0.00    -0.028 A 
ATOM     11  C   UNL     1      -0.456   1.594  -0.400  1.00  0.00     0.052 A 
ATOM     12  C   UNL     1       1.729   2.445   0.180  1.00  0.00     0.047 A 
ATOM     13  C   UNL     1      -0.928   2.895  -0.520  1.00  0.00     0.128 A 
ATOM     14  C   UNL     1       1.259   3.779   0.060  1.00  0.00    -0.021 A 
ATOM     15  Cl  UNL     1       3.370   2.132   0.659  1.00  0.00    -0.084 Cl
ATOM     16  C   UNL     1      -0.095   3.994  -0.292  1.00  0.00     0.022 A 
ATOM     17  O   UNL     1      -2.253   3.003  -0.824  1.00  0.00    -0.475 OA
ATOM     18  C   UNL     1       2.158   4.968   0.310  1.00  0.00     0.047 C 
ATOM     19  C   UNL     1      -0.701   5.327  -0.391  1.00  0.00     0.026 C 
ATOM     20  C   UNL     1      -2.684   4.261  -1.397  1.00  0.00     0.314 C 
BRANCH  20  21
ATOM     21  C   UNL     1      -2.692   4.142  -2.933  1.00  0.00     0.429 C 
ATOM     22  F   UNL     1      -3.673   3.299  -3.342  1.00  0.00    -0.167 F 
ATOM     23  F   UNL     1      -2.923   5.326  -3.550  1.00  0.00    -0.167 F 
ATOM     24  F   UNL     1      -1.524   3.671  -3.425  1.00  0.00    -0.167 F 
ENDBRANCH  20  21
ENDBRANCH   5   8
ENDBRANCH   3   4
ENDBRANCH   2   3
ENDBRANCH   1   2
BRANCH   1  25
ATOM     25  N   UNL     1      -7.359   8.222  -2.097  1.00  0.00    -0.352 N 
ATOM     26  C   UNL     1      -8.688   8.203  -2.438  1.00  0.00     0.251 C 
ATOM     27  H   UNL     1      -6.747   8.473  -2.826  1.00  0.00     0.163 HD
ATOM     28  O   UNL     1      -9.012   8.198  -3.624  1.00  0.00    -0.269 OA
BRANCH  26  29
ATOM     29  C   UNL     1      -9.718   8.194  -1.383  1.00  0.00     0.039 A 
ATOM     30  C   UNL     1     -10.862   7.409  -1.542  1.00  0.00     0.014 A 
ATOM     31  C   UNL     1      -9.559   8.985  -0.243  1.00  0.00     0.014 A 
ATOM     32  C   UNL     1     -11.817   7.373  -0.525  1.00  0.00     0.010 A 
ATOM     33  C   UNL     1     -10.453   8.866   0.810  1.00  0.00     0.010 A 
ATOM     34  C   UNL     1     -11.603   8.078   0.671  1.00  0.00    -0.014 A 
BRANCH  34  35
ATOM     35  C   UNL     1     -12.578   8.033   1.786  1.00  0.00     0.031 A 
ATOM     36  C   UNL     1     -13.253   9.298   2.241  1.00  0.00     0.074 A 
ATOM     37  C   UNL     1     -12.787   6.873   2.439  1.00  0.00     0.049 A 
ATOM     38  N   UNL     1     -14.085   9.475   3.233  1.00  0.00    -0.248 NA
ATOM     39  C   UNL     1     -12.928  10.534   1.506  1.00  0.00     0.031 C 
ATOM     40  C   UNL     1     -12.127   5.602   2.136  1.00  0.00     0.029 A 
ATOM     41  N   UNL     1     -13.597   6.580   3.507  1.00  0.00    -0.354 N 
ATOM     42  C   UNL     1     -14.354  10.838   3.261  1.00  0.00     0.074 A 
ATOM     43  C   UNL     1     -13.560  11.451   2.222  1.00  0.00     0.031 C 
ATOM     44  C   UNL     1     -12.573   4.662   2.983  1.00  0.00     0.029 A 
ATOM     45  C   UNL     1     -13.523   5.268   3.911  1.00  0.00     0.049 A 
ATOM     46  H   UNL     1     -14.177   7.247   3.942  1.00  0.00     0.167 HD
ATOM     47  C   UNL     1     -15.217  11.513   4.055  1.00  0.00     0.034 A 
ATOM     48  C   UNL     1     -14.150   4.627   4.917  1.00  0.00     0.034 A 
ATOM     49  C   UNL     1     -16.041  10.885   5.050  1.00  0.00     0.049 A 
ATOM     50  C   UNL     1     -15.131   5.392   5.764  1.00  0.00     0.074 A 
ATOM     51  C   UNL     1     -17.012  11.462   5.847  1.00  0.00     0.029 A 
ATOM     52  N   UNL     1     -15.991   9.540   5.385  1.00  0.00    -0.354 N 
ATOM     53  N   UNL     1     -15.487   6.651   5.678  1.00  0.00    -0.248 NA
ATOM     54  C   UNL     1     -15.822   4.645   6.825  1.00  0.00     0.031 C 
ATOM     55  C   UNL     1     -17.530  10.471   6.686  1.00  0.00     0.029 A 
ATOM     56  C   UNL     1     -16.904   9.270   6.388  1.00  0.00     0.049 A 
ATOM     57  H   UNL     1     -15.395   8.876   4.970  1.00  0.00     0.167 HD
ATOM     58  C   UNL     1     -16.460   6.843   6.652  1.00  0.00     0.074 A 
ATOM     59  C   UNL     1     -16.655   5.561   7.301  1.00  0.00     0.031 C 
ATOM     60  C   UNL     1     -17.118   7.979   6.992  1.00  0.00     0.034 A 
BRANCH  47  61
ATOM     61  C   UNL     1     -15.366  12.996   3.836  1.00  0.00     0.023 A 
ATOM     62  C   UNL     1     -15.997  13.464   2.665  1.00  0.00     0.012 A 
ATOM     63  C   UNL     1     -14.955  13.921   4.816  1.00  0.00     0.148 A 
ATOM     64  C   UNL     1     -16.190  14.829   2.458  1.00  0.00     0.002 A 
ATOM     65  C   UNL     1     -15.197  15.276   4.625  1.00  0.00     0.091 A 
ATOM     66  F   UNL     1     -14.336  13.459   5.911  1.00  0.00    -0.205 F 
ATOM     67  C   UNL     1     -15.803  15.733   3.442  1.00  0.00     0.022 A 
BRANCH  65  68
ATOM     68  S   UNL     1     -14.818  16.516   5.869  1.00  0.00     0.127 S 
ATOM     69  O   UNL     1     -13.740  17.262   5.223  1.00  0.00    -0.237 OA
ATOM     70  O   UNL     1     -16.085  17.241   5.973  1.00  0.00    -0.237 OA
ATOM     71  O   UNL     1     -14.435  15.781   7.066  1.00  0.00    -0.744 OA
ENDBRANCH  65  68
ENDBRANCH  47  61
BRANCH  48  72
ATOM     72  C   UNL     1     -13.927   3.166   5.110  1.00  0.00     0.023 A 
ATOM     73  C   UNL     1     -14.963   2.264   4.797  1.00  0.00     0.012 A 
ATOM     74  C   UNL     1     -12.680   2.659   5.527  1.00  0.00     0.148 A 
ATOM     75  C   UNL     1     -14.768   0.887   4.913  1.00  0.00     0.002 A 
ATOM     76  C   UNL     1     -12.474   1.285   5.583  1.00  0.00     0.091 A 
ATOM     77  F   UNL     1     -11.709   3.533   5.828  1.00  0.00    -0.205 F 
ATOM     78  C   UNL     1     -13.522   0.398   5.293  1.00  0.00     0.022 A 
BRANCH  76  79
ATOM     79  S   UNL     1     -10.864   0.561   5.917  1.00  0.00     0.127 S 
ATOM     80  O   UNL     1     -11.090  -0.094   7.203  1.00  0.00    -0.237 OA
ATOM     81  O   UNL     1     -10.704  -0.348   4.781  1.00  0.00    -0.237 OA
ATOM     82  O   UNL     1      -9.925   1.674   5.933  1.00  0.00    -0.744 OA
ENDBRANCH  76  79
ENDBRANCH  48  72
BRANCH  60  83
ATOM     83  C   UNL     1     -18.124   7.906   8.111  1.00  0.00     0.023 A 
ATOM     84  C   UNL     1     -17.676   7.775   9.440  1.00  0.00     0.012 A 
ATOM     85  C   UNL     1     -19.497   8.095   7.858  1.00  0.00     0.148 A 
ATOM     86  C   UNL     1     -18.581   7.813  10.499  1.00  0.00     0.002 A 
ATOM     87  C   UNL     1     -20.387   8.187   8.922  1.00  0.00     0.091 A 
ATOM     88  F   UNL     1     -19.904   8.204   6.585  1.00  0.00    -0.205 F 
ATOM     89  C   UNL     1     -19.932   8.035  10.242  1.00  0.00     0.022 A 
BRANCH  87  90
ATOM     90  S   UNL     1     -22.125   8.582   8.697  1.00  0.00     0.127 S 
ATOM     91  O   UNL     1     -22.766   7.320   9.062  1.00  0.00    -0.237 OA
ATOM     92  O   UNL     1     -22.322   9.667   9.659  1.00  0.00    -0.237 OA
ATOM     93  O   UNL     1     -22.273   8.974   7.302  1.00  0.00    -0.744 OA
ENDBRANCH  87  90
ENDBRANCH  60  83
ENDBRANCH  34  35
ENDBRANCH  26  29
ENDBRANCH   1  25
TORSDOF 14
