REMARK SMILES Cc1ccc(Cl)c(Nc2ccccc2C(=O)N[C@@H](C)C(=O)NCCCNC(=O)c2ccc(-c3c4nc(c(-c5cccc(S(=O)(=O)[O-])c5F)c5ccc([nH]5)c(-c5cccc(S(=O)(=O)[O-])c5F)c5nc(c(-c6cccc(S(=O)(=O)[O-])c6F)c6ccc3[nH]6)C=C5)C=C4)cc2)c1Cl
REMARK SMILES IDX 23 1 22 2 20 3 21 4 18 6 19 7 17 8 15 9 16 10 14 12 9 13
REMARK SMILES IDX 10 14 11 15 13 16 12 17 8 18 7 20 1 21 2 22 3 23 92 24 4 25
REMARK SMILES IDX 93 26 5 27 6 28 24 29 25 30 26 31 27 32 28 34 29 35 30 36
REMARK SMILES IDX 91 37 31 38 90 39 32 40 33 41 34 42 84 43 35 44 89 45 83 46
REMARK SMILES IDX 85 47 36 48 88 49 82 50 81 51 37 53 69 54 49 55 68 56 50 57
REMARK SMILES IDX 53 58 67 59 86 60 51 61 52 62 66 64 87 65 54 66 38 67 39 68
REMARK SMILES IDX 47 69 40 70 42 71 48 72 41 73 43 74 44 75 45 76 46 77 70 78
REMARK SMILES IDX 71 79 79 80 72 81 74 82 80 83 73 84 75 85 76 86 77 87 78 88
REMARK SMILES IDX 55 89 56 90 64 91 57 92 59 93 65 94 58 95 60 96 61 97 62 98
REMARK SMILES IDX 63 99
REMARK H PARENT 22 5 17 11 8 19 26 33 85 52 53 63
REMARK Flexibility Score: inf
ROOT
ATOM      1  C   UNL     1      -1.865   1.718   3.307  1.00  0.00     0.117 C 
ENDROOT
BRANCH   1   2
ATOM      2  N   UNL     1      -1.812   1.093   1.992  1.00  0.00    -0.354 N 
ATOM      3  C   UNL     1      -0.794   0.212   1.738  1.00  0.00     0.242 C 
ATOM      4  O   UNL     1       0.296   0.680   1.416  1.00  0.00    -0.273 OA
ATOM      5  H   UNL     1      -2.489   1.298   1.306  1.00  0.00     0.163 HD
BRANCH   3   6
ATOM      6  C   UNL     1      -1.076  -1.308   1.813  1.00  0.00     0.168 C 
ATOM      7  C   UNL     1      -2.344  -1.689   2.560  1.00  0.00     0.041 C 
BRANCH   6   8
ATOM      8  N   UNL     1       0.114  -1.874   2.430  1.00  0.00    -0.340 N 
ATOM      9  C   UNL     1       1.292  -2.243   1.821  1.00  0.00     0.254 C 
ATOM     10  O   UNL     1       2.329  -1.967   2.429  1.00  0.00    -0.269 OA
ATOM     11  H   UNL     1       0.072  -2.009   3.405  1.00  0.00     0.164 HD
BRANCH   9  12
ATOM     12  C   UNL     1       1.375  -3.208   0.683  1.00  0.00     0.063 A 
ATOM     13  C   UNL     1       0.751  -3.193  -0.580  1.00  0.00     0.051 A 
ATOM     14  C   UNL     1       0.967  -4.300  -1.440  1.00  0.00     0.027 A 
ATOM     15  C   UNL     1       1.822  -5.351  -1.111  1.00  0.00     0.002 A 
ATOM     16  C   UNL     1       2.252  -4.282   0.987  1.00  0.00     0.016 A 
ATOM     17  C   UNL     1       2.485  -5.332   0.101  1.00  0.00     0.001 A 
BRANCH  13  18
ATOM     18  N   UNL     1       0.011  -2.149  -1.167  1.00  0.00    -0.352 N 
ATOM     19  H   UNL     1      -0.866  -2.444  -1.503  1.00  0.00     0.167 HD
BRANCH  18  20
ATOM     20  C   UNL     1       0.248  -0.766  -1.381  1.00  0.00     0.077 A 
ATOM     21  C   UNL     1       2.849   2.022  -0.923  1.00  0.00     0.046 C 
ATOM     22  C   UNL     1       1.570   1.303  -1.265  1.00  0.00    -0.030 A 
ATOM     23  C   UNL     1       0.422   2.062  -1.538  1.00  0.00     0.006 A 
ATOM     24  C   UNL     1       1.490  -0.111  -1.240  1.00  0.00     0.069 A 
ATOM     25  C   UNL     1      -0.795   1.435  -1.766  1.00  0.00     0.023 A 
ATOM     26  Cl  UNL     1       2.977  -1.007  -1.151  1.00  0.00    -0.082 Cl
ATOM     27  C   UNL     1      -0.880   0.046  -1.673  1.00  0.00     0.066 A 
ATOM     28  Cl  UNL     1      -2.451  -0.666  -1.891  1.00  0.00    -0.082 Cl
ENDBRANCH  18  20
ENDBRANCH  13  18
ENDBRANCH   9  12
ENDBRANCH   6   8
ENDBRANCH   3   6
ENDBRANCH   1   2
BRANCH   1  29
ATOM     29  C   UNL     1      -0.646   2.588   3.639  1.00  0.00     0.042 C 
BRANCH  29  30
ATOM     30  C   UNL     1      -0.357   3.687   2.620  1.00  0.00     0.118 C 
BRANCH  30  31
ATOM     31  N   UNL     1      -1.470   4.620   2.498  1.00  0.00    -0.352 N 
ATOM     32  C   UNL     1      -1.669   5.827   3.120  1.00  0.00     0.251 C 
ATOM     33  H   UNL     1      -2.183   4.345   1.877  1.00  0.00     0.163 HD
ATOM     34  O   UNL     1      -2.791   6.327   3.124  1.00  0.00    -0.269 OA
BRANCH  32  35
ATOM     35  C   UNL     1      -0.544   6.517   3.786  1.00  0.00     0.039 A 
ATOM     36  C   UNL     1      -0.744   7.096   5.042  1.00  0.00     0.014 A 
ATOM     37  C   UNL     1       0.694   6.633   3.149  1.00  0.00     0.014 A 
ATOM     38  C   UNL     1       0.314   7.748   5.680  1.00  0.00     0.010 A 
ATOM     39  C   UNL     1       1.766   7.216   3.819  1.00  0.00     0.010 A 
ATOM     40  C   UNL     1       1.585   7.795   5.083  1.00  0.00    -0.014 A 
BRANCH  40  41
ATOM     41  C   UNL     1       2.735   8.454   5.755  1.00  0.00     0.031 A 
ATOM     42  C   UNL     1       3.394   9.652   5.124  1.00  0.00     0.074 A 
ATOM     43  C   UNL     1       3.242   7.921   6.885  1.00  0.00     0.049 A 
ATOM     44  N   UNL     1       4.442  10.325   5.525  1.00  0.00    -0.248 NA
ATOM     45  C   UNL     1       2.818  10.143   3.861  1.00  0.00     0.031 C 
ATOM     46  C   UNL     1       2.745   6.715   7.550  1.00  0.00     0.029 A 
ATOM     47  N   UNL     1       4.307   8.310   7.658  1.00  0.00    -0.354 N 
ATOM     48  C   UNL     1       4.677  11.283   4.546  1.00  0.00     0.074 A 
ATOM     49  C   UNL     1       3.681  11.087   3.516  1.00  0.00     0.031 C 
ATOM     50  C   UNL     1       3.498   6.467   8.634  1.00  0.00     0.029 A 
ATOM     51  C   UNL     1       4.548   7.477   8.726  1.00  0.00     0.049 A 
ATOM     52  H   UNL     1       4.848   9.110   7.467  1.00  0.00     0.167 HD
ATOM     53  C   UNL     1       5.617  12.258   4.519  1.00  0.00     0.034 A 
ATOM     54  C   UNL     1       5.507   7.521   9.672  1.00  0.00     0.034 A 
ATOM     55  C   UNL     1       6.569  12.484   5.573  1.00  0.00     0.049 A 
ATOM     56  C   UNL     1       6.503   8.650   9.649  1.00  0.00     0.074 A 
ATOM     57  C   UNL     1       7.498  13.503   5.689  1.00  0.00     0.029 A 
ATOM     58  N   UNL     1       6.717  11.678   6.690  1.00  0.00    -0.354 N 
ATOM     59  N   UNL     1       6.604   9.645   8.802  1.00  0.00    -0.248 NA
ATOM     60  C   UNL     1       7.492   8.685  10.736  1.00  0.00     0.031 C 
ATOM     61  C   UNL     1       8.221  13.302   6.869  1.00  0.00     0.029 A 
ATOM     62  C   UNL     1       7.725  12.173   7.500  1.00  0.00     0.049 A 
ATOM     63  H   UNL     1       6.185  10.873   6.880  1.00  0.00     0.167 HD
ATOM     64  C   UNL     1       7.636  10.447   9.276  1.00  0.00     0.074 A 
ATOM     65  C   UNL     1       8.117   9.830  10.495  1.00  0.00     0.031 C 
ATOM     66  C   UNL     1       8.149  11.584   8.744  1.00  0.00     0.034 A 
BRANCH  53  67
ATOM     67  C   UNL     1       5.625  13.194   3.338  1.00  0.00     0.023 A 
ATOM     68  C   UNL     1       4.590  14.140   3.193  1.00  0.00     0.012 A 
ATOM     69  C   UNL     1       6.682  13.180   2.406  1.00  0.00     0.148 A 
ATOM     70  C   UNL     1       4.585  15.032   2.122  1.00  0.00     0.002 A 
ATOM     71  C   UNL     1       6.694  14.103   1.366  1.00  0.00     0.091 A 
ATOM     72  F   UNL     1       7.648  12.261   2.547  1.00  0.00    -0.205 F 
ATOM     73  C   UNL     1       5.642  15.021   1.216  1.00  0.00     0.022 A 
BRANCH  71  74
ATOM     74  S   UNL     1       8.050  14.224   0.193  1.00  0.00     0.127 S 
ATOM     75  O   UNL     1       7.433  13.700  -1.025  1.00  0.00    -0.237 OA
ATOM     76  O   UNL     1       8.312  15.664   0.172  1.00  0.00    -0.237 OA
ATOM     77  O   UNL     1       9.131  13.419   0.744  1.00  0.00    -0.744 OA
ENDBRANCH  71  74
ENDBRANCH  53  67
BRANCH  54  78
ATOM     78  C   UNL     1       5.521   6.513  10.770  1.00  0.00     0.023 A 
ATOM     79  C   UNL     1       5.182   6.917  12.077  1.00  0.00     0.012 A 
ATOM     80  C   UNL     1       5.844   5.164  10.531  1.00  0.00     0.148 A 
ATOM     81  C   UNL     1       5.199   6.005  13.132  1.00  0.00     0.002 A 
ATOM     82  C   UNL     1       5.806   4.248  11.577  1.00  0.00     0.091 A 
ATOM     83  F   UNL     1       6.174   4.801   9.284  1.00  0.00    -0.205 F 
ATOM     84  C   UNL     1       5.502   4.670  12.881  1.00  0.00     0.022 A 
BRANCH  82  85
ATOM     85  S   UNL     1       6.056   2.487  11.323  1.00  0.00     0.127 S 
ATOM     86  O   UNL     1       7.367   2.281  11.938  1.00  0.00    -0.237 OA
ATOM     87  O   UNL     1       4.932   1.914  12.069  1.00  0.00    -0.237 OA
ATOM     88  O   UNL     1       5.989   2.285   9.887  1.00  0.00    -0.744 OA
ENDBRANCH  82  85
ENDBRANCH  54  78
BRANCH  66  89
ATOM     89  C   UNL     1       9.256  12.272   9.498  1.00  0.00     0.023 A 
ATOM     90  C   UNL     1      10.548  11.710   9.519  1.00  0.00     0.012 A 
ATOM     91  C   UNL     1       9.032  13.517  10.119  1.00  0.00     0.148 A 
ATOM     92  C   UNL     1      11.592  12.361  10.176  1.00  0.00     0.002 A 
ATOM     93  C   UNL     1      10.089  14.183  10.728  1.00  0.00     0.091 A 
ATOM     94  F   UNL     1       7.792  14.026  10.105  1.00  0.00    -0.205 F 
ATOM     95  C   UNL     1      11.366  13.601  10.769  1.00  0.00     0.022 A 
BRANCH  93  96
ATOM     96  S   UNL     1       9.910  15.828  11.428  1.00  0.00     0.127 S 
ATOM     97  O   UNL     1       9.919  15.546  12.862  1.00  0.00    -0.237 OA
ATOM     98  O   UNL     1      11.107  16.510  10.932  1.00  0.00    -0.237 OA
ATOM     99  O   UNL     1       8.657  16.353  10.900  1.00  0.00    -0.744 OA
ENDBRANCH  93  96
ENDBRANCH  66  89
ENDBRANCH  40  41
ENDBRANCH  32  35
ENDBRANCH  30  31
ENDBRANCH  29  30
ENDBRANCH   1  29
TORSDOF 17
