REMARK SMILES Cc1c(Cc2ccccc2)c(=O)oc2c(C)c(O[C@H](C)C(=O)NCCCNC(=O)c3ccc(-c4c5nc(c(-c6cccc(S(=O)(=O)[O-])c6F)c6ccc([nH]6)c(-c6cccc(S(=O)(=O)[O-])c6F)c6nc(c(-c7cccc(S(=O)(=O)[O-])c7F)c7ccc4[nH]7)C=C6)C=C5)cc3)ccc12
REMARK SMILES IDX 24 1 23 2 21 3 22 4 19 6 20 7 18 8 17 9 1 10 2 11 3 12 95 13
REMARK SMILES IDX 11 14 14 15 94 16 12 17 13 18 15 19 93 20 16 21 4 22 5 23
REMARK SMILES IDX 6 24 10 25 7 26 9 27 8 28 25 29 26 30 27 31 28 32 29 34
REMARK SMILES IDX 30 35 31 36 92 37 32 38 91 39 33 40 34 41 35 42 85 43 36 44
REMARK SMILES IDX 90 45 84 46 86 47 37 48 89 49 83 50 82 51 38 53 70 54 50 55
REMARK SMILES IDX 69 56 51 57 54 58 68 59 87 60 52 61 53 62 67 64 88 65 55 66
REMARK SMILES IDX 39 67 40 68 48 69 41 70 43 71 49 72 42 73 44 74 45 75 46 76
REMARK SMILES IDX 47 77 71 78 72 79 80 80 73 81 75 82 81 83 74 84 76 85 77 86
REMARK SMILES IDX 78 87 79 88 56 89 57 90 65 91 58 92 60 93 66 94 59 95 61 96
REMARK SMILES IDX 62 97 63 98 64 99
REMARK H PARENT 23 5 27 33 86 52 54 63
REMARK Flexibility Score: inf
ROOT
ATOM      1  C   UNL     1       1.868   3.268  -3.652  1.00  0.00     0.118 C 
ENDROOT
BRANCH   1   2
ATOM      2  N   UNL     1       1.679   4.624  -4.123  1.00  0.00    -0.353 N 
ATOM      3  C   UNL     1       2.138   5.825  -3.698  1.00  0.00     0.260 C 
ATOM      4  O   UNL     1       1.664   6.804  -4.297  1.00  0.00    -0.271 OA
ATOM      5  H   UNL     1       1.097   4.686  -4.914  1.00  0.00     0.163 HD
BRANCH   3   6
ATOM      6  C   UNL     1       3.210   6.074  -2.581  1.00  0.00     0.258 C 
ATOM      7  C   UNL     1       2.678   7.051  -1.522  1.00  0.00     0.064 C 
BRANCH   6   8
ATOM      8  O   UNL     1       4.254   5.274  -2.088  1.00  0.00    -0.480 OA
BRANCH   8   9
ATOM      9  C   UNL     1       4.228   4.153  -1.334  1.00  0.00     0.127 A 
ATOM     10  C   UNL     1       6.226   0.010   1.033  1.00  0.00     0.046 C 
ATOM     11  C   UNL     1       4.838   0.350   0.569  1.00  0.00    -0.029 A 
ATOM     12  C   UNL     1       3.742  -0.418   0.746  1.00  0.00     0.046 A 
ATOM     13  C   UNL     1       4.673   1.641  -0.111  1.00  0.00     0.021 A 
ATOM     14  C   UNL     1       2.396   0.168   0.474  1.00  0.00     0.340 A 
ATOM     15  C   UNL     1       3.441   2.285  -0.042  1.00  0.00     0.145 A 
ATOM     16  C   UNL     1       5.696   2.259  -0.820  1.00  0.00     0.016 A 
ATOM     17  O   UNL     1       1.383  -0.517   0.403  1.00  0.00    -0.246 OA
ATOM     18  O   UNL     1       2.338   1.561   0.461  1.00  0.00    -0.422 OA
ATOM     19  C   UNL     1       3.217   3.591  -0.548  1.00  0.00     0.035 A 
ATOM     20  C   UNL     1       5.458   3.479  -1.446  1.00  0.00     0.047 A 
ATOM     21  C   UNL     1       1.976   4.319  -0.126  1.00  0.00     0.052 C 
BRANCH  12  22
ATOM     22  C   UNL     1       3.730  -1.828   1.297  1.00  0.00     0.079 C 
BRANCH  22  23
ATOM     23  C   UNL     1       4.108  -2.897   0.284  1.00  0.00    -0.043 A 
ATOM     24  C   UNL     1       3.123  -3.695  -0.315  1.00  0.00     0.004 A 
ATOM     25  C   UNL     1       5.447  -3.124  -0.070  1.00  0.00     0.004 A 
ATOM     26  C   UNL     1       3.473  -4.686  -1.238  1.00  0.00     0.000 A 
ATOM     27  C   UNL     1       5.795  -4.095  -1.011  1.00  0.00     0.000 A 
ATOM     28  C   UNL     1       4.807  -4.881  -1.593  1.00  0.00     0.000 A 
ENDBRANCH  22  23
ENDBRANCH  12  22
ENDBRANCH   8   9
ENDBRANCH   6   8
ENDBRANCH   3   6
ENDBRANCH   1   2
BRANCH   1  29
ATOM     29  C   UNL     1       0.705   2.825  -2.766  1.00  0.00     0.042 C 
BRANCH  29  30
ATOM     30  C   UNL     1      -0.451   2.213  -3.544  1.00  0.00     0.118 C 
BRANCH  30  31
ATOM     31  N   UNL     1      -0.165   0.841  -3.934  1.00  0.00    -0.352 N 
ATOM     32  C   UNL     1      -0.665  -0.335  -3.425  1.00  0.00     0.251 C 
ATOM     33  H   UNL     1       0.481   0.740  -4.670  1.00  0.00     0.163 HD
ATOM     34  O   UNL     1      -0.126  -1.397  -3.724  1.00  0.00    -0.269 OA
BRANCH  32  35
ATOM     35  C   UNL     1      -1.854  -0.330  -2.542  1.00  0.00     0.039 A 
ATOM     36  C   UNL     1      -1.884  -1.176  -1.430  1.00  0.00     0.014 A 
ATOM     37  C   UNL     1      -2.967   0.459  -2.848  1.00  0.00     0.014 A 
ATOM     38  C   UNL     1      -3.019  -1.211  -0.612  1.00  0.00     0.010 A 
ATOM     39  C   UNL     1      -4.062   0.485  -1.989  1.00  0.00     0.010 A 
ATOM     40  C   UNL     1      -4.113  -0.373  -0.881  1.00  0.00    -0.014 A 
BRANCH  40  41
ATOM     41  C   UNL     1      -5.348  -0.418  -0.060  1.00  0.00     0.031 A 
ATOM     42  C   UNL     1      -6.637  -0.889  -0.680  1.00  0.00     0.074 A 
ATOM     43  C   UNL     1      -5.333   0.019   1.213  1.00  0.00     0.049 A 
ATOM     44  N   UNL     1      -7.833  -0.945  -0.154  1.00  0.00    -0.248 NA
ATOM     45  C   UNL     1      -6.580  -1.334  -2.084  1.00  0.00     0.031 C 
ATOM     46  C   UNL     1      -4.161   0.548   1.912  1.00  0.00     0.029 A 
ATOM     47  N   UNL     1      -6.342   0.106   2.140  1.00  0.00    -0.354 N 
ATOM     48  C   UNL     1      -8.669  -1.403  -1.164  1.00  0.00     0.074 A 
ATOM     49  C   UNL     1      -7.856  -1.572  -2.347  1.00  0.00     0.031 C 
ATOM     50  C   UNL     1      -4.514   0.894   3.160  1.00  0.00     0.029 A 
ATOM     51  C   UNL     1      -5.940   0.632   3.344  1.00  0.00     0.049 A 
ATOM     52  H   UNL     1      -7.266  -0.181   1.959  1.00  0.00     0.167 HD
ATOM     53  C   UNL     1      -9.989  -1.696  -1.105  1.00  0.00     0.034 A 
ATOM     54  C   UNL     1      -6.638   0.871   4.472  1.00  0.00     0.034 A 
ATOM     55  C   UNL     1     -10.786  -1.581   0.083  1.00  0.00     0.049 A 
ATOM     56  C   UNL     1      -8.099   0.518   4.525  1.00  0.00     0.074 A 
ATOM     57  C   UNL     1     -12.115  -1.921   0.260  1.00  0.00     0.029 A 
ATOM     58  N   UNL     1     -10.328  -1.094   1.296  1.00  0.00    -0.354 N 
ATOM     59  N   UNL     1      -8.848  -0.015   3.591  1.00  0.00    -0.248 NA
ATOM     60  C   UNL     1      -8.804   0.773   5.790  1.00  0.00     0.031 C 
ATOM     61  C   UNL     1     -12.464  -1.631   1.582  1.00  0.00     0.029 A 
ATOM     62  C   UNL     1     -11.348  -1.122   2.229  1.00  0.00     0.049 A 
ATOM     63  H   UNL     1      -9.413  -0.776   1.469  1.00  0.00     0.167 HD
ATOM     64  C   UNL     1     -10.106  -0.183   4.160  1.00  0.00     0.074 A 
ATOM     65  C   UNL     1     -10.016   0.298   5.523  1.00  0.00     0.031 C 
ATOM     66  C   UNL     1     -11.232  -0.682   3.596  1.00  0.00     0.034 A 
BRANCH  53  67
ATOM     67  C   UNL     1     -10.636  -2.247  -2.345  1.00  0.00     0.023 A 
ATOM     68  C   UNL     1     -10.385  -3.584  -2.713  1.00  0.00     0.012 A 
ATOM     69  C   UNL     1     -11.531  -1.473  -3.108  1.00  0.00     0.148 A 
ATOM     70  C   UNL     1     -10.996  -4.139  -3.835  1.00  0.00     0.002 A 
ATOM     71  C   UNL     1     -12.163  -2.043  -4.208  1.00  0.00     0.091 A 
ATOM     72  F   UNL     1     -11.741  -0.199  -2.749  1.00  0.00    -0.205 F 
ATOM     73  C   UNL     1     -11.891  -3.372  -4.576  1.00  0.00     0.022 A 
BRANCH  71  74
ATOM     74  S   UNL     1     -13.371  -1.161  -5.203  1.00  0.00     0.127 S 
ATOM     75  O   UNL     1     -12.668  -1.038  -6.479  1.00  0.00    -0.237 OA
ATOM     76  O   UNL     1     -14.497  -2.094  -5.215  1.00  0.00    -0.237 OA
ATOM     77  O   UNL     1     -13.624   0.095  -4.511  1.00  0.00    -0.744 OA
ENDBRANCH  71  74
ENDBRANCH  53  67
BRANCH  54  78
ATOM     78  C   UNL     1      -5.920   1.388   5.669  1.00  0.00     0.023 A 
ATOM     79  C   UNL     1      -5.581   0.490   6.699  1.00  0.00     0.012 A 
ATOM     80  C   UNL     1      -5.490   2.726   5.747  1.00  0.00     0.148 A 
ATOM     81  C   UNL     1      -4.825   0.916   7.790  1.00  0.00     0.002 A 
ATOM     82  C   UNL     1      -4.707   3.136   6.820  1.00  0.00     0.091 A 
ATOM     83  F   UNL     1      -5.823   3.558   4.750  1.00  0.00    -0.205 F 
ATOM     84  C   UNL     1      -4.380   2.235   7.847  1.00  0.00     0.022 A 
BRANCH  82  85
ATOM     85  S   UNL     1      -4.004   4.785   6.942  1.00  0.00     0.127 S 
ATOM     86  O   UNL     1      -4.574   5.263   8.200  1.00  0.00    -0.237 OA
ATOM     87  O   UNL     1      -2.571   4.494   6.986  1.00  0.00    -0.237 OA
ATOM     88  O   UNL     1      -4.448   5.497   5.750  1.00  0.00    -0.744 OA
ENDBRANCH  82  85
ENDBRANCH  54  78
BRANCH  66  89
ATOM     89  C   UNL     1     -12.478  -0.753   4.435  1.00  0.00     0.023 A 
ATOM     90  C   UNL     1     -13.248   0.410   4.625  1.00  0.00     0.012 A 
ATOM     91  C   UNL     1     -12.960  -1.993   4.900  1.00  0.00     0.148 A 
ATOM     92  C   UNL     1     -14.482   0.341   5.269  1.00  0.00     0.002 A 
ATOM     93  C   UNL     1     -14.206  -2.059   5.511  1.00  0.00     0.091 A 
ATOM     94  F   UNL     1     -12.204  -3.083   4.709  1.00  0.00    -0.205 F 
ATOM     95  C   UNL     1     -14.967  -0.893   5.699  1.00  0.00     0.022 A 
BRANCH  93  96
ATOM     96  S   UNL     1     -14.953  -3.609   6.028  1.00  0.00     0.127 S 
ATOM     97  O   UNL     1     -15.000  -3.446   7.481  1.00  0.00    -0.237 OA
ATOM     98  O   UNL     1     -16.256  -3.559   5.366  1.00  0.00    -0.237 OA
ATOM     99  O   UNL     1     -14.068  -4.664   5.554  1.00  0.00    -0.744 OA
ENDBRANCH  93  96
ENDBRANCH  66  89
ENDBRANCH  40  41
ENDBRANCH  32  35
ENDBRANCH  30  31
ENDBRANCH  29  30
ENDBRANCH   1  29
TORSDOF 17
