REMARK SMILES CCCCc1nc(C[N@H+]2CC[NH2+][C@H](C(=O)NCCCNC(=O)c3ccc(-c4c5nc(c(-c6cccc(S(=O)(=O)[O-])c6F)c6ccc([nH]6)c(-c6cccc(S(=O)(=O)[O-])c6F)c6nc(c(-c7cccc(S(=O)(=O)[O-])c7F)c7ccc4[nH]7)C=C6)C=C5)cc3)C2)c(Cl)[nH]1
REMARK SMILES IDX 17 1 16 2 14 3 15 4 13 6 9 7 10 8 86 9 11 11 12 12 8 15 7 16
REMARK SMILES IDX 5 17 6 18 89 19 87 20 88 22 4 23 3 24 2 25 1 26 18 27 19 28
REMARK SMILES IDX 20 29 21 30 22 32 23 33 24 34 85 35 25 36 84 37 26 38 27 39
REMARK SMILES IDX 28 40 78 41 29 42 83 43 77 44 79 45 30 46 82 47 76 48 75 49
REMARK SMILES IDX 31 51 63 52 43 53 62 54 44 55 47 56 61 57 80 58 45 59 46 60
REMARK SMILES IDX 60 62 81 63 48 64 32 65 33 66 41 67 34 68 36 69 42 70 35 71
REMARK SMILES IDX 37 72 38 73 39 74 40 75 64 76 65 77 73 78 66 79 68 80 74 81
REMARK SMILES IDX 67 82 69 83 70 84 71 85 72 86 49 87 50 88 58 89 51 90 53 91
REMARK SMILES IDX 59 92 52 93 54 94 55 95 56 96 57 97
REMARK H PARENT 16 5 9 10 12 13 12 14 89 21 20 31 79 50 47 61
REMARK Flexibility Score: inf
ROOT
ATOM      1  C   UNL     1       0.422  -1.219  -6.129  1.00  0.00     0.118 C 
ENDROOT
BRANCH   1   2
ATOM      2  N   UNL     1       0.382  -2.122  -4.993  1.00  0.00    -0.351 N 
ATOM      3  C   UNL     1      -0.704  -2.486  -4.234  1.00  0.00     0.284 C 
ATOM      4  O   UNL     1      -0.631  -3.529  -3.583  1.00  0.00    -0.268 OA
ATOM      5  H   UNL     1       1.242  -2.526  -4.734  1.00  0.00     0.163 HD
BRANCH   3   6
ATOM      6  C   UNL     1      -1.926  -1.554  -4.163  1.00  0.00     0.328 C 
ATOM      7  N   UNL     1      -4.262  -1.325  -3.092  1.00  0.00    -0.320 N 
ATOM      8  C   UNL     1      -4.699  -0.792  -4.387  1.00  0.00     0.324 C 
ATOM      9  C   UNL     1      -3.001  -2.106  -3.182  1.00  0.00     0.339 C 
ATOM     10  H   UNL     1      -4.988  -1.994  -2.836  1.00  0.00     0.348 HD
ATOM     11  C   UNL     1      -3.587  -0.323  -5.345  1.00  0.00     0.323 C 
ATOM     12  N   UNL     1      -2.534  -1.333  -5.508  1.00  0.00    -0.327 N 
ATOM     13  H   UNL     1      -1.826  -0.998  -6.162  1.00  0.00     0.347 HD
ATOM     14  H   UNL     1      -2.919  -2.202  -5.880  1.00  0.00     0.347 HD
BRANCH   7  15
ATOM     15  C   UNL     1      -4.284  -0.358  -1.979  1.00  0.00     0.323 C 
BRANCH  15  16
ATOM     16  C   UNL     1      -3.242   0.706  -2.059  1.00  0.00     0.132 A 
ATOM     17  C   UNL     1      -1.229   1.499  -2.054  1.00  0.00     0.107 A 
ATOM     18  N   UNL     1      -1.928   0.425  -1.744  1.00  0.00    -0.231 NA
ATOM     19  N   UNL     1      -2.065   2.524  -2.420  1.00  0.00    -0.333 N 
ATOM     20  C   UNL     1      -3.329   2.018  -2.447  1.00  0.00     0.135 A 
ATOM     21  H   UNL     1      -1.801   3.451  -2.624  1.00  0.00     0.169 HD
ATOM     22  Cl  UNL     1      -4.595   3.003  -2.985  1.00  0.00    -0.062 Cl
BRANCH  17  23
ATOM     23  C   UNL     1       0.258   1.578  -2.145  1.00  0.00     0.075 C 
BRANCH  23  24
ATOM     24  C   UNL     1       0.934   2.155  -0.908  1.00  0.00     0.008 C 
BRANCH  24  25
ATOM     25  C   UNL     1       0.678   1.393   0.393  1.00  0.00    -0.003 C 
ATOM     26  C   UNL     1       1.144  -0.054   0.361  1.00  0.00     0.004 C 
ENDBRANCH  24  25
ENDBRANCH  23  24
ENDBRANCH  17  23
ENDBRANCH  15  16
ENDBRANCH   7  15
ENDBRANCH   3   6
ENDBRANCH   1   2
BRANCH   1  27
ATOM     27  C   UNL     1       0.874   0.206  -5.808  1.00  0.00     0.042 C 
BRANCH  27  28
ATOM     28  C   UNL     1       2.373   0.371  -6.002  1.00  0.00     0.118 C 
BRANCH  28  29
ATOM     29  N   UNL     1       2.765   0.146  -7.404  1.00  0.00    -0.352 N 
ATOM     30  C   UNL     1       4.014  -0.026  -7.949  1.00  0.00     0.251 C 
ATOM     31  H   UNL     1       2.020   0.113  -8.046  1.00  0.00     0.163 HD
ATOM     32  O   UNL     1       4.182   0.048  -9.172  1.00  0.00    -0.269 OA
BRANCH  30  33
ATOM     33  C   UNL     1       5.151  -0.283  -7.061  1.00  0.00     0.039 A 
ATOM     34  C   UNL     1       6.367   0.387  -7.230  1.00  0.00     0.014 A 
ATOM     35  C   UNL     1       4.952  -1.158  -5.999  1.00  0.00     0.014 A 
ATOM     36  C   UNL     1       7.352   0.245  -6.259  1.00  0.00     0.010 A 
ATOM     37  C   UNL     1       5.845  -1.158  -4.963  1.00  0.00     0.010 A 
ATOM     38  C   UNL     1       7.071  -0.513  -5.115  1.00  0.00    -0.014 A 
BRANCH  38  39
ATOM     39  C   UNL     1       7.997  -0.556  -3.990  1.00  0.00     0.031 A 
ATOM     40  C   UNL     1       8.270   0.765  -3.358  1.00  0.00     0.074 A 
ATOM     41  C   UNL     1       8.315  -1.729  -3.399  1.00  0.00     0.049 A 
ATOM     42  N   UNL     1       9.394   1.400  -3.284  1.00  0.00    -0.248 NA
ATOM     43  C   UNL     1       7.116   1.548  -2.885  1.00  0.00     0.031 C 
ATOM     44  C   UNL     1       7.790  -3.063  -3.729  1.00  0.00     0.029 A 
ATOM     45  N   UNL     1       9.012  -1.957  -2.254  1.00  0.00    -0.354 N 
ATOM     46  C   UNL     1       9.126   2.543  -2.526  1.00  0.00     0.074 A 
ATOM     47  C   UNL     1       7.699   2.699  -2.547  1.00  0.00     0.031 C 
ATOM     48  C   UNL     1       7.942  -3.878  -2.666  1.00  0.00     0.029 A 
ATOM     49  C   UNL     1       8.731  -3.188  -1.666  1.00  0.00     0.049 A 
ATOM     50  H   UNL     1       9.655  -1.314  -1.877  1.00  0.00     0.167 HD
ATOM     51  C   UNL     1      10.070   3.083  -1.702  1.00  0.00     0.034 A 
ATOM     52  C   UNL     1       9.070  -3.589  -0.418  1.00  0.00     0.034 A 
ATOM     53  C   UNL     1      11.380   2.557  -2.016  1.00  0.00     0.049 A 
ATOM     54  C   UNL     1      10.154  -2.695   0.045  1.00  0.00     0.074 A 
ATOM     55  C   UNL     1      12.180   2.513  -3.140  1.00  0.00     0.029 A 
ATOM     56  N   UNL     1      11.882   1.609  -1.157  1.00  0.00    -0.354 N 
ATOM     57  N   UNL     1      11.341  -2.659  -0.492  1.00  0.00    -0.248 NA
ATOM     58  C   UNL     1       9.790  -1.535   0.841  1.00  0.00     0.031 C 
ATOM     59  C   UNL     1      12.818   1.238  -3.087  1.00  0.00     0.029 A 
ATOM     60  C   UNL     1      12.432   0.605  -1.903  1.00  0.00     0.049 A 
ATOM     61  H   UNL     1      11.851   1.646  -0.174  1.00  0.00     0.167 HD
ATOM     62  C   UNL     1      11.673  -1.311  -0.498  1.00  0.00     0.074 A 
ATOM     63  C   UNL     1      10.752  -0.693   0.454  1.00  0.00     0.031 C 
ATOM     64  C   UNL     1      12.448  -0.784  -1.492  1.00  0.00     0.034 A 
BRANCH  51  65
ATOM     65  C   UNL     1       9.801   3.740  -0.351  1.00  0.00     0.023 A 
ATOM     66  C   UNL     1      10.933   4.201   0.366  1.00  0.00     0.012 A 
ATOM     67  C   UNL     1       8.588   3.679   0.374  1.00  0.00     0.148 A 
ATOM     68  C   UNL     1      10.888   4.463   1.741  1.00  0.00     0.002 A 
ATOM     69  C   UNL     1       8.532   4.006   1.727  1.00  0.00     0.091 A 
ATOM     70  F   UNL     1       7.481   3.202  -0.190  1.00  0.00    -0.205 F 
ATOM     71  C   UNL     1       9.686   4.359   2.425  1.00  0.00     0.022 A 
BRANCH  69  72
ATOM     72  S   UNL     1       6.986   3.934   2.648  1.00  0.00     0.127 S 
ATOM     73  O   UNL     1       7.191   2.740   3.463  1.00  0.00    -0.237 OA
ATOM     74  O   UNL     1       7.019   5.200   3.382  1.00  0.00    -0.237 OA
ATOM     75  O   UNL     1       5.931   3.853   1.648  1.00  0.00    -0.744 OA
ENDBRANCH  69  72
ENDBRANCH  51  65
BRANCH  52  76
ATOM     76  C   UNL     1       8.393  -4.540   0.490  1.00  0.00     0.023 A 
ATOM     77  C   UNL     1       9.127  -5.152   1.525  1.00  0.00     0.012 A 
ATOM     78  C   UNL     1       6.985  -4.650   0.514  1.00  0.00     0.148 A 
ATOM     79  C   UNL     1       8.479  -5.821   2.570  1.00  0.00     0.002 A 
ATOM     80  C   UNL     1       6.346  -5.324   1.551  1.00  0.00     0.091 A 
ATOM     81  F   UNL     1       6.271  -4.013  -0.425  1.00  0.00    -0.205 F 
ATOM     82  C   UNL     1       7.089  -5.901   2.588  1.00  0.00     0.022 A 
BRANCH  80  83
ATOM     83  S   UNL     1       4.555  -5.452   1.651  1.00  0.00     0.127 S 
ATOM     84  O   UNL     1       4.369  -6.871   1.956  1.00  0.00    -0.237 OA
ATOM     85  O   UNL     1       4.251  -4.543   2.752  1.00  0.00    -0.237 OA
ATOM     86  O   UNL     1       4.061  -5.051   0.339  1.00  0.00    -0.744 OA
ENDBRANCH  80  83
ENDBRANCH  52  76
BRANCH  64  87
ATOM     87  C   UNL     1      13.177  -1.735  -2.409  1.00  0.00     0.023 A 
ATOM     88  C   UNL     1      12.503  -2.633  -3.264  1.00  0.00     0.012 A 
ATOM     89  C   UNL     1      14.568  -1.589  -2.543  1.00  0.00     0.148 A 
ATOM     90  C   UNL     1      13.203  -3.380  -4.215  1.00  0.00     0.002 A 
ATOM     91  C   UNL     1      15.253  -2.295  -3.524  1.00  0.00     0.091 A 
ATOM     92  F   UNL     1      15.197  -0.732  -1.724  1.00  0.00    -0.205 F 
ATOM     93  C   UNL     1      14.577  -3.200  -4.356  1.00  0.00     0.022 A 
BRANCH  91  94
ATOM     94  S   UNL     1      16.994  -1.996  -3.840  1.00  0.00     0.127 S 
ATOM     95  O   UNL     1      17.624  -3.140  -3.185  1.00  0.00    -0.237 OA
ATOM     96  O   UNL     1      17.060  -2.015  -5.302  1.00  0.00    -0.237 OA
ATOM     97  O   UNL     1      17.285  -0.694  -3.252  1.00  0.00    -0.744 OA
ENDBRANCH  91  94
ENDBRANCH  64  87
ENDBRANCH  38  39
ENDBRANCH  30  33
ENDBRANCH  28  29
ENDBRANCH  27  28
ENDBRANCH   1  27
TORSDOF 18
