REMARK SMILES COc1ccc(N2/C(=[NH+]/C(=O)CCCC(=O)NCCCNC(=O)c3ccc(-c4c5nc(c(-c6cccc(S(=O)(=O)[O-])c6F)c6ccc([nH]6)c(-c6cccc(S(=O)(=O)[O-])c6F)c6nc(c(-c7cccc(S(=O)(=O)[O-])c7F)c7ccc4[nH]7)C=C6)C=C5)cc3)S[C@@H]3CS(=O)(=O)C[C@H]32)cc1Cl
REMARK SMILES IDX 18 1 17 2 15 3 16 4 14 6 13 7 12 8 10 9 7 10 8 11 94 12 9 13
REMARK SMILES IDX 87 14 88 15 93 16 89 18 90 19 11 20 91 21 92 22 6 23 3 24
REMARK SMILES IDX 4 25 96 26 5 27 95 28 97 29 2 30 1 31 19 32 20 33 21 34
REMARK SMILES IDX 22 35 23 37 24 38 25 39 86 40 26 41 85 42 27 43 28 44 29 45
REMARK SMILES IDX 79 46 30 47 84 48 78 49 80 50 31 51 83 52 77 53 76 54 32 56
REMARK SMILES IDX 64 57 44 58 63 59 45 60 48 61 62 62 81 63 46 64 47 65 61 67
REMARK SMILES IDX 82 68 49 69 33 70 34 71 42 72 35 73 37 74 43 75 36 76 38 77
REMARK SMILES IDX 39 78 40 79 41 80 65 81 66 82 74 83 67 84 69 85 75 86 68 87
REMARK SMILES IDX 70 88 71 89 72 90 73 91 50 92 51 93 59 94 52 95 54 96 60 97
REMARK SMILES IDX 53 98 55 99 56 100 57 101 58 102
REMARK H PARENT 17 5 9 17 21 36 80 55 48 66
REMARK Flexibility Score: inf
ROOT
ATOM      1  C   UNL     1       3.483  -5.706   4.012  1.00  0.00     0.117 C 
ENDROOT
BRANCH   1   2
ATOM      2  N   UNL     1       4.327  -4.543   4.192  1.00  0.00    -0.356 N 
ATOM      3  C   UNL     1       5.367  -4.091   3.440  1.00  0.00     0.220 C 
ATOM      4  O   UNL     1       5.981  -3.099   3.837  1.00  0.00    -0.275 OA
ATOM      5  H   UNL     1       4.116  -3.995   4.982  1.00  0.00     0.163 HD
BRANCH   3   6
ATOM      6  C   UNL     1       5.719  -4.739   2.115  1.00  0.00     0.100 C 
BRANCH   6   7
ATOM      7  C   UNL     1       6.702  -5.905   2.139  1.00  0.00     0.022 C 
BRANCH   7   8
ATOM      8  C   UNL     1       6.168  -7.300   2.447  1.00  0.00     0.128 C 
BRANCH   8   9
ATOM      9  C   UNL     1       5.180  -7.955   1.480  1.00  0.00     0.307 C 
ATOM     10  N   UNL     1       1.966  -6.846   0.014  1.00  0.00    -0.217 N 
ATOM     11  C   UNL     1       3.079  -7.596   0.455  1.00  0.00     0.319 C 
ATOM     12  C   UNL     1       1.200  -7.574  -1.007  1.00  0.00     0.212 C 
ATOM     13  N   UNL     1       4.141  -7.155   1.048  1.00  0.00    -0.204 N 
ATOM     14  S   UNL     1       2.772  -9.325   0.059  1.00  0.00    -0.029 SA
ATOM     15  C   UNL     1       1.087  -8.993  -0.455  1.00  0.00     0.120 C 
ATOM     16  C   UNL     1      -0.217  -7.226  -1.395  1.00  0.00     0.188 C 
ATOM     17  H   UNL     1       4.213  -6.185   1.202  1.00  0.00     0.316 HD
ATOM     18  C   UNL     1       0.489  -9.832  -1.559  1.00  0.00     0.156 C 
ATOM     19  S   UNL     1      -0.721  -8.712  -2.277  1.00  0.00     0.155 S 
ATOM     20  O   UNL     1       5.339  -9.144   1.218  1.00  0.00    -0.247 OA
ATOM     21  O   UNL     1      -2.042  -9.085  -1.829  1.00  0.00    -0.229 OA
ATOM     22  O   UNL     1      -0.401  -8.532  -3.680  1.00  0.00    -0.229 OA
BRANCH  10  23
ATOM     23  C   UNL     1       1.732  -5.477   0.217  1.00  0.00     0.130 A 
ATOM     24  C   UNL     1       1.217  -2.709   0.701  1.00  0.00     0.137 A 
ATOM     25  C   UNL     1       0.227  -3.666   0.915  1.00  0.00     0.052 A 
ATOM     26  C   UNL     1       2.474  -3.136   0.265  1.00  0.00     0.087 A 
ATOM     27  C   UNL     1       0.488  -5.024   0.690  1.00  0.00     0.056 A 
ATOM     28  C   UNL     1       2.712  -4.502   0.003  1.00  0.00     0.076 A 
ATOM     29  Cl  UNL     1       3.815  -2.061   0.103  1.00  0.00    -0.080 Cl
BRANCH  24  30
ATOM     30  O   UNL     1       0.880  -1.438   1.080  1.00  0.00    -0.495 OA
ATOM     31  C   UNL     1       1.013  -0.452   0.060  1.00  0.00     0.278 C 
ENDBRANCH  24  30
ENDBRANCH  10  23
ENDBRANCH   8   9
ENDBRANCH   7   8
ENDBRANCH   6   7
ENDBRANCH   3   6
ENDBRANCH   1   2
BRANCH   1  32
ATOM     32  C   UNL     1       3.813  -6.796   5.023  1.00  0.00     0.042 C 
BRANCH  32  33
ATOM     33  C   UNL     1       3.118  -6.601   6.356  1.00  0.00     0.118 C 
BRANCH  33  34
ATOM     34  N   UNL     1       1.691  -6.879   6.277  1.00  0.00    -0.352 N 
ATOM     35  C   UNL     1       0.931  -7.765   7.001  1.00  0.00     0.251 C 
ATOM     36  H   UNL     1       1.198  -6.354   5.606  1.00  0.00     0.163 HD
ATOM     37  O   UNL     1      -0.224  -7.991   6.649  1.00  0.00    -0.269 OA
BRANCH  35  38
ATOM     38  C   UNL     1       1.503  -8.457   8.180  1.00  0.00     0.039 A 
ATOM     39  C   UNL     1       1.160  -9.791   8.414  1.00  0.00     0.014 A 
ATOM     40  C   UNL     1       2.371  -7.800   9.056  1.00  0.00     0.014 A 
ATOM     41  C   UNL     1       1.730 -10.475   9.492  1.00  0.00     0.010 A 
ATOM     42  C   UNL     1       3.021  -8.512  10.057  1.00  0.00     0.010 A 
ATOM     43  C   UNL     1       2.692  -9.852  10.302  1.00  0.00    -0.014 A 
BRANCH  43  44
ATOM     44  C   UNL     1       3.351 -10.575  11.421  1.00  0.00     0.031 A 
ATOM     45  C   UNL     1       3.219 -10.065  12.833  1.00  0.00     0.074 A 
ATOM     46  C   UNL     1       4.130 -11.644  11.159  1.00  0.00     0.049 A 
ATOM     47  N   UNL     1       3.759 -10.528  13.930  1.00  0.00    -0.248 NA
ATOM     48  C   UNL     1       2.399  -8.858  13.036  1.00  0.00     0.031 C 
ATOM     49  C   UNL     1       4.403 -12.186   9.826  1.00  0.00     0.029 A 
ATOM     50  N   UNL     1       4.854 -12.452  11.999  1.00  0.00    -0.354 N 
ATOM     51  C   UNL     1       3.378  -9.653  14.941  1.00  0.00     0.074 A 
ATOM     52  C   UNL     1       2.597  -8.606  14.321  1.00  0.00     0.031 C 
ATOM     53  C   UNL     1       5.222 -13.244   9.940  1.00  0.00     0.029 A 
ATOM     54  C   UNL     1       5.563 -13.433  11.345  1.00  0.00     0.049 A 
ATOM     55  H   UNL     1       4.864 -12.341  12.977  1.00  0.00     0.167 HD
ATOM     56  C   UNL     1       3.626  -9.728  16.270  1.00  0.00     0.034 A 
ATOM     57  C   UNL     1       6.403 -14.372  11.823  1.00  0.00     0.034 A 
ATOM     58  C   UNL     1       4.369 -10.793  16.887  1.00  0.00     0.049 A 
ATOM     59  C   UNL     1       6.638 -14.452  13.307  1.00  0.00     0.074 A 
ATOM     60  C   UNL     1       4.601 -11.011  18.233  1.00  0.00     0.029 A 
ATOM     61  N   UNL     1       5.011 -11.810  16.199  1.00  0.00    -0.354 N 
ATOM     62  N   UNL     1       6.140 -13.707  14.263  1.00  0.00    -0.248 NA
ATOM     63  C   UNL     1       7.524 -15.525  13.782  1.00  0.00     0.031 C 
ATOM     64  C   UNL     1       5.417 -12.140  18.357  1.00  0.00     0.029 A 
ATOM     65  C   UNL     1       5.655 -12.651  17.091  1.00  0.00     0.049 A 
ATOM     66  H   UNL     1       5.010 -11.919  15.221  1.00  0.00     0.167 HD
ATOM     67  C   UNL     1       6.621 -14.241  15.453  1.00  0.00     0.074 A 
ATOM     68  C   UNL     1       7.432 -15.387  15.097  1.00  0.00     0.031 C 
ATOM     69  C   UNL     1       6.421 -13.814  16.725  1.00  0.00     0.034 A 
BRANCH  56  70
ATOM     70  C   UNL     1       3.052  -8.650  17.154  1.00  0.00     0.023 A 
ATOM     71  C   UNL     1       1.657  -8.578  17.356  1.00  0.00     0.012 A 
ATOM     72  C   UNL     1       3.893  -7.742  17.826  1.00  0.00     0.148 A 
ATOM     73  C   UNL     1       1.107  -7.597  18.179  1.00  0.00     0.002 A 
ATOM     74  C   UNL     1       3.341  -6.799  18.685  1.00  0.00     0.091 A 
ATOM     75  F   UNL     1       5.214  -7.812  17.607  1.00  0.00    -0.205 F 
ATOM     76  C   UNL     1       1.949  -6.715  18.852  1.00  0.00     0.022 A 
BRANCH  74  77
ATOM     77  S   UNL     1       4.342  -5.672  19.662  1.00  0.00     0.127 S 
ATOM     78  O   UNL     1       4.027  -4.386  19.043  1.00  0.00    -0.237 OA
ATOM     79  O   UNL     1       3.786  -5.855  21.003  1.00  0.00    -0.237 OA
ATOM     80  O   UNL     1       5.719  -6.118  19.507  1.00  0.00    -0.744 OA
ENDBRANCH  74  77
ENDBRANCH  56  70
BRANCH  57  81
ATOM     81  C   UNL     1       7.043 -15.346  10.893  1.00  0.00     0.023 A 
ATOM     82  C   UNL     1       6.662 -16.702  10.936  1.00  0.00     0.012 A 
ATOM     83  C   UNL     1       8.012 -14.935   9.958  1.00  0.00     0.148 A 
ATOM     84  C   UNL     1       7.260 -17.637  10.091  1.00  0.00     0.002 A 
ATOM     85  C   UNL     1       8.563 -15.861   9.080  1.00  0.00     0.091 A 
ATOM     86  F   UNL     1       8.367 -13.643   9.938  1.00  0.00    -0.205 F 
ATOM     87  C   UNL     1       8.203 -17.215   9.157  1.00  0.00     0.022 A 
BRANCH  85  88
ATOM     88  S   UNL     1       9.688 -15.389   7.762  1.00  0.00     0.127 S 
ATOM     89  O   UNL     1      10.939 -15.997   8.206  1.00  0.00    -0.237 OA
ATOM     90  O   UNL     1       9.070 -16.026   6.598  1.00  0.00    -0.237 OA
ATOM     91  O   UNL     1       9.670 -13.933   7.731  1.00  0.00    -0.744 OA
ENDBRANCH  85  88
ENDBRANCH  57  81
BRANCH  69  92
ATOM     92  C   UNL     1       7.051 -14.612  17.837  1.00  0.00     0.023 A 
ATOM     93  C   UNL     1       8.447 -14.579  18.026  1.00  0.00     0.012 A 
ATOM     94  C   UNL     1       6.248 -15.337  18.738  1.00  0.00     0.148 A 
ATOM     95  C   UNL     1       9.037 -15.287  19.073  1.00  0.00     0.002 A 
ATOM     96  C   UNL     1       6.836 -15.995  19.811  1.00  0.00     0.091 A 
ATOM     97  F   UNL     1       4.923 -15.368  18.532  1.00  0.00    -0.205 F 
ATOM     98  C   UNL     1       8.231 -15.983  19.971  1.00  0.00     0.022 A 
BRANCH  96  99
ATOM     99  S   UNL     1       5.873 -16.832  21.075  1.00  0.00     0.127 S 
ATOM    100  O   UNL     1       6.188 -18.235  20.808  1.00  0.00    -0.237 OA
ATOM    101  O   UNL     1       6.455 -16.300  22.308  1.00  0.00    -0.237 OA
ATOM    102  O   UNL     1       4.487 -16.450  20.845  1.00  0.00    -0.744 OA
ENDBRANCH  96  99
ENDBRANCH  69  92
ENDBRANCH  43  44
ENDBRANCH  35  38
ENDBRANCH  33  34
ENDBRANCH  32  33
ENDBRANCH   1  32
TORSDOF 18
