REMARK SMILES O=C(NCCCNC(=O)c1nnn(-c2cccc(Br)c2)c1[C@@H]1COc2ccccc2O1)c1ccc(-c2c3nc(c(-c4cccc(S(=O)(=O)[O-])c4F)c4ccc([nH]4)c(-c4cccc(S(=O)(=O)[O-])c4F)c4nc(c(-c5cccc(S(=O)(=O)[O-])c5F)c5ccc2[nH]5)C=C4)C=C3)cc1
REMARK SMILES IDX 4 1 3 2 1 3 2 4 32 6 33 7 94 8 34 9 93 10 35 11 36 12 37 13
REMARK SMILES IDX 87 14 38 15 92 16 86 17 88 18 39 19 91 20 85 21 84 22 40 24
REMARK SMILES IDX 72 25 52 26 71 27 53 28 56 29 70 30 89 31 54 32 55 33 69 35
REMARK SMILES IDX 90 36 57 37 41 38 42 39 50 40 43 41 45 42 51 43 44 44 46 45
REMARK SMILES IDX 47 46 48 47 49 48 73 49 74 50 82 51 75 52 77 53 83 54 76 55
REMARK SMILES IDX 78 56 79 57 80 58 81 59 58 60 59 61 67 62 60 63 62 64 68 65
REMARK SMILES IDX 61 66 63 67 64 68 65 69 66 70 5 71 6 72 7 73 8 74 9 76 10 77
REMARK SMILES IDX 11 78 21 79 12 80 13 81 22 82 23 83 31 84 24 85 30 86 25 87
REMARK SMILES IDX 29 88 26 89 28 90 27 91 14 92 15 93 20 94 16 95 18 96 17 97
REMARK SMILES IDX 19 98
REMARK H PARENT 3 5 88 23 56 34 7 75
REMARK Flexibility Score: inf
ROOT
ATOM      1  C   UNL     1       5.196  -0.661  -0.185  1.00  0.00     0.118 C 
ENDROOT
BRANCH   1   2
ATOM      2  N   UNL     1       3.809  -0.651  -0.611  1.00  0.00    -0.352 N 
ATOM      3  O   UNL     1       1.672  -0.141  -0.883  1.00  0.00    -0.269 OA
ATOM      4  C   UNL     1       2.645  -0.112  -0.126  1.00  0.00     0.251 C 
ATOM      5  H   UNL     1       3.670  -1.151  -1.448  1.00  0.00     0.163 HD
BRANCH   4   6
ATOM      6  C   UNL     1       2.479   0.414   1.251  1.00  0.00     0.039 A 
ATOM      7  C   UNL     1       3.539   0.760   2.085  1.00  0.00     0.014 A 
ATOM      8  C   UNL     1       1.165   0.545   1.738  1.00  0.00     0.014 A 
ATOM      9  C   UNL     1       3.312   1.097   3.409  1.00  0.00     0.010 A 
ATOM     10  C   UNL     1       0.925   0.945   3.051  1.00  0.00     0.010 A 
ATOM     11  C   UNL     1       2.006   1.190   3.893  1.00  0.00    -0.014 A 
BRANCH  11  12
ATOM     12  C   UNL     1       1.858   1.777   5.221  1.00  0.00     0.031 A 
ATOM     13  C   UNL     1       2.356   3.179   5.322  1.00  0.00     0.074 A 
ATOM     14  C   UNL     1       1.222   1.197   6.253  1.00  0.00     0.049 A 
ATOM     15  N   UNL     1       3.299   3.646   6.075  1.00  0.00    -0.248 NA
ATOM     16  C   UNL     1       1.818   4.150   4.357  1.00  0.00     0.031 C 
ATOM     17  C   UNL     1       0.411  -0.019   6.216  1.00  0.00     0.029 A 
ATOM     18  N   UNL     1       1.043   1.667   7.525  1.00  0.00    -0.354 N 
ATOM     19  C   UNL     1       3.313   5.021   5.837  1.00  0.00     0.074 A 
ATOM     20  C   UNL     1       2.532   5.235   4.650  1.00  0.00     0.031 C 
ATOM     21  C   UNL     1      -0.373  -0.050   7.315  1.00  0.00     0.029 A 
ATOM     22  C   UNL     1      -0.034   1.076   8.171  1.00  0.00     0.049 A 
ATOM     23  H   UNL     1       1.617   2.352   7.938  1.00  0.00     0.167 HD
ATOM     24  C   UNL     1       3.741   5.904   6.780  1.00  0.00     0.034 A 
ATOM     25  C   UNL     1      -0.669   1.538   9.273  1.00  0.00     0.034 A 
ATOM     26  C   UNL     1       4.556   5.263   7.782  1.00  0.00     0.049 A 
ATOM     27  C   UNL     1       0.229   2.488   9.966  1.00  0.00     0.074 A 
ATOM     28  C   UNL     1       5.729   4.536   7.797  1.00  0.00     0.029 A 
ATOM     29  N   UNL     1       3.988   5.094   9.018  1.00  0.00    -0.354 N 
ATOM     30  N   UNL     1       1.317   2.145  10.597  1.00  0.00    -0.248 NA
ATOM     31  C   UNL     1       0.075   3.913   9.718  1.00  0.00     0.031 C 
ATOM     32  C   UNL     1       5.610   3.646   8.906  1.00  0.00     0.029 A 
ATOM     33  C   UNL     1       4.375   3.882   9.512  1.00  0.00     0.049 A 
ATOM     34  H   UNL     1       3.399   5.739   9.473  1.00  0.00     0.167 HD
ATOM     35  C   UNL     1       2.168   3.229  10.437  1.00  0.00     0.074 A 
ATOM     36  C   UNL     1       1.298   4.332  10.047  1.00  0.00     0.031 C 
ATOM     37  C   UNL     1       3.520   3.052  10.335  1.00  0.00     0.034 A 
BRANCH  24  38
ATOM     38  C   UNL     1       3.073   7.246   7.065  1.00  0.00     0.023 A 
ATOM     39  C   UNL     1       3.647   8.036   8.091  1.00  0.00     0.012 A 
ATOM     40  C   UNL     1       1.769   7.604   6.650  1.00  0.00     0.148 A 
ATOM     41  C   UNL     1       2.916   9.026   8.758  1.00  0.00     0.002 A 
ATOM     42  C   UNL     1       1.070   8.634   7.272  1.00  0.00     0.091 A 
ATOM     43  F   UNL     1       1.127   6.886   5.728  1.00  0.00    -0.205 F 
ATOM     44  C   UNL     1       1.621   9.318   8.356  1.00  0.00     0.022 A 
BRANCH  42  45
ATOM     45  S   UNL     1      -0.597   9.073   6.760  1.00  0.00     0.127 S 
ATOM     46  O   UNL     1      -1.394   8.445   7.810  1.00  0.00    -0.237 OA
ATOM     47  O   UNL     1      -0.549  10.535   6.804  1.00  0.00    -0.237 OA
ATOM     48  O   UNL     1      -0.750   8.524   5.418  1.00  0.00    -0.744 OA
ENDBRANCH  42  45
ENDBRANCH  24  38
BRANCH  25  49
ATOM     49  C   UNL     1      -2.080   1.354   9.682  1.00  0.00     0.023 A 
ATOM     50  C   UNL     1      -2.442   1.535  11.031  1.00  0.00     0.012 A 
ATOM     51  C   UNL     1      -3.115   1.225   8.729  1.00  0.00     0.148 A 
ATOM     52  C   UNL     1      -3.787   1.603  11.415  1.00  0.00     0.002 A 
ATOM     53  C   UNL     1      -4.450   1.262   9.118  1.00  0.00     0.091 A 
ATOM     54  F   UNL     1      -2.799   1.160   7.429  1.00  0.00    -0.205 F 
ATOM     55  C   UNL     1      -4.791   1.465  10.460  1.00  0.00     0.022 A 
BRANCH  53  56
ATOM     56  S   UNL     1      -5.785   1.058   7.931  1.00  0.00     0.127 S 
ATOM     57  O   UNL     1      -6.723   0.206   8.665  1.00  0.00    -0.237 OA
ATOM     58  O   UNL     1      -6.234   2.432   7.734  1.00  0.00    -0.237 OA
ATOM     59  O   UNL     1      -5.180   0.408   6.774  1.00  0.00    -0.744 OA
ENDBRANCH  53  56
ENDBRANCH  25  49
BRANCH  37  60
ATOM     60  C   UNL     1       4.112   1.757  10.825  1.00  0.00     0.023 A 
ATOM     61  C   UNL     1       3.740   0.511  10.283  1.00  0.00     0.012 A 
ATOM     62  C   UNL     1       5.173   1.807  11.747  1.00  0.00     0.148 A 
ATOM     63  C   UNL     1       4.381  -0.663  10.683  1.00  0.00     0.002 A 
ATOM     64  C   UNL     1       5.843   0.642  12.104  1.00  0.00     0.091 A 
ATOM     65  F   UNL     1       5.526   2.999  12.253  1.00  0.00    -0.205 F 
ATOM     66  C   UNL     1       5.441  -0.597  11.584  1.00  0.00     0.022 A 
BRANCH  64  67
ATOM     67  S   UNL     1       7.300   0.692  13.152  1.00  0.00     0.127 S 
ATOM     68  O   UNL     1       6.744   0.393  14.469  1.00  0.00    -0.237 OA
ATOM     69  O   UNL     1       8.138  -0.368  12.588  1.00  0.00    -0.237 OA
ATOM     70  O   UNL     1       7.854   2.031  12.984  1.00  0.00    -0.744 OA
ENDBRANCH  64  67
ENDBRANCH  37  60
ENDBRANCH  11  12
ENDBRANCH   4   6
ENDBRANCH   1   2
BRANCH   1  71
ATOM     71  C   UNL     1       5.572  -1.600   0.963  1.00  0.00     0.042 C 
BRANCH  71  72
ATOM     72  C   UNL     1       5.291  -3.079   0.744  1.00  0.00     0.118 C 
BRANCH  72  73
ATOM     73  N   UNL     1       5.897  -3.625  -0.459  1.00  0.00    -0.351 N 
ATOM     74  C   UNL     1       6.263  -4.932  -0.684  1.00  0.00     0.273 C 
ATOM     75  H   UNL     1       6.063  -2.990  -1.193  1.00  0.00     0.163 HD
ATOM     76  O   UNL     1       6.743  -5.256  -1.772  1.00  0.00    -0.267 OA
BRANCH  74  77
ATOM     77  C   UNL     1       6.124  -5.860   0.420  1.00  0.00     0.178 A 
ATOM     78  N   UNL     1       7.184  -6.056   1.258  1.00  0.00    -0.124 NA
ATOM     79  C   UNL     1       5.011  -6.567   0.879  1.00  0.00     0.122 A 
ATOM     80  N   UNL     1       6.769  -6.778   2.276  1.00  0.00    -0.061 NA
ATOM     81  N   UNL     1       5.465  -7.089   2.091  1.00  0.00    -0.213 N 
BRANCH  79  82
ATOM     82  C   UNL     1       3.605  -6.700   0.360  1.00  0.00     0.262 C 
ATOM     83  C   UNL     1       3.466  -7.658  -0.826  1.00  0.00     0.281 C 
ATOM     84  O   UNL     1       3.042  -5.410   0.085  1.00  0.00    -0.477 OA
ATOM     85  O   UNL     1       4.041  -7.127  -2.022  1.00  0.00    -0.485 OA
ATOM     86  C   UNL     1       3.050  -5.054  -1.237  1.00  0.00     0.162 A 
ATOM     87  C   UNL     1       3.603  -5.847  -2.242  1.00  0.00     0.161 A 
ATOM     88  C   UNL     1       2.571  -3.780  -1.540  1.00  0.00     0.050 A 
ATOM     89  C   UNL     1       3.801  -5.317  -3.515  1.00  0.00     0.050 A 
ATOM     90  C   UNL     1       2.736  -3.261  -2.824  1.00  0.00     0.004 A 
ATOM     91  C   UNL     1       3.382  -4.016  -3.802  1.00  0.00     0.004 A 
ENDBRANCH  79  82
BRANCH  81  92
ATOM     92  C   UNL     1       4.787  -7.768   3.135  1.00  0.00     0.068 A 
ATOM     93  C   UNL     1       3.784  -8.711   2.896  1.00  0.00     0.028 A 
ATOM     94  C   UNL     1       5.149  -7.454   4.457  1.00  0.00     0.044 A 
ATOM     95  C   UNL     1       3.105  -9.289   3.973  1.00  0.00     0.003 A 
ATOM     96  C   UNL     1       4.454  -8.022   5.520  1.00  0.00     0.020 A 
ATOM     97  C   UNL     1       3.427  -8.931   5.284  1.00  0.00     0.016 A 
ATOM     98  Br  UNL     1       4.889  -7.530   7.292  1.00  0.00    -0.051 Br
ENDBRANCH  81  92
ENDBRANCH  74  77
ENDBRANCH  72  73
ENDBRANCH  71  72
ENDBRANCH   1  71
TORSDOF 15
