REMARK SMILES COC(=O)[C@H]1CN(C(=O)[C@@H]2CC=CC[C@@H]2C(=O)NCCCNC(=O)c2ccc(-c3c4nc(c(-c5cccc(S(=O)(=O)[O-])c5F)c5ccc([nH]5)c(-c5cccc(S(=O)(=O)[O-])c5F)c5nc(c(-c6cccc(S(=O)(=O)[O-])c6F)c6ccc3[nH]6)C=C5)C=C4)cc2)C[C@H]1C
REMARK SMILES IDX 19 1 18 2 16 3 17 4 15 6 10 7 11 8 12 9 14 10 13 11 8 12
REMARK SMILES IDX 9 13 7 14 5 15 6 16 89 17 88 18 90 19 3 20 4 21 2 22 1 23
REMARK SMILES IDX 20 24 21 25 22 26 23 27 24 29 25 30 26 31 87 32 27 33 86 34
REMARK SMILES IDX 28 35 29 36 30 37 80 38 31 39 85 40 79 41 81 42 32 43 84 44
REMARK SMILES IDX 78 45 77 46 33 48 65 49 45 50 64 51 46 52 49 53 63 54 82 55
REMARK SMILES IDX 47 56 48 57 62 59 83 60 50 61 34 62 35 63 43 64 36 65 38 66
REMARK SMILES IDX 44 67 37 68 39 69 40 70 41 71 42 72 66 73 67 74 75 75 68 76
REMARK SMILES IDX 70 77 76 78 69 79 71 80 72 81 73 82 74 83 51 84 52 85 60 86
REMARK SMILES IDX 53 87 55 88 61 89 54 90 56 91 57 92 58 93 59 94
REMARK H PARENT 18 5 22 28 81 47 49 58
REMARK Flexibility Score: inf
ROOT
ATOM      1  C   UNL     1       0.864  -3.256   8.488  1.00  0.00     0.117 C 
ENDROOT
BRANCH   1   2
ATOM      2  N   UNL     1       0.087  -4.481   8.605  1.00  0.00    -0.356 N 
ATOM      3  C   UNL     1      -0.671  -5.173   7.721  1.00  0.00     0.224 C 
ATOM      4  O   UNL     1      -1.615  -5.793   8.229  1.00  0.00    -0.275 OA
ATOM      5  H   UNL     1       0.119  -4.886   9.502  1.00  0.00     0.163 HD
BRANCH   3   6
ATOM      6  C   UNL     1      -0.388  -5.362   6.230  1.00  0.00     0.095 C 
ATOM      7  C   UNL     1       0.549  -6.541   5.906  1.00  0.00     0.095 C 
ATOM      8  C   UNL     1       1.984  -6.299   6.375  1.00  0.00     0.041 C 
ATOM      9  C   UNL     1       2.467  -4.961   5.873  1.00  0.00    -0.030 C 
ATOM     10  C   UNL     1       0.120  -4.123   5.467  1.00  0.00     0.041 C 
ATOM     11  C   UNL     1       1.633  -4.012   5.412  1.00  0.00    -0.030 C 
BRANCH   7  12
ATOM     12  C   UNL     1       0.060  -7.990   6.003  1.00  0.00     0.226 C 
ATOM     13  O   UNL     1      -0.250  -8.563   4.948  1.00  0.00    -0.275 OA
BRANCH  12  14
ATOM     14  N   UNL     1       0.083  -8.705   7.170  1.00  0.00    -0.341 N 
ATOM     15  C   UNL     1       0.647 -10.590   8.414  1.00  0.00     0.123 C 
ATOM     16  C   UNL     1      -0.060 -10.149   7.143  1.00  0.00     0.135 C 
ATOM     17  C   UNL     1       0.343  -9.460   9.421  1.00  0.00     0.021 C 
ATOM     18  C   UNL     1      -0.005  -8.245   8.539  1.00  0.00     0.123 C 
ATOM     19  C   UNL     1      -0.778  -9.755  10.420  1.00  0.00     0.010 C 
BRANCH  15  20
ATOM     20  C   UNL     1       0.245 -11.985   8.824  1.00  0.00     0.310 C 
ATOM     21  O   UNL     1      -0.521 -12.710   8.209  1.00  0.00    -0.252 OA
BRANCH  20  22
ATOM     22  O   UNL     1       0.897 -12.336   9.970  1.00  0.00    -0.469 OA
ATOM     23  C   UNL     1       0.512 -13.610  10.487  1.00  0.00     0.282 C 
ENDBRANCH  20  22
ENDBRANCH  15  20
ENDBRANCH  12  14
ENDBRANCH   7  12
ENDBRANCH   3   6
ENDBRANCH   1   2
BRANCH   1  24
ATOM     24  C   UNL     1       0.073  -2.051   8.989  1.00  0.00     0.042 C 
BRANCH  24  25
ATOM     25  C   UNL     1      -0.021  -1.988  10.507  1.00  0.00     0.118 C 
BRANCH  25  26
ATOM     26  N   UNL     1       1.282  -1.759  11.126  1.00  0.00    -0.352 N 
ATOM     27  C   UNL     1       1.768  -0.651  11.777  1.00  0.00     0.251 C 
ATOM     28  H   UNL     1       1.908  -2.516  11.069  1.00  0.00     0.163 HD
ATOM     29  O   UNL     1       2.972  -0.561  12.004  1.00  0.00    -0.269 OA
BRANCH  27  30
ATOM     30  C   UNL     1       0.851   0.430  12.192  1.00  0.00     0.039 A 
ATOM     31  C   UNL     1       1.242   1.761  12.023  1.00  0.00     0.014 A 
ATOM     32  C   UNL     1      -0.392   0.131  12.754  1.00  0.00     0.014 A 
ATOM     33  C   UNL     1       0.351   2.789  12.341  1.00  0.00     0.010 A 
ATOM     34  C   UNL     1      -1.310   1.149  12.984  1.00  0.00     0.010 A 
ATOM     35  C   UNL     1      -0.950   2.489  12.778  1.00  0.00    -0.014 A 
BRANCH  35  36
ATOM     36  C   UNL     1      -1.967   3.549  12.992  1.00  0.00     0.031 A 
ATOM     37  C   UNL     1      -2.590   3.740  14.348  1.00  0.00     0.074 A 
ATOM     38  C   UNL     1      -2.413   4.258  11.935  1.00  0.00     0.049 A 
ATOM     39  N   UNL     1      -3.570   4.530  14.700  1.00  0.00    -0.248 NA
ATOM     40  C   UNL     1      -2.062   2.913  15.446  1.00  0.00     0.031 C 
ATOM     41  C   UNL     1      -1.938   4.110  10.557  1.00  0.00     0.029 A 
ATOM     42  N   UNL     1      -3.392   5.215  11.847  1.00  0.00    -0.354 N 
ATOM     43  C   UNL     1      -3.803   4.271  16.045  1.00  0.00     0.074 A 
ATOM     44  C   UNL     1      -2.881   3.228  16.440  1.00  0.00     0.031 C 
ATOM     45  C   UNL     1      -2.626   4.943   9.762  1.00  0.00     0.029 A 
ATOM     46  C   UNL     1      -3.621   5.650  10.561  1.00  0.00     0.049 A 
ATOM     47  H   UNL     1      -3.883   5.559  12.628  1.00  0.00     0.167 HD
ATOM     48  C   UNL     1      -4.688   4.863  16.881  1.00  0.00     0.034 A 
ATOM     49  C   UNL     1      -4.545   6.501  10.075  1.00  0.00     0.034 A 
ATOM     50  C   UNL     1      -5.580   5.920  16.489  1.00  0.00     0.049 A 
ATOM     51  C   UNL     1      -5.513   7.149  11.028  1.00  0.00     0.074 A 
ATOM     52  C   UNL     1      -6.447   6.652  17.282  1.00  0.00     0.029 A 
ATOM     53  N   UNL     1      -5.737   6.384  15.192  1.00  0.00    -0.354 N 
ATOM     54  N   UNL     1      -5.606   7.013  12.328  1.00  0.00    -0.248 NA
ATOM     55  C   UNL     1      -6.486   8.087  10.450  1.00  0.00     0.031 C 
ATOM     56  C   UNL     1      -7.156   7.530  16.457  1.00  0.00     0.029 A 
ATOM     57  C   UNL     1      -6.706   7.372  15.156  1.00  0.00     0.049 A 
ATOM     58  H   UNL     1      -5.234   6.059  14.411  1.00  0.00     0.167 HD
ATOM     59  C   UNL     1      -6.630   7.863  12.728  1.00  0.00     0.074 A 
ATOM     60  C   UNL     1      -7.104   8.534  11.535  1.00  0.00     0.031 C 
ATOM     61  C   UNL     1      -7.144   8.058  13.967  1.00  0.00     0.034 A 
BRANCH  48  62
ATOM     62  C   UNL     1      -4.711   4.406  18.317  1.00  0.00     0.023 A 
ATOM     63  C   UNL     1      -3.631   4.721  19.168  1.00  0.00     0.012 A 
ATOM     64  C   UNL     1      -5.826   3.722  18.841  1.00  0.00     0.148 A 
ATOM     65  C   UNL     1      -3.644   4.330  20.507  1.00  0.00     0.002 A 
ATOM     66  C   UNL     1      -5.852   3.378  20.188  1.00  0.00     0.091 A 
ATOM     67  F   UNL     1      -6.834   3.415  18.013  1.00  0.00    -0.205 F 
ATOM     68  C   UNL     1      -4.757   3.670  21.018  1.00  0.00     0.022 A 
BRANCH  66  69
ATOM     69  S   UNL     1      -7.270   2.596  20.963  1.00  0.00     0.127 S 
ATOM     70  O   UNL     1      -6.745   1.265  21.263  1.00  0.00    -0.237 OA
ATOM     71  O   UNL     1      -7.485   3.445  22.135  1.00  0.00    -0.237 OA
ATOM     72  O   UNL     1      -8.341   2.635  19.978  1.00  0.00    -0.744 OA
ENDBRANCH  66  69
ENDBRANCH  48  62
BRANCH  49  73
ATOM     73  C   UNL     1      -4.580   6.812   8.618  1.00  0.00     0.023 A 
ATOM     74  C   UNL     1      -4.218   8.100   8.176  1.00  0.00     0.012 A 
ATOM     75  C   UNL     1      -4.942   5.837   7.668  1.00  0.00     0.148 A 
ATOM     76  C   UNL     1      -4.250   8.420   6.818  1.00  0.00     0.002 A 
ATOM     77  C   UNL     1      -4.914   6.145   6.314  1.00  0.00     0.091 A 
ATOM     78  F   UNL     1      -5.292   4.621   8.110  1.00  0.00    -0.205 F 
ATOM     79  C   UNL     1      -4.587   7.442   5.887  1.00  0.00     0.022 A 
BRANCH  77  80
ATOM     80  S   UNL     1      -5.201   4.914   5.038  1.00  0.00     0.127 S 
ATOM     81  O   UNL     1      -6.474   5.356   4.476  1.00  0.00    -0.237 OA
ATOM     82  O   UNL     1      -4.040   5.108   4.167  1.00  0.00    -0.237 OA
ATOM     83  O   UNL     1      -5.225   3.631   5.727  1.00  0.00    -0.744 OA
ENDBRANCH  77  80
ENDBRANCH  49  73
BRANCH  61  84
ATOM     84  C   UNL     1      -8.272   9.047  14.107  1.00  0.00     0.023 A 
ATOM     85  C   UNL     1      -9.551   8.722  13.612  1.00  0.00     0.012 A 
ATOM     86  C   UNL     1      -8.084  10.262  14.793  1.00  0.00     0.148 A 
ATOM     87  C   UNL     1     -10.618   9.606  13.770  1.00  0.00     0.002 A 
ATOM     88  C   UNL     1      -9.163  11.115  14.993  1.00  0.00     0.091 A 
ATOM     89  F   UNL     1      -6.856  10.558  15.244  1.00  0.00    -0.205 F 
ATOM     90  C   UNL     1     -10.427  10.795  14.470  1.00  0.00     0.022 A 
BRANCH  88  91
ATOM     91  S   UNL     1      -9.040  12.622  15.962  1.00  0.00     0.127 S 
ATOM     92  O   UNL     1      -9.235  13.650  14.941  1.00  0.00    -0.237 OA
ATOM     93  O   UNL     1     -10.152  12.476  16.901  1.00  0.00    -0.237 OA
ATOM     94  O   UNL     1      -7.719  12.601  16.577  1.00  0.00    -0.744 OA
ENDBRANCH  88  91
ENDBRANCH  61  84
ENDBRANCH  35  36
ENDBRANCH  27  30
ENDBRANCH  25  26
ENDBRANCH  24  25
ENDBRANCH   1  24
TORSDOF 17
