REMARK SMILES CC(C)(C)c1cc2c(cc1Cl)C=C(C(=O)NCCCNC(=O)c1ccc(-c3c4nc(c(-c5cccc(S(=O)(=O)[O-])c5F)c5ccc([nH]5)c(-c5cccc(S(=O)(=O)[O-])c5F)c5nc(c(-c6cccc(S(=O)(=O)[O-])c6F)c6ccc3[nH]6)C=C5)C=C4)cc1)[C@@H](C(F)(F)F)O2
REMARK SMILES IDX 19 1 18 2 17 3 16 4 14 5 15 6 13 8 5 9 6 10 10 11 7 12 9 13
REMARK SMILES IDX 11 14 8 15 91 16 12 17 86 18 2 19 1 20 3 21 4 22 87 23 88 24
REMARK SMILES IDX 89 25 90 26 20 27 21 28 22 30 23 31 24 32 85 33 25 34 84 35
REMARK SMILES IDX 26 36 27 37 28 38 78 39 29 40 83 41 77 42 79 43 30 44 82 45
REMARK SMILES IDX 76 46 75 47 31 49 63 50 43 51 62 52 44 53 47 54 61 55 80 56
REMARK SMILES IDX 45 57 46 58 60 60 81 61 48 62 32 63 33 64 41 65 34 66 36 67
REMARK SMILES IDX 42 68 35 69 37 70 38 71 39 72 40 73 64 74 65 75 73 76 66 77
REMARK SMILES IDX 68 78 74 79 67 80 69 81 70 82 71 83 72 84 49 85 50 86 58 87
REMARK SMILES IDX 51 88 53 89 59 90 52 91 54 92 55 93 56 94 57 95
REMARK H PARENT 16 7 20 29 79 48 47 59
REMARK Flexibility Score: inf
ROOT
ATOM      1  C   UNL     1       6.636  -8.004   6.669  1.00  0.00     0.118 C 
ENDROOT
BRANCH   1   2
ATOM      2  C   UNL     1       6.215  -6.687   6.029  1.00  0.00     0.042 C 
BRANCH   2   3
ATOM      3  C   UNL     1       6.171  -6.769   4.511  1.00  0.00     0.118 C 
BRANCH   3   4
ATOM      4  N   UNL     1       4.989  -7.472   4.037  1.00  0.00    -0.352 N 
ATOM      5  C   UNL     1       3.801  -7.153   3.472  1.00  0.00     0.251 C 
ATOM      6  O   UNL     1       3.066  -8.112   3.217  1.00  0.00    -0.270 OA
ATOM      7  H   UNL     1       5.077  -8.445   4.160  1.00  0.00     0.163 HD
BRANCH   5   8
ATOM      8  C   UNL     1       3.349  -5.771   3.146  1.00  0.00     0.067 C 
ATOM      9  C   UNL     1       0.697  -1.704   1.631  1.00  0.00    -0.020 A 
ATOM     10  C   UNL     1       1.836  -1.936   2.436  1.00  0.00     0.053 A 
ATOM     11  C   UNL     1       0.063  -2.860   1.114  1.00  0.00     0.045 A 
ATOM     12  C   UNL     1       2.298  -3.221   2.720  1.00  0.00     0.128 A 
ATOM     13  C   UNL     1       0.510  -4.156   1.444  1.00  0.00     0.032 A 
ATOM     14  Cl  UNL     1      -1.260  -2.828   0.001  1.00  0.00    -0.084 Cl
ATOM     15  C   UNL     1       1.630  -4.340   2.248  1.00  0.00     0.019 A 
ATOM     16  O   UNL     1       3.418  -3.311   3.498  1.00  0.00    -0.475 OA
ATOM     17  C   UNL     1       2.115  -5.664   2.616  1.00  0.00     0.025 C 
ATOM     18  C   UNL     1       4.186  -4.537   3.338  1.00  0.00     0.314 C 
BRANCH   9  19
ATOM     19  C   UNL     1       0.275  -0.242   1.337  1.00  0.00    -0.012 C 
ATOM     20  C   UNL     1       0.775   0.141  -0.070  1.00  0.00     0.016 C 
ATOM     21  C   UNL     1       0.895   0.780   2.332  1.00  0.00     0.016 C 
ATOM     22  C   UNL     1      -1.250  -0.010   1.433  1.00  0.00     0.016 C 
ENDBRANCH   9  19
BRANCH  18  23
ATOM     23  C   UNL     1       5.226  -4.354   2.214  1.00  0.00     0.429 C 
ATOM     24  F   UNL     1       6.179  -3.464   2.586  1.00  0.00    -0.167 F 
ATOM     25  F   UNL     1       5.872  -5.505   1.910  1.00  0.00    -0.167 F 
ATOM     26  F   UNL     1       4.680  -3.903   1.062  1.00  0.00    -0.167 F 
ENDBRANCH  18  23
ENDBRANCH   5   8
ENDBRANCH   3   4
ENDBRANCH   2   3
ENDBRANCH   1   2
BRANCH   1  27
ATOM     27  N   UNL     1       8.025  -8.345   6.365  1.00  0.00    -0.352 N 
ATOM     28  C   UNL     1       9.134  -8.370   7.178  1.00  0.00     0.251 C 
ATOM     29  H   UNL     1       8.193  -8.597   5.428  1.00  0.00     0.163 HD
ATOM     30  O   UNL     1      10.251  -8.452   6.674  1.00  0.00    -0.269 OA
BRANCH  28  31
ATOM     31  C   UNL     1       8.976  -8.276   8.643  1.00  0.00     0.039 A 
ATOM     32  C   UNL     1       7.948  -8.968   9.280  1.00  0.00     0.014 A 
ATOM     33  C   UNL     1       9.855  -7.484   9.389  1.00  0.00     0.014 A 
ATOM     34  C   UNL     1       7.667  -8.704  10.613  1.00  0.00     0.010 A 
ATOM     35  C   UNL     1       9.638  -7.311  10.760  1.00  0.00     0.010 A 
ATOM     36  C   UNL     1       8.507  -7.873  11.372  1.00  0.00    -0.014 A 
BRANCH  36  37
ATOM     37  C   UNL     1       8.169  -7.627  12.798  1.00  0.00     0.031 A 
ATOM     38  C   UNL     1       7.853  -6.241  13.294  1.00  0.00     0.074 A 
ATOM     39  C   UNL     1       8.072  -8.681  13.633  1.00  0.00     0.049 A 
ATOM     40  N   UNL     1       7.471  -5.869  14.489  1.00  0.00    -0.248 NA
ATOM     41  C   UNL     1       7.984  -5.127  12.340  1.00  0.00     0.031 C 
ATOM     42  C   UNL     1       8.374 -10.069  13.272  1.00  0.00     0.029 A 
ATOM     43  N   UNL     1       7.659  -8.762  14.938  1.00  0.00    -0.354 N 
ATOM     44  C   UNL     1       7.366  -4.485  14.445  1.00  0.00     0.074 A 
ATOM     45  C   UNL     1       7.721  -4.075  13.105  1.00  0.00     0.031 C 
ATOM     46  C   UNL     1       8.068 -10.869  14.302  1.00  0.00     0.029 A 
ATOM     47  C   UNL     1       7.609 -10.050  15.418  1.00  0.00     0.049 A 
ATOM     48  H   UNL     1       7.423  -7.974  15.479  1.00  0.00     0.167 HD
ATOM     49  C   UNL     1       6.987  -3.634  15.427  1.00  0.00     0.034 A 
ATOM     50  C   UNL     1       7.235 -10.526  16.621  1.00  0.00     0.034 A 
ATOM     51  C   UNL     1       6.564  -4.047  16.736  1.00  0.00     0.049 A 
ATOM     52  C   UNL     1       6.786  -9.563  17.679  1.00  0.00     0.074 A 
ATOM     53  C   UNL     1       6.111  -3.257  17.778  1.00  0.00     0.029 A 
ATOM     54  N   UNL     1       6.531  -5.358  17.181  1.00  0.00    -0.354 N 
ATOM     55  N   UNL     1       6.629  -8.265  17.591  1.00  0.00    -0.248 NA
ATOM     56  C   UNL     1       6.460 -10.124  18.997  1.00  0.00     0.031 C 
ATOM     57  C   UNL     1       5.804  -4.092  18.856  1.00  0.00     0.029 A 
ATOM     58  C   UNL     1       6.065  -5.401  18.483  1.00  0.00     0.049 A 
ATOM     59  H   UNL     1       6.798  -6.143  16.650  1.00  0.00     0.167 HD
ATOM     60  C   UNL     1       6.184  -7.852  18.839  1.00  0.00     0.074 A 
ATOM     61  C   UNL     1       6.070  -9.041  19.659  1.00  0.00     0.031 C 
ATOM     62  C   UNL     1       5.917  -6.597  19.270  1.00  0.00     0.034 A 
BRANCH  49  63
ATOM     63  C   UNL     1       6.955  -2.162  15.119  1.00  0.00     0.023 A 
ATOM     64  C   UNL     1       5.850  -1.627  14.430  1.00  0.00     0.012 A 
ATOM     65  C   UNL     1       7.957  -1.300  15.606  1.00  0.00     0.148 A 
ATOM     66  C   UNL     1       5.744  -0.253  14.222  1.00  0.00     0.002 A 
ATOM     67  C   UNL     1       7.830   0.072  15.419  1.00  0.00     0.091 A 
ATOM     68  F   UNL     1       9.004  -1.836  16.248  1.00  0.00    -0.205 F 
ATOM     69  C   UNL     1       6.727   0.596  14.725  1.00  0.00     0.022 A 
BRANCH  67  70
ATOM     70  S   UNL     1       9.011   1.258  16.072  1.00  0.00     0.127 S 
ATOM     71  O   UNL     1       9.583   1.809  14.844  1.00  0.00    -0.237 OA
ATOM     72  O   UNL     1       8.146   2.178  16.809  1.00  0.00    -0.237 OA
ATOM     73  O   UNL     1       9.937   0.494  16.897  1.00  0.00    -0.744 OA
ENDBRANCH  67  70
ENDBRANCH  49  63
BRANCH  50  74
ATOM     74  C   UNL     1       7.230 -11.996  16.849  1.00  0.00     0.023 A 
ATOM     75  C   UNL     1       6.002 -12.682  16.884  1.00  0.00     0.012 A 
ATOM     76  C   UNL     1       8.433 -12.724  16.927  1.00  0.00     0.148 A 
ATOM     77  C   UNL     1       5.972 -14.073  16.992  1.00  0.00     0.002 A 
ATOM     78  C   UNL     1       8.396 -14.111  16.986  1.00  0.00     0.091 A 
ATOM     79  F   UNL     1       9.587 -12.043  16.900  1.00  0.00    -0.205 F 
ATOM     80  C   UNL     1       7.167 -14.787  17.029  1.00  0.00     0.022 A 
BRANCH  78  81
ATOM     81  S   UNL     1       9.881 -15.120  16.905  1.00  0.00     0.127 S 
ATOM     82  O   UNL     1       9.905 -15.721  18.236  1.00  0.00    -0.237 OA
ATOM     83  O   UNL     1       9.556 -16.042  15.816  1.00  0.00    -0.237 OA
ATOM     84  O   UNL     1      10.970 -14.198  16.611  1.00  0.00    -0.744 OA
ENDBRANCH  78  81
ENDBRANCH  50  74
BRANCH  62  85
ATOM     85  C   UNL     1       5.478  -6.421  20.695  1.00  0.00     0.023 A 
ATOM     86  C   UNL     1       6.450  -6.404  21.712  1.00  0.00     0.012 A 
ATOM     87  C   UNL     1       4.134  -6.140  21.006  1.00  0.00     0.148 A 
ATOM     88  C   UNL     1       6.090  -6.112  23.026  1.00  0.00     0.002 A 
ATOM     89  C   UNL     1       3.788  -5.819  22.312  1.00  0.00     0.091 A 
ATOM     90  F   UNL     1       3.230  -6.171  20.016  1.00  0.00    -0.205 F 
ATOM     91  C   UNL     1       4.763  -5.807  23.323  1.00  0.00     0.022 A 
BRANCH  89  92
ATOM     92  S   UNL     1       2.122  -5.340  22.782  1.00  0.00     0.127 S 
ATOM     93  O   UNL     1       1.732  -6.442  23.660  1.00  0.00    -0.237 OA
ATOM     94  O   UNL     1       2.349  -4.066  23.465  1.00  0.00    -0.237 OA
ATOM     95  O   UNL     1       1.364  -5.240  21.543  1.00  0.00    -0.744 OA
ENDBRANCH  89  92
ENDBRANCH  62  85
ENDBRANCH  36  37
ENDBRANCH  28  31
ENDBRANCH   1  27
TORSDOF 15
