REMARK SMILES Cc1c(Cl)cccc1NC(=O)C[C@](C)(C(=O)NCCCNC(=O)c1ccc(-c2c3nc(c(-c4cccc(S(=O)(=O)[O-])c4F)c4ccc([nH]4)c(-c4cccc(S(=O)(=O)[O-])c4F)c4nc(c(-c5cccc(S(=O)(=O)[O-])c5F)c5ccc2[nH]5)C=C4)C=C3)cc1)c1ccccc1
REMARK SMILES IDX 19 1 18 2 17 3 15 4 16 5 13 7 14 8 12 9 10 10 9 11 11 13
REMARK SMILES IDX 8 14 1 15 2 16 3 17 4 18 5 19 7 20 6 21 87 22 88 23 92 24
REMARK SMILES IDX 89 25 91 26 90 27 20 28 21 29 22 30 23 32 24 33 25 34 86 35
REMARK SMILES IDX 26 36 85 37 27 38 28 39 29 40 79 41 30 42 84 43 78 44 80 45
REMARK SMILES IDX 31 46 83 47 77 48 76 49 32 51 64 52 44 53 63 54 45 55 48 56
REMARK SMILES IDX 62 57 81 58 46 59 47 60 61 62 82 63 49 64 33 65 34 66 42 67
REMARK SMILES IDX 35 68 37 69 43 70 36 71 38 72 39 73 40 74 41 75 65 76 66 77
REMARK SMILES IDX 74 78 67 79 69 80 75 81 68 82 70 83 71 84 72 85 73 86 50 87
REMARK SMILES IDX 51 88 59 89 52 90 54 91 60 92 53 93 55 94 56 95 57 96 58 97
REMARK H PARENT 17 6 9 12 21 31 80 50 48 61
REMARK Flexibility Score: inf
ROOT
ATOM      1  C   UNL     1      -4.453  -1.811   3.280  1.00  0.00     0.042 C 
ENDROOT
BRANCH   1   2
ATOM      2  C   UNL     1      -4.288  -2.213   1.632  1.00  0.00     0.117 C 
BRANCH   2   3
ATOM      3  N   UNL     1      -5.144  -1.461  -0.121  1.00  0.00    -0.355 N 
ATOM      4  C   UNL     1      -5.169  -0.605  -1.276  1.00  0.00     0.230 C 
ATOM      5  O   UNL     1      -6.148  -0.906  -1.985  1.00  0.00    -0.274 OA
ATOM      6  H   UNL     1      -5.986  -1.967  -0.197  1.00  0.00     0.163 HD
BRANCH   4   7
ATOM      7  C   UNL     1      -4.226   0.648  -1.706  1.00  0.00     0.080 C 
ATOM      8  C   UNL     1      -4.562   1.816  -0.703  1.00  0.00     0.027 C 
BRANCH   7   9
ATOM      9  C   UNL     1      -2.683   0.372  -1.828  1.00  0.00     0.121 C 
BRANCH   9  10
ATOM     10  C   UNL     1      -2.195  -1.024  -2.163  1.00  0.00     0.225 C 
ATOM     11  N   UNL     1      -2.318  -2.042  -1.266  1.00  0.00    -0.326 N 
ATOM     12  H   UNL     1      -1.738  -2.830  -1.372  1.00  0.00     0.169 HD
ATOM     13  O   UNL     1      -1.637  -1.263  -3.238  1.00  0.00    -0.275 OA
BRANCH  11  14
ATOM     14  C   UNL     1      -3.220  -2.025  -0.209  1.00  0.00     0.045 A 
ATOM     15  C   UNL     1      -3.940  -4.786  -0.542  1.00  0.00     0.048 C 
ATOM     16  C   UNL     1      -4.401  -3.398  -0.189  1.00  0.00    -0.009 A 
ATOM     17  C   UNL     1      -5.966  -3.226   0.702  1.00  0.00     0.046 A 
ATOM     18  Cl  UNL     1      -7.029  -4.565   0.881  1.00  0.00    -0.084 Cl
ATOM     19  C   UNL     1      -6.381  -1.678   1.515  1.00  0.00     0.021 A 
ATOM     20  C   UNL     1      -3.582  -0.489   0.725  1.00  0.00     0.026 A 
ATOM     21  C   UNL     1      -5.204  -0.301   1.524  1.00  0.00     0.004 A 
ENDBRANCH  11  14
ENDBRANCH   9  10
ENDBRANCH   7   9
BRANCH   7  22
ATOM     22  C   UNL     1      -4.569   1.340  -3.092  1.00  0.00    -0.032 A 
ATOM     23  C   UNL     1      -4.090   2.667  -3.313  1.00  0.00     0.005 A 
ATOM     24  C   UNL     1      -5.309   0.765  -4.126  1.00  0.00     0.005 A 
ATOM     25  C   UNL     1      -4.443   3.417  -4.429  1.00  0.00     0.000 A 
ATOM     26  C   UNL     1      -5.654   1.518  -5.260  1.00  0.00     0.000 A 
ATOM     27  C   UNL     1      -5.245   2.844  -5.400  1.00  0.00     0.000 A 
ENDBRANCH   7  22
ENDBRANCH   4   7
ENDBRANCH   2   3
ENDBRANCH   1   2
BRANCH   1  28
ATOM     28  C   UNL     1      -4.925  -3.014   4.075  1.00  0.00     0.118 C 
BRANCH  28  29
ATOM     29  N   UNL     1      -4.134  -4.225   3.878  1.00  0.00    -0.352 N 
ATOM     30  C   UNL     1      -4.410  -5.451   4.436  1.00  0.00     0.251 C 
ATOM     31  H   UNL     1      -3.340  -4.159   3.300  1.00  0.00     0.163 HD
ATOM     32  O   UNL     1      -3.770  -6.457   4.170  1.00  0.00    -0.269 OA
BRANCH  30  33
ATOM     33  C   UNL     1      -5.444  -5.432   5.478  1.00  0.00     0.039 A 
ATOM     34  C   UNL     1      -4.986  -5.333   6.792  1.00  0.00     0.014 A 
ATOM     35  C   UNL     1      -6.760  -5.121   5.126  1.00  0.00     0.014 A 
ATOM     36  C   UNL     1      -5.857  -4.881   7.770  1.00  0.00     0.010 A 
ATOM     37  C   UNL     1      -7.582  -4.549   6.085  1.00  0.00     0.010 A 
ATOM     38  C   UNL     1      -7.149  -4.460   7.418  1.00  0.00    -0.014 A 
BRANCH  38  39
ATOM     39  C   UNL     1      -8.080  -4.023   8.479  1.00  0.00     0.031 A 
ATOM     40  C   UNL     1      -9.307  -4.847   8.738  1.00  0.00     0.074 A 
ATOM     41  C   UNL     1      -7.800  -2.932   9.218  1.00  0.00     0.049 A 
ATOM     42  N   UNL     1     -10.197  -4.716   9.682  1.00  0.00    -0.248 NA
ATOM     43  C   UNL     1      -9.585  -5.954   7.804  1.00  0.00     0.031 C 
ATOM     44  C   UNL     1      -6.667  -2.026   9.004  1.00  0.00     0.029 A 
ATOM     45  N   UNL     1      -8.443  -2.405  10.307  1.00  0.00    -0.354 N 
ATOM     46  C   UNL     1     -11.145  -5.699   9.437  1.00  0.00     0.074 A 
ATOM     47  C   UNL     1     -10.761  -6.382   8.227  1.00  0.00     0.031 C 
ATOM     48  C   UNL     1      -6.678  -1.076   9.953  1.00  0.00     0.029 A 
ATOM     49  C   UNL     1      -7.832  -1.284  10.821  1.00  0.00     0.049 A 
ATOM     50  H   UNL     1      -9.264  -2.792  10.687  1.00  0.00     0.167 HD
ATOM     51  C   UNL     1     -12.225  -6.031  10.177  1.00  0.00     0.034 A 
ATOM     52  C   UNL     1      -8.175  -0.515  11.873  1.00  0.00     0.034 A 
ATOM     53  C   UNL     1     -12.580  -5.362  11.393  1.00  0.00     0.049 A 
ATOM     54  C   UNL     1      -9.374  -0.915  12.690  1.00  0.00     0.074 A 
ATOM     55  C   UNL     1     -13.613  -5.653  12.263  1.00  0.00     0.029 A 
ATOM     56  N   UNL     1     -11.924  -4.250  11.898  1.00  0.00    -0.354 N 
ATOM     57  N   UNL     1     -10.179  -1.938  12.526  1.00  0.00    -0.248 NA
ATOM     58  C   UNL     1      -9.694  -0.079  13.855  1.00  0.00     0.031 C 
ATOM     59  C   UNL     1     -13.617  -4.680  13.265  1.00  0.00     0.029 A 
ATOM     60  C   UNL     1     -12.545  -3.824  13.056  1.00  0.00     0.049 A 
ATOM     61  H   UNL     1     -11.133  -3.826  11.492  1.00  0.00     0.167 HD
ATOM     62  C   UNL     1     -11.078  -1.890  13.584  1.00  0.00     0.074 A 
ATOM     63  C   UNL     1     -10.701  -0.750  14.396  1.00  0.00     0.031 C 
ATOM     64  C   UNL     1     -12.125  -2.706  13.860  1.00  0.00     0.034 A 
BRANCH  51  65
ATOM     65  C   UNL     1     -13.084  -7.163   9.687  1.00  0.00     0.023 A 
ATOM     66  C   UNL     1     -12.593  -8.486   9.693  1.00  0.00     0.012 A 
ATOM     67  C   UNL     1     -14.395  -6.914   9.243  1.00  0.00     0.148 A 
ATOM     68  C   UNL     1     -13.383  -9.537   9.229  1.00  0.00     0.002 A 
ATOM     69  C   UNL     1     -15.195  -7.972   8.838  1.00  0.00     0.091 A 
ATOM     70  F   UNL     1     -14.829  -5.646   9.215  1.00  0.00    -0.205 F 
ATOM     71  C   UNL     1     -14.687  -9.282   8.815  1.00  0.00     0.022 A 
BRANCH  69  72
ATOM     72  S   UNL     1     -16.913  -7.757   8.367  1.00  0.00     0.127 S 
ATOM     73  O   UNL     1     -16.880  -8.122   6.952  1.00  0.00    -0.237 OA
ATOM     74  O   UNL     1     -17.587  -8.726   9.232  1.00  0.00    -0.237 OA
ATOM     75  O   UNL     1     -17.237  -6.364   8.641  1.00  0.00    -0.744 OA
ENDBRANCH  69  72
ENDBRANCH  51  65
BRANCH  52  76
ATOM     76  C   UNL     1      -7.364   0.685  12.227  1.00  0.00     0.023 A 
ATOM     77  C   UNL     1      -6.637   0.724  13.433  1.00  0.00     0.012 A 
ATOM     78  C   UNL     1      -7.311   1.794  11.360  1.00  0.00     0.148 A 
ATOM     79  C   UNL     1      -5.906   1.861  13.787  1.00  0.00     0.002 A 
ATOM     80  C   UNL     1      -6.534   2.897  11.689  1.00  0.00     0.091 A 
ATOM     81  F   UNL     1      -8.017   1.742  10.222  1.00  0.00    -0.205 F 
ATOM     82  C   UNL     1      -5.848   2.943  12.912  1.00  0.00     0.022 A 
BRANCH  80  83
ATOM     83  S   UNL     1      -6.298   4.275  10.562  1.00  0.00     0.127 S 
ATOM     84  O   UNL     1      -6.990   5.355  11.261  1.00  0.00    -0.237 OA
ATOM     85  O   UNL     1      -4.840   4.391  10.534  1.00  0.00    -0.237 OA
ATOM     86  O   UNL     1      -6.891   3.858   9.299  1.00  0.00    -0.744 OA
ENDBRANCH  80  83
ENDBRANCH  52  76
BRANCH  64  87
ATOM     87  C   UNL     1     -12.909  -2.430  15.114  1.00  0.00     0.023 A 
ATOM     88  C   UNL     1     -13.734  -1.292  15.201  1.00  0.00     0.012 A 
ATOM     89  C   UNL     1     -12.880  -3.351  16.179  1.00  0.00     0.148 A 
ATOM     90  C   UNL     1     -14.483  -1.051  16.352  1.00  0.00     0.002 A 
ATOM     91  C   UNL     1     -13.676  -3.137  17.295  1.00  0.00     0.091 A 
ATOM     92  F   UNL     1     -12.079  -4.422  16.077  1.00  0.00    -0.205 F 
ATOM     93  C   UNL     1     -14.464  -1.979  17.391  1.00  0.00     0.022 A 
BRANCH  91  94
ATOM     94  S   UNL     1     -13.796  -4.329  18.631  1.00  0.00     0.127 S 
ATOM     95  O   UNL     1     -13.134  -3.617  19.723  1.00  0.00    -0.237 OA
ATOM     96  O   UNL     1     -15.244  -4.473  18.785  1.00  0.00    -0.237 OA
ATOM     97  O   UNL     1     -13.113  -5.529  18.168  1.00  0.00    -0.744 OA
ENDBRANCH  91  94
ENDBRANCH  64  87
ENDBRANCH  38  39
ENDBRANCH  30  33
ENDBRANCH  28  29
ENDBRANCH   1  28
TORSDOF 17
