REMARK SMILES CC(=O)N1CCC2(CC1)C[C@H](C(=O)NCCCNC(=O)c1ccc(-c3c4nc(c(-c5cccc(S(=O)(=O)[O-])c5F)c5ccc([nH]5)c(-c5cccc(S(=O)(=O)[O-])c5F)c5nc(c(-c6cccc(S(=O)(=O)[O-])c6F)c6ccc3[nH]6)C=C5)C=C4)cc1)[N@H+](Cc1ncc[nH]1)C2
REMARK SMILES IDX 16 1 15 2 14 3 12 4 13 5 11 7 1 8 2 9 3 10 4 11 5 12 9 13
REMARK SMILES IDX 6 14 8 15 7 16 10 17 91 18 84 19 85 21 86 22 87 23 90 24
REMARK SMILES IDX 88 25 89 26 17 28 18 29 19 30 20 32 21 33 22 34 83 35 23 36
REMARK SMILES IDX 82 37 24 38 25 39 26 40 76 41 27 42 81 43 75 44 77 45 28 46
REMARK SMILES IDX 80 47 74 48 73 49 29 51 61 52 41 53 60 54 42 55 45 56 59 57
REMARK SMILES IDX 78 58 43 59 44 60 58 62 79 63 46 64 30 65 31 66 39 67 32 68
REMARK SMILES IDX 34 69 40 70 33 71 35 72 36 73 37 74 38 75 62 76 63 77 71 78
REMARK SMILES IDX 64 79 66 80 72 81 65 82 67 83 68 84 69 85 70 86 47 87 48 88
REMARK SMILES IDX 56 89 49 90 51 91 57 92 50 93 52 94 53 95 54 96 55 97
REMARK H PARENT 14 6 84 20 90 27 18 31 77 50 45 61
REMARK Flexibility Score: inf
ROOT
ATOM      1  C   UNL     1       3.216   8.963  -4.301  1.00  0.00     0.042 C 
ENDROOT
BRANCH   1   2
ATOM      2  C   UNL     1       2.189   8.082  -3.595  1.00  0.00     0.118 C 
BRANCH   2   3
ATOM      3  N   UNL     1       1.016   7.862  -4.417  1.00  0.00    -0.351 N 
ATOM      4  C   UNL     1       0.679   6.777  -5.180  1.00  0.00     0.278 C 
ATOM      5  O   UNL     1      -0.099   7.005  -6.108  1.00  0.00    -0.268 OA
ATOM      6  H   UNL     1       0.366   8.602  -4.428  1.00  0.00     0.163 HD
BRANCH   4   7
ATOM      7  C   UNL     1       1.346   5.414  -4.880  1.00  0.00     0.275 C 
ATOM      8  C   UNL     1       1.699  -0.186  -0.021  1.00  0.00     0.114 C 
ATOM      9  C   UNL     1       0.808  -0.180  -1.231  1.00  0.00     0.219 C 
ATOM     10  O   UNL     1      -0.231  -0.843  -1.226  1.00  0.00    -0.275 OA
ATOM     11  N   UNL     1       1.152   0.664  -2.272  1.00  0.00    -0.343 N 
ATOM     12  C   UNL     1       0.109   1.050  -3.196  1.00  0.00     0.120 C 
ATOM     13  C   UNL     1       2.465   1.254  -2.546  1.00  0.00     0.120 C 
ATOM     14  C   UNL     1      -0.031   2.566  -3.133  1.00  0.00     0.034 C 
ATOM     15  C   UNL     1       2.399   2.782  -2.686  1.00  0.00     0.034 C 
ATOM     16  C   UNL     1       1.247   3.296  -3.596  1.00  0.00     0.029 C 
ATOM     17  C   UNL     1       1.110   4.838  -3.474  1.00  0.00     0.088 C 
ATOM     18  C   UNL     1       1.514   3.093  -5.104  1.00  0.00     0.270 C 
ATOM     19  N   UNL     1       1.048   4.295  -5.803  1.00  0.00    -0.318 N 
ATOM     20  H   UNL     1       1.548   4.447  -6.679  1.00  0.00     0.349 HD
BRANCH  19  21
ATOM     21  C   UNL     1      -0.283   4.218  -6.430  1.00  0.00     0.339 C 
BRANCH  21  22
ATOM     22  C   UNL     1      -1.511   4.228  -5.559  1.00  0.00     0.161 A 
ATOM     23  N   UNL     1      -1.825   5.059  -4.581  1.00  0.00    -0.236 NA
ATOM     24  N   UNL     1      -2.501   3.277  -5.694  1.00  0.00    -0.344 N 
ATOM     25  C   UNL     1      -2.996   4.599  -4.039  1.00  0.00     0.131 A 
ATOM     26  C   UNL     1      -3.419   3.472  -4.697  1.00  0.00     0.104 A 
ATOM     27  H   UNL     1      -2.541   2.579  -6.387  1.00  0.00     0.167 HD
ENDBRANCH  21  22
ENDBRANCH  19  21
ENDBRANCH   4   7
ENDBRANCH   2   3
ENDBRANCH   1   2
BRANCH   1  28
ATOM     28  C   UNL     1       2.711  10.355  -4.677  1.00  0.00     0.118 C 
BRANCH  28  29
ATOM     29  N   UNL     1       2.288  11.139  -3.521  1.00  0.00    -0.352 N 
ATOM     30  C   UNL     1       2.761  12.336  -3.042  1.00  0.00     0.251 C 
ATOM     31  H   UNL     1       1.547  10.748  -3.003  1.00  0.00     0.163 HD
ATOM     32  O   UNL     1       2.374  12.753  -1.953  1.00  0.00    -0.269 OA
BRANCH  30  33
ATOM     33  C   UNL     1       3.756  13.110  -3.817  1.00  0.00     0.039 A 
ATOM     34  C   UNL     1       4.874  13.625  -3.155  1.00  0.00     0.014 A 
ATOM     35  C   UNL     1       3.593  13.322  -5.188  1.00  0.00     0.014 A 
ATOM     36  C   UNL     1       5.877  14.268  -3.885  1.00  0.00     0.010 A 
ATOM     37  C   UNL     1       4.623  13.902  -5.923  1.00  0.00     0.010 A 
ATOM     38  C   UNL     1       5.784  14.364  -5.283  1.00  0.00    -0.014 A 
BRANCH  38  39
ATOM     39  C   UNL     1       6.912  14.874  -6.106  1.00  0.00     0.031 A 
ATOM     40  C   UNL     1       6.747  16.104  -6.953  1.00  0.00     0.074 A 
ATOM     41  C   UNL     1       8.048  14.150  -6.182  1.00  0.00     0.049 A 
ATOM     42  N   UNL     1       7.577  16.624  -7.820  1.00  0.00    -0.248 NA
ATOM     43  C   UNL     1       5.475  16.834  -6.826  1.00  0.00     0.031 C 
ATOM     44  C   UNL     1       8.304  12.901  -5.462  1.00  0.00     0.029 A 
ATOM     45  N   UNL     1       9.183  14.336  -6.933  1.00  0.00    -0.354 N 
ATOM     46  C   UNL     1       6.919  17.717  -8.369  1.00  0.00     0.074 A 
ATOM     47  C   UNL     1       5.611  17.774  -7.752  1.00  0.00     0.031 C 
ATOM     48  C   UNL     1       9.510  12.429  -5.812  1.00  0.00     0.029 A 
ATOM     49  C   UNL     1      10.097  13.315  -6.811  1.00  0.00     0.049 A 
ATOM     50  H   UNL     1       9.329  15.126  -7.503  1.00  0.00     0.167 HD
ATOM     51  C   UNL     1       7.370  18.605  -9.287  1.00  0.00     0.034 A 
ATOM     52  C   UNL     1      11.265  13.099  -7.449  1.00  0.00     0.034 A 
ATOM     53  C   UNL     1       8.683  18.564  -9.873  1.00  0.00     0.049 A 
ATOM     54  C   UNL     1      11.743  14.103  -8.462  1.00  0.00     0.074 A 
ATOM     55  C   UNL     1       9.266  19.473 -10.739  1.00  0.00     0.029 A 
ATOM     56  N   UNL     1       9.610  17.553  -9.672  1.00  0.00    -0.354 N 
ATOM     57  N   UNL     1      11.176  15.221  -8.845  1.00  0.00    -0.248 NA
ATOM     58  C   UNL     1      13.032  13.830  -9.114  1.00  0.00     0.031 C 
ATOM     59  C   UNL     1      10.534  18.996 -11.085  1.00  0.00     0.029 A 
ATOM     60  C   UNL     1      10.752  17.804 -10.414  1.00  0.00     0.049 A 
ATOM     61  H   UNL     1       9.477  16.773  -9.087  1.00  0.00     0.167 HD
ATOM     62  C   UNL     1      12.050  15.798  -9.759  1.00  0.00     0.074 A 
ATOM     63  C   UNL     1      13.196  14.918  -9.855  1.00  0.00     0.031 C 
ATOM     64  C   UNL     1      11.908  16.945 -10.468  1.00  0.00     0.034 A 
BRANCH  51  65
ATOM     65  C   UNL     1       6.452  19.732  -9.685  1.00  0.00     0.023 A 
ATOM     66  C   UNL     1       6.198  20.776  -8.772  1.00  0.00     0.012 A 
ATOM     67  C   UNL     1       5.900  19.796 -10.979  1.00  0.00     0.148 A 
ATOM     68  C   UNL     1       5.383  21.849  -9.129  1.00  0.00     0.002 A 
ATOM     69  C   UNL     1       5.124  20.891 -11.342  1.00  0.00     0.091 A 
ATOM     70  F   UNL     1       6.138  18.785 -11.827  1.00  0.00    -0.205 F 
ATOM     71  C   UNL     1       4.856  21.912 -10.416  1.00  0.00     0.022 A 
BRANCH  69  72
ATOM     72  S   UNL     1       4.464  21.105 -12.999  1.00  0.00     0.127 S 
ATOM     73  O   UNL     1       3.035  20.889 -12.777  1.00  0.00    -0.237 OA
ATOM     74  O   UNL     1       4.831  22.489 -13.300  1.00  0.00    -0.237 OA
ATOM     75  O   UNL     1       5.125  20.107 -13.828  1.00  0.00    -0.744 OA
ENDBRANCH  69  72
ENDBRANCH  51  65
BRANCH  52  76
ATOM     76  C   UNL     1      12.083  11.898  -7.116  1.00  0.00     0.023 A 
ATOM     77  C   UNL     1      13.303  12.062  -6.433  1.00  0.00     0.012 A 
ATOM     78  C   UNL     1      11.648  10.598  -7.442  1.00  0.00     0.148 A 
ATOM     79  C   UNL     1      14.089  10.956  -6.106  1.00  0.00     0.002 A 
ATOM     80  C   UNL     1      12.408   9.498  -7.063  1.00  0.00     0.091 A 
ATOM     81  F   UNL     1      10.490  10.463  -8.104  1.00  0.00    -0.205 F 
ATOM     82  C   UNL     1      13.637   9.675  -6.411  1.00  0.00     0.022 A 
BRANCH  80  83
ATOM     83  S   UNL     1      11.839   7.809  -7.291  1.00  0.00     0.127 S 
ATOM     84  O   UNL     1      12.738   7.329  -8.338  1.00  0.00    -0.237 OA
ATOM     85  O   UNL     1      12.070   7.230  -5.967  1.00  0.00    -0.237 OA
ATOM     86  O   UNL     1      10.434   7.913  -7.661  1.00  0.00    -0.744 OA
ENDBRANCH  80  83
ENDBRANCH  52  76
BRANCH  64  87
ATOM     87  C   UNL     1      13.023  17.336 -11.402  1.00  0.00     0.023 A 
ATOM     88  C   UNL     1      13.201  16.633 -12.609  1.00  0.00     0.012 A 
ATOM     89  C   UNL     1      13.835  18.455 -11.126  1.00  0.00     0.148 A 
ATOM     90  C   UNL     1      14.184  17.021 -13.518  1.00  0.00     0.002 A 
ATOM     91  C   UNL     1      14.781  18.865 -12.058  1.00  0.00     0.091 A 
ATOM     92  F   UNL     1      13.659  19.101  -9.964  1.00  0.00    -0.205 F 
ATOM     93  C   UNL     1      14.964  18.143 -13.249  1.00  0.00     0.022 A 
BRANCH  91  94
ATOM     94  S   UNL     1      15.769  20.350 -11.845  1.00  0.00     0.127 S 
ATOM     95  O   UNL     1      17.110  19.793 -11.668  1.00  0.00    -0.237 OA
ATOM     96  O   UNL     1      15.560  21.045 -13.115  1.00  0.00    -0.237 OA
ATOM     97  O   UNL     1      15.224  21.036 -10.681  1.00  0.00    -0.744 OA
ENDBRANCH  91  94
ENDBRANCH  64  87
ENDBRANCH  38  39
ENDBRANCH  30  33
ENDBRANCH  28  29
ENDBRANCH   1  28
TORSDOF 15
