REMARK SMILES [NH3+][C@]1(C(=O)NCCCNC(=O)c2ccc(-c3c4nc(c(-c5cccc(S(=O)(=O)[O-])c5F)c5ccc([nH]5)c(-c5cccc(S(=O)(=O)[O-])c5F)c5nc(c(-c6cccc(S(=O)(=O)[O-])c6F)c6ccc3[nH]6)C=C5)C=C4)cc2)CC[C@@H](Sc2cc3ccccc3[nH]2)C1
REMARK SMILES IDX 7 1 6 2 5 3 3 4 4 5 2 7 75 8 88 9 76 10 77 11 1 12 78 16
REMARK SMILES IDX 79 17 80 18 87 19 81 20 86 21 82 23 85 24 83 25 84 26 8 27
REMARK SMILES IDX 9 28 10 29 11 31 12 32 13 33 74 34 14 35 73 36 15 37 16 38
REMARK SMILES IDX 17 39 67 40 18 41 72 42 66 43 68 44 19 45 71 46 65 47 64 48
REMARK SMILES IDX 20 50 52 51 32 52 51 53 33 54 36 55 50 56 69 57 34 58 35 59
REMARK SMILES IDX 49 61 70 62 37 63 21 64 22 65 30 66 23 67 25 68 31 69 24 70
REMARK SMILES IDX 26 71 27 72 28 73 29 74 53 75 54 76 62 77 55 78 57 79 63 80
REMARK SMILES IDX 56 81 58 82 59 83 60 84 61 85 38 86 39 87 47 88 40 89 42 90
REMARK SMILES IDX 48 91 41 92 43 93 44 94 45 95 46 96
REMARK H PARENT 5 6 1 13 1 14 1 15 87 22 9 30 68 49 36 60
REMARK Flexibility Score: inf
ROOT
ATOM      1  C   UNL     1      -1.866   2.097  -0.643  1.00  0.00     0.042 C 
ENDROOT
BRANCH   1   2
ATOM      2  C   UNL     1      -1.078   1.110  -1.493  1.00  0.00     0.118 C 
BRANCH   2   3
ATOM      3  N   UNL     1       0.253   0.883  -0.968  1.00  0.00    -0.351 N 
ATOM      4  C   UNL     1       0.895  -0.157  -0.388  1.00  0.00     0.281 C 
ATOM      5  O   UNL     1       2.089   0.058  -0.131  1.00  0.00    -0.268 OA
ATOM      6  H   UNL     1       0.830   1.676  -1.055  1.00  0.00     0.163 HD
BRANCH   4   7
ATOM      7  C   UNL     1       0.260  -1.513  -0.011  1.00  0.00     0.175 C 
ATOM      8  C   UNL     1       1.167  -2.661  -0.485  1.00  0.00     0.080 C 
ATOM      9  C   UNL     1       0.282  -1.689   1.510  1.00  0.00     0.094 C 
ATOM     10  C   UNL     1       0.768  -3.837   0.394  1.00  0.00     0.022 C 
ATOM     11  C   UNL     1       0.400  -3.202   1.737  1.00  0.00     0.060 C 
BRANCH   7  12
ATOM     12  N   UNL     1      -1.108  -1.775  -0.480  1.00  0.00    -0.345 N 
ATOM     13  H   UNL     1      -1.405  -2.698  -0.164  1.00  0.00     0.345 HD
ATOM     14  H   UNL     1      -1.130  -1.741  -1.500  1.00  0.00     0.345 HD
ATOM     15  H   UNL     1      -1.738  -1.067  -0.103  1.00  0.00     0.345 HD
ENDBRANCH   7  12
BRANCH  11  16
ATOM     16  S   UNL     1       1.458  -3.462   3.167  1.00  0.00    -0.105 SA
BRANCH  16  17
ATOM     17  C   UNL     1       3.020  -3.967   2.608  1.00  0.00     0.073 A 
ATOM     18  C   UNL     1       4.256  -3.458   2.951  1.00  0.00     0.043 A 
ATOM     19  N   UNL     1       3.200  -5.307   2.377  1.00  0.00    -0.350 N 
ATOM     20  C   UNL     1       4.901  -4.566   3.592  1.00  0.00     0.001 A 
ATOM     21  C   UNL     1       4.182  -5.715   3.256  1.00  0.00     0.046 A 
ATOM     22  H   UNL     1       2.725  -5.864   1.718  1.00  0.00     0.167 HD
ATOM     23  C   UNL     1       5.907  -4.666   4.570  1.00  0.00     0.010 A 
ATOM     24  C   UNL     1       4.383  -6.958   3.854  1.00  0.00     0.027 A 
ATOM     25  C   UNL     1       6.059  -5.882   5.250  1.00  0.00     0.001 A 
ATOM     26  C   UNL     1       5.303  -7.003   4.902  1.00  0.00     0.002 A 
ENDBRANCH  16  17
ENDBRANCH  11  16
ENDBRANCH   4   7
ENDBRANCH   2   3
ENDBRANCH   1   2
BRANCH   1  27
ATOM     27  C   UNL     1      -1.293   3.510  -0.669  1.00  0.00     0.118 C 
BRANCH  27  28
ATOM     28  N   UNL     1      -1.210   4.050  -2.023  1.00  0.00    -0.352 N 
ATOM     29  C   UNL     1      -1.902   5.073  -2.619  1.00  0.00     0.251 C 
ATOM     30  H   UNL     1      -0.549   3.606  -2.603  1.00  0.00     0.163 HD
ATOM     31  O   UNL     1      -1.861   5.197  -3.839  1.00  0.00    -0.269 OA
BRANCH  29  32
ATOM     32  C   UNL     1      -2.691   6.019  -1.802  1.00  0.00     0.039 A 
ATOM     33  C   UNL     1      -3.923   6.468  -2.283  1.00  0.00     0.014 A 
ATOM     34  C   UNL     1      -2.202   6.490  -0.582  1.00  0.00     0.014 A 
ATOM     35  C   UNL     1      -4.691   7.341  -1.509  1.00  0.00     0.010 A 
ATOM     36  C   UNL     1      -3.006   7.285   0.227  1.00  0.00     0.010 A 
ATOM     37  C   UNL     1      -4.254   7.729  -0.232  1.00  0.00    -0.014 A 
BRANCH  37  38
ATOM     38  C   UNL     1      -5.086   8.594   0.643  1.00  0.00     0.031 A 
ATOM     39  C   UNL     1      -4.575   9.939   1.086  1.00  0.00     0.074 A 
ATOM     40  C   UNL     1      -6.262   8.129   1.109  1.00  0.00     0.049 A 
ATOM     41  N   UNL     1      -5.125  10.800   1.903  1.00  0.00    -0.248 NA
ATOM     42  C   UNL     1      -3.262  10.360   0.569  1.00  0.00     0.031 C 
ATOM     43  C   UNL     1      -6.829   6.810   0.814  1.00  0.00     0.029 A 
ATOM     44  N   UNL     1      -7.181   8.701   1.952  1.00  0.00    -0.354 N 
ATOM     45  C   UNL     1      -4.215  11.844   2.023  1.00  0.00     0.074 A 
ATOM     46  C   UNL     1      -3.060  11.492   1.228  1.00  0.00     0.031 C 
ATOM     47  C   UNL     1      -7.999   6.679   1.458  1.00  0.00     0.029 A 
ATOM     48  C   UNL     1      -8.251   7.885   2.239  1.00  0.00     0.049 A 
ATOM     49  H   UNL     1      -7.084   9.610   2.318  1.00  0.00     0.167 HD
ATOM     50  C   UNL     1      -4.341  13.005   2.708  1.00  0.00     0.034 A 
ATOM     51  C   UNL     1      -9.310   8.083   3.047  1.00  0.00     0.034 A 
ATOM     52  C   UNL     1      -5.509  13.370   3.464  1.00  0.00     0.049 A 
ATOM     53  C   UNL     1      -9.440   9.396   3.771  1.00  0.00     0.074 A 
ATOM     54  C   UNL     1      -5.768  14.556   4.127  1.00  0.00     0.029 A 
ATOM     55  N   UNL     1      -6.610  12.552   3.661  1.00  0.00    -0.354 N 
ATOM     56  N   UNL     1      -8.638  10.433   3.749  1.00  0.00    -0.248 NA
ATOM     57  C   UNL     1     -10.638   9.581   4.601  1.00  0.00     0.031 C 
ATOM     58  C   UNL     1      -7.017  14.446   4.746  1.00  0.00     0.029 A 
ATOM     59  C   UNL     1      -7.550  13.204   4.441  1.00  0.00     0.049 A 
ATOM     60  H   UNL     1      -6.710  11.642   3.300  1.00  0.00     0.167 HD
ATOM     61  C   UNL     1      -9.254  11.407   4.527  1.00  0.00     0.074 A 
ATOM     62  C   UNL     1     -10.505  10.842   4.988  1.00  0.00     0.031 C 
ATOM     63  C   UNL     1      -8.817  12.651   4.844  1.00  0.00     0.034 A 
BRANCH  50  64
ATOM     64  C   UNL     1      -3.208  13.996   2.626  1.00  0.00     0.023 A 
ATOM     65  C   UNL     1      -2.975  14.686   1.418  1.00  0.00     0.012 A 
ATOM     66  C   UNL     1      -2.418  14.293   3.753  1.00  0.00     0.148 A 
ATOM     67  C   UNL     1      -1.954  15.630   1.323  1.00  0.00     0.002 A 
ATOM     68  C   UNL     1      -1.432  15.269   3.664  1.00  0.00     0.091 A 
ATOM     69  F   UNL     1      -2.640  13.614   4.888  1.00  0.00    -0.205 F 
ATOM     70  C   UNL     1      -1.190  15.929   2.447  1.00  0.00     0.022 A 
BRANCH  68  71
ATOM     71  S   UNL     1      -0.447  15.788   5.074  1.00  0.00     0.127 S 
ATOM     72  O   UNL     1       0.875  15.279   4.714  1.00  0.00    -0.237 OA
ATOM     73  O   UNL     1      -0.576  17.244   5.019  1.00  0.00    -0.237 OA
ATOM     74  O   UNL     1      -1.058  15.167   6.242  1.00  0.00    -0.744 OA
ENDBRANCH  68  71
ENDBRANCH  50  64
BRANCH  51  75
ATOM     75  C   UNL     1     -10.368   7.039   3.166  1.00  0.00     0.023 A 
ATOM     76  C   UNL     1     -11.646   7.285   2.626  1.00  0.00     0.012 A 
ATOM     77  C   UNL     1     -10.115   5.805   3.795  1.00  0.00     0.148 A 
ATOM     78  C   UNL     1     -12.664   6.340   2.747  1.00  0.00     0.002 A 
ATOM     79  C   UNL     1     -11.117   4.844   3.861  1.00  0.00     0.091 A 
ATOM     80  F   UNL     1      -8.896   5.592   4.311  1.00  0.00    -0.205 F 
ATOM     81  C   UNL     1     -12.398   5.116   3.355  1.00  0.00     0.022 A 
BRANCH  79  82
ATOM     82  S   UNL     1     -10.826   3.193   4.506  1.00  0.00     0.127 S 
ATOM     83  O   UNL     1     -11.554   3.233   5.771  1.00  0.00    -0.237 OA
ATOM     84  O   UNL     1     -11.430   2.353   3.472  1.00  0.00    -0.237 OA
ATOM     85  O   UNL     1      -9.378   3.064   4.610  1.00  0.00    -0.744 OA
ENDBRANCH  79  82
ENDBRANCH  51  75
BRANCH  63  86
ATOM     86  C   UNL     1      -9.716  13.512   5.691  1.00  0.00     0.023 A 
ATOM     87  C   UNL     1      -9.888  13.218   7.059  1.00  0.00     0.012 A 
ATOM     88  C   UNL     1     -10.334  14.655   5.146  1.00  0.00     0.148 A 
ATOM     89  C   UNL     1     -10.691  14.028   7.861  1.00  0.00     0.002 A 
ATOM     90  C   UNL     1     -11.089  15.486   5.963  1.00  0.00     0.091 A 
ATOM     91  F   UNL     1     -10.172  14.907   3.838  1.00  0.00    -0.205 F 
ATOM     92  C   UNL     1     -11.280  15.167   7.317  1.00  0.00     0.022 A 
BRANCH  90  93
ATOM     93  S   UNL     1     -11.804  17.025   5.374  1.00  0.00     0.127 S 
ATOM     94  O   UNL     1     -13.227  16.694   5.327  1.00  0.00    -0.237 OA
ATOM     95  O   UNL     1     -11.430  17.965   6.431  1.00  0.00    -0.237 OA
ATOM     96  O   UNL     1     -11.182  17.289   4.083  1.00  0.00    -0.744 OA
ENDBRANCH  90  93
ENDBRANCH  63  86
ENDBRANCH  37  38
ENDBRANCH  29  32
ENDBRANCH  27  28
ENDBRANCH   1  27
TORSDOF 16
