REMARK SMILES Cc1cc(C(=O)NCCCNC(=O)c2ccc(-c3c4nc(c(-c5cccc(S(=O)(=O)[O-])c5F)c5ccc([nH]5)c(-c5cccc(S(=O)(=O)[O-])c5F)c5nc(c(-c6cccc(S(=O)(=O)[O-])c6F)c6ccc3[nH]6)C=C5)C=C4)cc2)ccc1NS(=O)(=O)c1c(F)cccc1F
REMARK SMILES IDX 9 1 8 2 7 3 5 4 6 5 4 7 1 8 2 9 3 10 79 11 78 12 77 13 80 14
REMARK SMILES IDX 81 16 82 17 83 18 84 19 85 20 90 21 86 22 87 23 89 24 91 25
REMARK SMILES IDX 88 26 10 27 11 28 12 29 13 31 14 32 15 33 76 34 16 35 75 36
REMARK SMILES IDX 17 37 18 38 19 39 69 40 20 41 74 42 68 43 70 44 21 45 73 46
REMARK SMILES IDX 67 47 66 48 22 50 54 51 34 52 53 53 35 54 38 55 52 56 71 57
REMARK SMILES IDX 36 58 37 59 51 61 72 62 39 63 23 64 24 65 32 66 25 67 27 68
REMARK SMILES IDX 33 69 26 70 28 71 29 72 30 73 31 74 55 75 56 76 64 77 57 78
REMARK SMILES IDX 59 79 65 80 58 81 60 82 61 83 62 84 63 85 40 86 41 87 49 88
REMARK SMILES IDX 42 89 44 90 50 91 43 92 45 93 46 94 47 95 48 96
REMARK H PARENT 7 6 80 15 11 30 70 49 38 60
REMARK Flexibility Score: inf
ROOT
ATOM      1  C   UNL     1      -4.454  -0.777  -0.572  1.00  0.00     0.042 C 
ENDROOT
BRANCH   1   2
ATOM      2  C   UNL     1      -4.162  -1.766   0.558  1.00  0.00     0.118 C 
BRANCH   2   3
ATOM      3  N   UNL     1      -3.025  -2.637   0.301  1.00  0.00    -0.352 N 
ATOM      4  C   UNL     1      -1.662  -2.471   0.312  1.00  0.00     0.251 C 
ATOM      5  O   UNL     1      -0.973  -3.468   0.087  1.00  0.00    -0.269 OA
ATOM      6  H   UNL     1      -3.294  -3.554   0.067  1.00  0.00     0.163 HD
BRANCH   4   7
ATOM      7  C   UNL     1      -0.960  -1.165   0.498  1.00  0.00     0.040 A 
ATOM      8  C   UNL     1       2.538   0.085  -0.352  1.00  0.00     0.046 C 
ATOM      9  C   UNL     1       1.079   0.124   0.016  1.00  0.00    -0.026 A 
ATOM     10  C   UNL     1       0.373  -1.093   0.056  1.00  0.00     0.019 A 
ATOM     11  C   UNL     1       0.403   1.302   0.356  1.00  0.00     0.052 A 
ATOM     12  C   UNL     1      -0.805   1.196   1.041  1.00  0.00     0.028 A 
ATOM     13  C   UNL     1      -1.496  -0.024   1.086  1.00  0.00     0.016 A 
BRANCH  11  14
ATOM     14  N   UNL     1       0.889   2.530  -0.185  1.00  0.00    -0.279 N 
ATOM     15  H   UNL     1       1.684   2.464  -0.763  1.00  0.00     0.180 HD
BRANCH  14  16
ATOM     16  S   UNL     1       0.276   4.068   0.043  1.00  0.00     0.267 S 
ATOM     17  O   UNL     1       0.480   4.375   1.443  1.00  0.00    -0.201 OA
ATOM     18  O   UNL     1       0.879   4.882  -0.994  1.00  0.00    -0.201 OA
BRANCH  16  19
ATOM     19  C   UNL     1      -1.450   4.070  -0.263  1.00  0.00     0.158 A 
ATOM     20  C   UNL     1      -2.232   4.971   0.452  1.00  0.00     0.146 A 
ATOM     21  C   UNL     1      -2.073   3.124  -1.065  1.00  0.00     0.146 A 
ATOM     22  F   UNL     1      -1.677   5.962   1.162  1.00  0.00    -0.205 F 
ATOM     23  C   UNL     1      -3.622   4.870   0.451  1.00  0.00     0.041 A 
ATOM     24  C   UNL     1      -3.465   2.998  -1.056  1.00  0.00     0.041 A 
ATOM     25  F   UNL     1      -1.368   2.277  -1.825  1.00  0.00    -0.205 F 
ATOM     26  C   UNL     1      -4.242   3.858  -0.279  1.00  0.00     0.006 A 
ENDBRANCH  16  19
ENDBRANCH  14  16
ENDBRANCH  11  14
ENDBRANCH   4   7
ENDBRANCH   2   3
ENDBRANCH   1   2
BRANCH   1  27
ATOM     27  C   UNL     1      -5.624  -1.218  -1.452  1.00  0.00     0.118 C 
BRANCH  27  28
ATOM     28  N   UNL     1      -6.791  -0.334  -1.383  1.00  0.00    -0.352 N 
ATOM     29  C   UNL     1      -8.029  -0.492  -1.990  1.00  0.00     0.251 C 
ATOM     30  H   UNL     1      -6.682   0.477  -0.835  1.00  0.00     0.163 HD
ATOM     31  O   UNL     1      -8.869   0.401  -1.917  1.00  0.00    -0.269 OA
BRANCH  29  32
ATOM     32  C   UNL     1      -8.336  -1.798  -2.613  1.00  0.00     0.039 A 
ATOM     33  C   UNL     1      -9.347  -2.564  -2.025  1.00  0.00     0.014 A 
ATOM     34  C   UNL     1      -7.396  -2.378  -3.461  1.00  0.00     0.014 A 
ATOM     35  C   UNL     1      -9.234  -3.949  -2.037  1.00  0.00     0.010 A 
ATOM     36  C   UNL     1      -7.235  -3.747  -3.405  1.00  0.00     0.010 A 
ATOM     37  C   UNL     1      -8.100  -4.515  -2.615  1.00  0.00    -0.014 A 
BRANCH  37  38
ATOM     38  C   UNL     1      -7.715  -5.904  -2.432  1.00  0.00     0.031 A 
ATOM     39  C   UNL     1      -8.204  -6.913  -3.379  1.00  0.00     0.074 A 
ATOM     40  C   UNL     1      -6.859  -6.254  -1.448  1.00  0.00     0.049 A 
ATOM     41  N   UNL     1      -8.217  -8.179  -3.145  1.00  0.00    -0.248 NA
ATOM     42  C   UNL     1      -8.783  -6.543  -4.660  1.00  0.00     0.031 C 
ATOM     43  C   UNL     1      -6.117  -7.502  -1.319  1.00  0.00     0.029 A 
ATOM     44  N   UNL     1      -6.680  -5.622  -0.215  1.00  0.00    -0.354 N 
ATOM     45  C   UNL     1      -8.521  -8.807  -4.331  1.00  0.00     0.074 A 
ATOM     46  C   UNL     1      -8.979  -7.747  -5.198  1.00  0.00     0.031 C 
ATOM     47  C   UNL     1      -5.806  -7.688  -0.028  1.00  0.00     0.029 A 
ATOM     48  C   UNL     1      -6.486  -6.653   0.728  1.00  0.00     0.049 A 
ATOM     49  H   UNL     1      -6.688  -4.653  -0.039  1.00  0.00     0.167 HD
ATOM     50  C   UNL     1      -8.186 -10.120  -4.475  1.00  0.00     0.034 A 
ATOM     51  C   UNL     1      -7.293  -6.853   1.813  1.00  0.00     0.034 A 
ATOM     52  C   UNL     1      -7.726 -10.693  -3.195  1.00  0.00     0.049 A 
ATOM     53  C   UNL     1      -7.912  -8.245   1.861  1.00  0.00     0.074 A 
ATOM     54  C   UNL     1      -6.483 -10.996  -2.658  1.00  0.00     0.029 A 
ATOM     55  N   UNL     1      -8.623 -10.779  -2.138  1.00  0.00    -0.354 N 
ATOM     56  N   UNL     1      -7.698  -9.195   0.993  1.00  0.00    -0.248 NA
ATOM     57  C   UNL     1      -8.937  -8.613   2.837  1.00  0.00     0.031 C 
ATOM     58  C   UNL     1      -6.644 -11.242  -1.262  1.00  0.00     0.029 A 
ATOM     59  C   UNL     1      -7.986 -11.114  -0.951  1.00  0.00     0.049 A 
ATOM     60  H   UNL     1      -9.591 -10.621  -2.220  1.00  0.00     0.167 HD
ATOM     61  C   UNL     1      -8.636 -10.190   1.156  1.00  0.00     0.074 A 
ATOM     62  C   UNL     1      -9.378  -9.777   2.337  1.00  0.00     0.031 C 
ATOM     63  C   UNL     1      -8.786 -11.226   0.266  1.00  0.00     0.034 A 
BRANCH  50  64
ATOM     64  C   UNL     1      -7.981 -10.813  -5.819  1.00  0.00     0.023 A 
ATOM     65  C   UNL     1      -7.198 -11.989  -5.827  1.00  0.00     0.012 A 
ATOM     66  C   UNL     1      -8.408 -10.361  -7.090  1.00  0.00     0.148 A 
ATOM     67  C   UNL     1      -6.772 -12.607  -7.011  1.00  0.00     0.002 A 
ATOM     68  C   UNL     1      -7.931 -10.931  -8.275  1.00  0.00     0.091 A 
ATOM     69  F   UNL     1      -9.357  -9.431  -7.186  1.00  0.00    -0.205 F 
ATOM     70  C   UNL     1      -7.105 -12.054  -8.238  1.00  0.00     0.022 A 
BRANCH  68  71
ATOM     71  S   UNL     1      -8.277 -10.222  -9.897  1.00  0.00     0.127 S 
ATOM     72  O   UNL     1      -6.932 -10.049 -10.449  1.00  0.00    -0.237 OA
ATOM     73  O   UNL     1      -9.066 -11.272 -10.538  1.00  0.00    -0.237 OA
ATOM     74  O   UNL     1      -8.984  -8.970  -9.655  1.00  0.00    -0.744 OA
ENDBRANCH  68  71
ENDBRANCH  50  64
BRANCH  51  75
ATOM     75  C   UNL     1      -7.978  -5.601   2.269  1.00  0.00     0.023 A 
ATOM     76  C   UNL     1      -7.154  -4.500   2.612  1.00  0.00     0.012 A 
ATOM     77  C   UNL     1      -9.326  -5.363   1.959  1.00  0.00     0.148 A 
ATOM     78  C   UNL     1      -7.612  -3.192   2.448  1.00  0.00     0.002 A 
ATOM     79  C   UNL     1      -9.780  -4.055   1.824  1.00  0.00     0.091 A 
ATOM     80  F   UNL     1     -10.136  -6.399   1.716  1.00  0.00    -0.205 F 
ATOM     81  C   UNL     1      -8.913  -2.970   2.007  1.00  0.00     0.022 A 
BRANCH  79  82
ATOM     82  S   UNL     1     -11.466  -3.751   1.287  1.00  0.00     0.127 S 
ATOM     83  O   UNL     1     -12.195  -3.844   2.547  1.00  0.00    -0.237 OA
ATOM     84  O   UNL     1     -11.383  -2.405   0.720  1.00  0.00    -0.237 OA
ATOM     85  O   UNL     1     -11.717  -4.795   0.304  1.00  0.00    -0.744 OA
ENDBRANCH  79  82
ENDBRANCH  51  75
BRANCH  63  86
ATOM     86  C   UNL     1      -9.760 -12.397   0.421  1.00  0.00     0.023 A 
ATOM     87  C   UNL     1     -10.349 -12.728   1.657  1.00  0.00     0.012 A 
ATOM     88  C   UNL     1     -10.063 -13.275  -0.658  1.00  0.00     0.148 A 
ATOM     89  C   UNL     1     -11.298 -13.750   1.789  1.00  0.00     0.002 A 
ATOM     90  C   UNL     1     -10.984 -14.312  -0.521  1.00  0.00     0.091 A 
ATOM     91  F   UNL     1      -9.414 -13.153  -1.821  1.00  0.00    -0.205 F 
ATOM     92  C   UNL     1     -11.632 -14.530   0.694  1.00  0.00     0.022 A 
BRANCH  90  93
ATOM     93  S   UNL     1     -11.368 -15.448  -1.863  1.00  0.00     0.127 S 
ATOM     94  O   UNL     1     -10.748 -16.684  -1.387  1.00  0.00    -0.237 OA
ATOM     95  O   UNL     1     -12.831 -15.455  -1.844  1.00  0.00    -0.237 OA
ATOM     96  O   UNL     1     -10.779 -14.876  -3.065  1.00  0.00    -0.744 OA
ENDBRANCH  90  93
ENDBRANCH  63  86
ENDBRANCH  37  38
ENDBRANCH  29  32
ENDBRANCH  27  28
ENDBRANCH   1  27
TORSDOF 16
