REMARK SMILES C=CCCC[C@@]1(C(=O)NCCCNC(=O)c2ccc(-c3c4nc(c(-c5cccc(S(=O)(=O)[O-])c5F)c5ccc([nH]5)c(-c5cccc(S(=O)(=O)[O-])c5F)c5nc(c(-c6cccc(S(=O)(=O)[O-])c6F)c6ccc3[nH]6)C=C5)C=C4)cc2)CCCN(C(=O)OC(C)(C)C)C1
REMARK SMILES IDX 10 1 9 2 7 3 8 4 6 6 79 7 90 8 80 9 82 10 81 11 5 12 4 13
REMARK SMILES IDX 3 14 2 15 1 16 83 17 84 18 85 19 86 20 87 21 88 22 89 23
REMARK SMILES IDX 11 24 12 25 13 26 14 27 15 29 16 30 17 31 78 32 18 33 77 34
REMARK SMILES IDX 19 35 20 36 21 37 71 38 22 39 76 40 70 41 72 42 23 43 75 44
REMARK SMILES IDX 69 45 68 46 24 48 56 49 36 50 55 51 37 52 40 53 54 54 73 55
REMARK SMILES IDX 38 56 39 57 53 59 74 60 41 61 25 62 26 63 34 64 27 65 29 66
REMARK SMILES IDX 35 67 28 68 30 69 31 70 32 71 33 72 57 73 58 74 66 75 59 76
REMARK SMILES IDX 61 77 67 78 60 79 62 80 63 81 64 82 65 83 42 84 43 85 51 86
REMARK SMILES IDX 44 87 46 88 52 89 45 90 47 91 48 92 49 93 50 94
REMARK H PARENT 9 5 13 28 72 47 40 58
REMARK Flexibility Score: inf
ROOT
ATOM      1  C   UNL     1      -2.727   0.088  -3.501  1.00  0.00     0.117 C 
ENDROOT
BRANCH   1   2
ATOM      2  N   UNL     1      -1.385  -0.396  -3.256  1.00  0.00    -0.355 N 
ATOM      3  C   UNL     1      -0.880  -1.659  -3.290  1.00  0.00     0.228 C 
ATOM      4  O   UNL     1       0.351  -1.716  -3.419  1.00  0.00    -0.274 OA
ATOM      5  H   UNL     1      -0.731   0.303  -3.028  1.00  0.00     0.163 HD
BRANCH   3   6
ATOM      6  C   UNL     1      -1.703  -2.952  -3.008  1.00  0.00     0.067 C 
ATOM      7  C   UNL     1      -0.804  -4.182  -3.424  1.00  0.00     0.020 C 
ATOM      8  C   UNL     1      -3.004  -3.123  -3.824  1.00  0.00     0.140 C 
ATOM      9  C   UNL     1      -0.593  -4.314  -4.938  1.00  0.00     0.023 C 
ATOM     10  N   UNL     1      -2.731  -3.176  -5.262  1.00  0.00    -0.307 N 
ATOM     11  C   UNL     1      -1.909  -4.289  -5.700  1.00  0.00     0.123 C 
BRANCH   6  12
ATOM     12  C   UNL     1      -1.835  -3.040  -1.447  1.00  0.00     0.019 C 
BRANCH  12  13
ATOM     13  C   UNL     1      -3.129  -2.627  -0.736  1.00  0.00     0.005 C 
BRANCH  13  14
ATOM     14  C   UNL     1      -4.341  -3.563  -0.859  1.00  0.00     0.027 C 
BRANCH  14  15
ATOM     15  C   UNL     1      -4.048  -5.026  -0.665  1.00  0.00    -0.035 C 
ATOM     16  C   UNL     1      -4.702  -5.819   0.193  1.00  0.00     0.004 C 
ENDBRANCH  14  15
ENDBRANCH  13  14
ENDBRANCH  12  13
ENDBRANCH   6  12
BRANCH  10  17
ATOM     17  C   UNL     1      -3.176  -2.168  -6.103  1.00  0.00     0.410 C 
ATOM     18  O   UNL     1      -4.021  -1.354  -5.777  1.00  0.00    -0.224 OA
BRANCH  17  19
ATOM     19  O   UNL     1      -2.506  -2.153  -7.285  1.00  0.00    -0.444 OA
BRANCH  19  20
ATOM     20  C   UNL     1      -2.453  -0.970  -8.134  1.00  0.00     0.106 C 
ATOM     21  C   UNL     1      -3.780  -0.219  -8.291  1.00  0.00     0.056 C 
ATOM     22  C   UNL     1      -1.358  -0.036  -7.604  1.00  0.00     0.056 C 
ATOM     23  C   UNL     1      -2.025  -1.501  -9.509  1.00  0.00     0.056 C 
ENDBRANCH  19  20
ENDBRANCH  17  19
ENDBRANCH  10  17
ENDBRANCH   3   6
ENDBRANCH   1   2
BRANCH   1  24
ATOM     24  C   UNL     1      -3.041   1.463  -2.947  1.00  0.00     0.042 C 
BRANCH  24  25
ATOM     25  C   UNL     1      -2.243   2.609  -3.550  1.00  0.00     0.118 C 
BRANCH  25  26
ATOM     26  N   UNL     1      -2.448   2.809  -4.982  1.00  0.00    -0.352 N 
ATOM     27  C   UNL     1      -2.830   3.927  -5.689  1.00  0.00     0.251 C 
ATOM     28  H   UNL     1      -2.287   2.010  -5.534  1.00  0.00     0.163 HD
ATOM     29  O   UNL     1      -2.978   3.853  -6.907  1.00  0.00    -0.269 OA
BRANCH  27  30
ATOM     30  C   UNL     1      -3.111   5.200  -4.988  1.00  0.00     0.039 A 
ATOM     31  C   UNL     1      -4.239   5.942  -5.356  1.00  0.00     0.014 A 
ATOM     32  C   UNL     1      -2.301   5.645  -3.944  1.00  0.00     0.014 A 
ATOM     33  C   UNL     1      -4.608   7.062  -4.606  1.00  0.00     0.010 A 
ATOM     34  C   UNL     1      -2.734   6.684  -3.130  1.00  0.00     0.010 A 
ATOM     35  C   UNL     1      -3.892   7.408  -3.449  1.00  0.00    -0.014 A 
BRANCH  35  36
ATOM     36  C   UNL     1      -4.335   8.504  -2.546  1.00  0.00     0.031 A 
ATOM     37  C   UNL     1      -3.414   9.660  -2.254  1.00  0.00     0.074 A 
ATOM     38  C   UNL     1      -5.514   8.402  -1.899  1.00  0.00     0.049 A 
ATOM     39  N   UNL     1      -3.576  10.653  -1.418  1.00  0.00    -0.248 NA
ATOM     40  C   UNL     1      -2.124   9.683  -2.965  1.00  0.00     0.031 C 
ATOM     41  C   UNL     1      -6.456   7.286  -2.022  1.00  0.00     0.029 A 
ATOM     42  N   UNL     1      -6.109   9.234  -0.983  1.00  0.00    -0.354 N 
ATOM     43  C   UNL     1      -2.397  11.387  -1.468  1.00  0.00     0.074 A 
ATOM     44  C   UNL     1      -1.511  10.703  -2.384  1.00  0.00     0.031 C 
ATOM     45  C   UNL     1      -7.511   7.508  -1.222  1.00  0.00     0.029 A 
ATOM     46  C   UNL     1      -7.309   8.761  -0.502  1.00  0.00     0.049 A 
ATOM     47  H   UNL     1      -5.715  10.090  -0.698  1.00  0.00     0.167 HD
ATOM     48  C   UNL     1      -2.088  12.544  -0.836  1.00  0.00     0.034 A 
ATOM     49  C   UNL     1      -8.147   9.272   0.421  1.00  0.00     0.034 A 
ATOM     50  C   UNL     1      -2.993  13.252   0.028  1.00  0.00     0.049 A 
ATOM     51  C   UNL     1      -7.808  10.590   1.064  1.00  0.00     0.074 A 
ATOM     52  C   UNL     1      -2.816  14.482   0.636  1.00  0.00     0.029 A 
ATOM     53  N   UNL     1      -4.244  12.792   0.409  1.00  0.00    -0.354 N 
ATOM     54  N   UNL     1      -6.756  11.351   0.879  1.00  0.00    -0.248 NA
ATOM     55  C   UNL     1      -8.786  11.138   2.014  1.00  0.00     0.031 C 
ATOM     56  C   UNL     1      -3.953  14.756   1.403  1.00  0.00     0.029 A 
ATOM     57  C   UNL     1      -4.848  13.710   1.250  1.00  0.00     0.049 A 
ATOM     58  H   UNL     1      -4.643  11.939   0.124  1.00  0.00     0.167 HD
ATOM     59  C   UNL     1      -6.963  12.483   1.659  1.00  0.00     0.074 A 
ATOM     60  C   UNL     1      -8.250  12.317   2.303  1.00  0.00     0.031 C 
ATOM     61  C   UNL     1      -6.154  13.556   1.839  1.00  0.00     0.034 A 
BRANCH  48  62
ATOM     62  C   UNL     1      -0.734  13.149  -1.104  1.00  0.00     0.023 A 
ATOM     63  C   UNL     1      -0.458  13.706  -2.370  1.00  0.00     0.012 A 
ATOM     64  C   UNL     1       0.246  13.214  -0.094  1.00  0.00     0.148 A 
ATOM     65  C   UNL     1       0.782  14.281  -2.641  1.00  0.00     0.002 A 
ATOM     66  C   UNL     1       1.464  13.833  -0.356  1.00  0.00     0.091 A 
ATOM     67  F   UNL     1      -0.024  12.662   1.097  1.00  0.00    -0.205 F 
ATOM     68  C   UNL     1       1.738  14.354  -1.632  1.00  0.00     0.022 A 
BRANCH  66  69
ATOM     69  S   UNL     1       2.730  14.052   0.898  1.00  0.00     0.127 S 
ATOM     70  O   UNL     1       3.761  13.120   0.443  1.00  0.00    -0.237 OA
ATOM     71  O   UNL     1       3.075  15.466   0.743  1.00  0.00    -0.237 OA
ATOM     72  O   UNL     1       2.101  13.717   2.168  1.00  0.00    -0.744 OA
ENDBRANCH  66  69
ENDBRANCH  48  62
BRANCH  49  73
ATOM     73  C   UNL     1      -9.425   8.572   0.740  1.00  0.00     0.023 A 
ATOM     74  C   UNL     1     -10.645   9.142   0.325  1.00  0.00     0.012 A 
ATOM     75  C   UNL     1      -9.441   7.340   1.422  1.00  0.00     0.148 A 
ATOM     76  C   UNL     1     -11.858   8.516   0.613  1.00  0.00     0.002 A 
ATOM     77  C   UNL     1     -10.649   6.694   1.657  1.00  0.00     0.091 A 
ATOM     78  F   UNL     1      -8.271   6.818   1.817  1.00  0.00    -0.205 F 
ATOM     79  C   UNL     1     -11.860   7.288   1.270  1.00  0.00     0.022 A 
BRANCH  77  80
ATOM     80  S   UNL     1     -10.740   5.051   2.379  1.00  0.00     0.127 S 
ATOM     81  O   UNL     1     -11.299   5.334   3.698  1.00  0.00    -0.237 OA
ATOM     82  O   UNL     1     -11.649   4.366   1.459  1.00  0.00    -0.237 OA
ATOM     83  O   UNL     1      -9.376   4.540   2.365  1.00  0.00    -0.744 OA
ENDBRANCH  77  80
ENDBRANCH  49  73
BRANCH  61  84
ATOM     84  C   UNL     1      -6.647  14.662   2.735  1.00  0.00     0.023 A 
ATOM     85  C   UNL     1      -6.690  14.468   4.130  1.00  0.00     0.012 A 
ATOM     86  C   UNL     1      -6.990  15.918   2.199  1.00  0.00     0.148 A 
ATOM     87  C   UNL     1      -7.098  15.499   4.975  1.00  0.00     0.002 A 
ATOM     88  C   UNL     1      -7.346  16.956   3.051  1.00  0.00     0.091 A 
ATOM     89  F   UNL     1      -6.959  16.076   0.868  1.00  0.00    -0.205 F 
ATOM     90  C   UNL     1      -7.413  16.745   4.437  1.00  0.00     0.022 A 
BRANCH  88  91
ATOM     91  S   UNL     1      -7.672  18.620   2.457  1.00  0.00     0.127 S 
ATOM     92  O   UNL     1      -9.122  18.715   2.618  1.00  0.00    -0.237 OA
ATOM     93  O   UNL     1      -6.899  19.440   3.390  1.00  0.00    -0.237 OA
ATOM     94  O   UNL     1      -7.192  18.657   1.082  1.00  0.00    -0.744 OA
ENDBRANCH  88  91
ENDBRANCH  61  84
ENDBRANCH  35  36
ENDBRANCH  27  30
ENDBRANCH  25  26
ENDBRANCH  24  25
ENDBRANCH   1  24
TORSDOF 20
