REMARK SMILES O=C(NCCCNC(=O)[C@@H](Cc1ccncc1)c1ccc(Cl)cc1)c1ccc(-c2c3nc(c(-c4cccc(S(=O)(=O)[O-])c4F)c4ccc([nH]4)c(-c4cccc(S(=O)(=O)[O-])c4F)c4nc(c(-c5cccc(S(=O)(=O)[O-])c5F)c5ccc2[nH]5)C=C4)C=C3)cc1
REMARK SMILES IDX 4 1 3 2 1 3 2 4 25 6 26 7 87 8 27 9 86 10 28 11 29 12 30 13
REMARK SMILES IDX 80 14 31 15 85 16 79 17 81 18 32 19 84 20 78 21 77 22 33 24
REMARK SMILES IDX 65 25 45 26 64 27 46 28 49 29 63 30 82 31 47 32 48 33 62 35
REMARK SMILES IDX 83 36 50 37 34 38 35 39 43 40 36 41 38 42 44 43 37 44 39 45
REMARK SMILES IDX 40 46 41 47 42 48 66 49 67 50 75 51 68 52 70 53 76 54 69 55
REMARK SMILES IDX 71 56 72 57 73 58 74 59 51 60 52 61 60 62 53 63 55 64 61 65
REMARK SMILES IDX 54 66 56 67 57 68 58 69 59 70 5 71 6 72 7 73 8 74 9 76 10 77
REMARK SMILES IDX 11 78 12 79 13 80 17 81 14 82 16 83 15 84 18 85 19 86 24 87
REMARK SMILES IDX 20 88 23 89 21 90 22 91
REMARK H PARENT 3 5 81 23 49 34 7 75
REMARK Flexibility Score: inf
ROOT
ATOM      1  C   UNL     1       3.995  -0.205  -1.848  1.00  0.00     0.118 C 
ENDROOT
BRANCH   1   2
ATOM      2  N   UNL     1       2.633   0.035  -1.399  1.00  0.00    -0.352 N 
ATOM      3  O   UNL     1       0.908   0.389  -0.028  1.00  0.00    -0.269 OA
ATOM      4  C   UNL     1       2.123   0.487  -0.203  1.00  0.00     0.251 C 
ATOM      5  H   UNL     1       1.947  -0.163  -2.077  1.00  0.00     0.163 HD
BRANCH   4   6
ATOM      6  C   UNL     1       2.979   1.047   0.877  1.00  0.00     0.039 A 
ATOM      7  C   UNL     1       4.149   1.752   0.614  1.00  0.00     0.014 A 
ATOM      8  C   UNL     1       2.550   0.938   2.207  1.00  0.00     0.014 A 
ATOM      9  C   UNL     1       4.970   2.182   1.653  1.00  0.00     0.010 A 
ATOM     10  C   UNL     1       3.306   1.498   3.249  1.00  0.00     0.010 A 
ATOM     11  C   UNL     1       4.545   2.099   2.986  1.00  0.00    -0.014 A 
BRANCH  11  12
ATOM     12  C   UNL     1       5.379   2.727   4.051  1.00  0.00     0.031 A 
ATOM     13  C   UNL     1       5.905   1.929   5.215  1.00  0.00     0.074 A 
ATOM     14  C   UNL     1       5.681   4.040   3.953  1.00  0.00     0.049 A 
ATOM     15  N   UNL     1       6.684   2.320   6.192  1.00  0.00    -0.248 NA
ATOM     16  C   UNL     1       5.497   0.519   5.308  1.00  0.00     0.031 C 
ATOM     17  C   UNL     1       5.189   4.943   2.907  1.00  0.00     0.029 A 
ATOM     18  N   UNL     1       6.483   4.845   4.724  1.00  0.00    -0.354 N 
ATOM     19  C   UNL     1       6.812   1.229   7.043  1.00  0.00     0.074 A 
ATOM     20  C   UNL     1       6.026   0.158   6.470  1.00  0.00     0.031 C 
ATOM     21  C   UNL     1       5.745   6.152   3.064  1.00  0.00     0.029 A 
ATOM     22  C   UNL     1       6.576   6.138   4.261  1.00  0.00     0.049 A 
ATOM     23  H   UNL     1       6.947   4.527   5.532  1.00  0.00     0.167 HD
ATOM     24  C   UNL     1       7.529   1.122   8.189  1.00  0.00     0.034 A 
ATOM     25  C   UNL     1       7.246   7.203   4.744  1.00  0.00     0.034 A 
ATOM     26  C   UNL     1       8.355   2.172   8.728  1.00  0.00     0.049 A 
ATOM     27  C   UNL     1       8.071   7.038   5.987  1.00  0.00     0.074 A 
ATOM     28  C   UNL     1       9.181   2.130   9.839  1.00  0.00     0.029 A 
ATOM     29  N   UNL     1       8.456   3.452   8.205  1.00  0.00    -0.354 N 
ATOM     30  N   UNL     1       8.281   5.959   6.700  1.00  0.00    -0.248 NA
ATOM     31  C   UNL     1       8.772   8.232   6.479  1.00  0.00     0.031 C 
ATOM     32  C   UNL     1       9.762   3.393  10.001  1.00  0.00     0.029 A 
ATOM     33  C   UNL     1       9.323   4.212   8.974  1.00  0.00     0.049 A 
ATOM     34  H   UNL     1       7.982   3.773   7.405  1.00  0.00     0.167 HD
ATOM     35  C   UNL     1       9.163   6.334   7.705  1.00  0.00     0.074 A 
ATOM     36  C   UNL     1       9.468   7.734   7.492  1.00  0.00     0.031 C 
ATOM     37  C   UNL     1       9.662   5.589   8.722  1.00  0.00     0.034 A 
BRANCH  24  38
ATOM     38  C   UNL     1       7.481  -0.190   8.931  1.00  0.00     0.023 A 
ATOM     39  C   UNL     1       8.139  -1.320   8.405  1.00  0.00     0.012 A 
ATOM     40  C   UNL     1       6.840  -0.287  10.183  1.00  0.00     0.148 A 
ATOM     41  C   UNL     1       8.130  -2.534   9.093  1.00  0.00     0.002 A 
ATOM     42  C   UNL     1       6.875  -1.487  10.885  1.00  0.00     0.091 A 
ATOM     43  F   UNL     1       6.204   0.792  10.662  1.00  0.00    -0.205 F 
ATOM     44  C   UNL     1       7.508  -2.614  10.336  1.00  0.00     0.022 A 
BRANCH  42  45
ATOM     45  S   UNL     1       6.176  -1.666  12.531  1.00  0.00     0.127 S 
ATOM     46  O   UNL     1       4.992  -2.482  12.263  1.00  0.00    -0.237 OA
ATOM     47  O   UNL     1       7.246  -2.364  13.246  1.00  0.00    -0.237 OA
ATOM     48  O   UNL     1       5.913  -0.315  13.005  1.00  0.00    -0.744 OA
ENDBRANCH  42  45
ENDBRANCH  24  38
BRANCH  25  49
ATOM     49  C   UNL     1       7.203   8.504   4.017  1.00  0.00     0.023 A 
ATOM     50  C   UNL     1       8.368   8.983   3.386  1.00  0.00     0.012 A 
ATOM     51  C   UNL     1       6.013   9.250   3.918  1.00  0.00     0.148 A 
ATOM     52  C   UNL     1       8.355  10.195   2.695  1.00  0.00     0.002 A 
ATOM     53  C   UNL     1       5.992  10.425   3.176  1.00  0.00     0.091 A 
ATOM     54  F   UNL     1       4.918   8.786   4.537  1.00  0.00    -0.205 F 
ATOM     55  C   UNL     1       7.166  10.910   2.580  1.00  0.00     0.022 A 
BRANCH  53  56
ATOM     56  S   UNL     1       4.475  11.332   2.857  1.00  0.00     0.127 S 
ATOM     57  O   UNL     1       4.657  12.520   3.685  1.00  0.00    -0.237 OA
ATOM     58  O   UNL     1       4.560  11.565   1.415  1.00  0.00    -0.237 OA
ATOM     59  O   UNL     1       3.394  10.439   3.255  1.00  0.00    -0.744 OA
ENDBRANCH  53  56
ENDBRANCH  25  49
BRANCH  37  60
ATOM     60  C   UNL     1      10.631   6.259   9.660  1.00  0.00     0.023 A 
ATOM     61  C   UNL     1      10.171   7.225  10.577  1.00  0.00     0.012 A 
ATOM     62  C   UNL     1      11.991   5.892   9.667  1.00  0.00     0.148 A 
ATOM     63  C   UNL     1      11.056   7.844  11.459  1.00  0.00     0.002 A 
ATOM     64  C   UNL     1      12.858   6.476  10.584  1.00  0.00     0.091 A 
ATOM     65  F   UNL     1      12.415   4.989   8.772  1.00  0.00    -0.205 F 
ATOM     66  C   UNL     1      12.395   7.462  11.470  1.00  0.00     0.022 A 
BRANCH  64  67
ATOM     67  S   UNL     1      14.575   5.968  10.729  1.00  0.00     0.127 S 
ATOM     68  O   UNL     1      15.270   7.085  10.087  1.00  0.00    -0.237 OA
ATOM     69  O   UNL     1      14.755   5.896  12.182  1.00  0.00    -0.237 OA
ATOM     70  O   UNL     1      14.674   4.691  10.047  1.00  0.00    -0.744 OA
ENDBRANCH  64  67
ENDBRANCH  37  60
ENDBRANCH  11  12
ENDBRANCH   4   6
ENDBRANCH   1   2
BRANCH   1  71
ATOM     71  C   UNL     1       4.541  -1.539  -1.360  1.00  0.00     0.042 C 
BRANCH  71  72
ATOM     72  C   UNL     1       4.183  -2.674  -2.308  1.00  0.00     0.117 C 
BRANCH  72  73
ATOM     73  N   UNL     1       5.047  -2.676  -3.480  1.00  0.00    -0.355 N 
ATOM     74  C   UNL     1       5.822  -3.646  -4.030  1.00  0.00     0.227 C 
ATOM     75  H   UNL     1       5.074  -1.818  -3.961  1.00  0.00     0.163 HD
ATOM     76  O   UNL     1       6.421  -3.334  -5.068  1.00  0.00    -0.274 OA
BRANCH  74  77
ATOM     77  C   UNL     1       6.016  -5.043  -3.434  1.00  0.00     0.113 C 
BRANCH  77  78
ATOM     78  C   UNL     1       7.013  -5.043  -2.241  1.00  0.00     0.054 C 
BRANCH  78  79
ATOM     79  C   UNL     1       6.571  -4.563  -0.878  1.00  0.00    -0.044 A 
ATOM     80  C   UNL     1       7.208  -3.471  -0.277  1.00  0.00     0.024 A 
ATOM     81  C   UNL     1       5.568  -5.210  -0.149  1.00  0.00     0.024 A 
ATOM     82  C   UNL     1       6.779  -3.042   0.972  1.00  0.00     0.111 A 
ATOM     83  C   UNL     1       5.199  -4.701   1.088  1.00  0.00     0.111 A 
ATOM     84  N   UNL     1       5.773  -3.623   1.656  1.00  0.00    -0.265 NA
ENDBRANCH  78  79
ENDBRANCH  77  78
BRANCH  77  85
ATOM     85  C   UNL     1       4.802  -5.968  -3.344  1.00  0.00    -0.035 A 
ATOM     86  C   UNL     1       3.489  -5.558  -3.614  1.00  0.00     0.006 A 
ATOM     87  C   UNL     1       5.004  -7.323  -3.016  1.00  0.00     0.006 A 
ATOM     88  C   UNL     1       2.406  -6.425  -3.436  1.00  0.00     0.021 A 
ATOM     89  C   UNL     1       3.928  -8.202  -2.864  1.00  0.00     0.021 A 
ATOM     90  C   UNL     1       2.630  -7.741  -3.049  1.00  0.00     0.041 A 
ATOM     91  Cl  UNL     1       1.299  -8.804  -2.814  1.00  0.00    -0.084 Cl
ENDBRANCH  77  85
ENDBRANCH  74  77
ENDBRANCH  72  73
ENDBRANCH  71  72
ENDBRANCH   1  71
TORSDOF 16
